MODEL 1
REMARK VINA RESULT:      -6.1      0.000      0.000
REMARK SMILES Cn1c(SCC(=O)Nc2cccc(C(=O)OCCOCCOCCOC(=O)c3ccc(-c4c5nc(c(-c6cc(S(=O)(=O)[O-])ccc6F)c6ccc([nH]6)c(-c6cc(S(=O)(=O)[O-])ccc6F)c6nc(c(-c7cc(S(=O)(=O)[O-])ccc7F)c7ccc4[nH]7)C=C6)C=C5)cc3)c2)nnc1[C@@H]1CCCN1C(=O)c1ccccc1Cl
REMARK SMILES IDX 18 1 17 2 16 3 14 4 15 5 13 6 9 7 10 8 91 9 11 10 12 11 8 12
REMARK SMILES IDX 6 13 7 14 5 16 4 17 3 18 1 19 2 20 94 21 92 22 93 23 95 24
REMARK SMILES IDX 96 25 99 26 97 27 98 28 100 29 101 30 102 31 103 32 107 33
REMARK SMILES IDX 104 34 106 35 108 36 105 37 19 38 20 39 21 40 22 41 23 42
REMARK SMILES IDX 24 43 25 44 26 45 27 46 28 47 29 48 90 49 30 50 89 51 31 52
REMARK SMILES IDX 32 53 33 54 83 55 34 56 88 57 82 58 84 59 35 60 87 61 81 62
REMARK SMILES IDX 80 63 36 65 68 66 48 67 67 68 49 69 52 70 66 71 85 72 50 73
REMARK SMILES IDX 51 74 65 76 86 77 53 78 37 79 38 80 46 81 39 82 45 83 47 84
REMARK SMILES IDX 44 85 40 86 41 87 42 88 43 89 69 90 70 91 78 92 71 93 77 94
REMARK SMILES IDX 79 95 76 96 72 97 73 98 74 99 75 100 54 101 55 102 63 103
REMARK SMILES IDX 56 104 62 105 64 106 61 107 57 108 58 109 59 110 60 111
REMARK H PARENT 8 15 84 64 52 75
REMARK Flexibility Score: inf
ROOT
ATOM      1  C   UNL A   1      46.166  38.047  28.357  1.00  0.00     0.202 C 
ENDROOT
BRANCH   1   2
ATOM      2  C   UNL A   1      44.791  37.624  27.815  1.00  0.00     0.261 C 
BRANCH   2   3
ATOM      3  O   UNL A   1      43.848  37.181  28.796  1.00  0.00    -0.460 OA
BRANCH   3   4
ATOM      4  C   UNL A   1      42.737  36.553  28.337  1.00  0.00     0.338 C 
ATOM      5  O   UNL A   1      42.239  36.672  27.231  1.00  0.00    -0.246 OA
BRANCH   4   6
ATOM      6  C   UNL A   1      42.223  35.604  29.361  1.00  0.00     0.062 A 
ATOM      7  C   UNL A   1      40.727  33.795  29.958  1.00  0.00     0.042 A 
ATOM      8  C   UNL A   1      41.328  33.706  31.210  1.00  0.00     0.026 A 
ATOM      9  C   UNL A   1      41.098  34.824  29.106  1.00  0.00     0.041 A 
ATOM     10  C   UNL A   1      42.396  34.550  31.525  1.00  0.00     0.003 A 
ATOM     11  C   UNL A   1      42.876  35.465  30.584  1.00  0.00     0.016 A 
BRANCH   7  12
ATOM     12  N   UNL A   1      39.792  32.823  29.587  1.00  0.00    -0.325 N 
ATOM     13  C   UNL A   1      38.426  32.893  29.598  1.00  0.00     0.234 C 
ATOM     14  O   UNL A   1      37.810  31.911  29.161  1.00  0.00    -0.274 OA
ATOM     15  H   UNL A   1      40.169  31.970  29.274  1.00  0.00     0.169 HD
BRANCH  13  16
ATOM     16  C   UNL A   1      37.674  34.172  29.904  1.00  0.00     0.178 C 
BRANCH  16  17
ATOM     17  S   UNL A   1      36.387  34.183  31.136  1.00  0.00    -0.076 SA
BRANCH  17  18
ATOM     18  C   UNL A   1      36.780  33.205  32.501  1.00  0.00     0.191 A 
ATOM     19  C   UNL A   1      38.700  34.440  33.567  1.00  0.00     0.154 C 
ATOM     20  N   UNL A   1      37.921  33.278  33.251  1.00  0.00    -0.307 N 
ATOM     21  C   UNL A   1      38.161  31.990  33.679  1.00  0.00     0.156 A 
ATOM     22  N   UNL A   1      36.230  32.024  32.685  1.00  0.00    -0.123 NA
ATOM     23  N   UNL A   1      37.086  31.266  33.438  1.00  0.00    -0.132 NA
BRANCH  21  24
ATOM     24  C   UNL A   1      39.423  31.454  34.250  1.00  0.00     0.154 C 
ATOM     25  C   UNL A   1      40.064  30.363  33.384  1.00  0.00     0.035 C 
ATOM     26  N   UNL A   1      39.306  30.849  35.586  1.00  0.00    -0.328 N 
ATOM     27  C   UNL A   1      40.900  29.560  34.370  1.00  0.00     0.024 C 
ATOM     28  C   UNL A   1      40.159  29.678  35.692  1.00  0.00     0.120 C 
BRANCH  26  29
ATOM     29  C   UNL A   1      38.786  31.376  36.765  1.00  0.00     0.255 C 
ATOM     30  O   UNL A   1      37.834  30.866  37.357  1.00  0.00    -0.269 OA
BRANCH  29  31
ATOM     31  C   UNL A   1      39.272  32.656  37.303  1.00  0.00     0.058 A 
ATOM     32  C   UNL A   1      40.495  32.715  37.979  1.00  0.00     0.015 A 
ATOM     33  C   UNL A   1      38.434  33.780  37.279  1.00  0.00     0.053 A 
ATOM     34  C   UNL A   1      40.914  33.922  38.550  1.00  0.00     0.001 A 
ATOM     35  C   UNL A   1      38.857  34.979  37.857  1.00  0.00     0.021 A 
ATOM     36  Cl  UNL A   1      36.870  33.759  36.538  1.00  0.00    -0.083 Cl
ATOM     37  C   UNL A   1      40.107  35.058  38.470  1.00  0.00     0.002 A 
ENDBRANCH  29  31
ENDBRANCH  26  29
ENDBRANCH  21  24
ENDBRANCH  17  18
ENDBRANCH  16  17
ENDBRANCH  13  16
ENDBRANCH   7  12
ENDBRANCH   4   6
ENDBRANCH   3   4
ENDBRANCH   2   3
ENDBRANCH   1   2
BRANCH   1  38
ATOM     38  O   UNL A   1      46.322  38.518  29.686  1.00  0.00    -0.376 OA
BRANCH  38  39
ATOM     39  C   UNL A   1      46.264  37.612  30.780  1.00  0.00     0.188 C 
BRANCH  39  40
ATOM     40  C   UNL A   1      45.523  38.005  32.074  1.00  0.00     0.188 C 
BRANCH  40  41
ATOM     41  O   UNL A   1      44.680  39.121  31.965  1.00  0.00    -0.376 OA
BRANCH  41  42
ATOM     42  C   UNL A   1      44.071  39.667  33.118  1.00  0.00     0.202 C 
BRANCH  42  43
ATOM     43  C   UNL A   1      43.204  38.890  34.134  1.00  0.00     0.261 C 
BRANCH  43  44
ATOM     44  O   UNL A   1      43.647  37.608  34.590  1.00  0.00    -0.460 OA
BRANCH  44  45
ATOM     45  C   UNL A   1      42.706  36.805  35.155  1.00  0.00     0.338 C 
ATOM     46  O   UNL A   1      41.629  37.143  35.593  1.00  0.00    -0.246 OA
BRANCH  45  47
ATOM     47  C   UNL A   1      43.122  35.397  34.946  1.00  0.00     0.060 A 
ATOM     48  C   UNL A   1      42.178  34.377  35.139  1.00  0.00     0.016 A 
ATOM     49  C   UNL A   1      44.424  35.085  34.553  1.00  0.00     0.016 A 
ATOM     50  C   UNL A   1      42.539  33.041  34.957  1.00  0.00     0.010 A 
ATOM     51  C   UNL A   1      44.792  33.743  34.398  1.00  0.00     0.010 A 
ATOM     52  C   UNL A   1      43.860  32.713  34.625  1.00  0.00    -0.014 A 
BRANCH  52  53
ATOM     53  C   UNL A   1      44.313  31.301  34.709  1.00  0.00     0.031 A 
ATOM     54  C   UNL A   1      44.153  30.426  33.495  1.00  0.00     0.074 A 
ATOM     55  C   UNL A   1      44.865  30.801  35.828  1.00  0.00     0.049 A 
ATOM     56  N   UNL A   1      44.405  29.153  33.343  1.00  0.00    -0.248 NA
ATOM     57  C   UNL A   1      43.621  31.087  32.295  1.00  0.00     0.031 C 
ATOM     58  C   UNL A   1      45.111  31.554  37.056  1.00  0.00     0.029 A 
ATOM     59  N   UNL A   1      45.304  29.532  36.115  1.00  0.00    -0.354 N 
ATOM     60  C   UNL A   1      44.056  28.855  32.030  1.00  0.00     0.074 A 
ATOM     61  C   UNL A   1      43.529  30.073  31.451  1.00  0.00     0.031 C 
ATOM     62  C   UNL A   1      45.637  30.725  37.975  1.00  0.00     0.029 A 
ATOM     63  C   UNL A   1      45.725  29.376  37.414  1.00  0.00     0.049 A 
ATOM     64  H   UNL A   1      45.315  28.803  35.454  1.00  0.00     0.167 HD
ATOM     65  C   UNL A   1      44.174  27.678  31.364  1.00  0.00     0.034 A 
ATOM     66  C   UNL A   1      46.103  28.269  38.086  1.00  0.00     0.034 A 
ATOM     67  C   UNL A   1      44.673  26.465  31.967  1.00  0.00     0.049 A 
ATOM     68  C   UNL A   1      46.135  26.943  37.362  1.00  0.00     0.074 A 
ATOM     69  C   UNL A   1      44.851  25.221  31.385  1.00  0.00     0.029 A 
ATOM     70  N   UNL A   1      45.052  26.334  33.299  1.00  0.00    -0.354 N 
ATOM     71  N   UNL A   1      45.825  26.672  36.114  1.00  0.00    -0.248 NA
ATOM     72  C   UNL A   1      46.576  25.777  38.138  1.00  0.00     0.031 C 
ATOM     73  C   UNL A   1      45.248  24.323  32.382  1.00  0.00     0.029 A 
ATOM     74  C   UNL A   1      45.415  25.021  33.568  1.00  0.00     0.049 A 
ATOM     75  H   UNL A   1      45.059  27.066  33.957  1.00  0.00     0.167 HD
ATOM     76  C   UNL A   1      46.053  25.307  35.951  1.00  0.00     0.074 A 
ATOM     77  C   UNL A   1      46.545  24.817  37.223  1.00  0.00     0.031 C 
ATOM     78  C   UNL A   1      45.879  24.532  34.848  1.00  0.00     0.034 A 
BRANCH  65  79
ATOM     79  C   UNL A   1      43.685  27.648  29.933  1.00  0.00     0.023 A 
ATOM     80  C   UNL A   1      44.575  27.727  28.846  1.00  0.00     0.031 A 
ATOM     81  C   UNL A   1      42.309  27.622  29.650  1.00  0.00     0.131 A 
ATOM     82  C   UNL A   1      44.079  27.890  27.544  1.00  0.00     0.055 A 
ATOM     83  C   UNL A   1      41.823  27.681  28.342  1.00  0.00     0.041 A 
ATOM     84  F   UNL A   1      41.406  27.571  30.642  1.00  0.00    -0.206 F 
ATOM     85  C   UNL A   1      42.709  27.840  27.281  1.00  0.00     0.022 A 
BRANCH  82  86
ATOM     86  S   UNL A   1      45.239  28.374  26.234  1.00  0.00     0.124 S 
ATOM     87  O   UNL A   1      46.503  27.858  26.755  1.00  0.00    -0.237 OA
ATOM     88  O   UNL A   1      44.702  27.686  25.067  1.00  0.00    -0.237 OA
ATOM     89  O   UNL A   1      45.135  29.831  26.205  1.00  0.00    -0.744 OA
ENDBRANCH  82  86
ENDBRANCH  65  79
BRANCH  66  90
ATOM     90  C   UNL A   1      46.428  28.355  39.539  1.00  0.00     0.023 A 
ATOM     91  C   UNL A   1      45.434  28.587  40.502  1.00  0.00     0.031 A 
ATOM     92  C   UNL A   1      47.756  28.214  39.982  1.00  0.00     0.131 A 
ATOM     93  C   UNL A   1      45.787  28.694  41.858  1.00  0.00     0.055 A 
ATOM     94  C   UNL A   1      48.095  28.273  41.334  1.00  0.00     0.041 A 
ATOM     95  F   UNL A   1      48.746  27.996  39.100  1.00  0.00    -0.206 F 
ATOM     96  C   UNL A   1      47.107  28.521  42.282  1.00  0.00     0.022 A 
BRANCH  93  97
ATOM     97  S   UNL A   1      44.499  29.117  43.064  1.00  0.00     0.124 S 
ATOM     98  O   UNL A   1      45.239  29.939  44.014  1.00  0.00    -0.237 OA
ATOM     99  O   UNL A   1      43.524  29.817  42.234  1.00  0.00    -0.237 OA
ATOM    100  O   UNL A   1      44.064  27.817  43.568  1.00  0.00    -0.744 OA
ENDBRANCH  93  97
ENDBRANCH  66  90
BRANCH  78 101
ATOM    101  C   UNL A   1      46.258  23.071  34.961  1.00  0.00     0.023 A 
ATOM    102  C   UNL A   1      47.581  22.629  34.778  1.00  0.00     0.031 A 
ATOM    103  C   UNL A   1      45.277  22.103  35.245  1.00  0.00     0.131 A 
ATOM    104  C   UNL A   1      47.873  21.256  34.817  1.00  0.00     0.055 A 
ATOM    105  C   UNL A   1      45.587  20.746  35.357  1.00  0.00     0.041 A 
ATOM    106  F   UNL A   1      43.995  22.461  35.423  1.00  0.00    -0.206 F 
ATOM    107  C   UNL A   1      46.889  20.314  35.126  1.00  0.00     0.022 A 
BRANCH 104 108
ATOM    108  S   UNL A   1      49.535  20.703  34.343  1.00  0.00     0.124 S 
ATOM    109  O   UNL A   1      50.294  21.949  34.397  1.00  0.00    -0.237 OA
ATOM    110  O   UNL A   1      49.845  19.722  35.378  1.00  0.00    -0.237 OA
ATOM    111  O   UNL A   1      49.345  20.151  33.003  1.00  0.00    -0.744 OA
ENDBRANCH 104 108
ENDBRANCH  78 101
ENDBRANCH  52  53
ENDBRANCH  45  47
ENDBRANCH  44  45
ENDBRANCH  43  44
ENDBRANCH  42  43
ENDBRANCH  41  42
ENDBRANCH  40  41
ENDBRANCH  39  40
ENDBRANCH  38  39
ENDBRANCH   1  38
TORSDOF 27
ENDMDL
MODEL 2
REMARK VINA RESULT:      -6.1      4.969      9.881
REMARK SMILES Cn1c(SCC(=O)Nc2cccc(C(=O)OCCOCCOCCOC(=O)c3ccc(-c4c5nc(c(-c6cc(S(=O)(=O)[O-])ccc6F)c6ccc([nH]6)c(-c6cc(S(=O)(=O)[O-])ccc6F)c6nc(c(-c7cc(S(=O)(=O)[O-])ccc7F)c7ccc4[nH]7)C=C6)C=C5)cc3)c2)nnc1[C@@H]1CCCN1C(=O)c1ccccc1Cl
REMARK SMILES IDX 18 1 17 2 16 3 14 4 15 5 13 6 9 7 10 8 91 9 11 10 12 11 8 12
REMARK SMILES IDX 6 13 7 14 5 16 4 17 3 18 1 19 2 20 94 21 92 22 93 23 95 24
REMARK SMILES IDX 96 25 99 26 97 27 98 28 100 29 101 30 102 31 103 32 107 33
REMARK SMILES IDX 104 34 106 35 108 36 105 37 19 38 20 39 21 40 22 41 23 42
REMARK SMILES IDX 24 43 25 44 26 45 27 46 28 47 29 48 90 49 30 50 89 51 31 52
REMARK SMILES IDX 32 53 33 54 83 55 34 56 88 57 82 58 84 59 35 60 87 61 81 62
REMARK SMILES IDX 80 63 36 65 68 66 48 67 67 68 49 69 52 70 66 71 85 72 50 73
REMARK SMILES IDX 51 74 65 76 86 77 53 78 37 79 38 80 46 81 39 82 45 83 47 84
REMARK SMILES IDX 44 85 40 86 41 87 42 88 43 89 69 90 70 91 78 92 71 93 77 94
REMARK SMILES IDX 79 95 76 96 72 97 73 98 74 99 75 100 54 101 55 102 63 103
REMARK SMILES IDX 56 104 62 105 64 106 61 107 57 108 58 109 59 110 60 111
REMARK H PARENT 8 15 84 64 52 75
REMARK Flexibility Score: inf
ROOT
ATOM      1  C   UNL A   1      40.470  31.451  35.970  1.00  0.00     0.202 C 
ENDROOT
BRANCH   1   2
ATOM      2  C   UNL A   1      41.697  30.611  36.363  1.00  0.00     0.261 C 
BRANCH   2   3
ATOM      3  O   UNL A   1      41.442  29.227  36.624  1.00  0.00    -0.460 OA
BRANCH   3   4
ATOM      4  C   UNL A   1      41.392  28.402  35.550  1.00  0.00     0.338 C 
ATOM      5  O   UNL A   1      40.962  28.673  34.443  1.00  0.00    -0.246 OA
BRANCH   4   6
ATOM      6  C   UNL A   1      42.023  27.094  35.877  1.00  0.00     0.062 A 
ATOM      7  C   UNL A   1      43.392  25.756  37.362  1.00  0.00     0.042 A 
ATOM      8  C   UNL A   1      43.108  24.622  36.608  1.00  0.00     0.026 A 
ATOM      9  C   UNL A   1      42.950  26.991  36.910  1.00  0.00     0.041 A 
ATOM     10  C   UNL A   1      42.258  24.721  35.503  1.00  0.00     0.003 A 
ATOM     11  C   UNL A   1      41.676  25.947  35.166  1.00  0.00     0.016 A 
BRANCH   7  12
ATOM     12  N   UNL A   1      44.085  25.610  38.567  1.00  0.00    -0.325 N 
ATOM     13  C   UNL A   1      45.382  25.930  38.861  1.00  0.00     0.234 C 
ATOM     14  O   UNL A   1      45.751  25.760  40.031  1.00  0.00    -0.274 OA
ATOM     15  H   UNL A   1      43.567  25.222  39.310  1.00  0.00     0.169 HD
BRANCH  13  16
ATOM     16  C   UNL A   1      46.280  26.673  37.893  1.00  0.00     0.178 C 
BRANCH  16  17
ATOM     17  S   UNL A   1      47.982  26.990  38.315  1.00  0.00    -0.076 SA
BRANCH  17  18
ATOM     18  C   UNL A   1      49.075  26.025  37.395  1.00  0.00     0.191 A 
ATOM     19  C   UNL A   1      50.956  25.575  39.010  1.00  0.00     0.154 C 
ATOM     20  N   UNL A   1      50.376  25.746  37.710  1.00  0.00    -0.307 N 
ATOM     21  C   UNL A   1      51.029  25.629  36.502  1.00  0.00     0.156 A 
ATOM     22  N   UNL A   1      48.901  25.824  36.106  1.00  0.00    -0.123 NA
ATOM     23  N   UNL A   1      50.123  25.559  35.546  1.00  0.00    -0.132 NA
BRANCH  21  24
ATOM     24  C   UNL A   1      52.495  25.649  36.267  1.00  0.00     0.154 C 
ATOM     25  C   UNL A   1      52.949  26.802  35.362  1.00  0.00     0.035 C 
ATOM     26  N   UNL A   1      53.051  24.441  35.638  1.00  0.00    -0.328 N 
ATOM     27  C   UNL A   1      54.257  26.304  34.766  1.00  0.00     0.024 C 
ATOM     28  C   UNL A   1      54.100  24.793  34.696  1.00  0.00     0.120 C 
BRANCH  26  29
ATOM     29  C   UNL A   1      52.949  23.106  36.019  1.00  0.00     0.255 C 
ATOM     30  O   UNL A   1      53.597  22.630  36.952  1.00  0.00    -0.269 OA
BRANCH  29  31
ATOM     31  C   UNL A   1      52.146  22.153  35.237  1.00  0.00     0.058 A 
ATOM     32  C   UNL A   1      52.554  21.777  33.954  1.00  0.00     0.015 A 
ATOM     33  C   UNL A   1      50.891  21.750  35.716  1.00  0.00     0.053 A 
ATOM     34  C   UNL A   1      51.746  20.927  33.191  1.00  0.00     0.001 A 
ATOM     35  C   UNL A   1      50.088  20.907  34.944  1.00  0.00     0.021 A 
ATOM     36  Cl  UNL A   1      50.279  22.246  37.257  1.00  0.00    -0.083 Cl
ATOM     37  C   UNL A   1      50.526  20.474  33.693  1.00  0.00     0.002 A 
ENDBRANCH  29  31
ENDBRANCH  26  29
ENDBRANCH  21  24
ENDBRANCH  17  18
ENDBRANCH  16  17
ENDBRANCH  13  16
ENDBRANCH   7  12
ENDBRANCH   4   6
ENDBRANCH   3   4
ENDBRANCH   2   3
ENDBRANCH   1   2
BRANCH   1  38
ATOM     38  O   UNL A   1      39.153  31.023  36.278  1.00  0.00    -0.376 OA
BRANCH  38  39
ATOM     39  C   UNL A   1      38.135  31.067  35.288  1.00  0.00     0.188 C 
BRANCH  39  40
ATOM     40  C   UNL A   1      37.739  32.411  34.643  1.00  0.00     0.188 C 
BRANCH  40  41
ATOM     41  O   UNL A   1      36.371  32.568  34.379  1.00  0.00    -0.376 OA
BRANCH  41  42
ATOM     42  C   UNL A   1      35.941  33.119  33.150  1.00  0.00     0.202 C 
BRANCH  42  43
ATOM     43  C   UNL A   1      35.119  32.380  32.070  1.00  0.00     0.261 C 
BRANCH  43  44
ATOM     44  O   UNL A   1      35.724  31.299  31.353  1.00  0.00    -0.460 OA
BRANCH  44  45
ATOM     45  C   UNL A   1      36.494  31.635  30.284  1.00  0.00     0.338 C 
ATOM     46  O   UNL A   1      36.157  32.282  29.318  1.00  0.00    -0.246 OA
BRANCH  45  47
ATOM     47  C   UNL A   1      37.896  31.263  30.596  1.00  0.00     0.060 A 
ATOM     48  C   UNL A   1      38.937  31.968  29.975  1.00  0.00     0.016 A 
ATOM     49  C   UNL A   1      38.181  30.239  31.500  1.00  0.00     0.016 A 
ATOM     50  C   UNL A   1      40.267  31.639  30.243  1.00  0.00     0.010 A 
ATOM     51  C   UNL A   1      39.515  29.891  31.746  1.00  0.00     0.010 A 
ATOM     52  C   UNL A   1      40.563  30.571  31.099  1.00  0.00    -0.014 A 
BRANCH  52  53
ATOM     53  C   UNL A   1      41.950  30.040  31.162  1.00  0.00     0.031 A 
ATOM     54  C   UNL A   1      42.353  28.979  30.174  1.00  0.00     0.074 A 
ATOM     55  C   UNL A   1      42.839  30.491  32.063  1.00  0.00     0.049 A 
ATOM     56  N   UNL A   1      43.474  28.314  30.072  1.00  0.00    -0.248 NA
ATOM     57  C   UNL A   1      41.340  28.616  29.173  1.00  0.00     0.031 C 
ATOM     58  C   UNL A   1      42.584  31.541  33.047  1.00  0.00     0.029 A 
ATOM     59  N   UNL A   1      44.134  30.106  32.306  1.00  0.00    -0.354 N 
ATOM     60  C   UNL A   1      43.301  27.445  29.000  1.00  0.00     0.074 A 
ATOM     61  C   UNL A   1      41.948  27.639  28.521  1.00  0.00     0.031 C 
ATOM     62  C   UNL A   1      43.683  31.702  33.804  1.00  0.00     0.029 A 
ATOM     63  C   UNL A   1      44.702  30.738  33.387  1.00  0.00     0.049 A 
ATOM     64  H   UNL A   1      44.611  29.440  31.760  1.00  0.00     0.167 HD
ATOM     65  C   UNL A   1      44.189  26.575  28.457  1.00  0.00     0.034 A 
ATOM     66  C   UNL A   1      45.891  30.538  33.993  1.00  0.00     0.034 A 
ATOM     67  C   UNL A   1      45.524  26.373  28.968  1.00  0.00     0.049 A 
ATOM     68  C   UNL A   1      46.834  29.495  33.442  1.00  0.00     0.074 A 
ATOM     69  C   UNL A   1      46.513  25.531  28.490  1.00  0.00     0.029 A 
ATOM     70  N   UNL A   1      46.051  27.001  30.092  1.00  0.00    -0.354 N 
ATOM     71  N   UNL A   1      46.672  28.693  32.413  1.00  0.00    -0.248 NA
ATOM     72  C   UNL A   1      48.122  29.338  34.129  1.00  0.00     0.031 C 
ATOM     73  C   UNL A   1      47.598  25.583  29.371  1.00  0.00     0.029 A 
ATOM     74  C   UNL A   1      47.332  26.530  30.348  1.00  0.00     0.049 A 
ATOM     75  H   UNL A   1      45.583  27.681  30.628  1.00  0.00     0.167 HD
ATOM     76  C   UNL A   1      47.848  27.950  32.319  1.00  0.00     0.074 A 
ATOM     77  C   UNL A   1      48.715  28.415  33.384  1.00  0.00     0.031 C 
ATOM     78  C   UNL A   1      48.182  26.978  31.429  1.00  0.00     0.034 A 
BRANCH  65  79
ATOM     79  C   UNL A   1      43.704  25.736  27.296  1.00  0.00     0.023 A 
ATOM     80  C   UNL A   1      43.131  24.465  27.490  1.00  0.00     0.031 A 
ATOM     81  C   UNL A   1      43.888  26.174  25.974  1.00  0.00     0.131 A 
ATOM     82  C   UNL A   1      42.870  23.639  26.387  1.00  0.00     0.055 A 
ATOM     83  C   UNL A   1      43.529  25.387  24.877  1.00  0.00     0.041 A 
ATOM     84  F   UNL A   1      44.450  27.367  25.719  1.00  0.00    -0.206 F 
ATOM     85  C   UNL A   1      43.039  24.100  25.081  1.00  0.00     0.022 A 
BRANCH  82  86
ATOM     86  S   UNL A   1      42.503  21.887  26.691  1.00  0.00     0.124 S 
ATOM     87  O   UNL A   1      41.277  21.704  25.916  1.00  0.00    -0.237 OA
ATOM     88  O   UNL A   1      43.691  21.221  26.172  1.00  0.00    -0.237 OA
ATOM     89  O   UNL A   1      42.330  21.819  28.140  1.00  0.00    -0.744 OA
ENDBRANCH  82  86
ENDBRANCH  65  79
BRANCH  66  90
ATOM     90  C   UNL A   1      46.235  31.303  35.226  1.00  0.00     0.023 A 
ATOM     91  C   UNL A   1      45.837  30.866  36.499  1.00  0.00     0.031 A 
ATOM     92  C   UNL A   1      46.965  32.503  35.140  1.00  0.00     0.131 A 
ATOM     93  C   UNL A   1      46.152  31.634  37.632  1.00  0.00     0.055 A 
ATOM     94  C   UNL A   1      47.318  33.237  36.273  1.00  0.00     0.041 A 
ATOM     95  F   UNL A   1      47.365  32.970  33.946  1.00  0.00    -0.206 F 
ATOM     96  C   UNL A   1      46.905  32.806  37.529  1.00  0.00     0.022 A 
BRANCH  93  97
ATOM     97  S   UNL A   1      45.519  31.105  39.248  1.00  0.00     0.124 S 
ATOM     98  O   UNL A   1      46.732  30.624  39.900  1.00  0.00    -0.237 OA
ATOM     99  O   UNL A   1      44.958  32.345  39.775  1.00  0.00    -0.237 OA
ATOM    100  O   UNL A   1      44.540  30.075  38.911  1.00  0.00    -0.744 OA
ENDBRANCH  93  97
ENDBRANCH  66  90
BRANCH  78 101
ATOM    101  C   UNL A   1      49.565  26.374  31.550  1.00  0.00     0.023 A 
ATOM    102  C   UNL A   1      50.702  27.005  31.015  1.00  0.00     0.031 A 
ATOM    103  C   UNL A   1      49.745  25.140  32.202  1.00  0.00     0.131 A 
ATOM    104  C   UNL A   1      51.954  26.371  31.085  1.00  0.00     0.055 A 
ATOM    105  C   UNL A   1      51.004  24.550  32.334  1.00  0.00     0.041 A 
ATOM    106  F   UNL A   1      48.697  24.484  32.728  1.00  0.00    -0.206 F 
ATOM    107  C   UNL A   1      52.115  25.158  31.759  1.00  0.00     0.022 A 
BRANCH 104 108
ATOM    108  S   UNL A   1      53.350  27.095  30.180  1.00  0.00     0.124 S 
ATOM    109  O   UNL A   1      52.671  27.887  29.159  1.00  0.00    -0.237 OA
ATOM    110  O   UNL A   1      54.038  27.851  31.221  1.00  0.00    -0.237 OA
ATOM    111  O   UNL A   1      54.075  25.930  29.678  1.00  0.00    -0.744 OA
ENDBRANCH 104 108
ENDBRANCH  78 101
ENDBRANCH  52  53
ENDBRANCH  45  47
ENDBRANCH  44  45
ENDBRANCH  43  44
ENDBRANCH  42  43
ENDBRANCH  41  42
ENDBRANCH  40  41
ENDBRANCH  39  40
ENDBRANCH  38  39
ENDBRANCH   1  38
TORSDOF 27
ENDMDL
MODEL 3
REMARK VINA RESULT:      -5.9      6.435     12.833
REMARK SMILES Cn1c(SCC(=O)Nc2cccc(C(=O)OCCOCCOCCOC(=O)c3ccc(-c4c5nc(c(-c6cc(S(=O)(=O)[O-])ccc6F)c6ccc([nH]6)c(-c6cc(S(=O)(=O)[O-])ccc6F)c6nc(c(-c7cc(S(=O)(=O)[O-])ccc7F)c7ccc4[nH]7)C=C6)C=C5)cc3)c2)nnc1[C@@H]1CCCN1C(=O)c1ccccc1Cl
REMARK SMILES IDX 18 1 17 2 16 3 14 4 15 5 13 6 9 7 10 8 91 9 11 10 12 11 8 12
REMARK SMILES IDX 6 13 7 14 5 16 4 17 3 18 1 19 2 20 94 21 92 22 93 23 95 24
REMARK SMILES IDX 96 25 99 26 97 27 98 28 100 29 101 30 102 31 103 32 107 33
REMARK SMILES IDX 104 34 106 35 108 36 105 37 19 38 20 39 21 40 22 41 23 42
REMARK SMILES IDX 24 43 25 44 26 45 27 46 28 47 29 48 90 49 30 50 89 51 31 52
REMARK SMILES IDX 32 53 33 54 83 55 34 56 88 57 82 58 84 59 35 60 87 61 81 62
REMARK SMILES IDX 80 63 36 65 68 66 48 67 67 68 49 69 52 70 66 71 85 72 50 73
REMARK SMILES IDX 51 74 65 76 86 77 53 78 37 79 38 80 46 81 39 82 45 83 47 84
REMARK SMILES IDX 44 85 40 86 41 87 42 88 43 89 69 90 70 91 78 92 71 93 77 94
REMARK SMILES IDX 79 95 76 96 72 97 73 98 74 99 75 100 54 101 55 102 63 103
REMARK SMILES IDX 56 104 62 105 64 106 61 107 57 108 58 109 59 110 60 111
REMARK H PARENT 8 15 84 64 52 75
REMARK Flexibility Score: inf
ROOT
ATOM      1  C   UNL A   1      43.853  28.865  29.083  1.00  0.00     0.202 C 
ENDROOT
BRANCH   1   2
ATOM      2  C   UNL A   1      42.413  28.474  28.710  1.00  0.00     0.261 C 
BRANCH   2   3
ATOM      3  O   UNL A   1      41.657  29.479  28.026  1.00  0.00    -0.460 OA
BRANCH   3   4
ATOM      4  C   UNL A   1      40.417  29.129  27.604  1.00  0.00     0.338 C 
ATOM      5  O   UNL A   1      40.124  28.650  26.523  1.00  0.00    -0.246 OA
BRANCH   4   6
ATOM      6  C   UNL A   1      39.426  29.336  28.695  1.00  0.00     0.062 A 
ATOM      7  C   UNL A   1      38.100  30.851  30.042  1.00  0.00     0.042 A 
ATOM      8  C   UNL A   1      37.460  29.767  30.637  1.00  0.00     0.026 A 
ATOM      9  C   UNL A   1      39.158  30.614  29.178  1.00  0.00     0.041 A 
ATOM     10  C   UNL A   1      37.787  28.468  30.239  1.00  0.00     0.003 A 
ATOM     11  C   UNL A   1      38.734  28.253  29.233  1.00  0.00     0.016 A 
BRANCH   7  12
ATOM     12  N   UNL A   1      37.632  32.140  30.310  1.00  0.00    -0.325 N 
ATOM     13  C   UNL A   1      36.398  32.677  30.069  1.00  0.00     0.234 C 
ATOM     14  O   UNL A   1      36.205  33.838  30.456  1.00  0.00    -0.274 OA
ATOM     15  H   UNL A   1      38.282  32.747  30.733  1.00  0.00     0.169 HD
BRANCH  13  16
ATOM     16  C   UNL A   1      35.230  31.853  29.567  1.00  0.00     0.178 C 
BRANCH  16  17
ATOM     17  S   UNL A   1      34.491  32.216  27.987  1.00  0.00    -0.076 SA
BRANCH  17  18
ATOM     18  C   UNL A   1      33.597  30.881  27.360  1.00  0.00     0.191 A 
ATOM     19  C   UNL A   1      35.300  29.025  27.289  1.00  0.00     0.154 C 
ATOM     20  N   UNL A   1      34.117  29.716  26.867  1.00  0.00    -0.307 N 
ATOM     21  C   UNL A   1      33.241  29.313  25.883  1.00  0.00     0.156 A 
ATOM     22  N   UNL A   1      32.373  31.024  26.901  1.00  0.00    -0.123 NA
ATOM     23  N   UNL A   1      32.140  30.032  25.986  1.00  0.00    -0.132 NA
BRANCH  21  24
ATOM     24  C   UNL A   1      33.483  28.299  24.824  1.00  0.00     0.154 C 
ATOM     25  C   UNL A   1      33.268  28.841  23.406  1.00  0.00     0.035 C 
ATOM     26  N   UNL A   1      32.640  27.096  24.896  1.00  0.00    -0.328 N 
ATOM     27  C   UNL A   1      32.949  27.600  22.586  1.00  0.00     0.024 C 
ATOM     28  C   UNL A   1      32.265  26.656  23.563  1.00  0.00     0.120 C 
BRANCH  26  29
ATOM     29  C   UNL A   1      32.433  26.209  25.948  1.00  0.00     0.255 C 
ATOM     30  O   UNL A   1      31.698  26.470  26.901  1.00  0.00    -0.269 OA
BRANCH  29  31
ATOM     31  C   UNL A   1      33.190  24.950  26.039  1.00  0.00     0.058 A 
ATOM     32  C   UNL A   1      34.569  24.942  25.815  1.00  0.00     0.015 A 
ATOM     33  C   UNL A   1      32.500  23.738  26.191  1.00  0.00     0.053 A 
ATOM     34  C   UNL A   1      35.267  23.729  25.833  1.00  0.00     0.001 A 
ATOM     35  C   UNL A   1      33.204  22.532  26.200  1.00  0.00     0.021 A 
ATOM     36  Cl  UNL A   1      30.782  23.662  26.385  1.00  0.00    -0.083 Cl
ATOM     37  C   UNL A   1      34.589  22.528  26.047  1.00  0.00     0.002 A 
ENDBRANCH  29  31
ENDBRANCH  26  29
ENDBRANCH  21  24
ENDBRANCH  17  18
ENDBRANCH  16  17
ENDBRANCH  13  16
ENDBRANCH   7  12
ENDBRANCH   4   6
ENDBRANCH   3   4
ENDBRANCH   2   3
ENDBRANCH   1   2
BRANCH   1  38
ATOM     38  O   UNL A   1      44.287  28.884  30.433  1.00  0.00    -0.376 OA
BRANCH  38  39
ATOM     39  C   UNL A   1      44.328  27.681  31.190  1.00  0.00     0.188 C 
BRANCH  39  40
ATOM     40  C   UNL A   1      44.228  27.730  32.728  1.00  0.00     0.188 C 
BRANCH  40  41
ATOM     41  O   UNL A   1      43.323  28.671  33.239  1.00  0.00    -0.376 OA
BRANCH  41  42
ATOM     42  C   UNL A   1      41.931  28.482  33.078  1.00  0.00     0.202 C 
BRANCH  42  43
ATOM     43  C   UNL A   1      41.055  29.126  31.979  1.00  0.00     0.261 C 
BRANCH  43  44
ATOM     44  O   UNL A   1      40.719  30.513  32.082  1.00  0.00    -0.460 OA
BRANCH  44  45
ATOM     45  C   UNL A   1      41.721  31.401  31.835  1.00  0.00     0.338 C 
ATOM     46  O   UNL A   1      42.365  31.507  30.816  1.00  0.00    -0.246 OA
BRANCH  45  47
ATOM     47  C   UNL A   1      41.751  32.377  32.952  1.00  0.00     0.060 A 
ATOM     48  C   UNL A   1      42.737  32.242  33.941  1.00  0.00     0.016 A 
ATOM     49  C   UNL A   1      40.825  33.419  33.019  1.00  0.00     0.016 A 
ATOM     50  C   UNL A   1      42.789  33.140  35.008  1.00  0.00     0.010 A 
ATOM     51  C   UNL A   1      40.861  34.301  34.105  1.00  0.00     0.010 A 
ATOM     52  C   UNL A   1      41.826  34.151  35.118  1.00  0.00    -0.014 A 
BRANCH  52  53
ATOM     53  C   UNL A   1      41.706  34.920  36.384  1.00  0.00     0.031 A 
ATOM     54  C   UNL A   1      42.539  36.163  36.545  1.00  0.00     0.074 A 
ATOM     55  C   UNL A   1      40.871  34.540  37.366  1.00  0.00     0.049 A 
ATOM     56  N   UNL A   1      42.661  36.960  37.574  1.00  0.00    -0.248 NA
ATOM     57  C   UNL A   1      43.352  36.546  35.382  1.00  0.00     0.031 C 
ATOM     58  C   UNL A   1      39.985  33.380  37.317  1.00  0.00     0.029 A 
ATOM     59  N   UNL A   1      40.649  35.084  38.607  1.00  0.00    -0.354 N 
ATOM     60  C   UNL A   1      43.573  37.937  37.188  1.00  0.00     0.074 A 
ATOM     61  C   UNL A   1      44.004  37.598  35.847  1.00  0.00     0.031 C 
ATOM     62  C   UNL A   1      39.328  33.285  38.487  1.00  0.00     0.029 A 
ATOM     63  C   UNL A   1      39.780  34.352  39.381  1.00  0.00     0.049 A 
ATOM     64  H   UNL A   1      41.072  35.918  38.914  1.00  0.00     0.167 HD
ATOM     65  C   UNL A   1      44.004  39.021  37.881  1.00  0.00     0.034 A 
ATOM     66  C   UNL A   1      39.419  34.501  40.672  1.00  0.00     0.034 A 
ATOM     67  C   UNL A   1      43.586  39.326  39.229  1.00  0.00     0.049 A 
ATOM     68  C   UNL A   1      39.982  35.656  41.467  1.00  0.00     0.074 A 
ATOM     69  C   UNL A   1      43.944  40.404  40.021  1.00  0.00     0.029 A 
ATOM     70  N   UNL A   1      42.736  38.538  39.997  1.00  0.00    -0.354 N 
ATOM     71  N   UNL A   1      40.826  36.588  41.088  1.00  0.00    -0.248 NA
ATOM     72  C   UNL A   1      39.535  35.780  42.860  1.00  0.00     0.031 C 
ATOM     73  C   UNL A   1      43.386  40.220  41.290  1.00  0.00     0.029 A 
ATOM     74  C   UNL A   1      42.597  39.080  41.268  1.00  0.00     0.049 A 
ATOM     75  H   UNL A   1      42.297  37.714  39.686  1.00  0.00     0.167 HD
ATOM     76  C   UNL A   1      40.995  37.422  42.192  1.00  0.00     0.074 A 
ATOM     77  C   UNL A   1      40.149  36.891  43.243  1.00  0.00     0.031 C 
ATOM     78  C   UNL A   1      41.773  38.530  42.322  1.00  0.00     0.034 A 
BRANCH  65  79
ATOM     79  C   UNL A   1      45.027  39.905  37.203  1.00  0.00     0.023 A 
ATOM     80  C   UNL A   1      44.647  41.000  36.405  1.00  0.00     0.031 A 
ATOM     81  C   UNL A   1      46.397  39.604  37.288  1.00  0.00     0.131 A 
ATOM     82  C   UNL A   1      45.608  41.678  35.641  1.00  0.00     0.055 A 
ATOM     83  C   UNL A   1      47.361  40.348  36.605  1.00  0.00     0.041 A 
ATOM     84  F   UNL A   1      46.825  38.558  38.014  1.00  0.00    -0.206 F 
ATOM     85  C   UNL A   1      46.966  41.378  35.756  1.00  0.00     0.022 A 
BRANCH  82  86
ATOM     86  S   UNL A   1      45.035  42.813  34.346  1.00  0.00     0.124 S 
ATOM     87  O   UNL A   1      46.090  42.674  33.344  1.00  0.00    -0.237 OA
ATOM     88  O   UNL A   1      43.738  42.255  33.988  1.00  0.00    -0.237 OA
ATOM     89  O   UNL A   1      44.995  44.109  35.019  1.00  0.00    -0.744 OA
ENDBRANCH  82  86
ENDBRANCH  65  79
BRANCH  66  90
ATOM     90  C   UNL A   1      38.519  33.499  41.313  1.00  0.00     0.023 A 
ATOM     91  C   UNL A   1      37.122  33.612  41.241  1.00  0.00     0.031 A 
ATOM     92  C   UNL A   1      39.056  32.410  42.024  1.00  0.00     0.131 A 
ATOM     93  C   UNL A   1      36.310  32.665  41.887  1.00  0.00     0.055 A 
ATOM     94  C   UNL A   1      38.246  31.445  42.623  1.00  0.00     0.041 A 
ATOM     95  F   UNL A   1      40.387  32.259  42.130  1.00  0.00    -0.206 F 
ATOM     96  C   UNL A   1      36.862  31.573  42.562  1.00  0.00     0.022 A 
BRANCH  93  97
ATOM     97  S   UNL A   1      34.512  32.906  41.878  1.00  0.00     0.124 S 
ATOM     98  O   UNL A   1      34.050  31.734  42.612  1.00  0.00    -0.237 OA
ATOM     99  O   UNL A   1      34.374  34.187  42.563  1.00  0.00    -0.237 OA
ATOM    100  O   UNL A   1      34.177  32.925  40.456  1.00  0.00    -0.744 OA
ENDBRANCH  93  97
ENDBRANCH  66  90
BRANCH  78 101
ATOM    101  C   UNL A   1      41.717  39.264  43.644  1.00  0.00     0.023 A 
ATOM    102  C   UNL A   1      42.600  38.966  44.698  1.00  0.00     0.031 A 
ATOM    103  C   UNL A   1      40.757  40.270  43.857  1.00  0.00     0.131 A 
ATOM    104  C   UNL A   1      42.463  39.621  45.934  1.00  0.00     0.055 A 
ATOM    105  C   UNL A   1      40.673  40.969  45.063  1.00  0.00     0.041 A 
ATOM    106  F   UNL A   1      39.881  40.595  42.892  1.00  0.00    -0.206 F 
ATOM    107  C   UNL A   1      41.519  40.635  46.116  1.00  0.00     0.022 A 
BRANCH 104 108
ATOM    108  S   UNL A   1      43.457  39.048  47.339  1.00  0.00     0.124 S 
ATOM    109  O   UNL A   1      44.750  38.795  46.712  1.00  0.00    -0.237 OA
ATOM    110  O   UNL A   1      43.400  40.189  48.247  1.00  0.00    -0.237 OA
ATOM    111  O   UNL A   1      42.747  37.855  47.798  1.00  0.00    -0.744 OA
ENDBRANCH 104 108
ENDBRANCH  78 101
ENDBRANCH  52  53
ENDBRANCH  45  47
ENDBRANCH  44  45
ENDBRANCH  43  44
ENDBRANCH  42  43
ENDBRANCH  41  42
ENDBRANCH  40  41
ENDBRANCH  39  40
ENDBRANCH  38  39
ENDBRANCH   1  38
TORSDOF 27
ENDMDL
