MODEL 1
REMARK VINA RESULT:     -10.2      0.000      0.000
REMARK SMILES C[C@H](C(=O)OCCOCCOCCOC(=O)c1ccc(-c2c3nc(c(-c4cc(S(=O)(=O)[O-])ccc4F)c4ccc([nH]4)c(-c4cc(S(=O)(=O)[O-])ccc4F)c4nc(c(-c5cc(S(=O)(=O)[O-])ccc5F)c5ccc2[nH]5)C=C4)C=C3)cc1)N1C(=O)C[C@@H](N2C(=O)/C(=C/c3ccccc3)SC2=S)C1=O
REMARK SMILES IDX 9 1 8 2 7 3 6 4 5 5 3 6 4 7 2 8 1 9 80 10 81 11 99 12 82 13
REMARK SMILES IDX 83 14 84 15 100 16 85 17 86 18 97 19 87 20 88 21 96 22 98 23
REMARK SMILES IDX 89 24 90 25 91 26 95 27 92 28 94 29 93 30 10 31 11 32 12 33
REMARK SMILES IDX 13 34 14 35 15 36 16 37 17 38 18 39 79 40 19 41 78 42 20 43
REMARK SMILES IDX 21 44 22 45 72 46 23 47 77 48 71 49 73 50 24 51 76 52 70 53
REMARK SMILES IDX 69 54 25 56 57 57 37 58 56 59 38 60 41 61 55 62 74 63 39 64
REMARK SMILES IDX 40 65 54 67 75 68 42 69 26 70 27 71 35 72 28 73 34 74 36 75
REMARK SMILES IDX 33 76 29 77 30 78 31 79 32 80 58 81 59 82 67 83 60 84 66 85
REMARK SMILES IDX 68 86 65 87 61 88 62 89 63 90 64 91 43 92 44 93 52 94 45 95
REMARK SMILES IDX 51 96 53 97 50 98 46 99 47 100 48 101 49 102
REMARK H PARENT 73 55 41 66
REMARK Flexibility Score: inf
ROOT
ATOM      1  C   UNL A   1      33.598  33.510  27.964  1.00  0.00     0.188 C 
ENDROOT
BRANCH   1   2
ATOM      2  O   UNL A   1      34.886  32.902  27.985  1.00  0.00    -0.376 OA
BRANCH   2   3
ATOM      3  C   UNL A   1      34.943  31.487  27.793  1.00  0.00     0.202 C 
BRANCH   3   4
ATOM      4  C   UNL A   1      33.627  30.777  27.428  1.00  0.00     0.261 C 
BRANCH   4   5
ATOM      5  O   UNL A   1      33.752  29.816  26.356  1.00  0.00    -0.462 OA
BRANCH   5   6
ATOM      6  C   UNL A   1      32.600  29.205  25.976  1.00  0.00     0.329 C 
ATOM      7  O   UNL A   1      31.567  29.229  26.640  1.00  0.00    -0.250 OA
BRANCH   6   8
ATOM      8  C   UNL A   1      32.664  28.561  24.579  1.00  0.00     0.200 C 
ATOM      9  C   UNL A   1      34.009  28.196  23.973  1.00  0.00     0.044 C 
BRANCH   8  10
ATOM     10  N   UNL A   1      31.778  27.408  24.621  1.00  0.00    -0.267 N 
ATOM     11  C   UNL A   1      30.542  27.402  24.042  1.00  0.00     0.232 C 
ATOM     12  C   UNL A   1      32.069  26.241  25.261  1.00  0.00     0.253 C 
ATOM     13  O   UNL A   1      29.963  28.362  23.556  1.00  0.00    -0.274 OA
ATOM     14  C   UNL A   1      29.976  26.018  24.086  1.00  0.00     0.136 C 
ATOM     15  C   UNL A   1      30.950  25.259  24.976  1.00  0.00     0.191 C 
ATOM     16  O   UNL A   1      33.049  26.006  25.952  1.00  0.00    -0.272 OA
BRANCH  15  17
ATOM     17  N   UNL A   1      31.488  24.028  24.389  1.00  0.00    -0.280 N 
ATOM     18  C   UNL A   1      31.412  22.858  25.124  1.00  0.00     0.266 C 
ATOM     19  C   UNL A   1      32.169  23.950  23.196  1.00  0.00     0.149 C 
ATOM     20  O   UNL A   1      30.969  22.769  26.259  1.00  0.00    -0.268 OA
ATOM     21  C   UNL A   1      32.039  21.736  24.396  1.00  0.00     0.081 C 
ATOM     22  S   UNL A   1      32.689  22.293  22.910  1.00  0.00    -0.054 SA
ATOM     23  S   UNL A   1      32.567  25.196  22.160  1.00  0.00    -0.052 S 
ATOM     24  C   UNL A   1      32.094  20.511  24.935  1.00  0.00     0.029 C 
BRANCH  24  25
ATOM     25  C   UNL A   1      32.830  19.377  24.375  1.00  0.00    -0.024 A 
ATOM     26  C   UNL A   1      32.248  18.568  23.397  1.00  0.00     0.008 A 
ATOM     27  C   UNL A   1      34.115  19.079  24.847  1.00  0.00     0.008 A 
ATOM     28  C   UNL A   1      32.961  17.486  22.875  1.00  0.00     0.001 A 
ATOM     29  C   UNL A   1      34.826  18.002  24.322  1.00  0.00     0.001 A 
ATOM     30  C   UNL A   1      34.250  17.208  23.333  1.00  0.00     0.000 A 
ENDBRANCH  24  25
ENDBRANCH  15  17
ENDBRANCH   8  10
ENDBRANCH   6   8
ENDBRANCH   5   6
ENDBRANCH   4   5
ENDBRANCH   3   4
ENDBRANCH   2   3
ENDBRANCH   1   2
BRANCH   1  31
ATOM     31  C   UNL A   1      33.315  34.519  29.082  1.00  0.00     0.188 C 
BRANCH  31  32
ATOM     32  O   UNL A   1      34.437  34.817  29.900  1.00  0.00    -0.376 OA
BRANCH  32  33
ATOM     33  C   UNL A   1      34.289  34.730  31.315  1.00  0.00     0.202 C 
BRANCH  33  34
ATOM     34  C   UNL A   1      35.444  34.069  32.088  1.00  0.00     0.261 C 
BRANCH  34  35
ATOM     35  O   UNL A   1      36.412  33.363  31.284  1.00  0.00    -0.460 OA
BRANCH  35  36
ATOM     36  C   UNL A   1      36.494  32.015  31.423  1.00  0.00     0.338 C 
ATOM     37  O   UNL A   1      35.574  31.263  31.660  1.00  0.00    -0.246 OA
BRANCH  36  38
ATOM     38  C   UNL A   1      37.841  31.579  30.950  1.00  0.00     0.060 A 
ATOM     39  C   UNL A   1      38.820  31.305  31.917  1.00  0.00     0.016 A 
ATOM     40  C   UNL A   1      38.121  31.350  29.599  1.00  0.00     0.016 A 
ATOM     41  C   UNL A   1      40.086  30.850  31.534  1.00  0.00     0.010 A 
ATOM     42  C   UNL A   1      39.393  30.905  29.216  1.00  0.00     0.010 A 
ATOM     43  C   UNL A   1      40.396  30.687  30.179  1.00  0.00    -0.014 A 
BRANCH  43  44
ATOM     44  C   UNL A   1      41.814  30.516  29.756  1.00  0.00     0.031 A 
ATOM     45  C   UNL A   1      42.295  29.120  29.453  1.00  0.00     0.074 A 
ATOM     46  C   UNL A   1      42.654  31.558  29.604  1.00  0.00     0.049 A 
ATOM     47  N   UNL A   1      43.488  28.700  29.122  1.00  0.00    -0.248 NA
ATOM     48  C   UNL A   1      41.284  28.055  29.542  1.00  0.00     0.031 C 
ATOM     49  C   UNL A   1      42.307  32.963  29.803  1.00  0.00     0.029 A 
ATOM     50  N   UNL A   1      43.982  31.588  29.246  1.00  0.00    -0.354 N 
ATOM     51  C   UNL A   1      43.373  27.322  28.965  1.00  0.00     0.074 A 
ATOM     52  C   UNL A   1      42.004  26.977  29.283  1.00  0.00     0.031 C 
ATOM     53  C   UNL A   1      43.397  33.717  29.573  1.00  0.00     0.029 A 
ATOM     54  C   UNL A   1      44.532  32.850  29.252  1.00  0.00     0.049 A 
ATOM     55  H   UNL A   1      44.493  30.781  29.008  1.00  0.00     0.167 HD
ATOM     56  C   UNL A   1      44.315  26.427  28.580  1.00  0.00     0.034 A 
ATOM     57  C   UNL A   1      45.805  33.255  29.054  1.00  0.00     0.034 A 
ATOM     58  C   UNL A   1      45.682  26.776  28.279  1.00  0.00     0.049 A 
ATOM     59  C   UNL A   1      46.870  32.224  28.737  1.00  0.00     0.074 A 
ATOM     60  C   UNL A   1      46.714  25.945  27.880  1.00  0.00     0.029 A 
ATOM     61  N   UNL A   1      46.214  28.057  28.359  1.00  0.00    -0.354 N 
ATOM     62  N   UNL A   1      46.749  30.924  28.594  1.00  0.00    -0.248 NA
ATOM     63  C   UNL A   1      48.241  32.720  28.549  1.00  0.00     0.031 C 
ATOM     64  C   UNL A   1      47.885  26.704  27.802  1.00  0.00     0.029 A 
ATOM     65  C   UNL A   1      47.567  28.029  28.055  1.00  0.00     0.049 A 
ATOM     66  H   UNL A   1      45.706  28.865  28.596  1.00  0.00     0.167 HD
ATOM     67  C   UNL A   1      48.022  30.456  28.264  1.00  0.00     0.074 A 
ATOM     68  C   UNL A   1      48.889  31.613  28.217  1.00  0.00     0.031 C 
ATOM     69  C   UNL A   1      48.432  29.186  28.015  1.00  0.00     0.034 A 
BRANCH  56  70
ATOM     70  C   UNL A   1      43.905  24.975  28.521  1.00  0.00     0.023 A 
ATOM     71  C   UNL A   1      43.617  24.334  27.304  1.00  0.00     0.031 A 
ATOM     72  C   UNL A   1      43.770  24.229  29.706  1.00  0.00     0.131 A 
ATOM     73  C   UNL A   1      43.135  23.016  27.305  1.00  0.00     0.055 A 
ATOM     74  C   UNL A   1      43.376  22.891  29.693  1.00  0.00     0.041 A 
ATOM     75  F   UNL A   1      44.006  24.796  30.900  1.00  0.00    -0.206 F 
ATOM     76  C   UNL A   1      43.039  22.280  28.489  1.00  0.00     0.022 A 
BRANCH  73  77
ATOM     77  S   UNL A   1      42.484  22.331  25.756  1.00  0.00     0.124 S 
ATOM     78  O   UNL A   1      41.058  22.228  26.055  1.00  0.00    -0.237 OA
ATOM     79  O   UNL A   1      42.862  23.346  24.779  1.00  0.00    -0.237 OA
ATOM     80  O   UNL A   1      43.179  21.051  25.629  1.00  0.00    -0.744 OA
ENDBRANCH  73  77
ENDBRANCH  56  70
BRANCH  57  81
ATOM     81  C   UNL A   1      46.180  34.695  29.201  1.00  0.00     0.023 A 
ATOM     82  C   UNL A   1      46.151  35.578  28.108  1.00  0.00     0.031 A 
ATOM     83  C   UNL A   1      46.654  35.190  30.430  1.00  0.00     0.131 A 
ATOM     84  C   UNL A   1      46.634  36.890  28.253  1.00  0.00     0.055 A 
ATOM     85  C   UNL A   1      47.074  36.512  30.584  1.00  0.00     0.041 A 
ATOM     86  F   UNL A   1      46.719  34.388  31.506  1.00  0.00    -0.206 F 
ATOM     87  C   UNL A   1      47.079  37.367  29.488  1.00  0.00     0.022 A 
BRANCH  84  88
ATOM     88  S   UNL A   1      46.769  37.939  26.778  1.00  0.00     0.124 S 
ATOM     89  O   UNL A   1      45.410  38.455  26.657  1.00  0.00    -0.237 OA
ATOM     90  O   UNL A   1      47.788  38.901  27.181  1.00  0.00    -0.237 OA
ATOM     91  O   UNL A   1      47.177  37.004  25.732  1.00  0.00    -0.744 OA
ENDBRANCH  84  88
ENDBRANCH  57  81
BRANCH  69  92
ATOM     92  C   UNL A   1      49.876  28.983  27.610  1.00  0.00     0.023 A 
ATOM     93  C   UNL A   1      50.279  28.951  26.263  1.00  0.00     0.031 A 
ATOM     94  C   UNL A   1      50.868  28.820  28.596  1.00  0.00     0.131 A 
ATOM     95  C   UNL A   1      51.623  28.707  25.939  1.00  0.00     0.055 A 
ATOM     96  C   UNL A   1      52.213  28.645  28.268  1.00  0.00     0.041 A 
ATOM     97  F   UNL A   1      50.545  28.837  29.900  1.00  0.00    -0.206 F 
ATOM     98  C   UNL A   1      52.596  28.573  26.934  1.00  0.00     0.022 A 
BRANCH  95  99
ATOM     99  S   UNL A   1      52.072  28.463  24.197  1.00  0.00     0.124 S 
ATOM    100  O   UNL A   1      53.528  28.534  24.247  1.00  0.00    -0.237 OA
ATOM    101  O   UNL A   1      51.507  27.149  23.910  1.00  0.00    -0.237 OA
ATOM    102  O   UNL A   1      51.419  29.580  23.515  1.00  0.00    -0.744 OA
ENDBRANCH  95  99
ENDBRANCH  69  92
ENDBRANCH  43  44
ENDBRANCH  36  38
ENDBRANCH  35  36
ENDBRANCH  34  35
ENDBRANCH  33  34
ENDBRANCH  32  33
ENDBRANCH  31  32
ENDBRANCH   1  31
TORSDOF 23
ENDMDL
MODEL 2
REMARK VINA RESULT:     -10.0      4.621      7.717
REMARK SMILES C[C@H](C(=O)OCCOCCOCCOC(=O)c1ccc(-c2c3nc(c(-c4cc(S(=O)(=O)[O-])ccc4F)c4ccc([nH]4)c(-c4cc(S(=O)(=O)[O-])ccc4F)c4nc(c(-c5cc(S(=O)(=O)[O-])ccc5F)c5ccc2[nH]5)C=C4)C=C3)cc1)N1C(=O)C[C@@H](N2C(=O)/C(=C/c3ccccc3)SC2=S)C1=O
REMARK SMILES IDX 9 1 8 2 7 3 6 4 5 5 3 6 4 7 2 8 1 9 80 10 81 11 99 12 82 13
REMARK SMILES IDX 83 14 84 15 100 16 85 17 86 18 97 19 87 20 88 21 96 22 98 23
REMARK SMILES IDX 89 24 90 25 91 26 95 27 92 28 94 29 93 30 10 31 11 32 12 33
REMARK SMILES IDX 13 34 14 35 15 36 16 37 17 38 18 39 79 40 19 41 78 42 20 43
REMARK SMILES IDX 21 44 22 45 72 46 23 47 77 48 71 49 73 50 24 51 76 52 70 53
REMARK SMILES IDX 69 54 25 56 57 57 37 58 56 59 38 60 41 61 55 62 74 63 39 64
REMARK SMILES IDX 40 65 54 67 75 68 42 69 26 70 27 71 35 72 28 73 34 74 36 75
REMARK SMILES IDX 33 76 29 77 30 78 31 79 32 80 58 81 59 82 67 83 60 84 66 85
REMARK SMILES IDX 68 86 65 87 61 88 62 89 63 90 64 91 43 92 44 93 52 94 45 95
REMARK SMILES IDX 51 96 53 97 50 98 46 99 47 100 48 101 49 102
REMARK H PARENT 73 55 41 66
REMARK Flexibility Score: inf
ROOT
ATOM      1  C   UNL A   1      33.571  33.623  28.095  1.00  0.00     0.188 C 
ENDROOT
BRANCH   1   2
ATOM      2  O   UNL A   1      34.503  32.659  28.576  1.00  0.00    -0.376 OA
BRANCH   2   3
ATOM      3  C   UNL A   1      34.442  31.351  28.006  1.00  0.00     0.202 C 
BRANCH   3   4
ATOM      4  C   UNL A   1      33.115  30.937  27.345  1.00  0.00     0.261 C 
BRANCH   4   5
ATOM      5  O   UNL A   1      33.273  30.201  26.112  1.00  0.00    -0.462 OA
BRANCH   5   6
ATOM      6  C   UNL A   1      32.393  29.185  25.916  1.00  0.00     0.329 C 
ATOM      7  O   UNL A   1      31.524  28.873  26.724  1.00  0.00    -0.250 OA
BRANCH   6   8
ATOM      8  C   UNL A   1      32.510  28.514  24.535  1.00  0.00     0.200 C 
ATOM      9  C   UNL A   1      33.879  28.175  23.969  1.00  0.00     0.044 C 
BRANCH   8  10
ATOM     10  N   UNL A   1      31.654  27.338  24.580  1.00  0.00    -0.267 N 
ATOM     11  C   UNL A   1      30.427  27.292  23.985  1.00  0.00     0.232 C 
ATOM     12  C   UNL A   1      31.969  26.187  25.237  1.00  0.00     0.253 C 
ATOM     13  O   UNL A   1      29.829  28.230  23.480  1.00  0.00    -0.274 OA
ATOM     14  C   UNL A   1      29.897  25.894  24.039  1.00  0.00     0.136 C 
ATOM     15  C   UNL A   1      30.880  25.171  24.950  1.00  0.00     0.191 C 
ATOM     16  O   UNL A   1      32.946  25.987  25.944  1.00  0.00    -0.272 OA
BRANCH  15  17
ATOM     17  N   UNL A   1      31.459  23.949  24.385  1.00  0.00    -0.280 N 
ATOM     18  C   UNL A   1      31.411  22.787  25.137  1.00  0.00     0.266 C 
ATOM     19  C   UNL A   1      32.152  23.874  23.198  1.00  0.00     0.149 C 
ATOM     20  O   UNL A   1      30.962  22.702  26.270  1.00  0.00    -0.268 OA
ATOM     21  C   UNL A   1      32.077  21.674  24.430  1.00  0.00     0.081 C 
ATOM     22  S   UNL A   1      32.722  22.230  22.940  1.00  0.00    -0.054 SA
ATOM     23  S   UNL A   1      32.521  25.116  22.148  1.00  0.00    -0.052 S 
ATOM     24  C   UNL A   1      32.164  20.459  24.986  1.00  0.00     0.029 C 
BRANCH  24  25
ATOM     25  C   UNL A   1      32.937  19.340  24.449  1.00  0.00    -0.024 A 
ATOM     26  C   UNL A   1      32.336  18.403  23.606  1.00  0.00     0.008 A 
ATOM     27  C   UNL A   1      34.282  19.185  24.809  1.00  0.00     0.008 A 
ATOM     28  C   UNL A   1      33.085  17.337  23.103  1.00  0.00     0.001 A 
ATOM     29  C   UNL A   1      35.029  18.123  24.304  1.00  0.00     0.001 A 
ATOM     30  C   UNL A   1      34.431  17.201  23.448  1.00  0.00     0.000 A 
ENDBRANCH  24  25
ENDBRANCH  15  17
ENDBRANCH   8  10
ENDBRANCH   6   8
ENDBRANCH   5   6
ENDBRANCH   4   5
ENDBRANCH   3   4
ENDBRANCH   2   3
ENDBRANCH   1   2
BRANCH   1  31
ATOM     31  C   UNL A   1      33.193  34.738  29.075  1.00  0.00     0.188 C 
BRANCH  31  32
ATOM     32  O   UNL A   1      34.217  35.078  29.998  1.00  0.00    -0.376 OA
BRANCH  32  33
ATOM     33  C   UNL A   1      33.865  35.259  31.368  1.00  0.00     0.202 C 
BRANCH  33  34
ATOM     34  C   UNL A   1      34.849  34.700  32.410  1.00  0.00     0.261 C 
BRANCH  34  35
ATOM     35  O   UNL A   1      35.877  33.827  31.896  1.00  0.00    -0.460 OA
BRANCH  35  36
ATOM     36  C   UNL A   1      35.705  32.488  32.039  1.00  0.00     0.338 C 
ATOM     37  O   UNL A   1      34.676  31.874  31.858  1.00  0.00    -0.246 OA
BRANCH  36  38
ATOM     38  C   UNL A   1      37.053  31.858  32.169  1.00  0.00     0.060 A 
ATOM     39  C   UNL A   1      38.128  32.464  31.505  1.00  0.00     0.016 A 
ATOM     40  C   UNL A   1      37.284  30.754  32.996  1.00  0.00     0.016 A 
ATOM     41  C   UNL A   1      39.421  31.945  31.627  1.00  0.00     0.010 A 
ATOM     42  C   UNL A   1      38.578  30.227  33.109  1.00  0.00     0.010 A 
ATOM     43  C   UNL A   1      39.649  30.797  32.397  1.00  0.00    -0.014 A 
BRANCH  43  44
ATOM     44  C   UNL A   1      40.940  30.064  32.274  1.00  0.00     0.031 A 
ATOM     45  C   UNL A   1      42.020  30.367  33.281  1.00  0.00     0.074 A 
ATOM     46  C   UNL A   1      41.154  29.129  31.329  1.00  0.00     0.049 A 
ATOM     47  N   UNL A   1      43.242  29.911  33.359  1.00  0.00    -0.248 NA
ATOM     48  C   UNL A   1      41.665  31.323  34.342  1.00  0.00     0.031 C 
ATOM     49  C   UNL A   1      40.180  28.694  30.331  1.00  0.00     0.029 A 
ATOM     50  N   UNL A   1      42.273  28.377  31.055  1.00  0.00    -0.354 N 
ATOM     51  C   UNL A   1      43.803  30.523  34.475  1.00  0.00     0.074 A 
ATOM     52  C   UNL A   1      42.800  31.418  35.012  1.00  0.00     0.031 C 
ATOM     53  C   UNL A   1      40.747  27.757  29.548  1.00  0.00     0.029 A 
ATOM     54  C   UNL A   1      42.137  27.555  29.960  1.00  0.00     0.049 A 
ATOM     55  H   UNL A   1      43.096  28.422  31.594  1.00  0.00     0.167 HD
ATOM     56  C   UNL A   1      45.036  30.350  35.014  1.00  0.00     0.034 A 
ATOM     57  C   UNL A   1      43.036  26.758  29.342  1.00  0.00     0.034 A 
ATOM     58  C   UNL A   1      46.036  29.468  34.465  1.00  0.00     0.049 A 
ATOM     59  C   UNL A   1      44.445  26.665  29.892  1.00  0.00     0.074 A 
ATOM     60  C   UNL A   1      47.315  29.220  34.934  1.00  0.00     0.029 A 
ATOM     61  N   UNL A   1      45.881  28.700  33.318  1.00  0.00    -0.354 N 
ATOM     62  N   UNL A   1      44.964  27.252  30.946  1.00  0.00    -0.248 NA
ATOM     63  C   UNL A   1      45.386  25.797  29.169  1.00  0.00     0.031 C 
ATOM     64  C   UNL A   1      47.960  28.374  34.028  1.00  0.00     0.029 A 
ATOM     65  C   UNL A   1      47.054  28.012  33.044  1.00  0.00     0.049 A 
ATOM     66  H   UNL A   1      45.059  28.653  32.778  1.00  0.00     0.167 HD
ATOM     67  C   UNL A   1      46.280  26.792  31.030  1.00  0.00     0.074 A 
ATOM     68  C   UNL A   1      46.469  25.873  29.929  1.00  0.00     0.031 C 
ATOM     69  C   UNL A   1      47.240  27.098  31.940  1.00  0.00     0.034 A 
BRANCH  56  70
ATOM     70  C   UNL A   1      45.383  31.179  36.227  1.00  0.00     0.023 A 
ATOM     71  C   UNL A   1      45.111  30.734  37.532  1.00  0.00     0.031 A 
ATOM     72  C   UNL A   1      45.964  32.450  36.073  1.00  0.00     0.131 A 
ATOM     73  C   UNL A   1      45.350  31.582  38.624  1.00  0.00     0.055 A 
ATOM     74  C   UNL A   1      46.282  33.252  37.169  1.00  0.00     0.041 A 
ATOM     75  F   UNL A   1      46.222  32.939  34.849  1.00  0.00    -0.206 F 
ATOM     76  C   UNL A   1      45.960  32.827  38.454  1.00  0.00     0.022 A 
BRANCH  73  77
ATOM     77  S   UNL A   1      44.706  31.101  40.250  1.00  0.00     0.124 S 
ATOM     78  O   UNL A   1      43.302  31.488  40.139  1.00  0.00    -0.237 OA
ATOM     79  O   UNL A   1      44.975  29.669  40.285  1.00  0.00    -0.237 OA
ATOM     80  O   UNL A   1      45.494  31.908  41.182  1.00  0.00    -0.744 OA
ENDBRANCH  73  77
ENDBRANCH  56  70
BRANCH  57  81
ATOM     81  C   UNL A   1      42.670  26.016  28.096  1.00  0.00     0.023 A 
ATOM     82  C   UNL A   1      42.258  24.673  28.133  1.00  0.00     0.031 A 
ATOM     83  C   UNL A   1      42.808  26.625  26.834  1.00  0.00     0.131 A 
ATOM     84  C   UNL A   1      42.049  23.971  26.934  1.00  0.00     0.055 A 
ATOM     85  C   UNL A   1      42.538  25.940  25.648  1.00  0.00     0.041 A 
ATOM     86  F   UNL A   1      43.213  27.901  26.736  1.00  0.00    -0.206 F 
ATOM     87  C   UNL A   1      42.169  24.600  25.694  1.00  0.00     0.022 A 
BRANCH  84  88
ATOM     88  S   UNL A   1      41.714  22.188  27.013  1.00  0.00     0.124 S 
ATOM     89  O   UNL A   1      41.158  22.051  28.355  1.00  0.00    -0.237 OA
ATOM     90  O   UNL A   1      40.779  22.005  25.908  1.00  0.00    -0.237 OA
ATOM     91  O   UNL A   1      43.031  21.585  26.819  1.00  0.00    -0.744 OA
ENDBRANCH  84  88
ENDBRANCH  57  81
BRANCH  69  92
ATOM     92  C   UNL A   1      48.571  26.387  31.820  1.00  0.00     0.023 A 
ATOM     93  C   UNL A   1      48.854  25.205  32.526  1.00  0.00     0.031 A 
ATOM     94  C   UNL A   1      49.573  26.905  30.978  1.00  0.00     0.131 A 
ATOM     95  C   UNL A   1      50.123  24.613  32.422  1.00  0.00     0.055 A 
ATOM     96  C   UNL A   1      50.808  26.274  30.826  1.00  0.00     0.041 A 
ATOM     97  F   UNL A   1      49.364  28.033  30.280  1.00  0.00    -0.206 F 
ATOM     98  C   UNL A   1      51.095  25.129  31.560  1.00  0.00     0.022 A 
BRANCH  95  99
ATOM     99  S   UNL A   1      50.526  23.212  33.503  1.00  0.00     0.124 S 
ATOM    100  O   UNL A   1      51.309  22.360  32.616  1.00  0.00    -0.237 OA
ATOM    101  O   UNL A   1      51.265  23.856  34.585  1.00  0.00    -0.237 OA
ATOM    102  O   UNL A   1      49.217  22.681  33.880  1.00  0.00    -0.744 OA
ENDBRANCH  95  99
ENDBRANCH  69  92
ENDBRANCH  43  44
ENDBRANCH  36  38
ENDBRANCH  35  36
ENDBRANCH  34  35
ENDBRANCH  33  34
ENDBRANCH  32  33
ENDBRANCH  31  32
ENDBRANCH   1  31
TORSDOF 23
ENDMDL
MODEL 3
REMARK VINA RESULT:     -10.0      5.928     12.351
REMARK SMILES C[C@H](C(=O)OCCOCCOCCOC(=O)c1ccc(-c2c3nc(c(-c4cc(S(=O)(=O)[O-])ccc4F)c4ccc([nH]4)c(-c4cc(S(=O)(=O)[O-])ccc4F)c4nc(c(-c5cc(S(=O)(=O)[O-])ccc5F)c5ccc2[nH]5)C=C4)C=C3)cc1)N1C(=O)C[C@@H](N2C(=O)/C(=C/c3ccccc3)SC2=S)C1=O
REMARK SMILES IDX 9 1 8 2 7 3 6 4 5 5 3 6 4 7 2 8 1 9 80 10 81 11 99 12 82 13
REMARK SMILES IDX 83 14 84 15 100 16 85 17 86 18 97 19 87 20 88 21 96 22 98 23
REMARK SMILES IDX 89 24 90 25 91 26 95 27 92 28 94 29 93 30 10 31 11 32 12 33
REMARK SMILES IDX 13 34 14 35 15 36 16 37 17 38 18 39 79 40 19 41 78 42 20 43
REMARK SMILES IDX 21 44 22 45 72 46 23 47 77 48 71 49 73 50 24 51 76 52 70 53
REMARK SMILES IDX 69 54 25 56 57 57 37 58 56 59 38 60 41 61 55 62 74 63 39 64
REMARK SMILES IDX 40 65 54 67 75 68 42 69 26 70 27 71 35 72 28 73 34 74 36 75
REMARK SMILES IDX 33 76 29 77 30 78 31 79 32 80 58 81 59 82 67 83 60 84 66 85
REMARK SMILES IDX 68 86 65 87 61 88 62 89 63 90 64 91 43 92 44 93 52 94 45 95
REMARK SMILES IDX 51 96 53 97 50 98 46 99 47 100 48 101 49 102
REMARK H PARENT 73 55 41 66
REMARK Flexibility Score: inf
ROOT
ATOM      1  C   UNL A   1      46.199  30.059  27.963  1.00  0.00     0.188 C 
ENDROOT
BRANCH   1   2
ATOM      2  O   UNL A   1      44.872  29.566  27.812  1.00  0.00    -0.376 OA
BRANCH   2   3
ATOM      3  C   UNL A   1      44.545  28.354  28.494  1.00  0.00     0.202 C 
BRANCH   3   4
ATOM      4  C   UNL A   1      43.831  27.262  27.677  1.00  0.00     0.261 C 
BRANCH   4   5
ATOM      5  O   UNL A   1      44.704  26.218  27.195  1.00  0.00    -0.462 OA
BRANCH   5   6
ATOM      6  C   UNL A   1      44.201  25.441  26.200  1.00  0.00     0.329 C 
ATOM      7  O   UNL A   1      43.505  25.874  25.286  1.00  0.00    -0.250 OA
BRANCH   6   8
ATOM      8  C   UNL A   1      44.667  23.975  26.255  1.00  0.00     0.200 C 
ATOM      9  C   UNL A   1      46.010  23.627  26.874  1.00  0.00     0.044 C 
BRANCH   8  10
ATOM     10  N   UNL A   1      43.589  23.228  26.885  1.00  0.00    -0.267 N 
ATOM     11  C   UNL A   1      43.396  23.205  28.236  1.00  0.00     0.232 C 
ATOM     12  C   UNL A   1      42.692  22.460  26.208  1.00  0.00     0.253 C 
ATOM     13  O   UNL A   1      44.147  23.661  29.086  1.00  0.00    -0.274 OA
ATOM     14  C   UNL A   1      42.100  22.524  28.544  1.00  0.00     0.136 C 
ATOM     15  C   UNL A   1      41.669  21.946  27.203  1.00  0.00     0.191 C 
ATOM     16  O   UNL A   1      42.693  22.209  25.011  1.00  0.00    -0.272 OA
BRANCH  15  17
ATOM     17  N   UNL A   1      40.316  22.316  26.780  1.00  0.00    -0.280 N 
ATOM     18  C   UNL A   1      39.538  21.362  26.146  1.00  0.00     0.266 C 
ATOM     19  C   UNL A   1      39.776  23.579  26.863  1.00  0.00     0.149 C 
ATOM     20  O   UNL A   1      39.906  20.232  25.862  1.00  0.00    -0.268 OA
ATOM     21  C   UNL A   1      38.228  21.923  25.756  1.00  0.00     0.081 C 
ATOM     22  S   UNL A   1      38.152  23.582  26.184  1.00  0.00    -0.054 SA
ATOM     23  S   UNL A   1      40.507  24.971  27.421  1.00  0.00    -0.052 S 
ATOM     24  C   UNL A   1      37.324  21.175  25.111  1.00  0.00     0.029 C 
BRANCH  24  25
ATOM     25  C   UNL A   1      36.073  21.673  24.540  1.00  0.00    -0.024 A 
ATOM     26  C   UNL A   1      34.862  21.041  24.825  1.00  0.00     0.008 A 
ATOM     27  C   UNL A   1      36.092  22.773  23.671  1.00  0.00     0.008 A 
ATOM     28  C   UNL A   1      33.676  21.525  24.269  1.00  0.00     0.001 A 
ATOM     29  C   UNL A   1      34.908  23.257  23.121  1.00  0.00     0.001 A 
ATOM     30  C   UNL A   1      33.699  22.635  23.423  1.00  0.00     0.000 A 
ENDBRANCH  24  25
ENDBRANCH  15  17
ENDBRANCH   8  10
ENDBRANCH   6   8
ENDBRANCH   5   6
ENDBRANCH   4   5
ENDBRANCH   3   4
ENDBRANCH   2   3
ENDBRANCH   1   2
BRANCH   1  31
ATOM     31  C   UNL A   1      47.079  30.011  26.709  1.00  0.00     0.188 C 
BRANCH  31  32
ATOM     32  O   UNL A   1      47.337  31.280  26.126  1.00  0.00    -0.376 OA
BRANCH  32  33
ATOM     33  C   UNL A   1      47.822  32.327  26.963  1.00  0.00     0.202 C 
BRANCH  33  34
ATOM     34  C   UNL A   1      47.926  33.724  26.327  1.00  0.00     0.261 C 
BRANCH  34  35
ATOM     35  O   UNL A   1      46.917  34.673  26.732  1.00  0.00    -0.460 OA
BRANCH  35  36
ATOM     36  C   UNL A   1      45.668  34.533  26.217  1.00  0.00     0.338 C 
ATOM     37  O   UNL A   1      45.391  34.333  25.054  1.00  0.00    -0.246 OA
BRANCH  36  38
ATOM     38  C   UNL A   1      44.712  34.373  27.352  1.00  0.00     0.060 A 
ATOM     39  C   UNL A   1      44.255  35.534  27.994  1.00  0.00     0.016 A 
ATOM     40  C   UNL A   1      44.196  33.128  27.726  1.00  0.00     0.016 A 
ATOM     41  C   UNL A   1      43.324  35.449  29.034  1.00  0.00     0.010 A 
ATOM     42  C   UNL A   1      43.272  33.043  28.775  1.00  0.00     0.010 A 
ATOM     43  C   UNL A   1      42.856  34.200  29.461  1.00  0.00    -0.014 A 
BRANCH  43  44
ATOM     44  C   UNL A   1      42.127  34.082  30.754  1.00  0.00     0.031 A 
ATOM     45  C   UNL A   1      42.933  33.780  31.991  1.00  0.00     0.074 A 
ATOM     46  C   UNL A   1      40.798  34.270  30.854  1.00  0.00     0.049 A 
ATOM     47  N   UNL A   1      42.535  33.575  33.219  1.00  0.00    -0.248 NA
ATOM     48  C   UNL A   1      44.391  33.695  31.809  1.00  0.00     0.031 C 
ATOM     49  C   UNL A   1      39.906  34.625  29.753  1.00  0.00     0.029 A 
ATOM     50  N   UNL A   1      39.964  34.182  31.945  1.00  0.00    -0.354 N 
ATOM     51  C   UNL A   1      43.691  33.335  33.956  1.00  0.00     0.074 A 
ATOM     52  C   UNL A   1      44.798  33.376  33.025  1.00  0.00     0.031 C 
ATOM     53  C   UNL A   1      38.648  34.717  30.223  1.00  0.00     0.029 A 
ATOM     54  C   UNL A   1      38.635  34.385  31.649  1.00  0.00     0.049 A 
ATOM     55  H   UNL A   1      40.288  33.992  32.855  1.00  0.00     0.167 HD
ATOM     56  C   UNL A   1      43.822  33.114  35.288  1.00  0.00     0.034 A 
ATOM     57  C   UNL A   1      37.536  34.286  32.428  1.00  0.00     0.034 A 
ATOM     58  C   UNL A   1      42.713  33.060  36.207  1.00  0.00     0.049 A 
ATOM     59  C   UNL A   1      37.694  33.923  33.891  1.00  0.00     0.074 A 
ATOM     60  C   UNL A   1      42.739  32.842  37.574  1.00  0.00     0.029 A 
ATOM     61  N   UNL A   1      41.377  33.208  35.857  1.00  0.00    -0.354 N 
ATOM     62  N   UNL A   1      38.792  33.696  34.575  1.00  0.00    -0.248 NA
ATOM     63  C   UNL A   1      36.462  33.811  34.685  1.00  0.00     0.031 C 
ATOM     64  C   UNL A   1      41.420  32.773  38.034  1.00  0.00     0.029 A 
ATOM     65  C   UNL A   1      40.571  33.047  36.974  1.00  0.00     0.049 A 
ATOM     66  H   UNL A   1      41.050  33.400  34.948  1.00  0.00     0.167 HD
ATOM     67  C   UNL A   1      38.382  33.451  35.886  1.00  0.00     0.074 A 
ATOM     68  C   UNL A   1      36.940  33.570  35.898  1.00  0.00     0.031 C 
ATOM     69  C   UNL A   1      39.131  33.161  36.981  1.00  0.00     0.034 A 
BRANCH  56  70
ATOM     70  C   UNL A   1      45.215  32.856  35.811  1.00  0.00     0.023 A 
ATOM     71  C   UNL A   1      45.753  31.559  35.878  1.00  0.00     0.031 A 
ATOM     72  C   UNL A   1      46.004  33.921  36.280  1.00  0.00     0.131 A 
ATOM     73  C   UNL A   1      47.008  31.353  36.472  1.00  0.00     0.055 A 
ATOM     74  C   UNL A   1      47.288  33.719  36.786  1.00  0.00     0.041 A 
ATOM     75  F   UNL A   1      45.532  35.178  36.265  1.00  0.00    -0.206 F 
ATOM     76  C   UNL A   1      47.791  32.427  36.900  1.00  0.00     0.022 A 
BRANCH  73  77
ATOM     77  S   UNL A   1      47.532  29.652  36.820  1.00  0.00     0.124 S 
ATOM     78  O   UNL A   1      46.771  29.350  38.030  1.00  0.00    -0.237 OA
ATOM     79  O   UNL A   1      47.123  28.942  35.613  1.00  0.00    -0.237 OA
ATOM     80  O   UNL A   1      48.976  29.771  37.016  1.00  0.00    -0.744 OA
ENDBRANCH  73  77
ENDBRANCH  56  70
BRANCH  57  81
ATOM     81  C   UNL A   1      36.170  34.472  31.848  1.00  0.00     0.023 A 
ATOM     82  C   UNL A   1      35.358  35.559  32.211  1.00  0.00     0.031 A 
ATOM     83  C   UNL A   1      35.625  33.510  30.977  1.00  0.00     0.131 A 
ATOM     84  C   UNL A   1      34.033  35.632  31.747  1.00  0.00     0.055 A 
ATOM     85  C   UNL A   1      34.329  33.619  30.470  1.00  0.00     0.041 A 
ATOM     86  F   UNL A   1      36.349  32.441  30.607  1.00  0.00    -0.206 F 
ATOM     87  C   UNL A   1      33.520  34.678  30.866  1.00  0.00     0.022 A 
BRANCH  84  88
ATOM     88  S   UNL A   1      32.952  36.939  32.394  1.00  0.00     0.124 S 
ATOM     89  O   UNL A   1      32.963  37.901  31.297  1.00  0.00    -0.237 OA
ATOM     90  O   UNL A   1      31.700  36.221  32.606  1.00  0.00    -0.237 OA
ATOM     91  O   UNL A   1      33.633  37.373  33.612  1.00  0.00    -0.744 OA
ENDBRANCH  84  88
ENDBRANCH  57  81
BRANCH  69  92
ATOM     92  C   UNL A   1      38.410  33.010  38.303  1.00  0.00     0.023 A 
ATOM     93  C   UNL A   1      38.498  33.977  39.319  1.00  0.00     0.031 A 
ATOM     94  C   UNL A   1      37.616  31.872  38.546  1.00  0.00     0.131 A 
ATOM     95  C   UNL A   1      37.852  33.763  40.548  1.00  0.00     0.055 A 
ATOM     96  C   UNL A   1      36.922  31.698  39.744  1.00  0.00     0.041 A 
ATOM     97  F   UNL A   1      37.495  30.911  37.615  1.00  0.00    -0.206 F 
ATOM     98  C   UNL A   1      37.049  32.639  40.759  1.00  0.00     0.022 A 
BRANCH  95  99
ATOM     99  S   UNL A   1      38.156  34.925  41.909  1.00  0.00     0.124 S 
ATOM    100  O   UNL A   1      37.098  34.574  42.849  1.00  0.00    -0.237 OA
ATOM    101  O   UNL A   1      39.514  34.578  42.317  1.00  0.00    -0.237 OA
ATOM    102  O   UNL A   1      38.016  36.237  41.278  1.00  0.00    -0.744 OA
ENDBRANCH  95  99
ENDBRANCH  69  92
ENDBRANCH  43  44
ENDBRANCH  36  38
ENDBRANCH  35  36
ENDBRANCH  34  35
ENDBRANCH  33  34
ENDBRANCH  32  33
ENDBRANCH  31  32
ENDBRANCH   1  31
TORSDOF 23
ENDMDL
