MODEL 1
REMARK VINA RESULT:     -11.1      0.000      0.000
REMARK SMILES CCCCc1cc(S(F)(F)(F)(F)F)cc2c1O[C@@H](C(F)(F)F)C(C(=O)OCCOCCOCCOC(=O)c1ccc(-c3c4nc(c(-c5cc(S(=O)(=O)[O-])ccc5F)c5ccc([nH]5)c(-c5cc(S(=O)(=O)[O-])ccc5F)c5nc(c(-c6cc(S(=O)(=O)[O-])ccc6F)c6ccc3[nH]6)C=C5)C=C4)cc1)=C2
REMARK SMILES IDX 30 1 29 2 28 3 27 4 26 5 24 6 25 7 23 8 5 9 6 10 16 11 7 12
REMARK SMILES IDX 15 13 17 14 14 15 101 16 18 17 4 18 3 19 2 20 1 21 8 22 9 23
REMARK SMILES IDX 10 24 11 25 12 26 13 27 19 28 20 29 21 30 22 31 31 32 32 33
REMARK SMILES IDX 33 34 34 35 35 36 36 37 37 38 38 39 39 40 100 41 40 42 99 43
REMARK SMILES IDX 41 44 42 45 43 46 93 47 44 48 98 49 92 50 94 51 45 52 97 53
REMARK SMILES IDX 91 54 90 55 46 57 78 58 58 59 77 60 59 61 62 62 76 63 95 64
REMARK SMILES IDX 60 65 61 66 75 68 96 69 63 70 47 71 48 72 56 73 49 74 55 75
REMARK SMILES IDX 57 76 54 77 50 78 51 79 52 80 53 81 79 82 80 83 88 84 81 85
REMARK SMILES IDX 87 86 89 87 86 88 82 89 83 90 84 91 85 92 64 93 65 94 73 95
REMARK SMILES IDX 66 96 72 97 74 98 71 99 67 100 68 101 69 102 70 103
REMARK H PARENT 94 56 62 67
REMARK Flexibility Score: inf
ROOT
ATOM      1  C   UNL A   1      35.028  19.994  24.973  1.00  0.00     0.188 C 
ENDROOT
BRANCH   1   2
ATOM      2  O   UNL A   1      33.769  20.290  25.561  1.00  0.00    -0.376 OA
BRANCH   2   3
ATOM      3  C   UNL A   1      32.784  20.388  24.542  1.00  0.00     0.202 C 
BRANCH   3   4
ATOM      4  C   UNL A   1      32.034  21.702  24.687  1.00  0.00     0.261 C 
BRANCH   4   5
ATOM      5  O   UNL A   1      31.867  22.295  23.408  1.00  0.00    -0.460 OA
BRANCH   5   6
ATOM      6  C   UNL A   1      32.830  23.220  22.922  1.00  0.00     0.338 C 
ATOM      7  O   UNL A   1      33.859  22.799  22.305  1.00  0.00    -0.246 OA
BRANCH   6   8
ATOM      8  C   UNL A   1      32.631  24.711  23.140  1.00  0.00     0.087 C 
ATOM      9  C   UNL A   1      31.966  28.689  24.225  1.00  0.00    -0.004 A 
ATOM     10  C   UNL A   1      30.891  29.379  23.695  1.00  0.00     0.032 A 
ATOM     11  C   UNL A   1      32.130  27.366  23.893  1.00  0.00     0.131 A 
ATOM     12  C   UNL A   1      30.000  28.760  22.858  1.00  0.00     0.108 A 
ATOM     13  C   UNL A   1      31.262  26.713  23.037  1.00  0.00     0.019 A 
ATOM     14  O   UNL A   1      33.136  26.666  24.515  1.00  0.00    -0.475 OA
ATOM     15  C   UNL A   1      30.189  27.434  22.526  1.00  0.00     0.036 A 
ATOM     16  C   UNL A   1      31.499  25.302  22.778  1.00  0.00     0.027 C 
ATOM     17  C   UNL A   1      33.724  25.556  23.779  1.00  0.00     0.316 C 
BRANCH   9  18
ATOM     18  C   UNL A   1      32.947  29.381  25.157  1.00  0.00     0.039 C 
BRANCH  18  19
ATOM     19  C   UNL A   1      32.186  30.289  26.111  1.00  0.00     0.005 C 
BRANCH  19  20
ATOM     20  C   UNL A   1      31.811  29.510  27.361  1.00  0.00    -0.003 C 
ATOM     21  C   UNL A   1      32.731  28.309  27.504  1.00  0.00     0.004 C 
ENDBRANCH  19  20
ENDBRANCH  18  19
ENDBRANCH   9  18
BRANCH  12  22
ATOM     22  S   UNL A   1      28.586  29.673  22.196  1.00  0.00     0.310 S 
ATOM     23  F   UNL A   1      28.789  30.860  23.228  1.00  0.00    -0.094 F 
ATOM     24  F   UNL A   1      27.666  28.984  23.273  1.00  0.00    -0.094 F 
ATOM     25  F   UNL A   1      27.372  30.460  21.624  1.00  0.00    -0.094 F 
ATOM     26  F   UNL A   1      29.546  30.457  21.217  1.00  0.00    -0.094 F 
ATOM     27  F   UNL A   1      29.844  28.966  22.840  1.00  0.00    -0.094 F 
ENDBRANCH  12  22
BRANCH  17  28
ATOM     28  C   UNL A   1      34.522  24.691  24.740  1.00  0.00     0.430 C 
ATOM     29  F   UNL A   1      35.035  25.453  25.701  1.00  0.00    -0.167 F 
ATOM     30  F   UNL A   1      33.723  23.774  25.280  1.00  0.00    -0.167 F 
ATOM     31  F   UNL A   1      35.507  24.087  24.080  1.00  0.00    -0.167 F 
ENDBRANCH  17  28
ENDBRANCH   6   8
ENDBRANCH   5   6
ENDBRANCH   4   5
ENDBRANCH   3   4
ENDBRANCH   2   3
ENDBRANCH   1   2
BRANCH   1  32
ATOM     32  C   UNL A   1      36.024  21.085  25.331  1.00  0.00     0.188 C 
BRANCH  32  33
ATOM     33  O   UNL A   1      37.191  20.940  24.535  1.00  0.00    -0.376 OA
BRANCH  33  34
ATOM     34  C   UNL A   1      37.931  19.813  24.980  1.00  0.00     0.202 C 
BRANCH  34  35
ATOM     35  C   UNL A   1      39.148  20.281  25.760  1.00  0.00     0.261 C 
BRANCH  35  36
ATOM     36  O   UNL A   1      40.137  19.263  25.752  1.00  0.00    -0.460 OA
BRANCH  36  37
ATOM     37  C   UNL A   1      41.487  19.582  26.061  1.00  0.00     0.338 C 
ATOM     38  O   UNL A   1      42.378  18.677  26.030  1.00  0.00    -0.246 OA
BRANCH  37  39
ATOM     39  C   UNL A   1      41.864  21.007  26.429  1.00  0.00     0.060 A 
ATOM     40  C   UNL A   1      41.999  21.351  27.764  1.00  0.00     0.016 A 
ATOM     41  C   UNL A   1      42.058  21.901  25.465  1.00  0.00     0.016 A 
ATOM     42  C   UNL A   1      42.061  22.746  27.994  1.00  0.00     0.010 A 
ATOM     43  C   UNL A   1      42.247  23.228  25.769  1.00  0.00     0.010 A 
ATOM     44  C   UNL A   1      42.333  23.646  27.068  1.00  0.00    -0.014 A 
BRANCH  44  45
ATOM     45  C   UNL A   1      42.719  25.071  27.426  1.00  0.00     0.031 A 
ATOM     46  C   UNL A   1      44.037  25.472  27.199  1.00  0.00     0.074 A 
ATOM     47  C   UNL A   1      41.742  25.894  27.961  1.00  0.00     0.049 A 
ATOM     48  N   UNL A   1      44.570  26.676  27.412  1.00  0.00    -0.248 NA
ATOM     49  C   UNL A   1      45.085  24.590  26.664  1.00  0.00     0.031 C 
ATOM     50  C   UNL A   1      40.408  25.501  28.184  1.00  0.00     0.029 A 
ATOM     51  N   UNL A   1      41.868  27.205  28.365  1.00  0.00    -0.354 N 
ATOM     52  C   UNL A   1      45.857  26.680  27.057  1.00  0.00     0.074 A 
ATOM     53  C   UNL A   1      46.208  25.337  26.576  1.00  0.00     0.031 C 
ATOM     54  C   UNL A   1      39.743  26.555  28.726  1.00  0.00     0.029 A 
ATOM     55  C   UNL A   1      40.650  27.625  28.849  1.00  0.00     0.049 A 
ATOM     56  H   UNL A   1      42.689  27.748  28.316  1.00  0.00     0.167 HD
ATOM     57  C   UNL A   1      46.750  27.750  27.112  1.00  0.00     0.034 A 
ATOM     58  C   UNL A   1      40.328  28.866  29.375  1.00  0.00     0.034 A 
ATOM     59  C   UNL A   1      46.416  29.005  27.597  1.00  0.00     0.049 A 
ATOM     60  C   UNL A   1      41.237  29.921  29.486  1.00  0.00     0.074 A 
ATOM     61  C   UNL A   1      47.302  30.098  27.654  1.00  0.00     0.029 A 
ATOM     62  N   UNL A   1      45.205  29.418  28.105  1.00  0.00    -0.354 N 
ATOM     63  N   UNL A   1      42.512  29.937  29.093  1.00  0.00    -0.248 NA
ATOM     64  C   UNL A   1      40.916  31.229  30.070  1.00  0.00     0.031 C 
ATOM     65  C   UNL A   1      46.637  31.153  28.196  1.00  0.00     0.029 A 
ATOM     66  C   UNL A   1      45.324  30.736  28.489  1.00  0.00     0.049 A 
ATOM     67  H   UNL A   1      44.392  28.867  28.182  1.00  0.00     0.167 HD
ATOM     68  C   UNL A   1      43.056  31.129  29.345  1.00  0.00     0.074 A 
ATOM     69  C   UNL A   1      42.040  31.976  29.984  1.00  0.00     0.031 C 
ATOM     70  C   UNL A   1      44.358  31.546  29.064  1.00  0.00     0.034 A 
BRANCH  57  71
ATOM     71  C   UNL A   1      48.168  27.530  26.612  1.00  0.00     0.023 A 
ATOM     72  C   UNL A   1      49.143  27.249  27.556  1.00  0.00     0.031 A 
ATOM     73  C   UNL A   1      48.441  27.510  25.313  1.00  0.00     0.131 A 
ATOM     74  C   UNL A   1      50.459  27.242  27.035  1.00  0.00     0.055 A 
ATOM     75  C   UNL A   1      49.734  27.362  24.872  1.00  0.00     0.041 A 
ATOM     76  F   UNL A   1      47.454  27.635  24.431  1.00  0.00    -0.206 F 
ATOM     77  C   UNL A   1      50.756  27.140  25.753  1.00  0.00     0.022 A 
BRANCH  74  78
ATOM     78  S   UNL A   1      51.830  27.379  28.209  1.00  0.00     0.124 S 
ATOM     79  O   UNL A   1      53.155  27.417  27.445  1.00  0.00    -0.237 OA
ATOM     80  O   UNL A   1      51.675  28.664  29.027  1.00  0.00    -0.237 OA
ATOM     81  O   UNL A   1      51.817  26.031  29.261  1.00  0.00    -0.744 OA
ENDBRANCH  74  78
ENDBRANCH  57  71
BRANCH  58  82
ATOM     82  C   UNL A   1      38.906  29.093  29.860  1.00  0.00     0.023 A 
ATOM     83  C   UNL A   1      38.011  29.781  29.059  1.00  0.00     0.031 A 
ATOM     84  C   UNL A   1      38.577  28.712  31.090  1.00  0.00     0.131 A 
ATOM     85  C   UNL A   1      36.883  30.279  29.754  1.00  0.00     0.055 A 
ATOM     86  C   UNL A   1      37.396  29.125  31.657  1.00  0.00     0.041 A 
ATOM     87  F   UNL A   1      39.399  27.924  31.777  1.00  0.00    -0.206 F 
ATOM     88  C   UNL A   1      36.490  29.859  30.943  1.00  0.00     0.022 A 
BRANCH  85  89
ATOM     89  S   UNL A   1      35.912  31.583  28.958  1.00  0.00     0.124 S 
ATOM     90  O   UNL A   1      34.808  32.050  29.908  1.00  0.00    -0.237 OA
ATOM     91  O   UNL A   1      36.826  32.763  28.618  1.00  0.00    -0.237 OA
ATOM     92  O   UNL A   1      35.210  30.975  27.522  1.00  0.00    -0.744 OA
ENDBRANCH  85  89
ENDBRANCH  58  82
BRANCH  70  93
ATOM     93  C   UNL A   1      44.740  32.976  29.410  1.00  0.00     0.023 A 
ATOM     94  C   UNL A   1      44.571  33.972  28.462  1.00  0.00     0.031 A 
ATOM     95  C   UNL A   1      45.228  33.247  30.615  1.00  0.00     0.131 A 
ATOM     96  C   UNL A   1      45.221  35.186  28.785  1.00  0.00     0.055 A 
ATOM     97  C   UNL A   1      45.724  34.496  30.904  1.00  0.00     0.041 A 
ATOM     98  F   UNL A   1      45.239  32.302  31.550  1.00  0.00    -0.206 F 
ATOM     99  C   UNL A   1      45.644  35.513  29.992  1.00  0.00     0.022 A 
BRANCH  96 100
ATOM    100  S   UNL A   1      45.494  36.376  27.448  1.00  0.00     0.124 S 
ATOM    101  O   UNL A   1      45.780  35.624  26.146  1.00  0.00    -0.237 OA
ATOM    102  O   UNL A   1      44.244  37.242  27.272  1.00  0.00    -0.237 OA
ATOM    103  O   UNL A   1      46.829  37.372  27.835  1.00  0.00    -0.744 OA
ENDBRANCH  96 100
ENDBRANCH  70  93
ENDBRANCH  44  45
ENDBRANCH  37  39
ENDBRANCH  36  37
ENDBRANCH  35  36
ENDBRANCH  34  35
ENDBRANCH  33  34
ENDBRANCH  32  33
ENDBRANCH   1  32
TORSDOF 25
ENDMDL
MODEL 2
REMARK VINA RESULT:     -10.9      1.357      7.323
REMARK SMILES CCCCc1cc(S(F)(F)(F)(F)F)cc2c1O[C@@H](C(F)(F)F)C(C(=O)OCCOCCOCCOC(=O)c1ccc(-c3c4nc(c(-c5cc(S(=O)(=O)[O-])ccc5F)c5ccc([nH]5)c(-c5cc(S(=O)(=O)[O-])ccc5F)c5nc(c(-c6cc(S(=O)(=O)[O-])ccc6F)c6ccc3[nH]6)C=C5)C=C4)cc1)=C2
REMARK SMILES IDX 30 1 29 2 28 3 27 4 26 5 24 6 25 7 23 8 5 9 6 10 16 11 7 12
REMARK SMILES IDX 15 13 17 14 14 15 101 16 18 17 4 18 3 19 2 20 1 21 8 22 9 23
REMARK SMILES IDX 10 24 11 25 12 26 13 27 19 28 20 29 21 30 22 31 31 32 32 33
REMARK SMILES IDX 33 34 34 35 35 36 36 37 37 38 38 39 39 40 100 41 40 42 99 43
REMARK SMILES IDX 41 44 42 45 43 46 93 47 44 48 98 49 92 50 94 51 45 52 97 53
REMARK SMILES IDX 91 54 90 55 46 57 78 58 58 59 77 60 59 61 62 62 76 63 95 64
REMARK SMILES IDX 60 65 61 66 75 68 96 69 63 70 47 71 48 72 56 73 49 74 55 75
REMARK SMILES IDX 57 76 54 77 50 78 51 79 52 80 53 81 79 82 80 83 88 84 81 85
REMARK SMILES IDX 87 86 89 87 86 88 82 89 83 90 84 91 85 92 64 93 65 94 73 95
REMARK SMILES IDX 66 96 72 97 74 98 71 99 67 100 68 101 69 102 70 103
REMARK H PARENT 94 56 62 67
REMARK Flexibility Score: inf
ROOT
ATOM      1  C   UNL A   1      34.962  19.995  24.957  1.00  0.00     0.188 C 
ENDROOT
BRANCH   1   2
ATOM      2  O   UNL A   1      33.661  20.385  25.371  1.00  0.00    -0.376 OA
BRANCH   2   3
ATOM      3  C   UNL A   1      32.822  20.518  24.233  1.00  0.00     0.202 C 
BRANCH   3   4
ATOM      4  C   UNL A   1      32.023  21.807  24.340  1.00  0.00     0.261 C 
BRANCH   4   5
ATOM      5  O   UNL A   1      31.905  22.399  23.054  1.00  0.00    -0.460 OA
BRANCH   5   6
ATOM      6  C   UNL A   1      32.861  23.357  22.623  1.00  0.00     0.338 C 
ATOM      7  O   UNL A   1      33.894  22.982  21.984  1.00  0.00    -0.246 OA
BRANCH   6   8
ATOM      8  C   UNL A   1      32.649  24.832  22.926  1.00  0.00     0.087 C 
ATOM      9  C   UNL A   1      31.954  28.736  24.237  1.00  0.00    -0.004 A 
ATOM     10  C   UNL A   1      30.870  29.445  23.752  1.00  0.00     0.032 A 
ATOM     11  C   UNL A   1      32.129  27.436  23.830  1.00  0.00     0.131 A 
ATOM     12  C   UNL A   1      29.981  28.866  22.885  1.00  0.00     0.108 A 
ATOM     13  C   UNL A   1      31.262  26.824  22.942  1.00  0.00     0.019 A 
ATOM     14  O   UNL A   1      33.143  26.711  24.407  1.00  0.00    -0.475 OA
ATOM     15  C   UNL A   1      30.181  27.563  22.478  1.00  0.00     0.036 A 
ATOM     16  C   UNL A   1      31.511  25.433  22.603  1.00  0.00     0.027 C 
ATOM     17  C   UNL A   1      33.738  25.650  23.606  1.00  0.00     0.316 C 
BRANCH   9  18
ATOM     18  C   UNL A   1      32.934  29.384  25.202  1.00  0.00     0.039 C 
BRANCH  18  19
ATOM     19  C   UNL A   1      32.182  30.315  26.139  1.00  0.00     0.005 C 
BRANCH  19  20
ATOM     20  C   UNL A   1      31.815  29.566  27.410  1.00  0.00    -0.003 C 
ATOM     21  C   UNL A   1      32.634  28.289  27.500  1.00  0.00     0.004 C 
ENDBRANCH  19  20
ENDBRANCH  18  19
ENDBRANCH   9  18
BRANCH  12  22
ATOM     22  S   UNL A   1      28.555  29.803  22.281  1.00  0.00     0.310 S 
ATOM     23  F   UNL A   1      28.684  30.870  23.447  1.00  0.00    -0.094 F 
ATOM     24  F   UNL A   1      27.629  28.966  23.242  1.00  0.00    -0.094 F 
ATOM     25  F   UNL A   1      27.332  30.610  21.760  1.00  0.00    -0.094 F 
ATOM     26  F   UNL A   1      29.516  30.723  21.430  1.00  0.00    -0.094 F 
ATOM     27  F   UNL A   1      29.818  29.068  22.885  1.00  0.00    -0.094 F 
ENDBRANCH  12  22
BRANCH  17  28
ATOM     28  C   UNL A   1      34.549  24.739  24.514  1.00  0.00     0.430 C 
ATOM     29  F   UNL A   1      35.483  24.118  23.800  1.00  0.00    -0.167 F 
ATOM     30  F   UNL A   1      35.129  25.465  25.466  1.00  0.00    -0.167 F 
ATOM     31  F   UNL A   1      33.744  23.838  25.072  1.00  0.00    -0.167 F 
ENDBRANCH  17  28
ENDBRANCH   6   8
ENDBRANCH   5   6
ENDBRANCH   4   5
ENDBRANCH   3   4
ENDBRANCH   2   3
ENDBRANCH   1   2
BRANCH   1  32
ATOM     32  C   UNL A   1      35.967  21.055  25.378  1.00  0.00     0.188 C 
BRANCH  32  33
ATOM     33  O   UNL A   1      37.112  20.982  24.541  1.00  0.00    -0.376 OA
BRANCH  33  34
ATOM     34  C   UNL A   1      37.892  19.851  24.903  1.00  0.00     0.202 C 
BRANCH  34  35
ATOM     35  C   UNL A   1      39.086  20.303  25.727  1.00  0.00     0.261 C 
BRANCH  35  36
ATOM     36  O   UNL A   1      40.047  19.259  25.780  1.00  0.00    -0.460 OA
BRANCH  36  37
ATOM     37  C   UNL A   1      41.408  19.561  26.053  1.00  0.00     0.338 C 
ATOM     38  O   UNL A   1      42.290  18.650  25.971  1.00  0.00    -0.246 OA
BRANCH  37  39
ATOM     39  C   UNL A   1      41.808  20.974  26.443  1.00  0.00     0.060 A 
ATOM     40  C   UNL A   1      41.932  21.299  27.784  1.00  0.00     0.016 A 
ATOM     41  C   UNL A   1      42.033  21.875  25.493  1.00  0.00     0.016 A 
ATOM     42  C   UNL A   1      42.018  22.689  28.033  1.00  0.00     0.010 A 
ATOM     43  C   UNL A   1      42.245  23.194  25.815  1.00  0.00     0.010 A 
ATOM     44  C   UNL A   1      42.321  23.595  27.120  1.00  0.00    -0.014 A 
BRANCH  44  45
ATOM     45  C   UNL A   1      42.730  25.008  27.501  1.00  0.00     0.031 A 
ATOM     46  C   UNL A   1      41.758  25.849  28.046  1.00  0.00     0.074 A 
ATOM     47  C   UNL A   1      44.044  25.385  27.283  1.00  0.00     0.049 A 
ATOM     48  N   UNL A   1      41.913  27.103  28.473  1.00  0.00    -0.248 NA
ATOM     49  C   UNL A   1      40.353  25.463  28.246  1.00  0.00     0.031 C 
ATOM     50  C   UNL A   1      45.033  24.540  26.742  1.00  0.00     0.029 A 
ATOM     51  N   UNL A   1      44.628  26.606  27.540  1.00  0.00    -0.354 N 
ATOM     52  C   UNL A   1      40.758  27.575  28.947  1.00  0.00     0.074 A 
ATOM     53  C   UNL A   1      39.737  26.529  28.803  1.00  0.00     0.031 C 
ATOM     54  C   UNL A   1      46.192  25.245  26.662  1.00  0.00     0.029 A 
ATOM     55  C   UNL A   1      45.948  26.542  27.154  1.00  0.00     0.049 A 
ATOM     56  H   UNL A   1      44.178  27.389  27.932  1.00  0.00     0.167 HD
ATOM     57  C   UNL A   1      40.517  28.835  29.497  1.00  0.00     0.034 A 
ATOM     58  C   UNL A   1      46.900  27.546  27.215  1.00  0.00     0.034 A 
ATOM     59  C   UNL A   1      41.481  29.826  29.599  1.00  0.00     0.049 A 
ATOM     60  C   UNL A   1      46.645  28.827  27.711  1.00  0.00     0.074 A 
ATOM     61  C   UNL A   1      41.257  31.099  30.157  1.00  0.00     0.029 A 
ATOM     62  N   UNL A   1      42.795  29.770  29.190  1.00  0.00    -0.354 N 
ATOM     63  N   UNL A   1      45.501  29.285  28.221  1.00  0.00    -0.248 NA
ATOM     64  C   UNL A   1      47.637  29.909  27.752  1.00  0.00     0.031 C 
ATOM     65  C   UNL A   1      42.418  31.805  30.078  1.00  0.00     0.029 A 
ATOM     66  C   UNL A   1      43.385  30.984  29.467  1.00  0.00     0.049 A 
ATOM     67  H   UNL A   1      43.237  28.996  28.770  1.00  0.00     0.167 HD
ATOM     68  C   UNL A   1      45.646  30.553  28.610  1.00  0.00     0.074 A 
ATOM     69  C   UNL A   1      47.020  30.976  28.307  1.00  0.00     0.031 C 
ATOM     70  C   UNL A   1      44.689  31.375  29.209  1.00  0.00     0.034 A 
BRANCH  57  71
ATOM     71  C   UNL A   1      39.120  29.139  30.013  1.00  0.00     0.023 A 
ATOM     72  C   UNL A   1      38.252  29.799  29.159  1.00  0.00     0.031 A 
ATOM     73  C   UNL A   1      38.718  28.701  31.199  1.00  0.00     0.131 A 
ATOM     74  C   UNL A   1      37.044  30.208  29.772  1.00  0.00     0.055 A 
ATOM     75  C   UNL A   1      37.472  29.025  31.680  1.00  0.00     0.041 A 
ATOM     76  F   UNL A   1      39.529  27.942  31.931  1.00  0.00    -0.206 F 
ATOM     77  C   UNL A   1      36.584  29.726  30.912  1.00  0.00     0.022 A 
BRANCH  74  78
ATOM     78  S   UNL A   1      36.062  31.477  28.936  1.00  0.00     0.124 S 
ATOM     79  O   UNL A   1      34.936  31.943  29.862  1.00  0.00    -0.237 OA
ATOM     80  O   UNL A   1      36.958  32.666  28.583  1.00  0.00    -0.237 OA
ATOM     81  O   UNL A   1      35.390  30.826  27.504  1.00  0.00    -0.744 OA
ENDBRANCH  74  78
ENDBRANCH  57  71
BRANCH  58  82
ATOM     82  C   UNL A   1      48.302  27.238  26.714  1.00  0.00     0.023 A 
ATOM     83  C   UNL A   1      49.266  26.799  27.606  1.00  0.00     0.031 A 
ATOM     84  C   UNL A   1      48.602  27.493  25.446  1.00  0.00     0.131 A 
ATOM     85  C   UNL A   1      50.592  26.937  27.131  1.00  0.00     0.055 A 
ATOM     86  C   UNL A   1      49.908  27.476  25.020  1.00  0.00     0.041 A 
ATOM     87  F   UNL A   1      47.629  27.765  24.580  1.00  0.00    -0.206 F 
ATOM     88  C   UNL A   1      50.920  27.110  25.864  1.00  0.00     0.022 A 
BRANCH  85  89
ATOM     89  S   UNL A   1      51.932  26.871  28.347  1.00  0.00     0.124 S 
ATOM     90  O   UNL A   1      51.402  26.294  29.660  1.00  0.00    -0.237 OA
ATOM     91  O   UNL A   1      53.059  25.983  27.815  1.00  0.00    -0.237 OA
ATOM     92  O   UNL A   1      52.532  28.450  28.618  1.00  0.00    -0.744 OA
ENDBRANCH  85  89
ENDBRANCH  58  82
BRANCH  70  93
ATOM     93  C   UNL A   1      45.103  32.784  29.602  1.00  0.00     0.023 A 
ATOM     94  C   UNL A   1      45.675  33.000  30.845  1.00  0.00     0.031 A 
ATOM     95  C   UNL A   1      44.910  33.782  28.749  1.00  0.00     0.131 A 
ATOM     96  C   UNL A   1      45.747  34.365  31.212  1.00  0.00     0.055 A 
ATOM     97  C   UNL A   1      45.130  35.083  29.133  1.00  0.00     0.041 A 
ATOM     98  F   UNL A   1      44.499  33.522  27.511  1.00  0.00    -0.206 F 
ATOM     99  C   UNL A   1      45.639  35.375  30.368  1.00  0.00     0.022 A 
BRANCH  96 100
ATOM    100  S   UNL A   1      46.006  34.754  32.961  1.00  0.00     0.124 S 
ATOM    101  O   UNL A   1      45.397  33.647  33.825  1.00  0.00    -0.237 OA
ATOM    102  O   UNL A   1      47.507  34.854  33.245  1.00  0.00    -0.237 OA
ATOM    103  O   UNL A   1      45.254  36.245  33.331  1.00  0.00    -0.744 OA
ENDBRANCH  96 100
ENDBRANCH  70  93
ENDBRANCH  44  45
ENDBRANCH  37  39
ENDBRANCH  36  37
ENDBRANCH  35  36
ENDBRANCH  34  35
ENDBRANCH  33  34
ENDBRANCH  32  33
ENDBRANCH   1  32
TORSDOF 25
ENDMDL
MODEL 3
REMARK VINA RESULT:     -10.4      1.774      2.270
REMARK SMILES CCCCc1cc(S(F)(F)(F)(F)F)cc2c1O[C@@H](C(F)(F)F)C(C(=O)OCCOCCOCCOC(=O)c1ccc(-c3c4nc(c(-c5cc(S(=O)(=O)[O-])ccc5F)c5ccc([nH]5)c(-c5cc(S(=O)(=O)[O-])ccc5F)c5nc(c(-c6cc(S(=O)(=O)[O-])ccc6F)c6ccc3[nH]6)C=C5)C=C4)cc1)=C2
REMARK SMILES IDX 30 1 29 2 28 3 27 4 26 5 24 6 25 7 23 8 5 9 6 10 16 11 7 12
REMARK SMILES IDX 15 13 17 14 14 15 101 16 18 17 4 18 3 19 2 20 1 21 8 22 9 23
REMARK SMILES IDX 10 24 11 25 12 26 13 27 19 28 20 29 21 30 22 31 31 32 32 33
REMARK SMILES IDX 33 34 34 35 35 36 36 37 37 38 38 39 39 40 100 41 40 42 99 43
REMARK SMILES IDX 41 44 42 45 43 46 93 47 44 48 98 49 92 50 94 51 45 52 97 53
REMARK SMILES IDX 91 54 90 55 46 57 78 58 58 59 77 60 59 61 62 62 76 63 95 64
REMARK SMILES IDX 60 65 61 66 75 68 96 69 63 70 47 71 48 72 56 73 49 74 55 75
REMARK SMILES IDX 57 76 54 77 50 78 51 79 52 80 53 81 79 82 80 83 88 84 81 85
REMARK SMILES IDX 87 86 89 87 86 88 82 89 83 90 84 91 85 92 64 93 65 94 73 95
REMARK SMILES IDX 66 96 72 97 74 98 71 99 67 100 68 101 69 102 70 103
REMARK H PARENT 94 56 62 67
REMARK Flexibility Score: inf
ROOT
ATOM      1  C   UNL A   1      34.330  20.667  25.277  1.00  0.00     0.188 C 
ENDROOT
BRANCH   1   2
ATOM      2  O   UNL A   1      33.549  20.010  24.289  1.00  0.00    -0.376 OA
BRANCH   2   3
ATOM      3  C   UNL A   1      32.303  20.678  24.150  1.00  0.00     0.202 C 
BRANCH   3   4
ATOM      4  C   UNL A   1      32.194  21.262  22.751  1.00  0.00     0.261 C 
BRANCH   4   5
ATOM      5  O   UNL A   1      31.793  22.622  22.835  1.00  0.00    -0.460 OA
BRANCH   5   6
ATOM      6  C   UNL A   1      32.761  23.656  22.729  1.00  0.00     0.338 C 
ATOM      7  O   UNL A   1      33.904  23.407  22.232  1.00  0.00    -0.246 OA
BRANCH   6   8
ATOM      8  C   UNL A   1      32.429  25.060  23.208  1.00  0.00     0.087 C 
ATOM      9  C   UNL A   1      31.271  28.692  24.914  1.00  0.00    -0.004 A 
ATOM     10  C   UNL A   1      30.363  29.505  24.258  1.00  0.00     0.032 A 
ATOM     11  C   UNL A   1      31.594  27.479  24.356  1.00  0.00     0.131 A 
ATOM     12  C   UNL A   1      29.790  29.111  23.078  1.00  0.00     0.108 A 
ATOM     13  C   UNL A   1      31.049  27.056  23.157  1.00  0.00     0.019 A 
ATOM     14  O   UNL A   1      32.408  26.636  25.073  1.00  0.00    -0.475 OA
ATOM     15  C   UNL A   1      30.136  27.894  22.528  1.00  0.00     0.036 A 
ATOM     16  C   UNL A   1      31.424  25.739  22.669  1.00  0.00     0.027 C 
ATOM     17  C   UNL A   1      33.243  25.716  24.315  1.00  0.00     0.316 C 
BRANCH   9  18
ATOM     18  C   UNL A   1      31.900  29.134  26.225  1.00  0.00     0.039 C 
BRANCH  18  19
ATOM     19  C   UNL A   1      33.253  29.770  25.950  1.00  0.00     0.005 C 
BRANCH  19  20
ATOM     20  C   UNL A   1      33.930  30.109  27.268  1.00  0.00    -0.003 C 
ATOM     21  C   UNL A   1      35.269  29.394  27.349  1.00  0.00     0.004 C 
ENDBRANCH  19  20
ENDBRANCH  18  19
ENDBRANCH   9  18
BRANCH  12  22
ATOM     22  S   UNL A   1      28.586  30.178  22.250  1.00  0.00     0.310 S 
ATOM     23  F   UNL A   1      29.086  31.460  23.037  1.00  0.00    -0.094 F 
ATOM     24  F   UNL A   1      27.581  29.925  23.437  1.00  0.00    -0.094 F 
ATOM     25  F   UNL A   1      27.553  31.095  21.535  1.00  0.00    -0.094 F 
ATOM     26  F   UNL A   1      29.654  30.530  21.142  1.00  0.00    -0.094 F 
ATOM     27  F   UNL A   1      29.682  29.340  23.021  1.00  0.00    -0.094 F 
ENDBRANCH  12  22
BRANCH  17  28
ATOM     28  C   UNL A   1      33.769  24.639  25.249  1.00  0.00     0.430 C 
ATOM     29  F   UNL A   1      33.945  25.151  26.463  1.00  0.00    -0.167 F 
ATOM     30  F   UNL A   1      32.893  23.640  25.312  1.00  0.00    -0.167 F 
ATOM     31  F   UNL A   1      34.930  24.180  24.788  1.00  0.00    -0.167 F 
ENDBRANCH  17  28
ENDBRANCH   6   8
ENDBRANCH   5   6
ENDBRANCH   4   5
ENDBRANCH   3   4
ENDBRANCH   2   3
ENDBRANCH   1   2
BRANCH   1  32
ATOM     32  C   UNL A   1      35.635  21.142  24.658  1.00  0.00     0.188 C 
BRANCH  32  33
ATOM     33  O   UNL A   1      36.692  20.965  25.589  1.00  0.00    -0.376 OA
BRANCH  33  34
ATOM     34  C   UNL A   1      37.916  21.380  25.000  1.00  0.00     0.202 C 
BRANCH  34  35
ATOM     35  C   UNL A   1      38.943  21.634  26.091  1.00  0.00     0.261 C 
BRANCH  35  36
ATOM     36  O   UNL A   1      39.976  20.663  26.005  1.00  0.00    -0.460 OA
BRANCH  36  37
ATOM     37  C   UNL A   1      41.335  21.062  26.117  1.00  0.00     0.338 C 
ATOM     38  O   UNL A   1      42.258  20.302  25.687  1.00  0.00    -0.246 OA
BRANCH  37  39
ATOM     39  C   UNL A   1      41.684  22.397  26.752  1.00  0.00     0.060 A 
ATOM     40  C   UNL A   1      41.878  23.504  25.941  1.00  0.00     0.016 A 
ATOM     41  C   UNL A   1      41.798  22.483  28.072  1.00  0.00     0.016 A 
ATOM     42  C   UNL A   1      42.477  24.602  26.604  1.00  0.00     0.010 A 
ATOM     43  C   UNL A   1      42.261  23.634  28.662  1.00  0.00     0.010 A 
ATOM     44  C   UNL A   1      42.529  24.748  27.916  1.00  0.00    -0.014 A 
BRANCH  44  45
ATOM     45  C   UNL A   1      42.869  26.081  28.560  1.00  0.00     0.031 A 
ATOM     46  C   UNL A   1      44.216  26.423  28.691  1.00  0.00     0.074 A 
ATOM     47  C   UNL A   1      41.823  26.883  28.985  1.00  0.00     0.049 A 
ATOM     48  N   UNL A   1      44.725  27.548  29.194  1.00  0.00    -0.248 NA
ATOM     49  C   UNL A   1      45.329  25.558  28.272  1.00  0.00     0.031 C 
ATOM     50  C   UNL A   1      40.461  26.550  28.849  1.00  0.00     0.029 A 
ATOM     51  N   UNL A   1      41.896  28.114  29.599  1.00  0.00    -0.354 N 
ATOM     52  C   UNL A   1      46.058  27.519  29.134  1.00  0.00     0.074 A 
ATOM     53  C   UNL A   1      46.467  26.236  28.545  1.00  0.00     0.031 C 
ATOM     54  C   UNL A   1      39.725  27.558  29.384  1.00  0.00     0.029 A 
ATOM     55  C   UNL A   1      40.614  28.540  29.862  1.00  0.00     0.049 A 
ATOM     56  H   UNL A   1      42.723  28.604  29.813  1.00  0.00     0.167 HD
ATOM     57  C   UNL A   1      46.949  28.511  29.543  1.00  0.00     0.034 A 
ATOM     58  C   UNL A   1      40.220  29.714  30.485  1.00  0.00     0.034 A 
ATOM     59  C   UNL A   1      46.555  29.705  30.126  1.00  0.00     0.049 A 
ATOM     60  C   UNL A   1      41.114  30.682  30.949  1.00  0.00     0.074 A 
ATOM     61  C   UNL A   1      47.439  30.720  30.539  1.00  0.00     0.029 A 
ATOM     62  N   UNL A   1      45.273  30.120  30.412  1.00  0.00    -0.354 N 
ATOM     63  N   UNL A   1      42.444  30.670  30.852  1.00  0.00    -0.248 NA
ATOM     64  C   UNL A   1      40.711  31.914  31.638  1.00  0.00     0.031 C 
ATOM     65  C   UNL A   1      46.702  31.730  31.074  1.00  0.00     0.029 A 
ATOM     66  C   UNL A   1      45.345  31.362  31.006  1.00  0.00     0.049 A 
ATOM     67  H   UNL A   1      44.447  29.618  30.225  1.00  0.00     0.167 HD
ATOM     68  C   UNL A   1      42.955  31.777  31.393  1.00  0.00     0.074 A 
ATOM     69  C   UNL A   1      41.848  32.591  31.913  1.00  0.00     0.031 C 
ATOM     70  C   UNL A   1      44.299  32.145  31.471  1.00  0.00     0.034 A 
BRANCH  57  71
ATOM     71  C   UNL A   1      48.436  28.271  29.339  1.00  0.00     0.023 A 
ATOM     72  C   UNL A   1      48.979  28.617  28.112  1.00  0.00     0.031 A 
ATOM     73  C   UNL A   1      49.202  27.838  30.333  1.00  0.00     0.131 A 
ATOM     74  C   UNL A   1      50.318  28.193  27.938  1.00  0.00     0.055 A 
ATOM     75  C   UNL A   1      50.534  27.573  30.126  1.00  0.00     0.041 A 
ATOM     76  F   UNL A   1      48.674  27.657  31.541  1.00  0.00    -0.206 F 
ATOM     77  C   UNL A   1      51.124  27.836  28.920  1.00  0.00     0.022 A 
BRANCH  74  78
ATOM     78  S   UNL A   1      50.971  28.139  26.251  1.00  0.00     0.124 S 
ATOM     79  O   UNL A   1      50.742  26.746  25.660  1.00  0.00    -0.237 OA
ATOM     80  O   UNL A   1      50.251  29.182  25.392  1.00  0.00    -0.237 OA
ATOM     81  O   UNL A   1      52.646  28.480  26.277  1.00  0.00    -0.744 OA
ENDBRANCH  74  78
ENDBRANCH  57  71
BRANCH  58  82
ATOM     82  C   UNL A   1      38.733  29.962  30.674  1.00  0.00     0.023 A 
ATOM     83  C   UNL A   1      38.060  30.792  29.794  1.00  0.00     0.031 A 
ATOM     84  C   UNL A   1      38.128  29.456  31.743  1.00  0.00     0.131 A 
ATOM     85  C   UNL A   1      36.821  31.268  30.286  1.00  0.00     0.055 A 
ATOM     86  C   UNL A   1      36.863  29.866  32.089  1.00  0.00     0.041 A 
ATOM     87  F   UNL A   1      38.752  28.545  32.484  1.00  0.00    -0.206 F 
ATOM     88  C   UNL A   1      36.161  30.731  31.296  1.00  0.00     0.022 A 
BRANCH  85  89
ATOM     89  S   UNL A   1      36.091  32.712  29.475  1.00  0.00     0.124 S 
ATOM     90  O   UNL A   1      36.620  33.988  30.132  1.00  0.00    -0.237 OA
ATOM     91  O   UNL A   1      36.468  32.708  27.992  1.00  0.00    -0.237 OA
ATOM     92  O   UNL A   1      34.389  32.653  29.630  1.00  0.00    -0.744 OA
ENDBRANCH  85  89
ENDBRANCH  58  82
BRANCH  70  93
ATOM     93  C   UNL A   1      44.638  33.485  32.103  1.00  0.00     0.023 A 
ATOM     94  C   UNL A   1      44.639  34.625  31.316  1.00  0.00     0.031 A 
ATOM     95  C   UNL A   1      44.928  33.541  33.397  1.00  0.00     0.131 A 
ATOM     96  C   UNL A   1      45.244  35.746  31.933  1.00  0.00     0.055 A 
ATOM     97  C   UNL A   1      45.386  34.707  33.962  1.00  0.00     0.041 A 
ATOM     98  F   UNL A   1      44.774  32.459  34.154  1.00  0.00    -0.206 F 
ATOM     99  C   UNL A   1      45.468  35.858  33.229  1.00  0.00     0.022 A 
BRANCH  96 100
ATOM    100  S   UNL A   1      45.745  37.123  30.869  1.00  0.00     0.124 S 
ATOM    101  O   UNL A   1      45.046  38.404  31.329  1.00  0.00    -0.237 OA
ATOM    102  O   UNL A   1      47.262  37.310  30.958  1.00  0.00    -0.237 OA
ATOM    103  O   UNL A   1      45.305  36.783  29.252  1.00  0.00    -0.744 OA
ENDBRANCH  96 100
ENDBRANCH  70  93
ENDBRANCH  44  45
ENDBRANCH  37  39
ENDBRANCH  36  37
ENDBRANCH  35  36
ENDBRANCH  34  35
ENDBRANCH  33  34
ENDBRANCH  32  33
ENDBRANCH   1  32
TORSDOF 25
ENDMDL
