MODEL 1
REMARK VINA RESULT:      -9.9      0.000      0.000
REMARK SMILES Cc1cccc(Cl)c1Nc1ccccc1CC(=O)OCCOCCOCCOC(=O)c1ccc(-c2c3nc(c(-c4cc(S(=O)(=O)[O-])ccc4F)c4ccc([nH]4)c(-c4cc(S(=O)(=O)[O-])ccc4F)c4nc(c(-c5cc(S(=O)(=O)[O-])ccc5F)c5ccc2[nH]5)C=C4)C=C3)cc1
REMARK SMILES IDX 23 1 22 2 21 3 20 4 19 5 17 6 18 7 16 8 15 9 10 10 11 11
REMARK SMILES IDX 12 12 14 13 13 14 9 15 8 17 1 18 2 19 3 20 4 21 6 22 5 23
REMARK SMILES IDX 7 24 24 25 25 26 26 27 27 28 28 29 29 30 30 31 31 32 32 33
REMARK SMILES IDX 93 34 33 35 92 36 34 37 35 38 36 39 86 40 37 41 91 42 85 43
REMARK SMILES IDX 87 44 38 45 90 46 84 47 83 48 39 50 71 51 51 52 70 53 52 54
REMARK SMILES IDX 55 55 69 56 88 57 53 58 54 59 68 61 89 62 56 63 40 64 41 65
REMARK SMILES IDX 49 66 42 67 48 68 50 69 47 70 43 71 44 72 45 73 46 74 72 75
REMARK SMILES IDX 73 76 81 77 74 78 80 79 82 80 79 81 75 82 76 83 77 84 78 85
REMARK SMILES IDX 57 86 58 87 66 88 59 89 65 90 67 91 64 92 60 93 61 94 62 95
REMARK SMILES IDX 63 96
REMARK H PARENT 9 16 87 49 55 60
REMARK Flexibility Score: inf
ROOT
ATOM      1  C   UNL A   1      36.537  23.327  25.317  1.00  0.00     0.188 C 
ENDROOT
BRANCH   1   2
ATOM      2  O   UNL A   1      35.390  23.195  26.157  1.00  0.00    -0.376 OA
BRANCH   2   3
ATOM      3  C   UNL A   1      34.280  24.054  25.931  1.00  0.00     0.202 C 
BRANCH   3   4
ATOM      4  C   UNL A   1      34.622  25.446  25.386  1.00  0.00     0.261 C 
BRANCH   4   5
ATOM      5  O   UNL A   1      33.444  26.221  25.089  1.00  0.00    -0.463 OA
BRANCH   5   6
ATOM      6  C   UNL A   1      33.551  27.569  25.220  1.00  0.00     0.310 C 
ATOM      7  O   UNL A   1      34.015  28.115  26.215  1.00  0.00    -0.252 OA
BRANCH   6   8
ATOM      8  C   UNL A   1      33.250  28.327  23.941  1.00  0.00     0.160 C 
BRANCH   8   9
ATOM      9  C   UNL A   1      31.874  28.940  23.725  1.00  0.00    -0.013 A 
ATOM     10  C   UNL A   1      30.962  28.545  22.725  1.00  0.00     0.042 A 
ATOM     11  C   UNL A   1      29.754  29.257  22.569  1.00  0.00     0.026 A 
ATOM     12  C   UNL A   1      29.386  30.267  23.455  1.00  0.00     0.002 A 
ATOM     13  C   UNL A   1      31.441  29.910  24.650  1.00  0.00     0.006 A 
ATOM     14  C   UNL A   1      30.215  30.567  24.524  1.00  0.00     0.000 A 
BRANCH  10  15
ATOM     15  N   UNL A   1      31.078  27.338  22.008  1.00  0.00    -0.354 N 
ATOM     16  H   UNL A   1      31.155  27.436  21.031  1.00  0.00     0.167 HD
BRANCH  15  17
ATOM     17  C   UNL A   1      31.098  26.005  22.488  1.00  0.00     0.060 A 
ATOM     18  C   UNL A   1      32.852  25.501  20.718  1.00  0.00     0.046 C 
ATOM     19  C   UNL A   1      32.054  25.124  21.936  1.00  0.00    -0.026 A 
ATOM     20  C   UNL A   1      32.310  23.893  22.563  1.00  0.00     0.005 A 
ATOM     21  C   UNL A   1      31.609  23.510  23.704  1.00  0.00     0.002 A 
ATOM     22  C   UNL A   1      30.313  25.542  23.574  1.00  0.00     0.064 A 
ATOM     23  C   UNL A   1      30.592  24.319  24.192  1.00  0.00     0.023 A 
ATOM     24  Cl  UNL A   1      28.932  26.397  24.183  1.00  0.00    -0.082 Cl
ENDBRANCH  15  17
ENDBRANCH  10  15
ENDBRANCH   8   9
ENDBRANCH   6   8
ENDBRANCH   5   6
ENDBRANCH   4   5
ENDBRANCH   3   4
ENDBRANCH   2   3
ENDBRANCH   1   2
BRANCH   1  25
ATOM     25  C   UNL A   1      37.050  22.106  24.540  1.00  0.00     0.188 C 
BRANCH  25  26
ATOM     26  O   UNL A   1      37.099  20.943  25.356  1.00  0.00    -0.376 OA
BRANCH  26  27
ATOM     27  C   UNL A   1      37.771  19.856  24.742  1.00  0.00     0.202 C 
BRANCH  27  28
ATOM     28  C   UNL A   1      38.919  19.405  25.648  1.00  0.00     0.261 C 
BRANCH  28  29
ATOM     29  O   UNL A   1      39.973  20.378  25.811  1.00  0.00    -0.460 OA
BRANCH  29  30
ATOM     30  C   UNL A   1      40.544  20.453  27.030  1.00  0.00     0.338 C 
ATOM     31  O   UNL A   1      40.944  19.507  27.704  1.00  0.00    -0.246 OA
BRANCH  30  32
ATOM     32  C   UNL A   1      40.790  21.872  27.367  1.00  0.00     0.060 A 
ATOM     33  C   UNL A   1      40.144  22.865  26.623  1.00  0.00     0.016 A 
ATOM     34  C   UNL A   1      41.681  22.231  28.379  1.00  0.00     0.016 A 
ATOM     35  C   UNL A   1      40.392  24.217  26.872  1.00  0.00     0.010 A 
ATOM     36  C   UNL A   1      41.953  23.585  28.611  1.00  0.00     0.010 A 
ATOM     37  C   UNL A   1      41.330  24.588  27.842  1.00  0.00    -0.014 A 
BRANCH  37  38
ATOM     38  C   UNL A   1      41.803  25.995  27.934  1.00  0.00     0.031 A 
ATOM     39  C   UNL A   1      43.148  26.340  27.350  1.00  0.00     0.074 A 
ATOM     40  C   UNL A   1      41.062  26.955  28.517  1.00  0.00     0.049 A 
ATOM     41  N   UNL A   1      43.833  27.451  27.427  1.00  0.00    -0.248 NA
ATOM     42  C   UNL A   1      43.810  25.274  26.583  1.00  0.00     0.031 C 
ATOM     43  C   UNL A   1      39.717  26.773  29.057  1.00  0.00     0.029 A 
ATOM     44  N   UNL A   1      41.347  28.278  28.763  1.00  0.00    -0.354 N 
ATOM     45  C   UNL A   1      45.020  27.212  26.740  1.00  0.00     0.074 A 
ATOM     46  C   UNL A   1      44.967  25.840  26.278  1.00  0.00     0.031 C 
ATOM     47  C   UNL A   1      39.301  27.935  29.591  1.00  0.00     0.029 A 
ATOM     48  C   UNL A   1      40.368  28.929  29.480  1.00  0.00     0.049 A 
ATOM     49  H   UNL A   1      42.173  28.717  28.457  1.00  0.00     0.167 HD
ATOM     50  C   UNL A   1      46.057  28.058  26.517  1.00  0.00     0.034 A 
ATOM     51  C   UNL A   1      40.353  30.166  30.020  1.00  0.00     0.034 A 
ATOM     52  C   UNL A   1      46.094  29.423  26.986  1.00  0.00     0.049 A 
ATOM     53  C   UNL A   1      41.556  31.063  29.842  1.00  0.00     0.074 A 
ATOM     54  C   UNL A   1      47.087  30.370  26.802  1.00  0.00     0.029 A 
ATOM     55  N   UNL A   1      45.102  30.032  27.745  1.00  0.00    -0.354 N 
ATOM     56  N   UNL A   1      42.681  30.824  29.206  1.00  0.00    -0.248 NA
ATOM     57  C   UNL A   1      41.486  32.397  30.453  1.00  0.00     0.031 C 
ATOM     58  C   UNL A   1      46.733  31.520  27.515  1.00  0.00     0.029 A 
ATOM     59  C   UNL A   1      45.477  31.328  28.069  1.00  0.00     0.049 A 
ATOM     60  H   UNL A   1      44.256  29.606  28.013  1.00  0.00     0.167 HD
ATOM     61  C   UNL A   1      43.437  31.991  29.316  1.00  0.00     0.074 A 
ATOM     62  C   UNL A   1      42.636  32.933  30.069  1.00  0.00     0.031 C 
ATOM     63  C   UNL A   1      44.677  32.260  28.831  1.00  0.00     0.034 A 
BRANCH  50  64
ATOM     64  C   UNL A   1      47.261  27.501  25.794  1.00  0.00     0.023 A 
ATOM     65  C   UNL A   1      48.337  26.910  26.478  1.00  0.00     0.031 A 
ATOM     66  C   UNL A   1      47.353  27.608  24.393  1.00  0.00     0.131 A 
ATOM     67  C   UNL A   1      49.489  26.524  25.773  1.00  0.00     0.055 A 
ATOM     68  C   UNL A   1      48.465  27.141  23.689  1.00  0.00     0.041 A 
ATOM     69  F   UNL A   1      46.370  28.185  23.686  1.00  0.00    -0.206 F 
ATOM     70  C   UNL A   1      49.549  26.612  24.381  1.00  0.00     0.022 A 
BRANCH  67  71
ATOM     71  S   UNL A   1      50.968  26.063  26.717  1.00  0.00     0.124 S 
ATOM     72  O   UNL A   1      51.996  26.071  25.678  1.00  0.00    -0.237 OA
ATOM     73  O   UNL A   1      51.054  27.128  27.709  1.00  0.00    -0.237 OA
ATOM     74  O   UNL A   1      50.639  24.740  27.245  1.00  0.00    -0.744 OA
ENDBRANCH  67  71
ENDBRANCH  50  64
BRANCH  51  75
ATOM     75  C   UNL A   1      39.190  30.614  30.841  1.00  0.00     0.023 A 
ATOM     76  C   UNL A   1      38.153  31.381  30.285  1.00  0.00     0.031 A 
ATOM     77  C   UNL A   1      39.126  30.323  32.217  1.00  0.00     0.131 A 
ATOM     78  C   UNL A   1      37.118  31.860  31.107  1.00  0.00     0.055 A 
ATOM     79  C   UNL A   1      38.068  30.754  33.017  1.00  0.00     0.041 A 
ATOM     80  F   UNL A   1      40.095  29.602  32.803  1.00  0.00    -0.206 F 
ATOM     81  C   UNL A   1      37.061  31.537  32.464  1.00  0.00     0.022 A 
BRANCH  78  82
ATOM     82  S   UNL A   1      35.885  32.981  30.390  1.00  0.00     0.124 S 
ATOM     83  O   UNL A   1      34.896  32.044  29.871  1.00  0.00    -0.237 OA
ATOM     84  O   UNL A   1      35.478  33.766  31.551  1.00  0.00    -0.237 OA
ATOM     85  O   UNL A   1      36.640  33.718  29.379  1.00  0.00    -0.744 OA
ENDBRANCH  78  82
ENDBRANCH  51  75
BRANCH  63  86
ATOM     86  C   UNL A   1      45.223  33.652  29.054  1.00  0.00     0.023 A 
ATOM     87  C   UNL A   1      44.840  34.741  28.252  1.00  0.00     0.031 A 
ATOM     88  C   UNL A   1      46.146  33.888  30.088  1.00  0.00     0.131 A 
ATOM     89  C   UNL A   1      45.417  36.004  28.464  1.00  0.00     0.055 A 
ATOM     90  C   UNL A   1      46.669  35.159  30.336  1.00  0.00     0.041 A 
ATOM     91  F   UNL A   1      46.553  32.886  30.884  1.00  0.00    -0.206 F 
ATOM     92  C   UNL A   1      46.314  36.224  29.514  1.00  0.00     0.022 A 
BRANCH  89  93
ATOM     93  S   UNL A   1      45.053  37.341  27.293  1.00  0.00     0.124 S 
ATOM     94  O   UNL A   1      43.742  36.951  26.787  1.00  0.00    -0.237 OA
ATOM     95  O   UNL A   1      45.082  38.523  28.148  1.00  0.00    -0.237 OA
ATOM     96  O   UNL A   1      46.143  37.253  26.322  1.00  0.00    -0.744 OA
ENDBRANCH  89  93
ENDBRANCH  63  86
ENDBRANCH  37  38
ENDBRANCH  30  32
ENDBRANCH  29  30
ENDBRANCH  28  29
ENDBRANCH  27  28
ENDBRANCH  26  27
ENDBRANCH  25  26
ENDBRANCH   1  25
TORSDOF 23
ENDMDL
MODEL 2
REMARK VINA RESULT:      -9.8      1.898      2.593
REMARK SMILES Cc1cccc(Cl)c1Nc1ccccc1CC(=O)OCCOCCOCCOC(=O)c1ccc(-c2c3nc(c(-c4cc(S(=O)(=O)[O-])ccc4F)c4ccc([nH]4)c(-c4cc(S(=O)(=O)[O-])ccc4F)c4nc(c(-c5cc(S(=O)(=O)[O-])ccc5F)c5ccc2[nH]5)C=C4)C=C3)cc1
REMARK SMILES IDX 23 1 22 2 21 3 20 4 19 5 17 6 18 7 16 8 15 9 10 10 11 11
REMARK SMILES IDX 12 12 14 13 13 14 9 15 8 17 1 18 2 19 3 20 4 21 6 22 5 23
REMARK SMILES IDX 7 24 24 25 25 26 26 27 27 28 28 29 29 30 30 31 31 32 32 33
REMARK SMILES IDX 93 34 33 35 92 36 34 37 35 38 36 39 86 40 37 41 91 42 85 43
REMARK SMILES IDX 87 44 38 45 90 46 84 47 83 48 39 50 71 51 51 52 70 53 52 54
REMARK SMILES IDX 55 55 69 56 88 57 53 58 54 59 68 61 89 62 56 63 40 64 41 65
REMARK SMILES IDX 49 66 42 67 48 68 50 69 47 70 43 71 44 72 45 73 46 74 72 75
REMARK SMILES IDX 73 76 81 77 74 78 80 79 82 80 79 81 75 82 76 83 77 84 78 85
REMARK SMILES IDX 57 86 58 87 66 88 59 89 65 90 67 91 64 92 60 93 61 94 62 95
REMARK SMILES IDX 63 96
REMARK H PARENT 9 16 87 49 55 60
REMARK Flexibility Score: inf
ROOT
ATOM      1  C   UNL A   1      36.911  23.216  25.629  1.00  0.00     0.188 C 
ENDROOT
BRANCH   1   2
ATOM      2  O   UNL A   1      35.610  23.253  25.042  1.00  0.00    -0.376 OA
BRANCH   2   3
ATOM      3  C   UNL A   1      35.502  23.494  23.645  1.00  0.00     0.202 C 
BRANCH   3   4
ATOM      4  C   UNL A   1      34.574  24.646  23.243  1.00  0.00     0.261 C 
BRANCH   4   5
ATOM      5  O   UNL A   1      33.770  24.323  22.090  1.00  0.00    -0.463 OA
BRANCH   5   6
ATOM      6  C   UNL A   1      32.958  25.304  21.617  1.00  0.00     0.310 C 
ATOM      7  O   UNL A   1      33.267  26.048  20.692  1.00  0.00    -0.252 OA
BRANCH   6   8
ATOM      8  C   UNL A   1      31.554  25.254  22.188  1.00  0.00     0.160 C 
BRANCH   8   9
ATOM      9  C   UNL A   1      31.308  25.640  23.639  1.00  0.00    -0.013 A 
ATOM     10  C   UNL A   1      30.768  24.784  24.621  1.00  0.00     0.042 A 
ATOM     11  C   UNL A   1      30.500  25.292  25.911  1.00  0.00     0.026 A 
ATOM     12  C   UNL A   1      30.866  26.587  26.273  1.00  0.00     0.002 A 
ATOM     13  C   UNL A   1      31.736  26.916  24.056  1.00  0.00     0.006 A 
ATOM     14  C   UNL A   1      31.523  27.388  25.353  1.00  0.00     0.000 A 
BRANCH  10  15
ATOM     15  N   UNL A   1      30.682  23.387  24.466  1.00  0.00    -0.354 N 
ATOM     16  H   UNL A   1      29.867  23.063  24.017  1.00  0.00     0.167 HD
BRANCH  15  17
ATOM     17  C   UNL A   1      31.597  22.381  24.861  1.00  0.00     0.060 A 
ATOM     18  C   UNL A   1      31.681  21.643  22.429  1.00  0.00     0.046 C 
ATOM     19  C   UNL A   1      32.185  21.593  23.845  1.00  0.00    -0.026 A 
ATOM     20  C   UNL A   1      33.296  20.787  24.144  1.00  0.00     0.005 A 
ATOM     21  C   UNL A   1      33.808  20.723  25.438  1.00  0.00     0.002 A 
ATOM     22  C   UNL A   1      32.058  22.205  26.190  1.00  0.00     0.064 A 
ATOM     23  C   UNL A   1      33.173  21.408  26.465  1.00  0.00     0.023 A 
ATOM     24  Cl  UNL A   1      31.266  22.896  27.571  1.00  0.00    -0.082 Cl
ENDBRANCH  15  17
ENDBRANCH  10  15
ENDBRANCH   8   9
ENDBRANCH   6   8
ENDBRANCH   5   6
ENDBRANCH   4   5
ENDBRANCH   3   4
ENDBRANCH   2   3
ENDBRANCH   1   2
BRANCH   1  25
ATOM     25  C   UNL A   1      37.915  22.147  25.173  1.00  0.00     0.188 C 
BRANCH  25  26
ATOM     26  O   UNL A   1      37.482  20.836  25.513  1.00  0.00    -0.376 OA
BRANCH  26  27
ATOM     27  C   UNL A   1      38.237  19.815  24.881  1.00  0.00     0.202 C 
BRANCH  27  28
ATOM     28  C   UNL A   1      39.265  19.268  25.873  1.00  0.00     0.261 C 
BRANCH  28  29
ATOM     29  O   UNL A   1      40.565  19.889  25.794  1.00  0.00    -0.460 OA
BRANCH  29  30
ATOM     30  C   UNL A   1      41.226  20.061  26.957  1.00  0.00     0.338 C 
ATOM     31  O   UNL A   1      41.819  19.191  27.590  1.00  0.00    -0.246 OA
BRANCH  30  32
ATOM     32  C   UNL A   1      41.290  21.504  27.273  1.00  0.00     0.060 A 
ATOM     33  C   UNL A   1      40.815  22.424  26.331  1.00  0.00     0.016 A 
ATOM     34  C   UNL A   1      41.850  21.959  28.467  1.00  0.00     0.016 A 
ATOM     35  C   UNL A   1      40.909  23.798  26.567  1.00  0.00     0.010 A 
ATOM     36  C   UNL A   1      41.971  23.336  28.692  1.00  0.00     0.010 A 
ATOM     37  C   UNL A   1      41.525  24.266  27.733  1.00  0.00    -0.014 A 
BRANCH  37  38
ATOM     38  C   UNL A   1      41.874  25.705  27.875  1.00  0.00     0.031 A 
ATOM     39  C   UNL A   1      43.223  26.167  27.390  1.00  0.00     0.074 A 
ATOM     40  C   UNL A   1      41.020  26.591  28.418  1.00  0.00     0.049 A 
ATOM     41  N   UNL A   1      43.809  27.328  27.527  1.00  0.00    -0.248 NA
ATOM     42  C   UNL A   1      44.019  25.172  26.656  1.00  0.00     0.031 C 
ATOM     43  C   UNL A   1      39.660  26.292  28.862  1.00  0.00     0.029 A 
ATOM     44  N   UNL A   1      41.178  27.928  28.700  1.00  0.00    -0.354 N 
ATOM     45  C   UNL A   1      45.054  27.198  26.920  1.00  0.00     0.074 A 
ATOM     46  C   UNL A   1      45.144  25.835  26.438  1.00  0.00     0.031 C 
ATOM     47  C   UNL A   1      39.116  27.406  29.381  1.00  0.00     0.029 A 
ATOM     48  C   UNL A   1      40.104  28.484  29.356  1.00  0.00     0.049 A 
ATOM     49  H   UNL A   1      41.985  28.437  28.457  1.00  0.00     0.167 HD
ATOM     50  C   UNL A   1      46.031  28.129  26.780  1.00  0.00     0.034 A 
ATOM     51  C   UNL A   1      39.951  29.706  29.910  1.00  0.00     0.034 A 
ATOM     52  C   UNL A   1      45.926  29.483  27.268  1.00  0.00     0.049 A 
ATOM     53  C   UNL A   1      41.087  30.700  29.826  1.00  0.00     0.074 A 
ATOM     54  C   UNL A   1      46.848  30.510  27.165  1.00  0.00     0.029 A 
ATOM     55  N   UNL A   1      44.838  29.997  27.964  1.00  0.00    -0.354 N 
ATOM     56  N   UNL A   1      42.268  30.564  29.266  1.00  0.00    -0.248 NA
ATOM     57  C   UNL A   1      40.867  32.013  30.448  1.00  0.00     0.031 C 
ATOM     58  C   UNL A   1      46.354  31.616  27.866  1.00  0.00     0.029 A 
ATOM     59  C   UNL A   1      45.084  31.312  28.331  1.00  0.00     0.049 A 
ATOM     60  H   UNL A   1      44.013  29.499  28.168  1.00  0.00     0.167 HD
ATOM     61  C   UNL A   1      42.917  31.786  29.442  1.00  0.00     0.074 A 
ATOM     62  C   UNL A   1      41.993  32.646  30.151  1.00  0.00     0.031 C 
ATOM     63  C   UNL A   1      44.161  32.163  29.048  1.00  0.00     0.034 A 
BRANCH  50  64
ATOM     64  C   UNL A   1      47.323  27.684  26.134  1.00  0.00     0.023 A 
ATOM     65  C   UNL A   1      47.587  27.892  24.769  1.00  0.00     0.031 A 
ATOM     66  C   UNL A   1      48.289  26.996  26.892  1.00  0.00     0.131 A 
ATOM     67  C   UNL A   1      48.744  27.349  24.189  1.00  0.00     0.055 A 
ATOM     68  C   UNL A   1      49.480  26.535  26.326  1.00  0.00     0.041 A 
ATOM     69  F   UNL A   1      48.084  26.744  28.193  1.00  0.00    -0.206 F 
ATOM     70  C   UNL A   1      49.705  26.694  24.963  1.00  0.00     0.022 A 
BRANCH  67  71
ATOM     71  S   UNL A   1      48.895  27.363  22.381  1.00  0.00     0.124 S 
ATOM     72  O   UNL A   1      50.309  27.689  22.204  1.00  0.00    -0.237 OA
ATOM     73  O   UNL A   1      48.502  26.006  22.020  1.00  0.00    -0.237 OA
ATOM     74  O   UNL A   1      47.967  28.414  21.968  1.00  0.00    -0.744 OA
ENDBRANCH  67  71
ENDBRANCH  50  64
BRANCH  51  75
ATOM     75  C   UNL A   1      38.703  30.044  30.655  1.00  0.00     0.023 A 
ATOM     76  C   UNL A   1      37.689  30.819  30.070  1.00  0.00     0.031 A 
ATOM     77  C   UNL A   1      38.531  29.637  31.991  1.00  0.00     0.131 A 
ATOM     78  C   UNL A   1      36.566  31.191  30.829  1.00  0.00     0.055 A 
ATOM     79  C   UNL A   1      37.389  29.963  32.723  1.00  0.00     0.041 A 
ATOM     80  F   UNL A   1      39.473  28.903  32.603  1.00  0.00    -0.206 F 
ATOM     81  C   UNL A   1      36.403  30.755  32.146  1.00  0.00     0.022 A 
BRANCH  78  82
ATOM     82  S   UNL A   1      35.355  32.326  30.096  1.00  0.00     0.124 S 
ATOM     83  O   UNL A   1      36.191  33.470  29.749  1.00  0.00    -0.237 OA
ATOM     84  O   UNL A   1      34.844  31.543  28.976  1.00  0.00    -0.237 OA
ATOM     85  O   UNL A   1      34.401  32.554  31.179  1.00  0.00    -0.744 OA
ENDBRANCH  78  82
ENDBRANCH  51  75
BRANCH  63  86
ATOM     86  C   UNL A   1      44.575  33.590  29.325  1.00  0.00     0.023 A 
ATOM     87  C   UNL A   1      44.247  34.645  28.456  1.00  0.00     0.031 A 
ATOM     88  C   UNL A   1      45.315  33.896  30.481  1.00  0.00     0.131 A 
ATOM     89  C   UNL A   1      44.702  35.946  28.730  1.00  0.00     0.055 A 
ATOM     90  C   UNL A   1      45.710  35.200  30.783  1.00  0.00     0.041 A 
ATOM     91  F   UNL A   1      45.662  32.929  31.347  1.00  0.00    -0.206 F 
ATOM     92  C   UNL A   1      45.414  36.233  29.898  1.00  0.00     0.022 A 
BRANCH  89  93
ATOM     93  S   UNL A   1      44.432  37.246  27.494  1.00  0.00     0.124 S 
ATOM     94  O   UNL A   1      45.735  37.321  26.843  1.00  0.00    -0.237 OA
ATOM     95  O   UNL A   1      43.348  36.692  26.689  1.00  0.00    -0.237 OA
ATOM     96  O   UNL A   1      44.072  38.413  28.297  1.00  0.00    -0.744 OA
ENDBRANCH  89  93
ENDBRANCH  63  86
ENDBRANCH  37  38
ENDBRANCH  30  32
ENDBRANCH  29  30
ENDBRANCH  28  29
ENDBRANCH  27  28
ENDBRANCH  26  27
ENDBRANCH  25  26
ENDBRANCH   1  25
TORSDOF 23
ENDMDL
MODEL 3
REMARK VINA RESULT:      -9.8      2.114      3.214
REMARK SMILES Cc1cccc(Cl)c1Nc1ccccc1CC(=O)OCCOCCOCCOC(=O)c1ccc(-c2c3nc(c(-c4cc(S(=O)(=O)[O-])ccc4F)c4ccc([nH]4)c(-c4cc(S(=O)(=O)[O-])ccc4F)c4nc(c(-c5cc(S(=O)(=O)[O-])ccc5F)c5ccc2[nH]5)C=C4)C=C3)cc1
REMARK SMILES IDX 23 1 22 2 21 3 20 4 19 5 17 6 18 7 16 8 15 9 10 10 11 11
REMARK SMILES IDX 12 12 14 13 13 14 9 15 8 17 1 18 2 19 3 20 4 21 6 22 5 23
REMARK SMILES IDX 7 24 24 25 25 26 26 27 27 28 28 29 29 30 30 31 31 32 32 33
REMARK SMILES IDX 93 34 33 35 92 36 34 37 35 38 36 39 86 40 37 41 91 42 85 43
REMARK SMILES IDX 87 44 38 45 90 46 84 47 83 48 39 50 71 51 51 52 70 53 52 54
REMARK SMILES IDX 55 55 69 56 88 57 53 58 54 59 68 61 89 62 56 63 40 64 41 65
REMARK SMILES IDX 49 66 42 67 48 68 50 69 47 70 43 71 44 72 45 73 46 74 72 75
REMARK SMILES IDX 73 76 81 77 74 78 80 79 82 80 79 81 75 82 76 83 77 84 78 85
REMARK SMILES IDX 57 86 58 87 66 88 59 89 65 90 67 91 64 92 60 93 61 94 62 95
REMARK SMILES IDX 63 96
REMARK H PARENT 9 16 87 49 55 60
REMARK Flexibility Score: inf
ROOT
ATOM      1  C   UNL A   1      36.117  22.608  25.887  1.00  0.00     0.188 C 
ENDROOT
BRANCH   1   2
ATOM      2  O   UNL A   1      34.692  22.609  25.981  1.00  0.00    -0.376 OA
BRANCH   2   3
ATOM      3  C   UNL A   1      34.096  22.831  27.252  1.00  0.00     0.202 C 
BRANCH   3   4
ATOM      4  C   UNL A   1      32.563  22.846  27.269  1.00  0.00     0.261 C 
BRANCH   4   5
ATOM      5  O   UNL A   1      32.025  24.133  26.905  1.00  0.00    -0.463 OA
BRANCH   5   6
ATOM      6  C   UNL A   1      30.745  24.153  26.448  1.00  0.00     0.310 C 
ATOM      7  O   UNL A   1      29.772  23.922  27.158  1.00  0.00    -0.252 OA
BRANCH   6   8
ATOM      8  C   UNL A   1      30.614  24.701  25.040  1.00  0.00     0.160 C 
BRANCH   8   9
ATOM      9  C   UNL A   1      31.530  24.192  23.937  1.00  0.00    -0.013 A 
ATOM     10  C   UNL A   1      32.246  25.012  23.041  1.00  0.00     0.042 A 
ATOM     11  C   UNL A   1      32.989  24.415  21.999  1.00  0.00     0.026 A 
ATOM     12  C   UNL A   1      33.128  23.032  21.906  1.00  0.00     0.002 A 
ATOM     13  C   UNL A   1      31.751  22.803  23.863  1.00  0.00     0.006 A 
ATOM     14  C   UNL A   1      32.539  22.225  22.865  1.00  0.00     0.000 A 
BRANCH  10  15
ATOM     15  N   UNL A   1      32.451  26.389  23.249  1.00  0.00    -0.354 N 
ATOM     16  H   UNL A   1      32.659  26.911  22.440  1.00  0.00     0.167 HD
BRANCH  15  17
ATOM     17  C   UNL A   1      32.402  27.133  24.454  1.00  0.00     0.060 A 
ATOM     18  C   UNL A   1      34.441  25.825  25.227  1.00  0.00     0.046 C 
ATOM     19  C   UNL A   1      33.449  26.945  25.384  1.00  0.00    -0.026 A 
ATOM     20  C   UNL A   1      33.606  27.848  26.448  1.00  0.00     0.005 A 
ATOM     21  C   UNL A   1      32.722  28.911  26.623  1.00  0.00     0.002 A 
ATOM     22  C   UNL A   1      31.446  28.146  24.723  1.00  0.00     0.064 A 
ATOM     23  C   UNL A   1      31.627  29.043  25.779  1.00  0.00     0.023 A 
ATOM     24  Cl  UNL A   1      29.972  28.324  23.826  1.00  0.00    -0.082 Cl
ENDBRANCH  15  17
ENDBRANCH  10  15
ENDBRANCH   8   9
ENDBRANCH   6   8
ENDBRANCH   5   6
ENDBRANCH   4   5
ENDBRANCH   3   4
ENDBRANCH   2   3
ENDBRANCH   1   2
BRANCH   1  25
ATOM     25  C   UNL A   1      36.804  21.707  24.851  1.00  0.00     0.188 C 
BRANCH  25  26
ATOM     26  O   UNL A   1      36.980  20.382  25.335  1.00  0.00    -0.376 OA
BRANCH  26  27
ATOM     27  C   UNL A   1      38.060  19.699  24.720  1.00  0.00     0.202 C 
BRANCH  27  28
ATOM     28  C   UNL A   1      39.156  19.462  25.760  1.00  0.00     0.261 C 
BRANCH  28  29
ATOM     29  O   UNL A   1      40.196  20.463  25.776  1.00  0.00    -0.460 OA
BRANCH  29  30
ATOM     30  C   UNL A   1      40.935  20.551  26.901  1.00  0.00     0.338 C 
ATOM     31  O   UNL A   1      41.558  19.634  27.433  1.00  0.00    -0.246 OA
BRANCH  30  32
ATOM     32  C   UNL A   1      41.040  21.968  27.307  1.00  0.00     0.060 A 
ATOM     33  C   UNL A   1      40.368  22.939  26.554  1.00  0.00     0.016 A 
ATOM     34  C   UNL A   1      41.825  22.353  28.395  1.00  0.00     0.016 A 
ATOM     35  C   UNL A   1      40.487  24.294  26.871  1.00  0.00     0.010 A 
ATOM     36  C   UNL A   1      41.967  23.714  28.696  1.00  0.00     0.010 A 
ATOM     37  C   UNL A   1      41.320  24.696  27.921  1.00  0.00    -0.014 A 
BRANCH  37  38
ATOM     38  C   UNL A   1      41.669  26.131  28.099  1.00  0.00     0.031 A 
ATOM     39  C   UNL A   1      43.058  26.583  27.734  1.00  0.00     0.074 A 
ATOM     40  C   UNL A   1      40.778  27.023  28.571  1.00  0.00     0.049 A 
ATOM     41  N   UNL A   1      43.640  27.738  27.927  1.00  0.00    -0.248 NA
ATOM     42  C   UNL A   1      43.906  25.584  27.067  1.00  0.00     0.031 C 
ATOM     43  C   UNL A   1      39.383  26.734  28.895  1.00  0.00     0.029 A 
ATOM     44  N   UNL A   1      40.923  28.357  28.873  1.00  0.00    -0.354 N 
ATOM     45  C   UNL A   1      44.932  27.600  27.429  1.00  0.00     0.074 A 
ATOM     46  C   UNL A   1      45.051  26.238  26.950  1.00  0.00     0.031 C 
ATOM     47  C   UNL A   1      38.806  27.851  29.371  1.00  0.00     0.029 A 
ATOM     48  C   UNL A   1      39.801  28.921  29.436  1.00  0.00     0.049 A 
ATOM     49  H   UNL A   1      41.752  28.860  28.702  1.00  0.00     0.167 HD
ATOM     50  C   UNL A   1      45.925  28.522  27.377  1.00  0.00     0.034 A 
ATOM     51  C   UNL A   1      39.613  30.141  29.981  1.00  0.00     0.034 A 
ATOM     52  C   UNL A   1      45.790  29.875  27.861  1.00  0.00     0.049 A 
ATOM     53  C   UNL A   1      40.760  31.125  30.000  1.00  0.00     0.074 A 
ATOM     54  C   UNL A   1      46.726  30.894  27.843  1.00  0.00     0.029 A 
ATOM     55  N   UNL A   1      44.651  30.396  28.464  1.00  0.00    -0.354 N 
ATOM     56  N   UNL A   1      41.983  30.981  29.543  1.00  0.00    -0.248 NA
ATOM     57  C   UNL A   1      40.499  32.438  30.607  1.00  0.00     0.031 C 
ATOM     58  C   UNL A   1      46.184  32.001  28.504  1.00  0.00     0.029 A 
ATOM     59  C   UNL A   1      44.875  31.707  28.856  1.00  0.00     0.049 A 
ATOM     60  H   UNL A   1      43.807  29.905  28.594  1.00  0.00     0.167 HD
ATOM     61  C   UNL A   1      42.625  32.196  29.780  1.00  0.00     0.074 A 
ATOM     62  C   UNL A   1      41.651  33.062  30.410  1.00  0.00     0.031 C 
ATOM     63  C   UNL A   1      43.902  32.563  29.496  1.00  0.00     0.034 A 
BRANCH  50  64
ATOM     64  C   UNL A   1      47.264  28.068  26.843  1.00  0.00     0.023 A 
ATOM     65  C   UNL A   1      47.535  28.002  25.465  1.00  0.00     0.031 A 
ATOM     66  C   UNL A   1      48.272  27.650  27.731  1.00  0.00     0.131 A 
ATOM     67  C   UNL A   1      48.747  27.453  25.016  1.00  0.00     0.055 A 
ATOM     68  C   UNL A   1      49.510  27.189  27.279  1.00  0.00     0.041 A 
ATOM     69  F   UNL A   1      48.065  27.666  29.057  1.00  0.00    -0.206 F 
ATOM     70  C   UNL A   1      49.747  27.071  25.913  1.00  0.00     0.022 A 
BRANCH  67  71
ATOM     71  S   UNL A   1      48.932  27.093  23.247  1.00  0.00     0.124 S 
ATOM     72  O   UNL A   1      50.379  26.920  23.130  1.00  0.00    -0.237 OA
ATOM     73  O   UNL A   1      48.129  25.886  23.085  1.00  0.00    -0.237 OA
ATOM     74  O   UNL A   1      48.401  28.289  22.596  1.00  0.00    -0.744 OA
ENDBRANCH  67  71
ENDBRANCH  50  64
BRANCH  51  75
ATOM     75  C   UNL A   1      38.307  30.487  30.618  1.00  0.00     0.023 A 
ATOM     76  C   UNL A   1      37.351  31.267  29.948  1.00  0.00     0.031 A 
ATOM     77  C   UNL A   1      38.021  30.084  31.935  1.00  0.00     0.131 A 
ATOM     78  C   UNL A   1      36.170  31.647  30.610  1.00  0.00     0.055 A 
ATOM     79  C   UNL A   1      36.824  30.417  32.568  1.00  0.00     0.041 A 
ATOM     80  F   UNL A   1      38.905  29.346  32.626  1.00  0.00    -0.206 F 
ATOM     81  C   UNL A   1      35.894  31.214  31.908  1.00  0.00     0.022 A 
BRANCH  78  82
ATOM     82  S   UNL A   1      35.032  32.787  29.775  1.00  0.00     0.124 S 
ATOM     83  O   UNL A   1      34.228  31.871  28.973  1.00  0.00    -0.237 OA
ATOM     84  O   UNL A   1      34.353  33.417  30.902  1.00  0.00    -0.237 OA
ATOM     85  O   UNL A   1      35.921  33.665  29.018  1.00  0.00    -0.744 OA
ENDBRANCH  78  82
ENDBRANCH  51  75
BRANCH  63  86
ATOM     86  C   UNL A   1      44.303  33.986  29.814  1.00  0.00     0.023 A 
ATOM     87  C   UNL A   1      44.805  34.356  31.074  1.00  0.00     0.031 A 
ATOM     88  C   UNL A   1      44.178  34.988  28.835  1.00  0.00     0.131 A 
ATOM     89  C   UNL A   1      45.112  35.701  31.338  1.00  0.00     0.055 A 
ATOM     90  C   UNL A   1      44.545  36.311  29.082  1.00  0.00     0.041 A 
ATOM     91  F   UNL A   1      43.701  34.696  27.615  1.00  0.00    -0.206 F 
ATOM     92  C   UNL A   1      45.004  36.677  30.344  1.00  0.00     0.022 A 
BRANCH  89  93
ATOM     93  S   UNL A   1      45.569  36.179  33.028  1.00  0.00     0.124 S 
ATOM     94  O   UNL A   1      45.013  37.524  33.123  1.00  0.00    -0.237 OA
ATOM     95  O   UNL A   1      44.907  35.156  33.832  1.00  0.00    -0.237 OA
ATOM     96  O   UNL A   1      47.029  36.111  33.021  1.00  0.00    -0.744 OA
ENDBRANCH  89  93
ENDBRANCH  63  86
ENDBRANCH  37  38
ENDBRANCH  30  32
ENDBRANCH  29  30
ENDBRANCH  28  29
ENDBRANCH  27  28
ENDBRANCH  26  27
ENDBRANCH  25  26
ENDBRANCH   1  25
TORSDOF 23
ENDMDL
