MODEL 1
REMARK VINA RESULT:     -11.2      0.000      0.000
REMARK SMILES Cc1cc2nc(NC3=[NH+][C@H](CC(=O)OCCOCCOCCOC(=O)c4ccc(-c5c6nc(c(-c7cc(S(=O)(=O)[O-])ccc7F)c7ccc([nH]7)c(-c7cc(S(=O)(=O)[O-])ccc7F)c7nc(c(-c8cc(S(=O)(=O)[O-])ccc8F)c8ccc5[nH]8)C=C7)C=C6)cc4)C(=O)N3)nc(C)c2cc1C
REMARK SMILES IDX 19 1 18 2 17 3 16 4 15 5 14 6 12 7 13 8 11 9 10 10 7 11 8 12
REMARK SMILES IDX 9 14 91 15 89 17 90 19 6 20 1 21 2 22 3 23 97 24 4 25 96 26
REMARK SMILES IDX 98 27 5 28 95 29 93 30 92 31 94 32 20 33 21 34 22 35 23 36
REMARK SMILES IDX 24 37 25 38 26 39 27 40 88 41 28 42 87 43 29 44 30 45 31 46
REMARK SMILES IDX 81 47 32 48 86 49 80 50 82 51 33 52 85 53 79 54 78 55 34 57
REMARK SMILES IDX 66 58 46 59 65 60 47 61 50 62 64 63 83 64 48 65 49 66 63 68
REMARK SMILES IDX 84 69 51 70 35 71 36 72 44 73 37 74 43 75 45 76 42 77 38 78
REMARK SMILES IDX 39 79 40 80 41 81 67 82 68 83 76 84 69 85 75 86 77 87 74 88
REMARK SMILES IDX 70 89 71 90 72 91 73 92 52 93 53 94 61 95 54 96 60 97 62 98
REMARK SMILES IDX 59 99 55 100 56 101 57 102 58 103
REMARK H PARENT 7 13 9 16 91 18 82 56 50 67
REMARK Flexibility Score: inf
ROOT
ATOM      1  C   UNL A   1      32.894  29.744  26.035  1.00  0.00     0.188 C 
ENDROOT
BRANCH   1   2
ATOM      2  C   UNL A   1      34.136  29.027  26.569  1.00  0.00     0.188 C 
BRANCH   2   3
ATOM      3  O   UNL A   1      34.104  27.604  26.517  1.00  0.00    -0.376 OA
BRANCH   3   4
ATOM      4  C   UNL A   1      33.205  27.026  25.569  1.00  0.00     0.202 C 
BRANCH   4   5
ATOM      5  C   UNL A   1      33.705  26.968  24.118  1.00  0.00     0.261 C 
BRANCH   5   6
ATOM      6  O   UNL A   1      33.890  25.623  23.640  1.00  0.00    -0.463 OA
BRANCH   6   7
ATOM      7  C   UNL A   1      33.231  25.291  22.500  1.00  0.00     0.310 C 
ATOM      8  O   UNL A   1      33.512  24.323  21.799  1.00  0.00    -0.252 OA
BRANCH   7   9
ATOM      9  C   UNL A   1      32.004  26.134  22.222  1.00  0.00     0.175 C 
BRANCH   9  10
ATOM     10  C   UNL A   1      30.645  25.557  22.593  1.00  0.00     0.262 C 
ATOM     11  N   UNL A   1      30.693  23.157  25.207  1.00  0.00    -0.212 N 
ATOM     12  C   UNL A   1      30.505  24.193  24.355  1.00  0.00     0.358 C 
ATOM     13  H   UNL A   1      30.017  22.966  25.895  1.00  0.00     0.270 HD
ATOM     14  N   UNL A   1      30.803  24.181  23.095  1.00  0.00    -0.263 N 
ATOM     15  N   UNL A   1      29.997  25.358  24.796  1.00  0.00    -0.211 N 
ATOM     16  H   UNL A   1      31.084  23.396  22.570  1.00  0.00     0.261 HD
ATOM     17  C   UNL A   1      30.077  26.279  23.802  1.00  0.00     0.320 C 
ATOM     18  H   UNL A   1      29.626  25.517  25.693  1.00  0.00     0.270 HD
ATOM     19  O   UNL A   1      29.814  27.464  23.907  1.00  0.00    -0.252 OA
BRANCH  11  20
ATOM     20  C   UNL A   1      31.830  22.360  25.123  1.00  0.00     0.291 A 
ATOM     21  C   UNL A   1      37.828  23.016  25.279  1.00  0.00     0.044 C 
ATOM     22  C   UNL A   1      36.570  22.191  25.227  1.00  0.00    -0.046 A 
ATOM     23  C   UNL A   1      35.344  22.864  25.290  1.00  0.00     0.033 A 
ATOM     24  C   UNL A   1      36.564  20.801  25.048  1.00  0.00    -0.047 A 
ATOM     25  C   UNL A   1      34.129  22.208  25.192  1.00  0.00     0.078 A 
ATOM     26  C   UNL A   1      35.330  20.130  24.960  1.00  0.00     0.016 A 
ATOM     27  C   UNL A   1      37.844  20.021  24.937  1.00  0.00     0.044 C 
ATOM     28  N   UNL A   1      33.028  22.941  25.256  1.00  0.00    -0.198 NA
ATOM     29  C   UNL A   1      34.098  20.831  25.027  1.00  0.00     0.022 A 
ATOM     30  C   UNL A   1      32.803  20.288  24.940  1.00  0.00     0.052 A 
ATOM     31  N   UNL A   1      31.673  21.038  25.004  1.00  0.00    -0.203 NA
ATOM     32  C   UNL A   1      32.588  18.814  24.769  1.00  0.00     0.067 C 
ENDBRANCH  11  20
ENDBRANCH   9  10
ENDBRANCH   7   9
ENDBRANCH   6   7
ENDBRANCH   5   6
ENDBRANCH   4   5
ENDBRANCH   3   4
ENDBRANCH   2   3
ENDBRANCH   1   2
BRANCH   1  33
ATOM     33  O   UNL A   1      32.169  30.537  26.965  1.00  0.00    -0.376 OA
BRANCH  33  34
ATOM     34  C   UNL A   1      31.214  31.443  26.403  1.00  0.00     0.202 C 
BRANCH  34  35
ATOM     35  C   UNL A   1      31.510  32.949  26.565  1.00  0.00     0.261 C 
BRANCH  35  36
ATOM     36  O   UNL A   1      32.897  33.314  26.727  1.00  0.00    -0.460 OA
BRANCH  36  37
ATOM     37  C   UNL A   1      33.266  33.970  27.855  1.00  0.00     0.338 C 
ATOM     38  O   UNL A   1      32.618  34.831  28.425  1.00  0.00    -0.246 OA
BRANCH  37  39
ATOM     39  C   UNL A   1      34.443  33.257  28.442  1.00  0.00     0.060 A 
ATOM     40  C   UNL A   1      35.743  33.761  28.331  1.00  0.00     0.016 A 
ATOM     41  C   UNL A   1      34.244  31.989  29.010  1.00  0.00     0.016 A 
ATOM     42  C   UNL A   1      36.830  33.013  28.807  1.00  0.00     0.010 A 
ATOM     43  C   UNL A   1      35.331  31.241  29.484  1.00  0.00     0.010 A 
ATOM     44  C   UNL A   1      36.634  31.754  29.405  1.00  0.00    -0.014 A 
BRANCH  44  45
ATOM     45  C   UNL A   1      37.754  31.099  30.140  1.00  0.00     0.031 A 
ATOM     46  C   UNL A   1      38.616  30.023  29.544  1.00  0.00     0.074 A 
ATOM     47  C   UNL A   1      37.971  31.490  31.411  1.00  0.00     0.049 A 
ATOM     48  N   UNL A   1      39.679  29.453  30.054  1.00  0.00    -0.248 NA
ATOM     49  C   UNL A   1      38.239  29.513  28.219  1.00  0.00     0.031 C 
ATOM     50  C   UNL A   1      37.165  32.487  32.118  1.00  0.00     0.029 A 
ATOM     51  N   UNL A   1      38.918  31.113  32.330  1.00  0.00    -0.354 N 
ATOM     52  C   UNL A   1      40.116  28.529  29.112  1.00  0.00     0.074 A 
ATOM     53  C   UNL A   1      39.169  28.583  28.015  1.00  0.00     0.031 C 
ATOM     54  C   UNL A   1      37.666  32.661  33.348  1.00  0.00     0.029 A 
ATOM     55  C   UNL A   1      38.809  31.770  33.535  1.00  0.00     0.049 A 
ATOM     56  H   UNL A   1      39.609  30.435  32.147  1.00  0.00     0.167 HD
ATOM     57  C   UNL A   1      41.212  27.729  29.155  1.00  0.00     0.034 A 
ATOM     58  C   UNL A   1      39.542  31.680  34.663  1.00  0.00     0.034 A 
ATOM     59  C   UNL A   1      42.139  27.679  30.265  1.00  0.00     0.049 A 
ATOM     60  C   UNL A   1      40.747  30.776  34.690  1.00  0.00     0.074 A 
ATOM     61  C   UNL A   1      43.317  26.956  30.359  1.00  0.00     0.029 A 
ATOM     62  N   UNL A   1      41.997  28.355  31.469  1.00  0.00    -0.354 N 
ATOM     63  N   UNL A   1      41.227  30.018  33.734  1.00  0.00    -0.248 NA
ATOM     64  C   UNL A   1      41.523  30.730  35.937  1.00  0.00     0.031 C 
ATOM     65  C   UNL A   1      43.838  27.125  31.642  1.00  0.00     0.029 A 
ATOM     66  C   UNL A   1      43.041  28.028  32.324  1.00  0.00     0.049 A 
ATOM     67  H   UNL A   1      41.262  28.974  31.686  1.00  0.00     0.167 HD
ATOM     68  C   UNL A   1      42.376  29.426  34.255  1.00  0.00     0.074 A 
ATOM     69  C   UNL A   1      42.532  29.936  35.600  1.00  0.00     0.031 C 
ATOM     70  C   UNL A   1      43.217  28.539  33.664  1.00  0.00     0.034 A 
BRANCH  57  71
ATOM     71  C   UNL A   1      41.533  26.853  27.964  1.00  0.00     0.023 A 
ATOM     72  C   UNL A   1      41.314  25.462  28.022  1.00  0.00     0.031 A 
ATOM     73  C   UNL A   1      42.233  27.365  26.855  1.00  0.00     0.131 A 
ATOM     74  C   UNL A   1      41.828  24.629  27.018  1.00  0.00     0.055 A 
ATOM     75  C   UNL A   1      42.702  26.536  25.835  1.00  0.00     0.041 A 
ATOM     76  F   UNL A   1      42.487  28.680  26.757  1.00  0.00    -0.206 F 
ATOM     77  C   UNL A   1      42.514  25.160  25.921  1.00  0.00     0.022 A 
BRANCH  74  78
ATOM     78  S   UNL A   1      41.712  22.821  27.139  1.00  0.00     0.124 S 
ATOM     79  O   UNL A   1      40.364  22.642  27.677  1.00  0.00    -0.237 OA
ATOM     80  O   UNL A   1      41.885  22.409  25.750  1.00  0.00    -0.237 OA
ATOM     81  O   UNL A   1      42.795  22.459  28.046  1.00  0.00    -0.744 OA
ENDBRANCH  74  78
ENDBRANCH  57  71
BRANCH  58  82
ATOM     82  C   UNL A   1      39.181  32.548  35.823  1.00  0.00     0.023 A 
ATOM     83  C   UNL A   1      39.605  33.888  35.881  1.00  0.00     0.031 A 
ATOM     84  C   UNL A   1      38.518  32.014  36.941  1.00  0.00     0.131 A 
ATOM     85  C   UNL A   1      39.430  34.622  37.061  1.00  0.00     0.055 A 
ATOM     86  C   UNL A   1      38.276  32.775  38.085  1.00  0.00     0.041 A 
ATOM     87  F   UNL A   1      38.111  30.735  36.939  1.00  0.00    -0.206 F 
ATOM     88  C   UNL A   1      38.751  34.080  38.156  1.00  0.00     0.022 A 
BRANCH  85  89
ATOM     89  S   UNL A   1      40.208  36.249  37.266  1.00  0.00     0.124 S 
ATOM     90  O   UNL A   1      41.580  35.890  37.610  1.00  0.00    -0.237 OA
ATOM     91  O   UNL A   1      40.022  36.835  35.942  1.00  0.00    -0.237 OA
ATOM     92  O   UNL A   1      39.433  36.871  38.334  1.00  0.00    -0.744 OA
ENDBRANCH  85  89
ENDBRANCH  58  82
BRANCH  70  93
ATOM     93  C   UNL A   1      44.412  28.033  34.445  1.00  0.00     0.023 A 
ATOM     94  C   UNL A   1      44.269  26.944  35.329  1.00  0.00     0.031 A 
ATOM     95  C   UNL A   1      45.640  28.718  34.437  1.00  0.00     0.131 A 
ATOM     96  C   UNL A   1      45.313  26.605  36.199  1.00  0.00     0.055 A 
ATOM     97  C   UNL A   1      46.697  28.342  35.268  1.00  0.00     0.041 A 
ATOM     98  F   UNL A   1      45.829  29.770  33.624  1.00  0.00    -0.206 F 
ATOM     99  C   UNL A   1      46.531  27.291  36.166  1.00  0.00     0.022 A 
BRANCH  96 100
ATOM    100  S   UNL A   1      45.100  25.328  37.470  1.00  0.00     0.124 S 
ATOM    101  O   UNL A   1      43.672  25.426  37.763  1.00  0.00    -0.237 OA
ATOM    102  O   UNL A   1      45.508  24.117  36.761  1.00  0.00    -0.237 OA
ATOM    103  O   UNL A   1      45.986  25.752  38.550  1.00  0.00    -0.744 OA
ENDBRANCH  96 100
ENDBRANCH  70  93
ENDBRANCH  44  45
ENDBRANCH  37  39
ENDBRANCH  36  37
ENDBRANCH  35  36
ENDBRANCH  34  35
ENDBRANCH  33  34
ENDBRANCH   1  33
TORSDOF 22
ENDMDL
MODEL 2
REMARK VINA RESULT:     -10.9      1.916      7.512
REMARK SMILES Cc1cc2nc(NC3=[NH+][C@H](CC(=O)OCCOCCOCCOC(=O)c4ccc(-c5c6nc(c(-c7cc(S(=O)(=O)[O-])ccc7F)c7ccc([nH]7)c(-c7cc(S(=O)(=O)[O-])ccc7F)c7nc(c(-c8cc(S(=O)(=O)[O-])ccc8F)c8ccc5[nH]8)C=C7)C=C6)cc4)C(=O)N3)nc(C)c2cc1C
REMARK SMILES IDX 19 1 18 2 17 3 16 4 15 5 14 6 12 7 13 8 11 9 10 10 7 11 8 12
REMARK SMILES IDX 9 14 91 15 89 17 90 19 6 20 1 21 2 22 3 23 97 24 4 25 96 26
REMARK SMILES IDX 98 27 5 28 95 29 93 30 92 31 94 32 20 33 21 34 22 35 23 36
REMARK SMILES IDX 24 37 25 38 26 39 27 40 88 41 28 42 87 43 29 44 30 45 31 46
REMARK SMILES IDX 81 47 32 48 86 49 80 50 82 51 33 52 85 53 79 54 78 55 34 57
REMARK SMILES IDX 66 58 46 59 65 60 47 61 50 62 64 63 83 64 48 65 49 66 63 68
REMARK SMILES IDX 84 69 51 70 35 71 36 72 44 73 37 74 43 75 45 76 42 77 38 78
REMARK SMILES IDX 39 79 40 80 41 81 67 82 68 83 76 84 69 85 75 86 77 87 74 88
REMARK SMILES IDX 70 89 71 90 72 91 73 92 52 93 53 94 61 95 54 96 60 97 62 98
REMARK SMILES IDX 59 99 55 100 56 101 57 102 58 103
REMARK H PARENT 7 13 9 16 91 18 82 56 50 67
REMARK Flexibility Score: inf
ROOT
ATOM      1  C   UNL A   1      32.521  29.551  26.470  1.00  0.00     0.188 C 
ENDROOT
BRANCH   1   2
ATOM      2  C   UNL A   1      33.975  29.242  26.830  1.00  0.00     0.188 C 
BRANCH   2   3
ATOM      3  O   UNL A   1      34.376  27.882  26.692  1.00  0.00    -0.376 OA
BRANCH   3   4
ATOM      4  C   UNL A   1      33.644  27.101  25.746  1.00  0.00     0.202 C 
BRANCH   4   5
ATOM      5  C   UNL A   1      34.027  27.297  24.272  1.00  0.00     0.261 C 
BRANCH   5   6
ATOM      6  O   UNL A   1      34.029  26.068  23.523  1.00  0.00    -0.463 OA
BRANCH   6   7
ATOM      7  C   UNL A   1      33.369  26.083  22.336  1.00  0.00     0.310 C 
ATOM      8  O   UNL A   1      33.575  25.288  21.423  1.00  0.00    -0.252 OA
BRANCH   7   9
ATOM      9  C   UNL A   1      32.233  27.083  22.268  1.00  0.00     0.175 C 
BRANCH   9  10
ATOM     10  C   UNL A   1      30.825  26.581  22.558  1.00  0.00     0.262 C 
ATOM     11  N   UNL A   1      30.588  24.204  25.181  1.00  0.00    -0.212 N 
ATOM     12  C   UNL A   1      30.507  25.241  24.315  1.00  0.00     0.358 C 
ATOM     13  H   UNL A   1      29.861  24.054  25.828  1.00  0.00     0.270 HD
ATOM     14  N   UNL A   1      30.880  25.203  23.076  1.00  0.00    -0.263 N 
ATOM     15  N   UNL A   1      30.036  26.435  24.718  1.00  0.00    -0.211 N 
ATOM     16  H   UNL A   1      31.149  24.401  22.572  1.00  0.00     0.261 HD
ATOM     17  C   UNL A   1      30.225  27.342  23.727  1.00  0.00     0.320 C 
ATOM     18  H   UNL A   1      29.621  26.620  25.591  1.00  0.00     0.270 HD
ATOM     19  O   UNL A   1      30.020  28.541  23.810  1.00  0.00    -0.252 OA
BRANCH  11  20
ATOM     20  C   UNL A   1      31.683  23.346  25.170  1.00  0.00     0.291 A 
ATOM     21  C   UNL A   1      32.871  17.549  23.981  1.00  0.00     0.044 C 
ATOM     22  C   UNL A   1      33.274  18.958  24.325  1.00  0.00    -0.046 A 
ATOM     23  C   UNL A   1      32.269  19.931  24.385  1.00  0.00     0.033 A 
ATOM     24  C   UNL A   1      34.586  19.326  24.658  1.00  0.00    -0.047 A 
ATOM     25  C   UNL A   1      32.523  21.241  24.750  1.00  0.00     0.078 A 
ATOM     26  C   UNL A   1      34.849  20.662  25.017  1.00  0.00     0.016 A 
ATOM     27  C   UNL A   1      35.706  18.325  24.648  1.00  0.00     0.044 C 
ATOM     28  N   UNL A   1      31.498  22.080  24.782  1.00  0.00    -0.198 NA
ATOM     29  C   UNL A   1      33.815  21.632  25.070  1.00  0.00     0.022 A 
ATOM     30  C   UNL A   1      33.937  22.988  25.424  1.00  0.00     0.052 A 
ATOM     31  N   UNL A   1      32.888  23.850  25.459  1.00  0.00    -0.203 NA
ATOM     32  C   UNL A   1      35.266  23.580  25.792  1.00  0.00     0.067 C 
ENDBRANCH  11  20
ENDBRANCH   9  10
ENDBRANCH   7   9
ENDBRANCH   6   7
ENDBRANCH   5   6
ENDBRANCH   4   5
ENDBRANCH   3   4
ENDBRANCH   2   3
ENDBRANCH   1   2
BRANCH   1  33
ATOM     33  O   UNL A   1      31.887  30.583  27.213  1.00  0.00    -0.376 OA
BRANCH  33  34
ATOM     34  C   UNL A   1      31.296  31.635  26.443  1.00  0.00     0.202 C 
BRANCH  34  35
ATOM     35  C   UNL A   1      31.753  33.073  26.772  1.00  0.00     0.261 C 
BRANCH  35  36
ATOM     36  O   UNL A   1      33.167  33.258  26.995  1.00  0.00    -0.460 OA
BRANCH  36  37
ATOM     37  C   UNL A   1      33.564  33.926  28.106  1.00  0.00     0.338 C 
ATOM     38  O   UNL A   1      32.918  34.771  28.702  1.00  0.00    -0.246 OA
BRANCH  37  39
ATOM     39  C   UNL A   1      34.784  33.247  28.645  1.00  0.00     0.060 A 
ATOM     40  C   UNL A   1      36.069  33.755  28.431  1.00  0.00     0.016 A 
ATOM     41  C   UNL A   1      34.633  32.002  29.276  1.00  0.00     0.016 A 
ATOM     42  C   UNL A   1      37.191  33.035  28.866  1.00  0.00     0.010 A 
ATOM     43  C   UNL A   1      35.756  31.282  29.708  1.00  0.00     0.010 A 
ATOM     44  C   UNL A   1      37.046  31.800  29.526  1.00  0.00    -0.014 A 
BRANCH  44  45
ATOM     45  C   UNL A   1      38.217  31.184  30.213  1.00  0.00     0.031 A 
ATOM     46  C   UNL A   1      38.641  31.547  31.608  1.00  0.00     0.074 A 
ATOM     47  C   UNL A   1      38.933  30.277  29.520  1.00  0.00     0.049 A 
ATOM     48  N   UNL A   1      39.582  31.006  32.341  1.00  0.00    -0.248 NA
ATOM     49  C   UNL A   1      37.935  32.657  32.262  1.00  0.00     0.031 C 
ATOM     50  C   UNL A   1      38.652  29.884  28.139  1.00  0.00     0.029 A 
ATOM     51  N   UNL A   1      40.026  29.523  29.867  1.00  0.00    -0.354 N 
ATOM     52  C   UNL A   1      39.575  31.689  33.551  1.00  0.00     0.074 A 
ATOM     53  C   UNL A   1      38.563  32.721  33.432  1.00  0.00     0.031 C 
ATOM     54  C   UNL A   1      39.531  28.945  27.765  1.00  0.00     0.029 A 
ATOM     55  C   UNL A   1      40.459  28.687  28.863  1.00  0.00     0.049 A 
ATOM     56  H   UNL A   1      40.461  29.576  30.749  1.00  0.00     0.167 HD
ATOM     57  C   UNL A   1      40.329  31.462  34.657  1.00  0.00     0.034 A 
ATOM     58  C   UNL A   1      41.479  27.806  28.822  1.00  0.00     0.034 A 
ATOM     59  C   UNL A   1      41.344  30.436  34.752  1.00  0.00     0.049 A 
ATOM     60  C   UNL A   1      42.309  27.580  30.058  1.00  0.00     0.074 A 
ATOM     61  C   UNL A   1      42.101  30.085  35.858  1.00  0.00     0.029 A 
ATOM     62  N   UNL A   1      41.760  29.610  33.716  1.00  0.00    -0.354 N 
ATOM     63  N   UNL A   1      42.192  28.135  31.240  1.00  0.00    -0.248 NA
ATOM     64  C   UNL A   1      43.395  26.594  29.967  1.00  0.00     0.031 C 
ATOM     65  C   UNL A   1      43.026  29.115  35.473  1.00  0.00     0.029 A 
ATOM     66  C   UNL A   1      42.790  28.786  34.149  1.00  0.00     0.049 A 
ATOM     67  H   UNL A   1      41.379  29.609  32.808  1.00  0.00     0.167 HD
ATOM     68  C   UNL A   1      43.170  27.547  32.040  1.00  0.00     0.074 A 
ATOM     69  C   UNL A   1      43.851  26.575  31.213  1.00  0.00     0.031 C 
ATOM     70  C   UNL A   1      43.470  27.800  33.339  1.00  0.00     0.034 A 
BRANCH  57  71
ATOM     71  C   UNL A   1      40.088  32.294  35.898  1.00  0.00     0.023 A 
ATOM     72  C   UNL A   1      39.056  31.952  36.795  1.00  0.00     0.031 A 
ATOM     73  C   UNL A   1      40.745  33.524  36.085  1.00  0.00     0.131 A 
ATOM     74  C   UNL A   1      38.682  32.849  37.807  1.00  0.00     0.055 A 
ATOM     75  C   UNL A   1      40.400  34.392  37.122  1.00  0.00     0.041 A 
ATOM     76  F   UNL A   1      41.722  33.909  35.248  1.00  0.00    -0.206 F 
ATOM     77  C   UNL A   1      39.354  34.064  37.980  1.00  0.00     0.022 A 
BRANCH  74  78
ATOM     78  S   UNL A   1      37.253  32.522  38.878  1.00  0.00     0.124 S 
ATOM     79  O   UNL A   1      36.141  32.962  38.037  1.00  0.00    -0.237 OA
ATOM     80  O   UNL A   1      37.346  31.080  39.081  1.00  0.00    -0.237 OA
ATOM     81  O   UNL A   1      37.502  33.343  40.057  1.00  0.00    -0.744 OA
ENDBRANCH  74  78
ENDBRANCH  57  71
BRANCH  58  82
ATOM     82  C   UNL A   1      41.696  27.019  27.572  1.00  0.00     0.023 A 
ATOM     83  C   UNL A   1      41.385  25.648  27.519  1.00  0.00     0.031 A 
ATOM     84  C   UNL A   1      42.332  27.596  26.461  1.00  0.00     0.131 A 
ATOM     85  C   UNL A   1      41.780  24.887  26.412  1.00  0.00     0.055 A 
ATOM     86  C   UNL A   1      42.652  26.850  25.326  1.00  0.00     0.041 A 
ATOM     87  F   UNL A   1      42.665  28.896  26.472  1.00  0.00    -0.206 F 
ATOM     88  C   UNL A   1      42.394  25.483  25.307  1.00  0.00     0.022 A 
BRANCH  85  89
ATOM     89  S   UNL A   1      41.645  23.077  26.433  1.00  0.00     0.124 S 
ATOM     90  O   UNL A   1      40.199  22.880  26.399  1.00  0.00    -0.237 OA
ATOM     91  O   UNL A   1      42.360  22.712  25.213  1.00  0.00    -0.237 OA
ATOM     92  O   UNL A   1      42.305  22.695  27.676  1.00  0.00    -0.744 OA
ENDBRANCH  85  89
ENDBRANCH  58  82
BRANCH  70  93
ATOM     93  C   UNL A   1      44.591  27.022  33.996  1.00  0.00     0.023 A 
ATOM     94  C   UNL A   1      45.933  27.396  33.778  1.00  0.00     0.031 A 
ATOM     95  C   UNL A   1      44.345  25.829  34.698  1.00  0.00     0.131 A 
ATOM     96  C   UNL A   1      46.972  26.564  34.213  1.00  0.00     0.055 A 
ATOM     97  C   UNL A   1      45.385  25.030  35.178  1.00  0.00     0.041 A 
ATOM     98  F   UNL A   1      43.087  25.417  34.924  1.00  0.00    -0.206 F 
ATOM     99  C   UNL A   1      46.706  25.388  34.921  1.00  0.00     0.022 A 
BRANCH  96 100
ATOM    100  S   UNL A   1      48.701  26.922  33.796  1.00  0.00     0.124 S 
ATOM    101  O   UNL A   1      49.398  26.519  35.015  1.00  0.00    -0.237 OA
ATOM    102  O   UNL A   1      48.924  26.060  32.638  1.00  0.00    -0.237 OA
ATOM    103  O   UNL A   1      48.709  28.356  33.522  1.00  0.00    -0.744 OA
ENDBRANCH  96 100
ENDBRANCH  70  93
ENDBRANCH  44  45
ENDBRANCH  37  39
ENDBRANCH  36  37
ENDBRANCH  35  36
ENDBRANCH  34  35
ENDBRANCH  33  34
ENDBRANCH   1  33
TORSDOF 22
ENDMDL
MODEL 3
REMARK VINA RESULT:     -10.8      1.569      2.178
REMARK SMILES Cc1cc2nc(NC3=[NH+][C@H](CC(=O)OCCOCCOCCOC(=O)c4ccc(-c5c6nc(c(-c7cc(S(=O)(=O)[O-])ccc7F)c7ccc([nH]7)c(-c7cc(S(=O)(=O)[O-])ccc7F)c7nc(c(-c8cc(S(=O)(=O)[O-])ccc8F)c8ccc5[nH]8)C=C7)C=C6)cc4)C(=O)N3)nc(C)c2cc1C
REMARK SMILES IDX 19 1 18 2 17 3 16 4 15 5 14 6 12 7 13 8 11 9 10 10 7 11 8 12
REMARK SMILES IDX 9 14 91 15 89 17 90 19 6 20 1 21 2 22 3 23 97 24 4 25 96 26
REMARK SMILES IDX 98 27 5 28 95 29 93 30 92 31 94 32 20 33 21 34 22 35 23 36
REMARK SMILES IDX 24 37 25 38 26 39 27 40 88 41 28 42 87 43 29 44 30 45 31 46
REMARK SMILES IDX 81 47 32 48 86 49 80 50 82 51 33 52 85 53 79 54 78 55 34 57
REMARK SMILES IDX 66 58 46 59 65 60 47 61 50 62 64 63 83 64 48 65 49 66 63 68
REMARK SMILES IDX 84 69 51 70 35 71 36 72 44 73 37 74 43 75 45 76 42 77 38 78
REMARK SMILES IDX 39 79 40 80 41 81 67 82 68 83 76 84 69 85 75 86 77 87 74 88
REMARK SMILES IDX 70 89 71 90 72 91 73 92 52 93 53 94 61 95 54 96 60 97 62 98
REMARK SMILES IDX 59 99 55 100 56 101 57 102 58 103
REMARK H PARENT 7 13 9 16 91 18 82 56 50 67
REMARK Flexibility Score: inf
ROOT
ATOM      1  C   UNL A   1      32.536  30.164  26.228  1.00  0.00     0.188 C 
ENDROOT
BRANCH   1   2
ATOM      2  C   UNL A   1      33.835  29.637  26.842  1.00  0.00     0.188 C 
BRANCH   2   3
ATOM      3  O   UNL A   1      33.973  28.220  26.887  1.00  0.00    -0.376 OA
BRANCH   3   4
ATOM      4  C   UNL A   1      33.408  27.495  25.793  1.00  0.00     0.202 C 
BRANCH   4   5
ATOM      5  C   UNL A   1      34.023  27.772  24.414  1.00  0.00     0.261 C 
BRANCH   5   6
ATOM      6  O   UNL A   1      33.710  26.756  23.444  1.00  0.00    -0.463 OA
BRANCH   6   7
ATOM      7  C   UNL A   1      33.604  27.166  22.153  1.00  0.00     0.310 C 
ATOM      8  O   UNL A   1      34.217  28.120  21.681  1.00  0.00    -0.252 OA
BRANCH   7   9
ATOM      9  C   UNL A   1      32.768  26.256  21.277  1.00  0.00     0.175 C 
BRANCH   9  10
ATOM     10  C   UNL A   1      31.301  26.070  21.639  1.00  0.00     0.262 C 
ATOM     11  N   UNL A   1      30.712  24.350  24.687  1.00  0.00    -0.212 N 
ATOM     12  C   UNL A   1      30.792  25.189  23.627  1.00  0.00     0.358 C 
ATOM     13  H   UNL A   1      29.982  24.461  25.338  1.00  0.00     0.270 HD
ATOM     14  N   UNL A   1      31.130  24.837  22.427  1.00  0.00    -0.263 N 
ATOM     15  N   UNL A   1      30.538  26.502  23.771  1.00  0.00    -0.211 N 
ATOM     16  H   UNL A   1      31.250  23.915  22.102  1.00  0.00     0.261 HD
ATOM     17  C   UNL A   1      30.860  27.143  22.619  1.00  0.00     0.320 C 
ATOM     18  H   UNL A   1      30.176  26.928  24.581  1.00  0.00     0.270 HD
ATOM     19  O   UNL A   1      30.863  28.351  22.454  1.00  0.00    -0.252 OA
BRANCH  11  20
ATOM     20  C   UNL A   1      31.645  23.336  24.868  1.00  0.00     0.291 A 
ATOM     21  C   UNL A   1      32.726  17.769  22.800  1.00  0.00     0.044 C 
ATOM     22  C   UNL A   1      33.073  18.990  23.608  1.00  0.00    -0.046 A 
ATOM     23  C   UNL A   1      32.212  20.092  23.533  1.00  0.00     0.033 A 
ATOM     24  C   UNL A   1      34.168  19.053  24.482  1.00  0.00    -0.047 A 
ATOM     25  C   UNL A   1      32.406  21.241  24.279  1.00  0.00     0.078 A 
ATOM     26  C   UNL A   1      34.375  20.226  25.233  1.00  0.00     0.016 A 
ATOM     27  C   UNL A   1      35.112  17.895  24.638  1.00  0.00     0.044 C 
ATOM     28  N   UNL A   1      31.527  22.222  24.138  1.00  0.00    -0.198 NA
ATOM     29  C   UNL A   1      33.490  21.331  25.140  1.00  0.00     0.022 A 
ATOM     30  C   UNL A   1      33.572  22.549  25.840  1.00  0.00     0.052 A 
ATOM     31  N   UNL A   1      32.671  23.556  25.697  1.00  0.00    -0.203 NA
ATOM     32  C   UNL A   1      34.687  22.817  26.806  1.00  0.00     0.067 C 
ENDBRANCH  11  20
ENDBRANCH   9  10
ENDBRANCH   7   9
ENDBRANCH   6   7
ENDBRANCH   5   6
ENDBRANCH   4   5
ENDBRANCH   3   4
ENDBRANCH   2   3
ENDBRANCH   1   2
BRANCH   1  33
ATOM     33  O   UNL A   1      31.706  30.950  27.072  1.00  0.00    -0.376 OA
BRANCH  33  34
ATOM     34  C   UNL A   1      31.216  32.170  26.506  1.00  0.00     0.202 C 
BRANCH  34  35
ATOM     35  C   UNL A   1      32.044  33.443  26.785  1.00  0.00     0.261 C 
BRANCH  35  36
ATOM     36  O   UNL A   1      32.422  33.671  28.159  1.00  0.00    -0.460 OA
BRANCH  36  37
ATOM     37  C   UNL A   1      33.446  34.523  28.415  1.00  0.00     0.338 C 
ATOM     38  O   UNL A   1      33.370  35.739  28.463  1.00  0.00    -0.246 OA
BRANCH  37  39
ATOM     39  C   UNL A   1      34.603  33.718  28.917  1.00  0.00     0.060 A 
ATOM     40  C   UNL A   1      35.927  34.132  28.735  1.00  0.00     0.016 A 
ATOM     41  C   UNL A   1      34.349  32.457  29.477  1.00  0.00     0.016 A 
ATOM     42  C   UNL A   1      36.984  33.302  29.132  1.00  0.00     0.010 A 
ATOM     43  C   UNL A   1      35.407  31.626  29.871  1.00  0.00     0.010 A 
ATOM     44  C   UNL A   1      36.736  32.048  29.721  1.00  0.00    -0.014 A 
BRANCH  44  45
ATOM     45  C   UNL A   1      37.849  31.302  30.376  1.00  0.00     0.031 A 
ATOM     46  C   UNL A   1      38.616  30.202  29.700  1.00  0.00     0.074 A 
ATOM     47  C   UNL A   1      38.149  31.631  31.648  1.00  0.00     0.049 A 
ATOM     48  N   UNL A   1      39.666  29.552  30.136  1.00  0.00    -0.248 NA
ATOM     49  C   UNL A   1      38.148  29.765  28.378  1.00  0.00     0.031 C 
ATOM     50  C   UNL A   1      37.438  32.645  32.428  1.00  0.00     0.029 A 
ATOM     51  N   UNL A   1      39.114  31.164  32.505  1.00  0.00    -0.354 N 
ATOM     52  C   UNL A   1      40.003  28.642  29.141  1.00  0.00     0.074 A 
ATOM     53  C   UNL A   1      39.010  28.793  28.095  1.00  0.00     0.031 C 
ATOM     54  C   UNL A   1      38.006  32.742  33.637  1.00  0.00     0.029 A 
ATOM     55  C   UNL A   1      39.102  31.780  33.736  1.00  0.00     0.049 A 
ATOM     56  H   UNL A   1      39.754  30.456  32.263  1.00  0.00     0.167 HD
ATOM     57  C   UNL A   1      41.051  27.780  29.101  1.00  0.00     0.034 A 
ATOM     58  C   UNL A   1      39.880  31.605  34.823  1.00  0.00     0.034 A 
ATOM     59  C   UNL A   1      42.025  27.634  30.161  1.00  0.00     0.049 A 
ATOM     60  C   UNL A   1      41.030  30.633  34.757  1.00  0.00     0.074 A 
ATOM     61  C   UNL A   1      43.161  26.842  30.171  1.00  0.00     0.029 A 
ATOM     62  N   UNL A   1      41.980  28.270  31.394  1.00  0.00    -0.354 N 
ATOM     63  N   UNL A   1      41.419  29.886  33.753  1.00  0.00    -0.248 NA
ATOM     64  C   UNL A   1      41.860  30.495  35.962  1.00  0.00     0.031 C 
ATOM     65  C   UNL A   1      43.752  26.930  31.432  1.00  0.00     0.029 A 
ATOM     66  C   UNL A   1      43.042  27.851  32.184  1.00  0.00     0.049 A 
ATOM     67  H   UNL A   1      41.295  28.921  31.669  1.00  0.00     0.167 HD
ATOM     68  C   UNL A   1      42.554  29.210  34.194  1.00  0.00     0.074 A 
ATOM     69  C   UNL A   1      42.803  29.658  35.547  1.00  0.00     0.031 C 
ATOM     70  C   UNL A   1      43.312  28.299  33.532  1.00  0.00     0.034 A 
BRANCH  57  71
ATOM     71  C   UNL A   1      41.263  26.933  27.865  1.00  0.00     0.023 A 
ATOM     72  C   UNL A   1      41.008  25.547  27.898  1.00  0.00     0.031 A 
ATOM     73  C   UNL A   1      41.898  27.460  26.725  1.00  0.00     0.131 A 
ATOM     74  C   UNL A   1      41.426  24.732  26.836  1.00  0.00     0.055 A 
ATOM     75  C   UNL A   1      42.271  26.651  25.651  1.00  0.00     0.041 A 
ATOM     76  F   UNL A   1      42.183  28.771  26.649  1.00  0.00    -0.206 F 
ATOM     77  C   UNL A   1      42.050  25.278  25.709  1.00  0.00     0.022 A 
BRANCH  74  78
ATOM     78  S   UNL A   1      41.266  22.926  26.912  1.00  0.00     0.124 S 
ATOM     79  O   UNL A   1      42.121  22.596  28.051  1.00  0.00    -0.237 OA
ATOM     80  O   UNL A   1      39.835  22.754  27.139  1.00  0.00    -0.237 OA
ATOM     81  O   UNL A   1      41.758  22.474  25.616  1.00  0.00    -0.744 OA
ENDBRANCH  74  78
ENDBRANCH  57  71
BRANCH  58  82
ATOM     82  C   UNL A   1      39.627  32.447  36.029  1.00  0.00     0.023 A 
ATOM     83  C   UNL A   1      38.758  32.009  37.045  1.00  0.00     0.031 A 
ATOM     84  C   UNL A   1      40.150  33.747  36.120  1.00  0.00     0.131 A 
ATOM     85  C   UNL A   1      38.379  32.892  38.064  1.00  0.00     0.055 A 
ATOM     86  C   UNL A   1      39.831  34.596  37.181  1.00  0.00     0.041 A 
ATOM     87  F   UNL A   1      40.969  34.216  35.165  1.00  0.00    -0.206 F 
ATOM     88  C   UNL A   1      38.925  34.175  38.149  1.00  0.00     0.022 A 
BRANCH  85  89
ATOM     89  S   UNL A   1      37.054  32.456  39.225  1.00  0.00     0.124 S 
ATOM     90  O   UNL A   1      37.329  31.047  39.486  1.00  0.00    -0.237 OA
ATOM     91  O   UNL A   1      37.319  33.367  40.334  1.00  0.00    -0.237 OA
ATOM     92  O   UNL A   1      35.832  32.731  38.475  1.00  0.00    -0.744 OA
ENDBRANCH  85  89
ENDBRANCH  58  82
BRANCH  70  93
ATOM     93  C   UNL A   1      44.511  27.696  34.233  1.00  0.00     0.023 A 
ATOM     94  C   UNL A   1      44.385  26.470  34.918  1.00  0.00     0.031 A 
ATOM     95  C   UNL A   1      45.721  28.400  34.359  1.00  0.00     0.131 A 
ATOM     96  C   UNL A   1      45.428  26.013  35.735  1.00  0.00     0.055 A 
ATOM     97  C   UNL A   1      46.778  27.913  35.131  1.00  0.00     0.041 A 
ATOM     98  F   UNL A   1      45.893  29.579  33.739  1.00  0.00    -0.206 F 
ATOM     99  C   UNL A   1      46.628  26.722  35.836  1.00  0.00     0.022 A 
BRANCH  96 100
ATOM    100  S   UNL A   1      45.233  24.534  36.768  1.00  0.00     0.124 S 
ATOM    101  O   UNL A   1      46.597  24.012  36.810  1.00  0.00    -0.237 OA
ATOM    102  O   UNL A   1      44.745  25.099  38.024  1.00  0.00    -0.237 OA
ATOM    103  O   UNL A   1      44.276  23.713  36.034  1.00  0.00    -0.744 OA
ENDBRANCH  96 100
ENDBRANCH  70  93
ENDBRANCH  44  45
ENDBRANCH  37  39
ENDBRANCH  36  37
ENDBRANCH  35  36
ENDBRANCH  34  35
ENDBRANCH  33  34
ENDBRANCH   1  33
TORSDOF 22
ENDMDL
