MODEL 1
REMARK VINA RESULT:     -10.5      0.000      0.000
REMARK SMILES O=C(C[NH+]1CCN(C(=O)c2ccc(F)c(F)c2F)CC1)OCCOCCOCCOC(=O)c1ccc(-c2c3nc(c(-c4cc(S(=O)(=O)[O-])ccc4F)c4ccc([nH]4)c(-c4cc(S(=O)(=O)[O-])ccc4F)c4nc(c(-c5cc(S(=O)(=O)[O-])ccc5F)c5ccc2[nH]5)C=C4)C=C3)cc1
REMARK SMILES IDX 26 1 25 2 24 3 23 4 22 5 21 6 2 7 1 8 3 9 4 10 5 11 20 12
REMARK SMILES IDX 6 14 19 15 7 16 8 17 9 18 10 19 11 20 17 21 12 22 15 23
REMARK SMILES IDX 18 24 13 25 16 26 14 27 27 28 28 29 29 30 30 31 31 32 32 33
REMARK SMILES IDX 33 34 34 35 95 36 35 37 94 38 36 39 37 40 38 41 88 42 39 43
REMARK SMILES IDX 93 44 87 45 89 46 40 47 92 48 86 49 85 50 41 52 73 53 53 54
REMARK SMILES IDX 72 55 54 56 57 57 71 58 90 59 55 60 56 61 70 63 91 64 58 65
REMARK SMILES IDX 42 66 43 67 51 68 44 69 50 70 52 71 49 72 45 73 46 74 47 75
REMARK SMILES IDX 48 76 74 77 75 78 83 79 76 80 82 81 84 82 81 83 77 84 78 85
REMARK SMILES IDX 79 86 80 87 59 88 60 89 68 90 61 91 67 92 69 93 66 94 62 95
REMARK SMILES IDX 63 96 64 97 65 98
REMARK H PARENT 4 13 89 51 57 62
REMARK Flexibility Score: inf
ROOT
ATOM      1  C   UNL A   1      31.163  27.409  26.742  1.00  0.00     0.188 C 
ENDROOT
BRANCH   1   2
ATOM      2  C   UNL A   1      31.873  26.073  26.495  1.00  0.00     0.188 C 
BRANCH   2   3
ATOM      3  O   UNL A   1      31.376  24.931  27.180  1.00  0.00    -0.376 OA
BRANCH   3   4
ATOM      4  C   UNL A   1      31.179  23.768  26.386  1.00  0.00     0.202 C 
BRANCH   4   5
ATOM      5  C   UNL A   1      32.171  22.689  26.755  1.00  0.00     0.261 C 
BRANCH   5   6
ATOM      6  O   UNL A   1      32.460  21.764  25.703  1.00  0.00    -0.459 OA
BRANCH   6   7
ATOM      7  C   UNL A   1      33.656  21.102  25.723  1.00  0.00     0.361 C 
ATOM      8  O   UNL A   1      33.729  19.954  25.294  1.00  0.00    -0.245 OA
BRANCH   7   9
ATOM      9  C   UNL A   1      34.823  21.798  26.434  1.00  0.00     0.386 C 
BRANCH   9  10
ATOM     10  N   UNL A   1      35.777  22.587  25.633  1.00  0.00    -0.323 N 
ATOM     11  C   UNL A   1      36.062  22.241  24.247  1.00  0.00     0.284 C 
ATOM     12  C   UNL A   1      35.578  24.033  25.776  1.00  0.00     0.284 C 
ATOM     13  H   UNL A   1      36.636  22.275  26.089  1.00  0.00     0.348 HD
ATOM     14  C   UNL A   1      35.267  22.954  23.126  1.00  0.00     0.181 C 
ATOM     15  C   UNL A   1      34.462  24.605  24.886  1.00  0.00     0.181 C 
ATOM     16  N   UNL A   1      34.494  24.160  23.479  1.00  0.00    -0.327 N 
ATOM     17  C   UNL A   1      33.567  24.597  22.521  1.00  0.00     0.257 C 
ATOM     18  O   UNL A   1      33.306  23.951  21.507  1.00  0.00    -0.269 OA
BRANCH  17  19
ATOM     19  C   UNL A   1      32.918  25.918  22.664  1.00  0.00     0.079 A 
ATOM     20  C   UNL A   1      33.647  27.082  22.377  1.00  0.00     0.020 A 
ATOM     21  C   UNL A   1      31.547  26.007  22.921  1.00  0.00     0.174 A 
ATOM     22  C   UNL A   1      33.018  28.328  22.406  1.00  0.00     0.043 A 
ATOM     23  C   UNL A   1      30.919  27.249  22.923  1.00  0.00     0.195 A 
ATOM     24  F   UNL A   1      30.815  24.910  23.167  1.00  0.00    -0.203 F 
ATOM     25  C   UNL A   1      31.655  28.402  22.675  1.00  0.00     0.161 A 
ATOM     26  F   UNL A   1      29.600  27.338  23.150  1.00  0.00    -0.200 F 
ATOM     27  F   UNL A   1      31.055  29.600  22.672  1.00  0.00    -0.204 F 
ENDBRANCH  17  19
ENDBRANCH   9  10
ENDBRANCH   7   9
ENDBRANCH   6   7
ENDBRANCH   5   6
ENDBRANCH   4   5
ENDBRANCH   3   4
ENDBRANCH   2   3
ENDBRANCH   1   2
BRANCH   1  28
ATOM     28  O   UNL A   1      31.908  28.595  27.002  1.00  0.00    -0.376 OA
BRANCH  28  29
ATOM     29  C   UNL A   1      31.809  29.724  26.147  1.00  0.00     0.202 C 
BRANCH  29  30
ATOM     30  C   UNL A   1      31.870  31.098  26.813  1.00  0.00     0.261 C 
BRANCH  30  31
ATOM     31  O   UNL A   1      33.205  31.560  27.049  1.00  0.00    -0.460 OA
BRANCH  31  32
ATOM     32  C   UNL A   1      33.301  32.753  27.678  1.00  0.00     0.338 C 
ATOM     33  O   UNL A   1      32.515  33.689  27.614  1.00  0.00    -0.246 OA
BRANCH  32  34
ATOM     34  C   UNL A   1      34.461  32.729  28.584  1.00  0.00     0.060 A 
ATOM     35  C   UNL A   1      35.641  33.384  28.201  1.00  0.00     0.016 A 
ATOM     36  C   UNL A   1      34.400  32.001  29.774  1.00  0.00     0.016 A 
ATOM     37  C   UNL A   1      36.792  33.255  28.979  1.00  0.00     0.010 A 
ATOM     38  C   UNL A   1      35.552  31.862  30.541  1.00  0.00     0.010 A 
ATOM     39  C   UNL A   1      36.762  32.444  30.119  1.00  0.00    -0.014 A 
BRANCH  39  40
ATOM     40  C   UNL A   1      38.014  31.967  30.749  1.00  0.00     0.031 A 
ATOM     41  C   UNL A   1      38.797  30.911  30.021  1.00  0.00     0.074 A 
ATOM     42  C   UNL A   1      38.392  32.388  31.966  1.00  0.00     0.049 A 
ATOM     43  N   UNL A   1      39.773  30.155  30.443  1.00  0.00    -0.248 NA
ATOM     44  C   UNL A   1      38.391  30.659  28.629  1.00  0.00     0.031 C 
ATOM     45  C   UNL A   1      37.733  33.439  32.736  1.00  0.00     0.029 A 
ATOM     46  N   UNL A   1      39.401  31.945  32.781  1.00  0.00    -0.354 N 
ATOM     47  C   UNL A   1      40.081  29.311  29.379  1.00  0.00     0.074 A 
ATOM     48  C   UNL A   1      39.160  29.632  28.309  1.00  0.00     0.031 C 
ATOM     49  C   UNL A   1      38.330  33.531  33.937  1.00  0.00     0.029 A 
ATOM     50  C   UNL A   1      39.372  32.509  34.034  1.00  0.00     0.049 A 
ATOM     51  H   UNL A   1      40.078  31.289  32.499  1.00  0.00     0.167 HD
ATOM     52  C   UNL A   1      41.040  28.356  29.310  1.00  0.00     0.034 A 
ATOM     53  C   UNL A   1      40.068  32.194  35.146  1.00  0.00     0.034 A 
ATOM     54  C   UNL A   1      41.925  28.047  30.406  1.00  0.00     0.049 A 
ATOM     55  C   UNL A   1      41.078  31.074  35.084  1.00  0.00     0.074 A 
ATOM     56  C   UNL A   1      42.952  27.123  30.453  1.00  0.00     0.029 A 
ATOM     57  N   UNL A   1      41.869  28.642  31.662  1.00  0.00    -0.354 N 
ATOM     58  N   UNL A   1      41.372  30.280  34.079  1.00  0.00    -0.248 NA
ATOM     59  C   UNL A   1      41.853  30.810  36.304  1.00  0.00     0.031 C 
ATOM     60  C   UNL A   1      43.455  27.095  31.758  1.00  0.00     0.029 A 
ATOM     61  C   UNL A   1      42.815  28.075  32.502  1.00  0.00     0.049 A 
ATOM     62  H   UNL A   1      41.247  29.361  31.919  1.00  0.00     0.167 HD
ATOM     63  C   UNL A   1      42.393  29.449  34.533  1.00  0.00     0.074 A 
ATOM     64  C   UNL A   1      42.658  29.835  35.906  1.00  0.00     0.031 C 
ATOM     65  C   UNL A   1      43.062  28.468  33.873  1.00  0.00     0.034 A 
BRANCH  52  66
ATOM     66  C   UNL A   1      41.113  27.541  28.039  1.00  0.00     0.023 A 
ATOM     67  C   UNL A   1      40.654  26.213  27.978  1.00  0.00     0.031 A 
ATOM     68  C   UNL A   1      41.724  28.073  26.889  1.00  0.00     0.131 A 
ATOM     69  C   UNL A   1      40.912  25.433  26.841  1.00  0.00     0.055 A 
ATOM     70  C   UNL A   1      41.885  27.323  25.723  1.00  0.00     0.041 A 
ATOM     71  F   UNL A   1      42.209  29.326  26.888  1.00  0.00    -0.206 F 
ATOM     72  C   UNL A   1      41.499  25.986  25.701  1.00  0.00     0.022 A 
BRANCH  69  73
ATOM     73  S   UNL A   1      40.659  23.638  26.951  1.00  0.00     0.124 S 
ATOM     74  O   UNL A   1      41.677  23.141  26.030  1.00  0.00    -0.237 OA
ATOM     75  O   UNL A   1      40.891  23.375  28.366  1.00  0.00    -0.237 OA
ATOM     76  O   UNL A   1      39.281  23.460  26.499  1.00  0.00    -0.744 OA
ENDBRANCH  69  73
ENDBRANCH  52  66
BRANCH  53  77
ATOM     77  C   UNL A   1      39.787  32.917  36.419  1.00  0.00     0.023 A 
ATOM     78  C   UNL A   1      38.835  32.442  37.331  1.00  0.00     0.031 A 
ATOM     79  C   UNL A   1      40.484  34.097  36.743  1.00  0.00     0.131 A 
ATOM     80  C   UNL A   1      38.588  33.154  38.517  1.00  0.00     0.055 A 
ATOM     81  C   UNL A   1      40.271  34.774  37.945  1.00  0.00     0.041 A 
ATOM     82  F   UNL A   1      41.409  34.592  35.905  1.00  0.00    -0.206 F 
ATOM     83  C   UNL A   1      39.313  34.305  38.837  1.00  0.00     0.022 A 
BRANCH  80  84
ATOM     84  S   UNL A   1      37.270  32.577  39.620  1.00  0.00     0.124 S 
ATOM     85  O   UNL A   1      36.099  32.669  38.756  1.00  0.00    -0.237 OA
ATOM     86  O   UNL A   1      37.720  31.230  39.952  1.00  0.00    -0.237 OA
ATOM     87  O   UNL A   1      37.308  33.535  40.724  1.00  0.00    -0.744 OA
ENDBRANCH  80  84
ENDBRANCH  53  77
BRANCH  65  88
ATOM     88  C   UNL A   1      44.200  27.787  34.597  1.00  0.00     0.023 A 
ATOM     89  C   UNL A   1      44.059  26.527  35.202  1.00  0.00     0.031 A 
ATOM     90  C   UNL A   1      45.463  28.407  34.648  1.00  0.00     0.131 A 
ATOM     91  C   UNL A   1      45.153  25.944  35.864  1.00  0.00     0.055 A 
ATOM     92  C   UNL A   1      46.561  27.796  35.253  1.00  0.00     0.041 A 
ATOM     93  F   UNL A   1      45.653  29.614  34.092  1.00  0.00    -0.206 F 
ATOM     94  C   UNL A   1      46.407  26.561  35.873  1.00  0.00     0.022 A 
BRANCH  91  95
ATOM     95  S   UNL A   1      44.899  24.403  36.785  1.00  0.00     0.124 S 
ATOM     96  O   UNL A   1      44.259  24.882  38.006  1.00  0.00    -0.237 OA
ATOM     97  O   UNL A   1      44.052  23.633  35.880  1.00  0.00    -0.237 OA
ATOM     98  O   UNL A   1      46.253  23.880  36.959  1.00  0.00    -0.744 OA
ENDBRANCH  91  95
ENDBRANCH  65  88
ENDBRANCH  39  40
ENDBRANCH  32  34
ENDBRANCH  31  32
ENDBRANCH  30  31
ENDBRANCH  29  30
ENDBRANCH  28  29
ENDBRANCH   1  28
TORSDOF 22
ENDMDL
MODEL 2
REMARK VINA RESULT:     -10.4      3.535      8.908
REMARK SMILES O=C(C[NH+]1CCN(C(=O)c2ccc(F)c(F)c2F)CC1)OCCOCCOCCOC(=O)c1ccc(-c2c3nc(c(-c4cc(S(=O)(=O)[O-])ccc4F)c4ccc([nH]4)c(-c4cc(S(=O)(=O)[O-])ccc4F)c4nc(c(-c5cc(S(=O)(=O)[O-])ccc5F)c5ccc2[nH]5)C=C4)C=C3)cc1
REMARK SMILES IDX 26 1 25 2 24 3 23 4 22 5 21 6 2 7 1 8 3 9 4 10 5 11 20 12
REMARK SMILES IDX 6 14 19 15 7 16 8 17 9 18 10 19 11 20 17 21 12 22 15 23
REMARK SMILES IDX 18 24 13 25 16 26 14 27 27 28 28 29 29 30 30 31 31 32 32 33
REMARK SMILES IDX 33 34 34 35 95 36 35 37 94 38 36 39 37 40 38 41 88 42 39 43
REMARK SMILES IDX 93 44 87 45 89 46 40 47 92 48 86 49 85 50 41 52 73 53 53 54
REMARK SMILES IDX 72 55 54 56 57 57 71 58 90 59 55 60 56 61 70 63 91 64 58 65
REMARK SMILES IDX 42 66 43 67 51 68 44 69 50 70 52 71 49 72 45 73 46 74 47 75
REMARK SMILES IDX 48 76 74 77 75 78 83 79 76 80 82 81 84 82 81 83 77 84 78 85
REMARK SMILES IDX 79 86 80 87 59 88 60 89 68 90 61 91 67 92 69 93 66 94 62 95
REMARK SMILES IDX 63 96 64 97 65 98
REMARK H PARENT 4 13 89 51 57 62
REMARK Flexibility Score: inf
ROOT
ATOM      1  C   UNL A   1      31.362  27.462  25.612  1.00  0.00     0.188 C 
ENDROOT
BRANCH   1   2
ATOM      2  C   UNL A   1      30.824  26.124  26.132  1.00  0.00     0.188 C 
BRANCH   2   3
ATOM      3  O   UNL A   1      31.752  25.243  26.753  1.00  0.00    -0.376 OA
BRANCH   3   4
ATOM      4  C   UNL A   1      31.452  23.856  26.653  1.00  0.00     0.202 C 
BRANCH   4   5
ATOM      5  C   UNL A   1      32.715  23.028  26.704  1.00  0.00     0.261 C 
BRANCH   5   6
ATOM      6  O   UNL A   1      32.757  21.952  25.761  1.00  0.00    -0.459 OA
BRANCH   6   7
ATOM      7  C   UNL A   1      33.874  21.165  25.716  1.00  0.00     0.361 C 
ATOM      8  O   UNL A   1      33.780  19.985  25.390  1.00  0.00    -0.245 OA
BRANCH   7   9
ATOM      9  C   UNL A   1      35.180  21.782  26.230  1.00  0.00     0.386 C 
BRANCH   9  10
ATOM     10  N   UNL A   1      36.028  22.540  25.291  1.00  0.00    -0.323 N 
ATOM     11  C   UNL A   1      36.535  23.862  25.635  1.00  0.00     0.284 C 
ATOM     12  C   UNL A   1      37.085  21.719  24.692  1.00  0.00     0.284 C 
ATOM     13  H   UNL A   1      35.305  22.783  24.613  1.00  0.00     0.348 HD
ATOM     14  C   UNL A   1      37.949  23.975  26.256  1.00  0.00     0.181 C 
ATOM     15  C   UNL A   1      38.332  21.554  25.577  1.00  0.00     0.181 C 
ATOM     16  N   UNL A   1      38.838  22.801  26.184  1.00  0.00    -0.327 N 
ATOM     17  C   UNL A   1      39.977  22.842  27.002  1.00  0.00     0.257 C 
ATOM     18  O   UNL A   1      40.165  23.730  27.832  1.00  0.00    -0.269 OA
BRANCH  17  19
ATOM     19  C   UNL A   1      41.050  21.838  26.832  1.00  0.00     0.079 A 
ATOM     20  C   UNL A   1      40.940  20.593  27.469  1.00  0.00     0.020 A 
ATOM     21  C   UNL A   1      42.082  22.056  25.915  1.00  0.00     0.174 A 
ATOM     22  C   UNL A   1      41.890  19.598  27.234  1.00  0.00     0.043 A 
ATOM     23  C   UNL A   1      43.013  21.052  25.664  1.00  0.00     0.195 A 
ATOM     24  F   UNL A   1      42.196  23.224  25.265  1.00  0.00    -0.203 F 
ATOM     25  C   UNL A   1      42.920  19.835  26.328  1.00  0.00     0.161 A 
ATOM     26  F   UNL A   1      43.995  21.250  24.771  1.00  0.00    -0.200 F 
ATOM     27  F   UNL A   1      43.811  18.863  26.087  1.00  0.00    -0.204 F 
ENDBRANCH  17  19
ENDBRANCH   9  10
ENDBRANCH   7   9
ENDBRANCH   6   7
ENDBRANCH   5   6
ENDBRANCH   4   5
ENDBRANCH   3   4
ENDBRANCH   2   3
ENDBRANCH   1   2
BRANCH   1  28
ATOM     28  O   UNL A   1      31.907  28.427  26.506  1.00  0.00    -0.376 OA
BRANCH  28  29
ATOM     29  C   UNL A   1      32.949  29.300  26.097  1.00  0.00     0.202 C 
BRANCH  29  30
ATOM     30  C   UNL A   1      32.810  30.770  26.489  1.00  0.00     0.261 C 
BRANCH  30  31
ATOM     31  O   UNL A   1      33.372  31.074  27.772  1.00  0.00    -0.460 OA
BRANCH  31  32
ATOM     32  C   UNL A   1      34.385  31.970  27.761  1.00  0.00     0.338 C 
ATOM     33  O   UNL A   1      34.309  33.170  27.533  1.00  0.00    -0.246 OA
BRANCH  32  34
ATOM     34  C   UNL A   1      35.623  31.304  28.199  1.00  0.00     0.060 A 
ATOM     35  C   UNL A   1      35.599  29.928  28.473  1.00  0.00     0.016 A 
ATOM     36  C   UNL A   1      36.782  32.055  28.404  1.00  0.00     0.016 A 
ATOM     37  C   UNL A   1      36.722  29.309  29.021  1.00  0.00     0.010 A 
ATOM     38  C   UNL A   1      37.896  31.439  28.964  1.00  0.00     0.010 A 
ATOM     39  C   UNL A   1      37.852  30.079  29.322  1.00  0.00    -0.014 A 
BRANCH  39  40
ATOM     40  C   UNL A   1      38.898  29.571  30.238  1.00  0.00     0.031 A 
ATOM     41  C   UNL A   1      38.954  30.159  31.620  1.00  0.00     0.074 A 
ATOM     42  C   UNL A   1      39.822  28.689  29.826  1.00  0.00     0.049 A 
ATOM     43  N   UNL A   1      39.894  30.082  32.523  1.00  0.00    -0.248 NA
ATOM     44  C   UNL A   1      37.795  30.974  32.016  1.00  0.00     0.031 C 
ATOM     45  C   UNL A   1      39.832  28.024  28.527  1.00  0.00     0.029 A 
ATOM     46  N   UNL A   1      40.956  28.239  30.453  1.00  0.00    -0.354 N 
ATOM     47  C   UNL A   1      39.455  30.865  33.587  1.00  0.00     0.074 A 
ATOM     48  C   UNL A   1      38.182  31.433  33.194  1.00  0.00     0.031 C 
ATOM     49  C   UNL A   1      40.948  27.280  28.433  1.00  0.00     0.029 A 
ATOM     50  C   UNL A   1      41.751  27.465  29.643  1.00  0.00     0.049 A 
ATOM     51  H   UNL A   1      41.179  28.451  31.387  1.00  0.00     0.167 HD
ATOM     52  C   UNL A   1      40.065  31.091  34.776  1.00  0.00     0.034 A 
ATOM     53  C   UNL A   1      43.005  27.007  29.835  1.00  0.00     0.034 A 
ATOM     54  C   UNL A   1      41.346  30.527  35.124  1.00  0.00     0.049 A 
ATOM     55  C   UNL A   1      43.711  27.331  31.130  1.00  0.00     0.074 A 
ATOM     56  C   UNL A   1      42.056  30.657  36.303  1.00  0.00     0.029 A 
ATOM     57  N   UNL A   1      42.123  29.743  34.278  1.00  0.00    -0.354 N 
ATOM     58  N   UNL A   1      43.296  28.067  32.136  1.00  0.00    -0.248 NA
ATOM     59  C   UNL A   1      45.051  26.759  31.316  1.00  0.00     0.031 C 
ATOM     60  C   UNL A   1      43.295  30.031  36.138  1.00  0.00     0.029 A 
ATOM     61  C   UNL A   1      43.321  29.417  34.894  1.00  0.00     0.049 A 
ATOM     62  H   UNL A   1      41.860  29.459  33.372  1.00  0.00     0.167 HD
ATOM     63  C   UNL A   1      44.308  28.013  33.092  1.00  0.00     0.074 A 
ATOM     64  C   UNL A   1      45.355  27.178  32.537  1.00  0.00     0.031 C 
ATOM     65  C   UNL A   1      44.360  28.588  34.323  1.00  0.00     0.034 A 
BRANCH  52  66
ATOM     66  C   UNL A   1      39.382  32.042  35.733  1.00  0.00     0.023 A 
ATOM     67  C   UNL A   1      39.744  33.398  35.819  1.00  0.00     0.031 A 
ATOM     68  C   UNL A   1      38.410  31.568  36.632  1.00  0.00     0.131 A 
ATOM     69  C   UNL A   1      39.223  34.199  36.847  1.00  0.00     0.055 A 
ATOM     70  C   UNL A   1      37.819  32.397  37.586  1.00  0.00     0.041 A 
ATOM     71  F   UNL A   1      38.039  30.277  36.622  1.00  0.00    -0.206 F 
ATOM     72  C   UNL A   1      38.241  33.717  37.713  1.00  0.00     0.022 A 
BRANCH  69  73
ATOM     73  S   UNL A   1      39.999  35.810  37.160  1.00  0.00     0.124 S 
ATOM     74  O   UNL A   1      39.278  36.257  38.350  1.00  0.00    -0.237 OA
ATOM     75  O   UNL A   1      41.398  35.453  37.357  1.00  0.00    -0.237 OA
ATOM     76  O   UNL A   1      39.711  36.570  35.946  1.00  0.00    -0.744 OA
ENDBRANCH  69  73
ENDBRANCH  52  66
BRANCH  53  77
ATOM     77  C   UNL A   1      43.685  26.244  28.750  1.00  0.00     0.023 A 
ATOM     78  C   UNL A   1      44.455  26.893  27.775  1.00  0.00     0.031 A 
ATOM     79  C   UNL A   1      43.577  24.842  28.683  1.00  0.00     0.131 A 
ATOM     80  C   UNL A   1      45.074  26.144  26.762  1.00  0.00     0.055 A 
ATOM     81  C   UNL A   1      44.233  24.097  27.702  1.00  0.00     0.041 A 
ATOM     82  F   UNL A   1      42.854  24.171  29.594  1.00  0.00    -0.206 F 
ATOM     83  C   UNL A   1      44.983  24.749  26.729  1.00  0.00     0.022 A 
BRANCH  80  84
ATOM     84  S   UNL A   1      45.967  27.023  25.451  1.00  0.00     0.124 S 
ATOM     85  O   UNL A   1      46.511  25.918  24.671  1.00  0.00    -0.237 OA
ATOM     86  O   UNL A   1      44.901  27.791  24.819  1.00  0.00    -0.237 OA
ATOM     87  O   UNL A   1      46.953  27.815  26.184  1.00  0.00    -0.744 OA
ENDBRANCH  80  84
ENDBRANCH  53  77
BRANCH  65  88
ATOM     88  C   UNL A   1      45.558  28.277  35.190  1.00  0.00     0.023 A 
ATOM     89  C   UNL A   1      46.660  29.142  35.288  1.00  0.00     0.031 A 
ATOM     90  C   UNL A   1      45.571  27.098  35.960  1.00  0.00     0.131 A 
ATOM     91  C   UNL A   1      47.747  28.797  36.109  1.00  0.00     0.055 A 
ATOM     92  C   UNL A   1      46.625  26.792  36.821  1.00  0.00     0.041 A 
ATOM     93  F   UNL A   1      44.548  26.232  35.901  1.00  0.00    -0.206 F 
ATOM     94  C   UNL A   1      47.726  27.640  36.892  1.00  0.00     0.022 A 
BRANCH  91  95
ATOM     95  S   UNL A   1      49.229  29.842  36.084  1.00  0.00     0.124 S 
ATOM     96  O   UNL A   1      49.316  30.277  37.475  1.00  0.00    -0.237 OA
ATOM     97  O   UNL A   1      50.261  28.911  35.640  1.00  0.00    -0.237 OA
ATOM     98  O   UNL A   1      48.891  30.894  35.126  1.00  0.00    -0.744 OA
ENDBRANCH  91  95
ENDBRANCH  65  88
ENDBRANCH  39  40
ENDBRANCH  32  34
ENDBRANCH  31  32
ENDBRANCH  30  31
ENDBRANCH  29  30
ENDBRANCH  28  29
ENDBRANCH   1  28
TORSDOF 22
ENDMDL
MODEL 3
REMARK VINA RESULT:     -10.3      2.770      8.176
REMARK SMILES O=C(C[NH+]1CCN(C(=O)c2ccc(F)c(F)c2F)CC1)OCCOCCOCCOC(=O)c1ccc(-c2c3nc(c(-c4cc(S(=O)(=O)[O-])ccc4F)c4ccc([nH]4)c(-c4cc(S(=O)(=O)[O-])ccc4F)c4nc(c(-c5cc(S(=O)(=O)[O-])ccc5F)c5ccc2[nH]5)C=C4)C=C3)cc1
REMARK SMILES IDX 26 1 25 2 24 3 23 4 22 5 21 6 2 7 1 8 3 9 4 10 5 11 20 12
REMARK SMILES IDX 6 14 19 15 7 16 8 17 9 18 10 19 11 20 17 21 12 22 15 23
REMARK SMILES IDX 18 24 13 25 16 26 14 27 27 28 28 29 29 30 30 31 31 32 32 33
REMARK SMILES IDX 33 34 34 35 95 36 35 37 94 38 36 39 37 40 38 41 88 42 39 43
REMARK SMILES IDX 93 44 87 45 89 46 40 47 92 48 86 49 85 50 41 52 73 53 53 54
REMARK SMILES IDX 72 55 54 56 57 57 71 58 90 59 55 60 56 61 70 63 91 64 58 65
REMARK SMILES IDX 42 66 43 67 51 68 44 69 50 70 52 71 49 72 45 73 46 74 47 75
REMARK SMILES IDX 48 76 74 77 75 78 83 79 76 80 82 81 84 82 81 83 77 84 78 85
REMARK SMILES IDX 79 86 80 87 59 88 60 89 68 90 61 91 67 92 69 93 66 94 62 95
REMARK SMILES IDX 63 96 64 97 65 98
REMARK H PARENT 4 13 89 51 57 62
REMARK Flexibility Score: inf
ROOT
ATOM      1  C   UNL A   1      31.088  29.590  24.679  1.00  0.00     0.188 C 
ENDROOT
BRANCH   1   2
ATOM      2  C   UNL A   1      31.307  28.867  23.344  1.00  0.00     0.188 C 
BRANCH   2   3
ATOM      3  O   UNL A   1      30.393  27.832  23.003  1.00  0.00    -0.376 OA
BRANCH   3   4
ATOM      4  C   UNL A   1      30.959  26.540  22.825  1.00  0.00     0.202 C 
BRANCH   4   5
ATOM      5  C   UNL A   1      31.961  26.235  23.914  1.00  0.00     0.261 C 
BRANCH   5   6
ATOM      6  O   UNL A   1      31.397  25.654  25.093  1.00  0.00    -0.459 OA
BRANCH   6   7
ATOM      7  C   UNL A   1      32.240  25.112  26.023  1.00  0.00     0.361 C 
ATOM      8  O   UNL A   1      33.374  25.561  26.157  1.00  0.00    -0.245 OA
BRANCH   7   9
ATOM      9  C   UNL A   1      31.754  23.854  26.753  1.00  0.00     0.386 C 
BRANCH   9  10
ATOM     10  N   UNL A   1      32.160  22.532  26.241  1.00  0.00    -0.323 N 
ATOM     11  C   UNL A   1      32.283  22.284  24.811  1.00  0.00     0.284 C 
ATOM     12  C   UNL A   1      33.306  21.971  26.965  1.00  0.00     0.284 C 
ATOM     13  H   UNL A   1      31.296  22.029  26.449  1.00  0.00     0.348 HD
ATOM     14  C   UNL A   1      33.675  22.437  24.149  1.00  0.00     0.181 C 
ATOM     15  C   UNL A   1      34.670  22.498  26.489  1.00  0.00     0.181 C 
ATOM     16  N   UNL A   1      34.859  22.513  25.025  1.00  0.00    -0.327 N 
ATOM     17  C   UNL A   1      36.047  22.941  24.416  1.00  0.00     0.257 C 
ATOM     18  O   UNL A   1      36.086  23.360  23.259  1.00  0.00    -0.269 OA
BRANCH  17  19
ATOM     19  C   UNL A   1      37.334  22.825  25.134  1.00  0.00     0.079 A 
ATOM     20  C   UNL A   1      37.789  23.898  25.916  1.00  0.00     0.020 A 
ATOM     21  C   UNL A   1      38.013  21.604  25.175  1.00  0.00     0.174 A 
ATOM     22  C   UNL A   1      38.947  23.765  26.684  1.00  0.00     0.043 A 
ATOM     23  C   UNL A   1      39.153  21.468  25.962  1.00  0.00     0.195 A 
ATOM     24  F   UNL A   1      37.585  20.550  24.465  1.00  0.00    -0.203 F 
ATOM     25  C   UNL A   1      39.619  22.547  26.704  1.00  0.00     0.161 A 
ATOM     26  F   UNL A   1      39.797  20.293  26.019  1.00  0.00    -0.200 F 
ATOM     27  F   UNL A   1      40.714  22.419  27.467  1.00  0.00    -0.204 F 
ENDBRANCH  17  19
ENDBRANCH   9  10
ENDBRANCH   7   9
ENDBRANCH   6   7
ENDBRANCH   5   6
ENDBRANCH   4   5
ENDBRANCH   3   4
ENDBRANCH   2   3
ENDBRANCH   1   2
BRANCH   1  28
ATOM     28  O   UNL A   1      31.393  28.950  25.914  1.00  0.00    -0.376 OA
BRANCH  28  29
ATOM     29  C   UNL A   1      32.561  29.288  26.646  1.00  0.00     0.202 C 
BRANCH  29  30
ATOM     30  C   UNL A   1      33.080  30.716  26.495  1.00  0.00     0.261 C 
BRANCH  30  31
ATOM     31  O   UNL A   1      33.281  31.386  27.745  1.00  0.00    -0.460 OA
BRANCH  31  32
ATOM     32  C   UNL A   1      34.335  32.233  27.784  1.00  0.00     0.338 C 
ATOM     33  O   UNL A   1      34.316  33.446  27.623  1.00  0.00    -0.246 OA
BRANCH  32  34
ATOM     34  C   UNL A   1      35.539  31.486  28.185  1.00  0.00     0.060 A 
ATOM     35  C   UNL A   1      35.426  30.121  28.490  1.00  0.00     0.016 A 
ATOM     36  C   UNL A   1      36.757  32.153  28.325  1.00  0.00     0.016 A 
ATOM     37  C   UNL A   1      36.523  29.431  29.005  1.00  0.00     0.010 A 
ATOM     38  C   UNL A   1      37.846  31.467  28.852  1.00  0.00     0.010 A 
ATOM     39  C   UNL A   1      37.718  30.121  29.241  1.00  0.00    -0.014 A 
BRANCH  39  40
ATOM     40  C   UNL A   1      38.764  29.555  30.124  1.00  0.00     0.031 A 
ATOM     41  C   UNL A   1      38.876  30.116  31.513  1.00  0.00     0.074 A 
ATOM     42  C   UNL A   1      39.641  28.643  29.677  1.00  0.00     0.049 A 
ATOM     43  N   UNL A   1      39.831  29.985  32.393  1.00  0.00    -0.248 NA
ATOM     44  C   UNL A   1      37.761  30.971  31.950  1.00  0.00     0.031 C 
ATOM     45  C   UNL A   1      39.594  28.001  28.366  1.00  0.00     0.029 A 
ATOM     46  N   UNL A   1      40.769  28.136  30.268  1.00  0.00    -0.354 N 
ATOM     47  C   UNL A   1      39.450  30.767  33.480  1.00  0.00     0.074 A 
ATOM     48  C   UNL A   1      38.193  31.393  33.126  1.00  0.00     0.031 C 
ATOM     49  C   UNL A   1      40.675  27.213  28.235  1.00  0.00     0.029 A 
ATOM     50  C   UNL A   1      41.512  27.344  29.427  1.00  0.00     0.049 A 
ATOM     51  H   UNL A   1      41.022  28.322  31.201  1.00  0.00     0.167 HD
ATOM     52  C   UNL A   1      40.096  30.947  34.658  1.00  0.00     0.034 A 
ATOM     53  C   UNL A   1      42.751  26.832  29.583  1.00  0.00     0.034 A 
ATOM     54  C   UNL A   1      41.360  30.325  34.966  1.00  0.00     0.049 A 
ATOM     55  C   UNL A   1      43.499  27.104  30.866  1.00  0.00     0.074 A 
ATOM     56  C   UNL A   1      42.101  30.406  36.130  1.00  0.00     0.029 A 
ATOM     57  N   UNL A   1      42.084  29.524  34.089  1.00  0.00    -0.354 N 
ATOM     58  N   UNL A   1      43.138  27.839  31.893  1.00  0.00    -0.248 NA
ATOM     59  C   UNL A   1      44.817  26.474  31.012  1.00  0.00     0.031 C 
ATOM     60  C   UNL A   1      43.309  29.732  35.925  1.00  0.00     0.029 A 
ATOM     61  C   UNL A   1      43.282  29.139  34.672  1.00  0.00     0.049 A 
ATOM     62  H   UNL A   1      41.789  29.267  33.185  1.00  0.00     0.167 HD
ATOM     63  C   UNL A   1      44.168  27.727  32.825  1.00  0.00     0.074 A 
ATOM     64  C   UNL A   1      45.167  26.860  32.231  1.00  0.00     0.031 C 
ATOM     65  C   UNL A   1      44.272  28.278  34.062  1.00  0.00     0.034 A 
BRANCH  52  66
ATOM     66  C   UNL A   1      39.475  31.908  35.646  1.00  0.00     0.023 A 
ATOM     67  C   UNL A   1      38.854  31.464  36.827  1.00  0.00     0.031 A 
ATOM     68  C   UNL A   1      39.433  33.286  35.364  1.00  0.00     0.131 A 
ATOM     69  C   UNL A   1      38.127  32.366  37.619  1.00  0.00     0.055 A 
ATOM     70  C   UNL A   1      38.795  34.193  36.212  1.00  0.00     0.041 A 
ATOM     71  F   UNL A   1      39.982  33.773  34.240  1.00  0.00    -0.206 F 
ATOM     72  C   UNL A   1      38.116  33.733  37.336  1.00  0.00     0.022 A 
BRANCH  69  73
ATOM     73  S   UNL A   1      37.028  31.696  38.899  1.00  0.00     0.124 S 
ATOM     74  O   UNL A   1      36.848  30.320  38.441  1.00  0.00    -0.237 OA
ATOM     75  O   UNL A   1      37.817  31.868  40.112  1.00  0.00    -0.237 OA
ATOM     76  O   UNL A   1      35.837  32.536  38.801  1.00  0.00    -0.744 OA
ENDBRANCH  69  73
ENDBRANCH  52  66
BRANCH  53  77
ATOM     77  C   UNL A   1      43.373  26.060  28.470  1.00  0.00     0.023 A 
ATOM     78  C   UNL A   1      44.298  26.655  27.600  1.00  0.00     0.031 A 
ATOM     79  C   UNL A   1      43.052  24.704  28.270  1.00  0.00     0.131 A 
ATOM     80  C   UNL A   1      44.858  25.901  26.556  1.00  0.00     0.055 A 
ATOM     81  C   UNL A   1      43.649  23.946  27.261  1.00  0.00     0.041 A 
ATOM     82  F   UNL A   1      42.175  24.087  29.077  1.00  0.00    -0.206 F 
ATOM     83  C   UNL A   1      44.553  24.546  26.392  1.00  0.00     0.022 A 
BRANCH  80  84
ATOM     84  S   UNL A   1      45.962  26.728  25.379  1.00  0.00     0.124 S 
ATOM     85  O   UNL A   1      46.967  27.299  26.268  1.00  0.00    -0.237 OA
ATOM     86  O   UNL A   1      46.400  25.617  24.542  1.00  0.00    -0.237 OA
ATOM     87  O   UNL A   1      45.089  27.697  24.718  1.00  0.00    -0.744 OA
ENDBRANCH  80  84
ENDBRANCH  53  77
BRANCH  65  88
ATOM     88  C   UNL A   1      45.475  27.903  34.896  1.00  0.00     0.023 A 
ATOM     89  C   UNL A   1      45.468  26.813  35.781  1.00  0.00     0.031 A 
ATOM     90  C   UNL A   1      46.667  28.642  34.768  1.00  0.00     0.131 A 
ATOM     91  C   UNL A   1      46.617  26.515  36.532  1.00  0.00     0.055 A 
ATOM     92  C   UNL A   1      47.824  28.304  35.470  1.00  0.00     0.041 A 
ATOM     93  F   UNL A   1      46.730  29.698  33.941  1.00  0.00    -0.206 F 
ATOM     94  C   UNL A   1      47.800  27.240  36.365  1.00  0.00     0.022 A 
BRANCH  91  95
ATOM     95  S   UNL A   1      46.526  25.215  37.793  1.00  0.00     0.124 S 
ATOM     96  O   UNL A   1      47.435  25.723  38.817  1.00  0.00    -0.237 OA
ATOM     97  O   UNL A   1      45.109  25.214  38.141  1.00  0.00    -0.237 OA
ATOM     98  O   UNL A   1      46.991  24.021  37.090  1.00  0.00    -0.744 OA
ENDBRANCH  91  95
ENDBRANCH  65  88
ENDBRANCH  39  40
ENDBRANCH  32  34
ENDBRANCH  31  32
ENDBRANCH  30  31
ENDBRANCH  29  30
ENDBRANCH  28  29
ENDBRANCH   1  28
TORSDOF 22
ENDMDL
