MODEL 1
REMARK VINA RESULT:     -10.5      0.000      0.000
REMARK SMILES C[C@@H](C(=O)OCCOCCOCCOC(=O)c1ccc(-c2c3nc(c(-c4cc(S(=O)(=O)[O-])ccc4F)c4ccc([nH]4)c(-c4cc(S(=O)(=O)[O-])ccc4F)c4nc(c(-c5cc(S(=O)(=O)[O-])ccc5F)c5ccc2[nH]5)C=C4)C=C3)cc1)c1ccc(NC2CCCC2)cc1F
REMARK SMILES IDX 9 1 8 2 7 3 6 4 5 5 3 6 4 7 2 8 1 9 80 10 81 11 91 12 82 13
REMARK SMILES IDX 90 14 92 15 83 16 84 17 85 19 86 20 89 21 87 22 88 23 10 24
REMARK SMILES IDX 11 25 12 26 13 27 14 28 15 29 16 30 17 31 18 32 79 33 19 34
REMARK SMILES IDX 78 35 20 36 21 37 22 38 72 39 23 40 77 41 71 42 73 43 24 44
REMARK SMILES IDX 76 45 70 46 69 47 25 49 57 50 37 51 56 52 38 53 41 54 55 55
REMARK SMILES IDX 74 56 39 57 40 58 54 60 75 61 42 62 26 63 27 64 35 65 28 66
REMARK SMILES IDX 34 67 36 68 33 69 29 70 30 71 31 72 32 73 58 74 59 75 67 76
REMARK SMILES IDX 60 77 66 78 68 79 65 80 61 81 62 82 63 83 64 84 43 85 44 86
REMARK SMILES IDX 52 87 45 88 51 89 53 90 50 91 46 92 47 93 48 94 49 95
REMARK H PARENT 84 18 73 48 41 59
REMARK Flexibility Score: inf
ROOT
ATOM      1  C   UNL A   1      35.684  21.998  25.305  1.00  0.00     0.188 C 
ENDROOT
BRANCH   1   2
ATOM      2  O   UNL A   1      35.098  21.457  26.485  1.00  0.00    -0.376 OA
BRANCH   2   3
ATOM      3  C   UNL A   1      33.687  21.307  26.538  1.00  0.00     0.202 C 
BRANCH   3   4
ATOM      4  C   UNL A   1      32.901  21.166  25.226  1.00  0.00     0.261 C 
BRANCH   4   5
ATOM      5  O   UNL A   1      31.847  22.130  25.011  1.00  0.00    -0.463 OA
BRANCH   5   6
ATOM      6  C   UNL A   1      32.240  23.425  24.864  1.00  0.00     0.313 C 
ATOM      7  O   UNL A   1      33.099  23.784  24.062  1.00  0.00    -0.252 OA
BRANCH   6   8
ATOM      8  C   UNL A   1      31.561  24.419  25.822  1.00  0.00     0.129 C 
ATOM      9  C   UNL A   1      30.346  23.953  26.630  1.00  0.00     0.025 C 
BRANCH   8  10
ATOM     10  C   UNL A   1      31.343  25.763  25.142  1.00  0.00     0.002 A 
ATOM     11  C   UNL A   1      30.400  25.880  24.119  1.00  0.00     0.010 A 
ATOM     12  C   UNL A   1      31.987  26.933  25.545  1.00  0.00     0.129 A 
ATOM     13  C   UNL A   1      30.113  27.129  23.545  1.00  0.00     0.026 A 
ATOM     14  C   UNL A   1      31.687  28.173  24.983  1.00  0.00     0.065 A 
ATOM     15  F   UNL A   1      32.924  26.897  26.500  1.00  0.00    -0.207 F 
ATOM     16  C   UNL A   1      30.735  28.304  23.974  1.00  0.00     0.037 A 
BRANCH  16  17
ATOM     17  N   UNL A   1      30.499  29.558  23.454  1.00  0.00    -0.382 N 
ATOM     18  H   UNL A   1      31.302  30.099  23.278  1.00  0.00     0.160 HD
BRANCH  17  19
ATOM     19  C   UNL A   1      29.232  30.196  23.128  1.00  0.00     0.079 C 
ATOM     20  C   UNL A   1      28.998  31.496  23.889  1.00  0.00     0.025 C 
ATOM     21  C   UNL A   1      29.064  30.499  21.641  1.00  0.00     0.025 C 
ATOM     22  C   UNL A   1      28.096  32.312  22.981  1.00  0.00     0.002 C 
ATOM     23  C   UNL A   1      28.430  31.884  21.558  1.00  0.00     0.002 C 
ENDBRANCH  17  19
ENDBRANCH  16  17
ENDBRANCH   8  10
ENDBRANCH   6   8
ENDBRANCH   5   6
ENDBRANCH   4   5
ENDBRANCH   3   4
ENDBRANCH   2   3
ENDBRANCH   1   2
BRANCH   1  24
ATOM     24  C   UNL A   1      37.219  21.983  25.160  1.00  0.00     0.188 C 
BRANCH  24  25
ATOM     25  O   UNL A   1      37.694  20.906  24.375  1.00  0.00    -0.376 OA
BRANCH  25  26
ATOM     26  C   UNL A   1      38.004  19.707  25.051  1.00  0.00     0.202 C 
BRANCH  26  27
ATOM     27  C   UNL A   1      39.427  19.566  25.612  1.00  0.00     0.261 C 
BRANCH  27  28
ATOM     28  O   UNL A   1      39.707  20.247  26.846  1.00  0.00    -0.460 OA
BRANCH  28  29
ATOM     29  C   UNL A   1      41.008  20.456  27.156  1.00  0.00     0.338 C 
ATOM     30  O   UNL A   1      41.918  19.653  27.020  1.00  0.00    -0.246 OA
BRANCH  29  31
ATOM     31  C   UNL A   1      41.185  21.885  27.518  1.00  0.00     0.060 A 
ATOM     32  C   UNL A   1      40.439  22.854  26.838  1.00  0.00     0.016 A 
ATOM     33  C   UNL A   1      42.086  22.276  28.515  1.00  0.00     0.016 A 
ATOM     34  C   UNL A   1      40.605  24.211  27.140  1.00  0.00     0.010 A 
ATOM     35  C   UNL A   1      42.256  23.637  28.810  1.00  0.00     0.010 A 
ATOM     36  C   UNL A   1      41.524  24.617  28.118  1.00  0.00    -0.014 A 
BRANCH  36  37
ATOM     37  C   UNL A   1      41.844  26.062  28.282  1.00  0.00     0.031 A 
ATOM     38  C   UNL A   1      43.208  26.543  27.868  1.00  0.00     0.074 A 
ATOM     39  C   UNL A   1      40.945  26.944  28.761  1.00  0.00     0.049 A 
ATOM     40  N   UNL A   1      43.737  27.737  27.962  1.00  0.00    -0.248 NA
ATOM     41  C   UNL A   1      44.090  25.537  27.260  1.00  0.00     0.031 C 
ATOM     42  C   UNL A   1      39.569  26.631  29.138  1.00  0.00     0.029 A 
ATOM     43  N   UNL A   1      41.062  28.292  29.017  1.00  0.00    -0.354 N 
ATOM     44  C   UNL A   1      45.010  27.629  27.415  1.00  0.00     0.074 A 
ATOM     45  C   UNL A   1      45.183  26.245  27.023  1.00  0.00     0.031 C 
ATOM     46  C   UNL A   1      38.975  27.750  29.591  1.00  0.00     0.029 A 
ATOM     47  C   UNL A   1      39.940  28.850  29.586  1.00  0.00     0.049 A 
ATOM     48  H   UNL A   1      41.875  28.809  28.813  1.00  0.00     0.167 HD
ATOM     49  C   UNL A   1      45.953  28.591  27.251  1.00  0.00     0.034 A 
ATOM     50  C   UNL A   1      39.730  30.090  30.079  1.00  0.00     0.034 A 
ATOM     51  C   UNL A   1      45.798  29.956  27.692  1.00  0.00     0.049 A 
ATOM     52  C   UNL A   1      40.847  31.112  30.021  1.00  0.00     0.074 A 
ATOM     53  C   UNL A   1      46.704  30.999  27.603  1.00  0.00     0.029 A 
ATOM     54  N   UNL A   1      44.674  30.466  28.329  1.00  0.00    -0.354 N 
ATOM     55  N   UNL A   1      42.051  30.997  29.507  1.00  0.00    -0.248 NA
ATOM     56  C   UNL A   1      40.574  32.434  30.607  1.00  0.00     0.031 C 
ATOM     57  C   UNL A   1      46.163  32.110  28.257  1.00  0.00     0.029 A 
ATOM     58  C   UNL A   1      44.879  31.794  28.671  1.00  0.00     0.049 A 
ATOM     59  H   UNL A   1      43.850  29.957  28.511  1.00  0.00     0.167 HD
ATOM     60  C   UNL A   1      42.660  32.241  29.679  1.00  0.00     0.074 A 
ATOM     61  C   UNL A   1      41.689  33.093  30.330  1.00  0.00     0.031 C 
ATOM     62  C   UNL A   1      43.908  32.643  29.323  1.00  0.00     0.034 A 
BRANCH  49  63
ATOM     63  C   UNL A   1      47.262  28.168  26.630  1.00  0.00     0.023 A 
ATOM     64  C   UNL A   1      47.423  28.090  25.235  1.00  0.00     0.031 A 
ATOM     65  C   UNL A   1      48.344  27.788  27.442  1.00  0.00     0.131 A 
ATOM     66  C   UNL A   1      48.610  27.566  24.698  1.00  0.00     0.055 A 
ATOM     67  C   UNL A   1      49.553  27.350  26.898  1.00  0.00     0.041 A 
ATOM     68  F   UNL A   1      48.238  27.816  28.779  1.00  0.00    -0.206 F 
ATOM     69  C   UNL A   1      49.685  27.220  25.519  1.00  0.00     0.022 A 
BRANCH  66  70
ATOM     70  S   UNL A   1      48.662  27.189  22.925  1.00  0.00     0.124 S 
ATOM     71  O   UNL A   1      47.635  28.088  22.402  1.00  0.00    -0.237 OA
ATOM     72  O   UNL A   1      50.039  27.517  22.572  1.00  0.00    -0.237 OA
ATOM     73  O   UNL A   1      48.323  25.768  22.867  1.00  0.00    -0.744 OA
ENDBRANCH  66  70
ENDBRANCH  49  63
BRANCH  50  74
ATOM     74  C   UNL A   1      38.436  30.438  30.745  1.00  0.00     0.023 A 
ATOM     75  C   UNL A   1      37.422  31.127  30.059  1.00  0.00     0.031 A 
ATOM     76  C   UNL A   1      38.234  30.165  32.110  1.00  0.00     0.131 A 
ATOM     77  C   UNL A   1      36.279  31.563  30.751  1.00  0.00     0.055 A 
ATOM     78  C   UNL A   1      37.069  30.547  32.778  1.00  0.00     0.041 A 
ATOM     79  F   UNL A   1      39.176  29.524  32.821  1.00  0.00    -0.206 F 
ATOM     80  C   UNL A   1      36.089  31.265  32.100  1.00  0.00     0.022 A 
BRANCH  77  81
ATOM     81  S   UNL A   1      35.086  32.617  29.880  1.00  0.00     0.124 S 
ATOM     82  O   UNL A   1      35.949  33.666  29.350  1.00  0.00    -0.237 OA
ATOM     83  O   UNL A   1      34.526  31.691  28.898  1.00  0.00    -0.237 OA
ATOM     84  O   UNL A   1      34.165  33.036  30.935  1.00  0.00    -0.744 OA
ENDBRANCH  77  81
ENDBRANCH  50  74
BRANCH  62  85
ATOM     85  C   UNL A   1      44.279  34.088  29.573  1.00  0.00     0.023 A 
ATOM     86  C   UNL A   1      44.033  35.102  28.629  1.00  0.00     0.031 A 
ATOM     87  C   UNL A   1      44.884  34.459  30.790  1.00  0.00     0.131 A 
ATOM     88  C   UNL A   1      44.434  36.421  28.896  1.00  0.00     0.055 A 
ATOM     89  C   UNL A   1      45.220  35.782  31.076  1.00  0.00     0.041 A 
ATOM     90  F   UNL A   1      45.149  33.535  31.729  1.00  0.00    -0.206 F 
ATOM     91  C   UNL A   1      45.008  36.770  30.120  1.00  0.00     0.022 A 
BRANCH  88  92
ATOM     92  S   UNL A   1      44.285  37.664  27.582  1.00  0.00     0.124 S 
ATOM     93  O   UNL A   1      43.144  37.167  26.822  1.00  0.00    -0.237 OA
ATOM     94  O   UNL A   1      44.063  38.892  28.338  1.00  0.00    -0.237 OA
ATOM     95  O   UNL A   1      45.571  37.587  26.889  1.00  0.00    -0.744 OA
ENDBRANCH  88  92
ENDBRANCH  62  85
ENDBRANCH  36  37
ENDBRANCH  29  31
ENDBRANCH  28  29
ENDBRANCH  27  28
ENDBRANCH  26  27
ENDBRANCH  25  26
ENDBRANCH  24  25
ENDBRANCH   1  24
TORSDOF 23
ENDMDL
MODEL 2
REMARK VINA RESULT:     -10.1      2.481      3.569
REMARK SMILES C[C@@H](C(=O)OCCOCCOCCOC(=O)c1ccc(-c2c3nc(c(-c4cc(S(=O)(=O)[O-])ccc4F)c4ccc([nH]4)c(-c4cc(S(=O)(=O)[O-])ccc4F)c4nc(c(-c5cc(S(=O)(=O)[O-])ccc5F)c5ccc2[nH]5)C=C4)C=C3)cc1)c1ccc(NC2CCCC2)cc1F
REMARK SMILES IDX 9 1 8 2 7 3 6 4 5 5 3 6 4 7 2 8 1 9 80 10 81 11 91 12 82 13
REMARK SMILES IDX 90 14 92 15 83 16 84 17 85 19 86 20 89 21 87 22 88 23 10 24
REMARK SMILES IDX 11 25 12 26 13 27 14 28 15 29 16 30 17 31 18 32 79 33 19 34
REMARK SMILES IDX 78 35 20 36 21 37 22 38 72 39 23 40 77 41 71 42 73 43 24 44
REMARK SMILES IDX 76 45 70 46 69 47 25 49 57 50 37 51 56 52 38 53 41 54 55 55
REMARK SMILES IDX 74 56 39 57 40 58 54 60 75 61 42 62 26 63 27 64 35 65 28 66
REMARK SMILES IDX 34 67 36 68 33 69 29 70 30 71 31 72 32 73 58 74 59 75 67 76
REMARK SMILES IDX 60 77 66 78 68 79 65 80 61 81 62 82 63 83 64 84 43 85 44 86
REMARK SMILES IDX 52 87 45 88 51 89 53 90 50 91 46 92 47 93 48 94 49 95
REMARK H PARENT 84 18 73 48 41 59
REMARK Flexibility Score: inf
ROOT
ATOM      1  C   UNL A   1      33.770  23.181  24.954  1.00  0.00     0.188 C 
ENDROOT
BRANCH   1   2
ATOM      2  O   UNL A   1      33.784  23.442  26.354  1.00  0.00    -0.376 OA
BRANCH   2   3
ATOM      3  C   UNL A   1      32.793  22.835  27.171  1.00  0.00     0.202 C 
BRANCH   3   4
ATOM      4  C   UNL A   1      31.311  23.108  26.875  1.00  0.00     0.261 C 
BRANCH   4   5
ATOM      5  O   UNL A   1      30.938  24.497  26.741  1.00  0.00    -0.463 OA
BRANCH   5   6
ATOM      6  C   UNL A   1      30.592  24.907  25.489  1.00  0.00     0.313 C 
ATOM      7  O   UNL A   1      30.561  24.157  24.516  1.00  0.00    -0.252 OA
BRANCH   6   8
ATOM      8  C   UNL A   1      30.289  26.410  25.362  1.00  0.00     0.129 C 
ATOM      9  C   UNL A   1      29.541  26.910  24.123  1.00  0.00     0.025 C 
BRANCH   8  10
ATOM     10  C   UNL A   1      31.522  27.240  25.688  1.00  0.00     0.002 A 
ATOM     11  C   UNL A   1      32.569  27.322  24.767  1.00  0.00     0.010 A 
ATOM     12  C   UNL A   1      31.637  28.010  26.846  1.00  0.00     0.129 A 
ATOM     13  C   UNL A   1      33.671  28.159  25.004  1.00  0.00     0.026 A 
ATOM     14  C   UNL A   1      32.726  28.852  27.069  1.00  0.00     0.065 A 
ATOM     15  F   UNL A   1      30.688  27.963  27.789  1.00  0.00    -0.207 F 
ATOM     16  C   UNL A   1      33.767  28.955  26.149  1.00  0.00     0.037 A 
BRANCH  16  17
ATOM     17  N   UNL A   1      34.819  29.794  26.440  1.00  0.00    -0.382 N 
ATOM     18  H   UNL A   1      35.144  30.340  25.688  1.00  0.00     0.160 HD
BRANCH  17  19
ATOM     19  C   UNL A   1      35.521  29.989  27.701  1.00  0.00     0.079 C 
ATOM     20  C   UNL A   1      37.028  29.795  27.589  1.00  0.00     0.025 C 
ATOM     21  C   UNL A   1      35.280  31.360  28.329  1.00  0.00     0.025 C 
ATOM     22  C   UNL A   1      37.607  30.670  28.686  1.00  0.00     0.002 C 
ATOM     23  C   UNL A   1      36.630  31.824  28.867  1.00  0.00     0.002 C 
ENDBRANCH  17  19
ENDBRANCH  16  17
ENDBRANCH   8  10
ENDBRANCH   6   8
ENDBRANCH   5   6
ENDBRANCH   4   5
ENDBRANCH   3   4
ENDBRANCH   2   3
ENDBRANCH   1   2
BRANCH   1  24
ATOM     24  C   UNL A   1      34.710  23.987  24.036  1.00  0.00     0.188 C 
BRANCH  24  25
ATOM     25  O   UNL A   1      36.080  23.727  24.275  1.00  0.00    -0.376 OA
BRANCH  25  26
ATOM     26  C   UNL A   1      36.630  22.579  23.667  1.00  0.00     0.202 C 
BRANCH  26  27
ATOM     27  C   UNL A   1      37.339  21.571  24.584  1.00  0.00     0.261 C 
BRANCH  27  28
ATOM     28  O   UNL A   1      37.829  22.071  25.839  1.00  0.00    -0.460 OA
BRANCH  28  29
ATOM     29  C   UNL A   1      39.112  21.785  26.161  1.00  0.00     0.338 C 
ATOM     30  O   UNL A   1      39.729  20.782  25.836  1.00  0.00    -0.246 OA
BRANCH  29  31
ATOM     31  C   UNL A   1      39.712  22.974  26.817  1.00  0.00     0.060 A 
ATOM     32  C   UNL A   1      39.240  24.246  26.478  1.00  0.00     0.016 A 
ATOM     33  C   UNL A   1      40.740  22.843  27.758  1.00  0.00     0.016 A 
ATOM     34  C   UNL A   1      39.805  25.386  27.062  1.00  0.00     0.010 A 
ATOM     35  C   UNL A   1      41.310  23.988  28.337  1.00  0.00     0.010 A 
ATOM     36  C   UNL A   1      40.853  25.270  27.986  1.00  0.00    -0.014 A 
BRANCH  36  37
ATOM     37  C   UNL A   1      41.583  26.486  28.439  1.00  0.00     0.031 A 
ATOM     38  C   UNL A   1      43.002  26.682  27.976  1.00  0.00     0.074 A 
ATOM     39  C   UNL A   1      41.004  27.419  29.220  1.00  0.00     0.049 A 
ATOM     40  N   UNL A   1      43.855  27.628  28.275  1.00  0.00    -0.248 NA
ATOM     41  C   UNL A   1      43.521  25.671  27.043  1.00  0.00     0.031 C 
ATOM     42  C   UNL A   1      39.621  27.392  29.687  1.00  0.00     0.029 A 
ATOM     43  N   UNL A   1      41.518  28.574  29.765  1.00  0.00    -0.354 N 
ATOM     44  C   UNL A   1      45.010  27.334  27.560  1.00  0.00     0.074 A 
ATOM     45  C   UNL A   1      44.755  26.104  26.838  1.00  0.00     0.031 C 
ATOM     46  C   UNL A   1      39.400  28.471  30.460  1.00  0.00     0.029 A 
ATOM     47  C   UNL A   1      40.638  29.241  30.586  1.00  0.00     0.049 A 
ATOM     48  H   UNL A   1      42.432  28.894  29.583  1.00  0.00     0.167 HD
ATOM     49  C   UNL A   1      46.177  28.023  27.504  1.00  0.00     0.034 A 
ATOM     50  C   UNL A   1      40.821  30.321  31.377  1.00  0.00     0.034 A 
ATOM     51  C   UNL A   1      46.447  29.218  28.266  1.00  0.00     0.049 A 
ATOM     52  C   UNL A   1      42.179  30.993  31.414  1.00  0.00     0.074 A 
ATOM     53  C   UNL A   1      47.607  29.972  28.305  1.00  0.00     0.029 A 
ATOM     54  N   UNL A   1      45.555  29.823  29.142  1.00  0.00    -0.354 N 
ATOM     55  N   UNL A   1      43.268  30.702  30.738  1.00  0.00    -0.248 NA
ATOM     56  C   UNL A   1      42.332  32.141  32.321  1.00  0.00     0.031 C 
ATOM     57  C   UNL A   1      47.446  30.978  29.263  1.00  0.00     0.029 A 
ATOM     58  C   UNL A   1      46.152  30.915  29.753  1.00  0.00     0.049 A 
ATOM     59  H   UNL A   1      44.632  29.520  29.305  1.00  0.00     0.167 HD
ATOM     60  C   UNL A   1      44.217  31.654  31.115  1.00  0.00     0.074 A 
ATOM     61  C   UNL A   1      43.571  32.532  32.064  1.00  0.00     0.031 C 
ATOM     62  C   UNL A   1      45.505  31.790  30.704  1.00  0.00     0.034 A 
BRANCH  49  63
ATOM     63  C   UNL A   1      47.272  27.446  26.638  1.00  0.00     0.023 A 
ATOM     64  C   UNL A   1      48.255  26.592  27.167  1.00  0.00     0.031 A 
ATOM     65  C   UNL A   1      47.363  27.798  25.280  1.00  0.00     0.131 A 
ATOM     66  C   UNL A   1      49.330  26.183  26.363  1.00  0.00     0.055 A 
ATOM     67  C   UNL A   1      48.388  27.317  24.464  1.00  0.00     0.041 A 
ATOM     68  F   UNL A   1      46.468  28.631  24.728  1.00  0.00    -0.206 F 
ATOM     69  C   UNL A   1      49.390  26.518  25.008  1.00  0.00     0.022 A 
BRANCH  66  70
ATOM     70  S   UNL A   1      50.732  25.349  27.154  1.00  0.00     0.124 S 
ATOM     71  O   UNL A   1      51.346  26.445  27.899  1.00  0.00    -0.237 OA
ATOM     72  O   UNL A   1      50.078  24.320  27.954  1.00  0.00    -0.237 OA
ATOM     73  O   UNL A   1      51.520  24.857  26.024  1.00  0.00    -0.744 OA
ENDBRANCH  66  70
ENDBRANCH  49  63
BRANCH  50  74
ATOM     74  C   UNL A   1      39.723  30.813  32.266  1.00  0.00     0.023 A 
ATOM     75  C   UNL A   1      38.963  31.946  31.931  1.00  0.00     0.031 A 
ATOM     76  C   UNL A   1      39.480  30.205  33.511  1.00  0.00     0.131 A 
ATOM     77  C   UNL A   1      38.036  32.465  32.851  1.00  0.00     0.055 A 
ATOM     78  C   UNL A   1      38.514  30.690  34.396  1.00  0.00     0.041 A 
ATOM     79  F   UNL A   1      40.188  29.129  33.891  1.00  0.00    -0.206 F 
ATOM     80  C   UNL A   1      37.795  31.836  34.073  1.00  0.00     0.022 A 
BRANCH  77  81
ATOM     81  S   UNL A   1      37.217  34.038  32.466  1.00  0.00     0.124 S 
ATOM     82  O   UNL A   1      38.266  34.749  31.747  1.00  0.00    -0.237 OA
ATOM     83  O   UNL A   1      36.077  33.596  31.667  1.00  0.00    -0.237 OA
ATOM     84  O   UNL A   1      36.881  34.580  33.781  1.00  0.00    -0.744 OA
ENDBRANCH  77  81
ENDBRANCH  50  74
BRANCH  62  85
ATOM     85  C   UNL A   1      46.289  32.972  31.233  1.00  0.00     0.023 A 
ATOM     86  C   UNL A   1      46.316  34.213  30.572  1.00  0.00     0.031 A 
ATOM     87  C   UNL A   1      47.017  32.852  32.433  1.00  0.00     0.131 A 
ATOM     88  C   UNL A   1      47.093  35.265  31.085  1.00  0.00     0.055 A 
ATOM     89  C   UNL A   1      47.733  33.921  32.972  1.00  0.00     0.041 A 
ATOM     90  F   UNL A   1      47.034  31.691  33.107  1.00  0.00    -0.206 F 
ATOM     91  C   UNL A   1      47.785  35.132  32.291  1.00  0.00     0.022 A 
BRANCH  88  92
ATOM     92  S   UNL A   1      47.266  36.783  30.107  1.00  0.00     0.124 S 
ATOM     93  O   UNL A   1      46.017  36.804  29.354  1.00  0.00    -0.237 OA
ATOM     94  O   UNL A   1      47.407  37.805  31.139  1.00  0.00    -0.237 OA
ATOM     95  O   UNL A   1      48.467  36.541  29.308  1.00  0.00    -0.744 OA
ENDBRANCH  88  92
ENDBRANCH  62  85
ENDBRANCH  36  37
ENDBRANCH  29  31
ENDBRANCH  28  29
ENDBRANCH  27  28
ENDBRANCH  26  27
ENDBRANCH  25  26
ENDBRANCH  24  25
ENDBRANCH   1  24
TORSDOF 23
ENDMDL
MODEL 3
REMARK VINA RESULT:      -9.9      2.210      8.361
REMARK SMILES C[C@@H](C(=O)OCCOCCOCCOC(=O)c1ccc(-c2c3nc(c(-c4cc(S(=O)(=O)[O-])ccc4F)c4ccc([nH]4)c(-c4cc(S(=O)(=O)[O-])ccc4F)c4nc(c(-c5cc(S(=O)(=O)[O-])ccc5F)c5ccc2[nH]5)C=C4)C=C3)cc1)c1ccc(NC2CCCC2)cc1F
REMARK SMILES IDX 9 1 8 2 7 3 6 4 5 5 3 6 4 7 2 8 1 9 80 10 81 11 91 12 82 13
REMARK SMILES IDX 90 14 92 15 83 16 84 17 85 19 86 20 89 21 87 22 88 23 10 24
REMARK SMILES IDX 11 25 12 26 13 27 14 28 15 29 16 30 17 31 18 32 79 33 19 34
REMARK SMILES IDX 78 35 20 36 21 37 22 38 72 39 23 40 77 41 71 42 73 43 24 44
REMARK SMILES IDX 76 45 70 46 69 47 25 49 57 50 37 51 56 52 38 53 41 54 55 55
REMARK SMILES IDX 74 56 39 57 40 58 54 60 75 61 42 62 26 63 27 64 35 65 28 66
REMARK SMILES IDX 34 67 36 68 33 69 29 70 30 71 31 72 32 73 58 74 59 75 67 76
REMARK SMILES IDX 60 77 66 78 68 79 65 80 61 81 62 82 63 83 64 84 43 85 44 86
REMARK SMILES IDX 52 87 45 88 51 89 53 90 50 91 46 92 47 93 48 94 49 95
REMARK H PARENT 84 18 73 48 41 59
REMARK Flexibility Score: inf
ROOT
ATOM      1  C   UNL A   1      36.198  23.530  23.768  1.00  0.00     0.188 C 
ENDROOT
BRANCH   1   2
ATOM      2  O   UNL A   1      35.319  22.877  22.858  1.00  0.00    -0.376 OA
BRANCH   2   3
ATOM      3  C   UNL A   1      34.051  23.459  22.597  1.00  0.00     0.202 C 
BRANCH   3   4
ATOM      4  C   UNL A   1      33.927  24.990  22.552  1.00  0.00     0.261 C 
BRANCH   4   5
ATOM      5  O   UNL A   1      33.536  25.631  23.786  1.00  0.00    -0.463 OA
BRANCH   5   6
ATOM      6  C   UNL A   1      32.197  25.730  24.013  1.00  0.00     0.313 C 
ATOM      7  O   UNL A   1      31.405  26.189  23.193  1.00  0.00    -0.252 OA
BRANCH   6   8
ATOM      8  C   UNL A   1      31.742  25.270  25.408  1.00  0.00     0.129 C 
ATOM      9  C   UNL A   1      32.074  26.146  26.619  1.00  0.00     0.025 C 
BRANCH   8  10
ATOM     10  C   UNL A   1      32.074  23.801  25.627  1.00  0.00     0.002 A 
ATOM     11  C   UNL A   1      31.117  22.822  25.351  1.00  0.00     0.010 A 
ATOM     12  C   UNL A   1      33.337  23.356  26.020  1.00  0.00     0.129 A 
ATOM     13  C   UNL A   1      31.433  21.458  25.452  1.00  0.00     0.026 A 
ATOM     14  C   UNL A   1      33.651  22.000  26.104  1.00  0.00     0.065 A 
ATOM     15  F   UNL A   1      34.300  24.234  26.329  1.00  0.00    -0.207 F 
ATOM     16  C   UNL A   1      32.708  21.016  25.812  1.00  0.00     0.037 A 
BRANCH  16  17
ATOM     17  N   UNL A   1      33.082  19.695  25.930  1.00  0.00    -0.382 N 
ATOM     18  H   UNL A   1      33.626  19.480  26.722  1.00  0.00     0.160 HD
BRANCH  17  19
ATOM     19  C   UNL A   1      32.788  18.573  25.051  1.00  0.00     0.079 C 
ATOM     20  C   UNL A   1      32.453  18.995  23.625  1.00  0.00     0.025 C 
ATOM     21  C   UNL A   1      33.915  17.546  24.972  1.00  0.00     0.025 C 
ATOM     22  C   UNL A   1      32.867  17.811  22.770  1.00  0.00     0.002 C 
ATOM     23  C   UNL A   1      34.019  17.140  23.506  1.00  0.00     0.002 C 
ENDBRANCH  17  19
ENDBRANCH  16  17
ENDBRANCH   8  10
ENDBRANCH   6   8
ENDBRANCH   5   6
ENDBRANCH   4   5
ENDBRANCH   3   4
ENDBRANCH   2   3
ENDBRANCH   1   2
BRANCH   1  24
ATOM     24  C   UNL A   1      37.065  22.674  24.714  1.00  0.00     0.188 C 
BRANCH  24  25
ATOM     25  O   UNL A   1      37.370  21.397  24.186  1.00  0.00    -0.376 OA
BRANCH  25  26
ATOM     26  C   UNL A   1      37.511  20.339  25.109  1.00  0.00     0.202 C 
BRANCH  26  27
ATOM     27  C   UNL A   1      38.929  19.797  25.343  1.00  0.00     0.261 C 
BRANCH  27  28
ATOM     28  O   UNL A   1      39.945  20.761  25.667  1.00  0.00    -0.460 OA
BRANCH  28  29
ATOM     29  C   UNL A   1      40.478  20.705  26.910  1.00  0.00     0.338 C 
ATOM     30  O   UNL A   1      40.732  19.688  27.538  1.00  0.00    -0.246 OA
BRANCH  29  31
ATOM     31  C   UNL A   1      40.878  22.075  27.316  1.00  0.00     0.060 A 
ATOM     32  C   UNL A   1      40.488  23.159  26.523  1.00  0.00     0.016 A 
ATOM     33  C   UNL A   1      41.639  22.298  28.469  1.00  0.00     0.016 A 
ATOM     34  C   UNL A   1      40.873  24.459  26.868  1.00  0.00     0.010 A 
ATOM     35  C   UNL A   1      42.031  23.602  28.809  1.00  0.00     0.010 A 
ATOM     36  C   UNL A   1      41.659  24.693  28.005  1.00  0.00    -0.014 A 
BRANCH  36  37
ATOM     37  C   UNL A   1      42.236  26.045  28.246  1.00  0.00     0.031 A 
ATOM     38  C   UNL A   1      41.364  27.090  28.887  1.00  0.00     0.074 A 
ATOM     39  C   UNL A   1      43.512  26.344  27.933  1.00  0.00     0.049 A 
ATOM     40  N   UNL A   1      41.621  28.346  29.149  1.00  0.00    -0.248 NA
ATOM     41  C   UNL A   1      40.020  26.650  29.290  1.00  0.00     0.031 C 
ATOM     42  C   UNL A   1      44.487  25.413  27.370  1.00  0.00     0.029 A 
ATOM     43  N   UNL A   1      44.206  27.528  28.043  1.00  0.00    -0.354 N 
ATOM     44  C   UNL A   1      40.476  28.846  29.759  1.00  0.00     0.074 A 
ATOM     45  C   UNL A   1      39.514  27.763  29.795  1.00  0.00     0.031 C 
ATOM     46  C   UNL A   1      45.647  26.065  27.170  1.00  0.00     0.029 A 
ATOM     47  C   UNL A   1      45.487  27.470  27.542  1.00  0.00     0.049 A 
ATOM     48  H   UNL A   1      43.821  28.341  28.444  1.00  0.00     0.167 HD
ATOM     49  C   UNL A   1      40.243  30.090  30.246  1.00  0.00     0.034 A 
ATOM     50  C   UNL A   1      46.405  28.446  27.367  1.00  0.00     0.034 A 
ATOM     51  C   UNL A   1      41.184  31.181  30.159  1.00  0.00     0.049 A 
ATOM     52  C   UNL A   1      46.073  29.864  27.783  1.00  0.00     0.074 A 
ATOM     53  C   UNL A   1      41.032  32.487  30.591  1.00  0.00     0.029 A 
ATOM     54  N   UNL A   1      42.443  31.102  29.579  1.00  0.00    -0.354 N 
ATOM     55  N   UNL A   1      44.983  30.328  28.353  1.00  0.00    -0.248 NA
ATOM     56  C   UNL A   1      47.096  30.891  27.535  1.00  0.00     0.031 C 
ATOM     57  C   UNL A   1      42.160  33.214  30.200  1.00  0.00     0.029 A 
ATOM     58  C   UNL A   1      43.061  32.343  29.609  1.00  0.00     0.049 A 
ATOM     59  H   UNL A   1      42.840  30.284  29.201  1.00  0.00     0.167 HD
ATOM     60  C   UNL A   1      45.209  31.689  28.560  1.00  0.00     0.074 A 
ATOM     61  C   UNL A   1      46.540  31.968  28.068  1.00  0.00     0.031 C 
ATOM     62  C   UNL A   1      44.390  32.621  29.114  1.00  0.00     0.034 A 
BRANCH  49  63
ATOM     63  C   UNL A   1      38.883  30.346  30.849  1.00  0.00     0.023 A 
ATOM     64  C   UNL A   1      37.847  30.937  30.106  1.00  0.00     0.031 A 
ATOM     65  C   UNL A   1      38.636  30.042  32.200  1.00  0.00     0.131 A 
ATOM     66  C   UNL A   1      36.641  31.280  30.738  1.00  0.00     0.055 A 
ATOM     67  C   UNL A   1      37.404  30.306  32.799  1.00  0.00     0.041 A 
ATOM     68  F   UNL A   1      39.597  29.501  32.965  1.00  0.00    -0.206 F 
ATOM     69  C   UNL A   1      36.403  30.945  32.073  1.00  0.00     0.022 A 
BRANCH  66  70
ATOM     70  S   UNL A   1      35.458  32.316  29.837  1.00  0.00     0.124 S 
ATOM     71  O   UNL A   1      34.393  32.476  30.826  1.00  0.00    -0.237 OA
ATOM     72  O   UNL A   1      36.242  33.510  29.543  1.00  0.00    -0.237 OA
ATOM     73  O   UNL A   1      35.102  31.500  28.677  1.00  0.00    -0.744 OA
ENDBRANCH  66  70
ENDBRANCH  49  63
BRANCH  50  74
ATOM     74  C   UNL A   1      47.714  28.153  26.703  1.00  0.00     0.023 A 
ATOM     75  C   UNL A   1      47.800  27.939  25.317  1.00  0.00     0.031 A 
ATOM     76  C   UNL A   1      48.886  27.992  27.464  1.00  0.00     0.131 A 
ATOM     77  C   UNL A   1      49.015  27.527  24.745  1.00  0.00     0.055 A 
ATOM     78  C   UNL A   1      50.106  27.642  26.882  1.00  0.00     0.041 A 
ATOM     79  F   UNL A   1      48.860  28.167  28.795  1.00  0.00    -0.206 F 
ATOM     80  C   UNL A   1      50.171  27.393  25.515  1.00  0.00     0.022 A 
BRANCH  77  81
ATOM     81  S   UNL A   1      49.039  27.072  22.989  1.00  0.00     0.124 S 
ATOM     82  O   UNL A   1      48.360  28.209  22.380  1.00  0.00    -0.237 OA
ATOM     83  O   UNL A   1      50.472  26.964  22.725  1.00  0.00    -0.237 OA
ATOM     84  O   UNL A   1      48.303  25.810  22.952  1.00  0.00    -0.744 OA
ENDBRANCH  77  81
ENDBRANCH  50  74
BRANCH  62  85
ATOM     85  C   UNL A   1      44.933  34.024  29.277  1.00  0.00     0.023 A 
ATOM     86  C   UNL A   1      44.971  34.944  28.214  1.00  0.00     0.031 A 
ATOM     87  C   UNL A   1      45.414  34.451  30.531  1.00  0.00     0.131 A 
ATOM     88  C   UNL A   1      45.524  36.221  28.410  1.00  0.00     0.055 A 
ATOM     89  C   UNL A   1      45.900  35.742  30.735  1.00  0.00     0.041 A 
ATOM     90  F   UNL A   1      45.409  33.617  31.583  1.00  0.00    -0.206 F 
ATOM     91  C   UNL A   1      45.969  36.632  29.668  1.00  0.00     0.022 A 
BRANCH  88  92
ATOM     92  S   UNL A   1      45.741  37.310  26.975  1.00  0.00     0.124 S 
ATOM     93  O   UNL A   1      46.871  38.136  27.389  1.00  0.00    -0.237 OA
ATOM     94  O   UNL A   1      46.007  36.360  25.899  1.00  0.00    -0.237 OA
ATOM     95  O   UNL A   1      44.462  38.012  26.879  1.00  0.00    -0.744 OA
ENDBRANCH  88  92
ENDBRANCH  62  85
ENDBRANCH  36  37
ENDBRANCH  29  31
ENDBRANCH  28  29
ENDBRANCH  27  28
ENDBRANCH  26  27
ENDBRANCH  25  26
ENDBRANCH  24  25
ENDBRANCH   1  24
TORSDOF 23
ENDMDL
