MODEL 1
REMARK VINA RESULT:     -10.6      0.000      0.000
REMARK SMILES Cc1ccc2occ(/C=N/NC(=O)CCC(=O)Nc3ccc(C(=O)OCCOCCOCCOC(=O)c4ccc(-c5c6nc(c(-c7cc(S(=O)(=O)[O-])ccc7F)c7ccc([nH]7)c(-c7cc(S(=O)(=O)[O-])ccc7F)c7nc(c(-c8cc(S(=O)(=O)[O-])ccc8F)c8ccc5[nH]8)C=C7)C=C6)cc4)cc3)c(=O)c2c1
REMARK SMILES IDX 28 1 27 2 26 3 25 4 23 5 24 6 22 7 19 8 20 9 101 10 21 11
REMARK SMILES IDX 100 12 18 13 16 14 17 15 15 17 14 18 12 19 11 20 13 22 10 23
REMARK SMILES IDX 9 24 8 25 1 26 2 27 3 28 105 29 4 30 104 31 5 32 102 33 6 34
REMARK SMILES IDX 103 35 7 36 29 37 30 38 31 39 32 40 33 41 34 42 35 43 36 44
REMARK SMILES IDX 37 45 38 46 99 47 39 48 98 49 40 50 41 51 42 52 92 53 43 54
REMARK SMILES IDX 97 55 91 56 93 57 44 58 96 59 90 60 89 61 45 63 77 64 57 65
REMARK SMILES IDX 76 66 58 67 61 68 75 69 94 70 59 71 60 72 74 74 95 75 62 76
REMARK SMILES IDX 46 77 47 78 55 79 48 80 54 81 56 82 53 83 49 84 50 85 51 86
REMARK SMILES IDX 52 87 78 88 79 89 87 90 80 91 86 92 88 93 85 94 81 95 82 96
REMARK SMILES IDX 83 97 84 98 63 99 64 100 72 101 65 102 71 103 73 104 70 105
REMARK SMILES IDX 66 106 67 107 68 108 69 109
REMARK H PARENT 18 16 11 21 93 62 61 73
REMARK Flexibility Score: inf
ROOT
ATOM      1  O   UNL A   1      33.576  30.900  26.800  1.00  0.00    -0.376 OA
ENDROOT
BRANCH   1   2
ATOM      2  C   UNL A   1      32.221  30.479  26.799  1.00  0.00     0.202 C 
BRANCH   2   3
ATOM      3  C   UNL A   1      31.793  29.271  25.964  1.00  0.00     0.261 C 
BRANCH   3   4
ATOM      4  O   UNL A   1      32.461  28.043  26.237  1.00  0.00    -0.460 OA
BRANCH   4   5
ATOM      5  C   UNL A   1      31.749  26.926  26.525  1.00  0.00     0.338 C 
ATOM      6  O   UNL A   1      30.592  26.853  26.866  1.00  0.00    -0.246 OA
BRANCH   5   7
ATOM      7  C   UNL A   1      32.669  25.799  26.234  1.00  0.00     0.060 A 
ATOM      8  C   UNL A   1      34.279  23.547  25.743  1.00  0.00     0.041 A 
ATOM      9  C   UNL A   1      34.729  24.831  25.400  1.00  0.00     0.027 A 
ATOM     10  C   UNL A   1      33.054  23.439  26.381  1.00  0.00     0.027 A 
ATOM     11  C   UNL A   1      33.915  25.959  25.623  1.00  0.00     0.018 A 
ATOM     12  C   UNL A   1      32.262  24.537  26.642  1.00  0.00     0.018 A 
BRANCH   8  13
ATOM     13  N   UNL A   1      35.075  22.436  25.421  1.00  0.00    -0.326 N 
ATOM     14  C   UNL A   1      34.868  21.089  25.527  1.00  0.00     0.224 C 
ATOM     15  O   UNL A   1      35.761  20.339  25.110  1.00  0.00    -0.275 OA
ATOM     16  H   UNL A   1      35.954  22.673  25.047  1.00  0.00     0.169 HD
BRANCH  14  17
ATOM     17  C   UNL A   1      33.564  20.477  26.010  1.00  0.00     0.110 C 
BRANCH  17  18
ATOM     18  C   UNL A   1      32.331  20.424  25.096  1.00  0.00     0.112 C 
BRANCH  18  19
ATOM     19  C   UNL A   1      32.442  20.200  23.583  1.00  0.00     0.240 C 
ATOM     20  N   UNL A   1      32.741  21.232  22.725  1.00  0.00    -0.247 N 
ATOM     21  H   UNL A   1      32.818  21.007  21.770  1.00  0.00     0.193 HD
ATOM     22  O   UNL A   1      32.257  19.071  23.118  1.00  0.00    -0.273 OA
BRANCH  20  23
ATOM     23  N   UNL A   1      32.942  22.530  23.070  1.00  0.00    -0.180 NA
ATOM     24  C   UNL A   1      32.588  23.372  22.155  1.00  0.00     0.148 C 
BRANCH  24  25
ATOM     25  C   UNL A   1      32.385  24.807  22.361  1.00  0.00     0.078 A 
ATOM     26  C   UNL A   1      27.958  29.078  23.286  1.00  0.00     0.044 C 
ATOM     27  C   UNL A   1      29.342  28.564  23.033  1.00  0.00    -0.050 A 
ATOM     28  C   UNL A   1      30.388  29.413  22.644  1.00  0.00     0.007 A 
ATOM     29  C   UNL A   1      29.595  27.200  23.182  1.00  0.00     0.019 A 
ATOM     30  C   UNL A   1      31.673  28.907  22.405  1.00  0.00     0.048 A 
ATOM     31  C   UNL A   1      30.865  26.700  22.893  1.00  0.00     0.066 A 
ATOM     32  C   UNL A   1      31.909  27.542  22.522  1.00  0.00     0.137 A 
ATOM     33  C   UNL A   1      31.080  25.255  22.873  1.00  0.00     0.201 A 
ATOM     34  O   UNL A   1      33.172  27.080  22.229  1.00  0.00    -0.463 OA
ATOM     35  O   UNL A   1      30.202  24.465  23.204  1.00  0.00    -0.288 OA
ATOM     36  C   UNL A   1      33.333  25.716  22.115  1.00  0.00     0.209 A 
ENDBRANCH  24  25
ENDBRANCH  20  23
ENDBRANCH  18  19
ENDBRANCH  17  18
ENDBRANCH  14  17
ENDBRANCH   8  13
ENDBRANCH   5   7
ENDBRANCH   4   5
ENDBRANCH   3   4
ENDBRANCH   2   3
ENDBRANCH   1   2
BRANCH   1  37
ATOM     37  C   UNL A   1      34.196  31.170  28.043  1.00  0.00     0.188 C 
BRANCH  37  38
ATOM     38  C   UNL A   1      35.398  32.128  27.916  1.00  0.00     0.188 C 
BRANCH  38  39
ATOM     39  O   UNL A   1      35.162  33.518  27.759  1.00  0.00    -0.376 OA
BRANCH  39  40
ATOM     40  C   UNL A   1      33.834  34.007  27.645  1.00  0.00     0.202 C 
BRANCH  40  41
ATOM     41  C   UNL A   1      32.962  34.417  28.857  1.00  0.00     0.261 C 
BRANCH  41  42
ATOM     42  O   UNL A   1      33.467  35.417  29.750  1.00  0.00    -0.460 OA
BRANCH  42  43
ATOM     43  C   UNL A   1      33.655  35.027  31.036  1.00  0.00     0.338 C 
ATOM     44  O   UNL A   1      32.903  35.226  31.974  1.00  0.00    -0.246 OA
BRANCH  43  45
ATOM     45  C   UNL A   1      34.837  34.138  31.111  1.00  0.00     0.060 A 
ATOM     46  C   UNL A   1      34.667  32.841  31.615  1.00  0.00     0.016 A 
ATOM     47  C   UNL A   1      36.106  34.577  30.723  1.00  0.00     0.016 A 
ATOM     48  C   UNL A   1      35.766  31.994  31.771  1.00  0.00     0.010 A 
ATOM     49  C   UNL A   1      37.211  33.733  30.901  1.00  0.00     0.010 A 
ATOM     50  C   UNL A   1      37.052  32.451  31.461  1.00  0.00    -0.014 A 
BRANCH  50  51
ATOM     51  C   UNL A   1      38.235  31.676  31.923  1.00  0.00     0.031 A 
ATOM     52  C   UNL A   1      38.807  31.989  33.283  1.00  0.00     0.074 A 
ATOM     53  C   UNL A   1      38.772  30.689  31.180  1.00  0.00     0.049 A 
ATOM     54  N   UNL A   1      39.855  31.488  33.883  1.00  0.00    -0.248 NA
ATOM     55  C   UNL A   1      38.096  33.012  34.066  1.00  0.00     0.031 C 
ATOM     56  C   UNL A   1      38.280  30.251  29.876  1.00  0.00     0.029 A 
ATOM     57  N   UNL A   1      39.856  29.879  31.419  1.00  0.00    -0.354 N 
ATOM     58  C   UNL A   1      39.936  32.140  35.110  1.00  0.00     0.074 A 
ATOM     59  C   UNL A   1      38.853  33.099  35.148  1.00  0.00     0.031 C 
ATOM     60  C   UNL A   1      39.068  29.257  29.424  1.00  0.00     0.029 A 
ATOM     61  C   UNL A   1      40.144  29.017  30.386  1.00  0.00     0.049 A 
ATOM     62  H   UNL A   1      40.379  29.912  32.253  1.00  0.00     0.167 HD
ATOM     63  C   UNL A   1      40.826  31.952  36.116  1.00  0.00     0.034 A 
ATOM     64  C   UNL A   1      41.170  28.155  30.224  1.00  0.00     0.034 A 
ATOM     65  C   UNL A   1      41.909  31.000  36.062  1.00  0.00     0.049 A 
ATOM     66  C   UNL A   1      42.207  28.029  31.321  1.00  0.00     0.074 A 
ATOM     67  C   UNL A   1      42.862  30.725  37.028  1.00  0.00     0.029 A 
ATOM     68  N   UNL A   1      42.195  30.177  34.980  1.00  0.00    -0.354 N 
ATOM     69  N   UNL A   1      42.271  28.649  32.477  1.00  0.00    -0.248 NA
ATOM     70  C   UNL A   1      43.302  27.075  31.093  1.00  0.00     0.031 C 
ATOM     71  C   UNL A   1      43.769  29.801  36.499  1.00  0.00     0.029 A 
ATOM     72  C   UNL A   1      43.327  29.421  35.243  1.00  0.00     0.049 A 
ATOM     73  H   UNL A   1      41.670  30.137  34.148  1.00  0.00     0.167 HD
ATOM     74  C   UNL A   1      43.387  28.125  33.129  1.00  0.00     0.074 A 
ATOM     75  C   UNL A   1      43.955  27.133  32.243  1.00  0.00     0.031 C 
ATOM     76  C   UNL A   1      43.890  28.431  34.353  1.00  0.00     0.034 A 
BRANCH  63  77
ATOM     77  C   UNL A   1      40.696  32.834  37.335  1.00  0.00     0.023 A 
ATOM     78  C   UNL A   1      39.873  32.487  38.421  1.00  0.00     0.031 A 
ATOM     79  C   UNL A   1      41.393  34.053  37.403  1.00  0.00     0.131 A 
ATOM     80  C   UNL A   1      39.716  33.378  39.494  1.00  0.00     0.055 A 
ATOM     81  C   UNL A   1      41.299  34.896  38.511  1.00  0.00     0.041 A 
ATOM     82  F   UNL A   1      42.174  34.452  36.385  1.00  0.00    -0.206 F 
ATOM     83  C   UNL A   1      40.446  34.567  39.560  1.00  0.00     0.022 A 
BRANCH  80  84
ATOM     84  S   UNL A   1      38.437  33.029  40.732  1.00  0.00     0.124 S 
ATOM     85  O   UNL A   1      38.882  31.743  41.262  1.00  0.00    -0.237 OA
ATOM     86  O   UNL A   1      38.555  34.168  41.635  1.00  0.00    -0.237 OA
ATOM     87  O   UNL A   1      37.205  32.979  39.947  1.00  0.00    -0.744 OA
ENDBRANCH  80  84
ENDBRANCH  63  77
BRANCH  64  88
ATOM     88  C   UNL A   1      41.313  27.367  28.962  1.00  0.00     0.023 A 
ATOM     89  C   UNL A   1      42.304  27.678  28.016  1.00  0.00     0.031 A 
ATOM     90  C   UNL A   1      40.404  26.341  28.645  1.00  0.00     0.131 A 
ATOM     91  C   UNL A   1      42.327  27.012  26.780  1.00  0.00     0.055 A 
ATOM     92  C   UNL A   1      40.472  25.637  27.442  1.00  0.00     0.041 A 
ATOM     93  F   UNL A   1      39.429  26.007  29.507  1.00  0.00    -0.206 F 
ATOM     94  C   UNL A   1      41.428  25.983  26.493  1.00  0.00     0.022 A 
BRANCH  91  95
ATOM     95  S   UNL A   1      43.481  27.589  25.504  1.00  0.00     0.124 S 
ATOM     96  O   UNL A   1      42.650  27.531  24.307  1.00  0.00    -0.237 OA
ATOM     97  O   UNL A   1      43.823  28.923  25.986  1.00  0.00    -0.237 OA
ATOM     98  O   UNL A   1      44.566  26.611  25.560  1.00  0.00    -0.744 OA
ENDBRANCH  91  95
ENDBRANCH  64  88
BRANCH  76  99
ATOM     99  C   UNL A   1      45.077  27.627  34.839  1.00  0.00     0.023 A 
ATOM    100  C   UNL A   1      44.932  26.371  35.454  1.00  0.00     0.031 A 
ATOM    101  C   UNL A   1      46.380  28.139  34.691  1.00  0.00     0.131 A 
ATOM    102  C   UNL A   1      46.060  25.704  35.958  1.00  0.00     0.055 A 
ATOM    103  C   UNL A   1      47.504  27.438  35.127  1.00  0.00     0.041 A 
ATOM    104  F   UNL A   1      46.583  29.336  34.116  1.00  0.00    -0.206 F 
ATOM    105  C   UNL A   1      47.346  26.219  35.781  1.00  0.00     0.022 A 
BRANCH 102 106
ATOM    106  S   UNL A   1      45.815  24.208  36.956  1.00  0.00     0.124 S 
ATOM    107  O   UNL A   1      45.567  24.767  38.281  1.00  0.00    -0.237 OA
ATOM    108  O   UNL A   1      44.670  23.582  36.303  1.00  0.00    -0.237 OA
ATOM    109  O   UNL A   1      47.080  23.490  36.813  1.00  0.00    -0.744 OA
ENDBRANCH 102 106
ENDBRANCH  76  99
ENDBRANCH  50  51
ENDBRANCH  43  45
ENDBRANCH  42  43
ENDBRANCH  41  42
ENDBRANCH  40  41
ENDBRANCH  39  40
ENDBRANCH  38  39
ENDBRANCH  37  38
ENDBRANCH   1  37
TORSDOF 26
ENDMDL
MODEL 2
REMARK VINA RESULT:     -10.0      5.757     10.842
REMARK SMILES Cc1ccc2occ(/C=N/NC(=O)CCC(=O)Nc3ccc(C(=O)OCCOCCOCCOC(=O)c4ccc(-c5c6nc(c(-c7cc(S(=O)(=O)[O-])ccc7F)c7ccc([nH]7)c(-c7cc(S(=O)(=O)[O-])ccc7F)c7nc(c(-c8cc(S(=O)(=O)[O-])ccc8F)c8ccc5[nH]8)C=C7)C=C6)cc4)cc3)c(=O)c2c1
REMARK SMILES IDX 28 1 27 2 26 3 25 4 23 5 24 6 22 7 19 8 20 9 101 10 21 11
REMARK SMILES IDX 100 12 18 13 16 14 17 15 15 17 14 18 12 19 11 20 13 22 10 23
REMARK SMILES IDX 9 24 8 25 1 26 2 27 3 28 105 29 4 30 104 31 5 32 102 33 6 34
REMARK SMILES IDX 103 35 7 36 29 37 30 38 31 39 32 40 33 41 34 42 35 43 36 44
REMARK SMILES IDX 37 45 38 46 99 47 39 48 98 49 40 50 41 51 42 52 92 53 43 54
REMARK SMILES IDX 97 55 91 56 93 57 44 58 96 59 90 60 89 61 45 63 77 64 57 65
REMARK SMILES IDX 76 66 58 67 61 68 75 69 94 70 59 71 60 72 74 74 95 75 62 76
REMARK SMILES IDX 46 77 47 78 55 79 48 80 54 81 56 82 53 83 49 84 50 85 51 86
REMARK SMILES IDX 52 87 78 88 79 89 87 90 80 91 86 92 88 93 85 94 81 95 82 96
REMARK SMILES IDX 83 97 84 98 63 99 64 100 72 101 65 102 71 103 73 104 70 105
REMARK SMILES IDX 66 106 67 107 68 108 69 109
REMARK H PARENT 18 16 11 21 93 62 61 73
REMARK Flexibility Score: inf
ROOT
ATOM      1  O   UNL A   1      37.398  21.489  25.914  1.00  0.00    -0.376 OA
ENDROOT
BRANCH   1   2
ATOM      2  C   UNL A   1      36.717  20.662  24.985  1.00  0.00     0.202 C 
BRANCH   2   3
ATOM      3  C   UNL A   1      35.256  20.946  24.629  1.00  0.00     0.261 C 
BRANCH   3   4
ATOM      4  O   UNL A   1      34.319  20.880  25.701  1.00  0.00    -0.460 OA
BRANCH   4   5
ATOM      5  C   UNL A   1      34.038  21.986  26.432  1.00  0.00     0.338 C 
ATOM      6  O   UNL A   1      34.247  22.169  27.608  1.00  0.00    -0.246 OA
BRANCH   5   7
ATOM      7  C   UNL A   1      33.510  22.969  25.455  1.00  0.00     0.060 A 
ATOM      8  C   UNL A   1      32.353  24.727  23.590  1.00  0.00     0.041 A 
ATOM      9  C   UNL A   1      33.598  25.021  24.167  1.00  0.00     0.027 A 
ATOM     10  C   UNL A   1      31.753  23.524  23.923  1.00  0.00     0.027 A 
ATOM     11  C   UNL A   1      34.169  24.154  25.119  1.00  0.00     0.018 A 
ATOM     12  C   UNL A   1      32.317  22.645  24.824  1.00  0.00     0.018 A 
BRANCH   8  13
ATOM     13  N   UNL A   1      31.768  25.658  22.716  1.00  0.00    -0.326 N 
ATOM     14  C   UNL A   1      30.978  26.753  22.926  1.00  0.00     0.224 C 
ATOM     15  O   UNL A   1      30.647  27.417  21.934  1.00  0.00    -0.275 OA
ATOM     16  H   UNL A   1      31.965  25.487  21.767  1.00  0.00     0.169 HD
BRANCH  14  17
ATOM     17  C   UNL A   1      30.596  27.258  24.306  1.00  0.00     0.110 C 
BRANCH  17  18
ATOM     18  C   UNL A   1      31.402  28.371  24.991  1.00  0.00     0.112 C 
BRANCH  18  19
ATOM     19  C   UNL A   1      31.041  29.854  24.841  1.00  0.00     0.240 C 
ATOM     20  N   UNL A   1      31.467  30.791  25.752  1.00  0.00    -0.247 N 
ATOM     21  H   UNL A   1      31.216  31.727  25.577  1.00  0.00     0.193 HD
ATOM     22  O   UNL A   1      30.351  30.220  23.884  1.00  0.00    -0.273 OA
BRANCH  20  23
ATOM     23  N   UNL A   1      32.203  30.551  26.868  1.00  0.00    -0.180 NA
ATOM     24  C   UNL A   1      33.455  30.844  26.739  1.00  0.00     0.148 C 
BRANCH  24  25
ATOM     25  C   UNL A   1      34.404  30.997  27.842  1.00  0.00     0.078 A 
ATOM     26  C   UNL A   1      38.646  27.887  31.165  1.00  0.00     0.044 C 
ATOM     27  C   UNL A   1      37.762  29.038  30.795  1.00  0.00    -0.050 A 
ATOM     28  C   UNL A   1      37.555  30.122  31.662  1.00  0.00     0.007 A 
ATOM     29  C   UNL A   1      37.120  29.029  29.557  1.00  0.00     0.019 A 
ATOM     30  C   UNL A   1      36.717  31.183  31.297  1.00  0.00     0.048 A 
ATOM     31  C   UNL A   1      36.249  30.067  29.225  1.00  0.00     0.066 A 
ATOM     32  C   UNL A   1      36.054  31.151  30.076  1.00  0.00     0.137 A 
ATOM     33  C   UNL A   1      35.440  29.966  28.012  1.00  0.00     0.201 A 
ATOM     34  O   UNL A   1      35.201  32.188  29.779  1.00  0.00    -0.463 OA
ATOM     35  O   UNL A   1      35.579  29.041  27.217  1.00  0.00    -0.288 OA
ATOM     36  C   UNL A   1      34.373  32.032  28.687  1.00  0.00     0.209 A 
ENDBRANCH  24  25
ENDBRANCH  20  23
ENDBRANCH  18  19
ENDBRANCH  17  18
ENDBRANCH  14  17
ENDBRANCH   8  13
ENDBRANCH   5   7
ENDBRANCH   4   5
ENDBRANCH   3   4
ENDBRANCH   2   3
ENDBRANCH   1   2
BRANCH   1  37
ATOM     37  C   UNL A   1      37.615  22.846  25.576  1.00  0.00     0.188 C 
BRANCH  37  38
ATOM     38  C   UNL A   1      38.073  23.696  26.780  1.00  0.00     0.188 C 
BRANCH  38  39
ATOM     39  O   UNL A   1      38.877  24.842  26.550  1.00  0.00    -0.376 OA
BRANCH  39  40
ATOM     40  C   UNL A   1      40.280  24.707  26.377  1.00  0.00     0.202 C 
BRANCH  40  41
ATOM     41  C   UNL A   1      41.324  25.206  27.404  1.00  0.00     0.261 C 
BRANCH  41  42
ATOM     42  O   UNL A   1      42.689  25.326  26.984  1.00  0.00    -0.460 OA
BRANCH  42  43
ATOM     43  C   UNL A   1      42.925  26.192  25.968  1.00  0.00     0.338 C 
ATOM     44  O   UNL A   1      42.814  25.965  24.775  1.00  0.00    -0.246 OA
BRANCH  43  45
ATOM     45  C   UNL A   1      43.161  27.546  26.521  1.00  0.00     0.060 A 
ATOM     46  C   UNL A   1      44.174  27.711  27.477  1.00  0.00     0.016 A 
ATOM     47  C   UNL A   1      42.379  28.638  26.135  1.00  0.00     0.016 A 
ATOM     48  C   UNL A   1      44.383  28.953  28.077  1.00  0.00     0.010 A 
ATOM     49  C   UNL A   1      42.576  29.879  26.756  1.00  0.00     0.010 A 
ATOM     50  C   UNL A   1      43.553  30.035  27.758  1.00  0.00    -0.014 A 
BRANCH  50  51
ATOM     51  C   UNL A   1      43.568  31.248  28.618  1.00  0.00     0.031 A 
ATOM     52  C   UNL A   1      44.560  32.338  28.298  1.00  0.00     0.074 A 
ATOM     53  C   UNL A   1      42.701  31.408  29.635  1.00  0.00     0.049 A 
ATOM     54  N   UNL A   1      44.796  33.462  28.923  1.00  0.00    -0.248 NA
ATOM     55  C   UNL A   1      45.399  32.124  27.108  1.00  0.00     0.031 C 
ATOM     56  C   UNL A   1      41.659  30.456  30.014  1.00  0.00     0.029 A 
ATOM     57  N   UNL A   1      42.565  32.432  30.541  1.00  0.00    -0.354 N 
ATOM     58  C   UNL A   1      45.817  34.084  28.211  1.00  0.00     0.074 A 
ATOM     59  C   UNL A   1      46.179  33.193  27.130  1.00  0.00     0.031 C 
ATOM     60  C   UNL A   1      40.996  30.937  31.082  1.00  0.00     0.029 A 
ATOM     61  C   UNL A   1      41.592  32.209  31.490  1.00  0.00     0.049 A 
ATOM     62  H   UNL A   1      43.112  33.251  30.515  1.00  0.00     0.167 HD
ATOM     63  C   UNL A   1      46.396  35.291  28.432  1.00  0.00     0.034 A 
ATOM     64  C   UNL A   1      41.244  32.934  32.574  1.00  0.00     0.034 A 
ATOM     65  C   UNL A   1      46.035  36.166  29.521  1.00  0.00     0.049 A 
ATOM     66  C   UNL A   1      41.968  34.234  32.856  1.00  0.00     0.074 A 
ATOM     67  C   UNL A   1      46.553  37.412  29.832  1.00  0.00     0.029 A 
ATOM     68  N   UNL A   1      45.077  35.885  30.487  1.00  0.00    -0.354 N 
ATOM     69  N   UNL A   1      42.930  34.812  32.174  1.00  0.00    -0.248 NA
ATOM     70  C   UNL A   1      41.547  34.983  34.048  1.00  0.00     0.031 C 
ATOM     71  C   UNL A   1      45.970  37.845  31.027  1.00  0.00     0.029 A 
ATOM     72  C   UNL A   1      45.014  36.918  31.410  1.00  0.00     0.049 A 
ATOM     73  H   UNL A   1      44.523  35.071  30.512  1.00  0.00     0.167 HD
ATOM     74  C   UNL A   1      43.194  36.013  32.832  1.00  0.00     0.074 A 
ATOM     75  C   UNL A   1      42.284  36.079  33.954  1.00  0.00     0.031 C 
ATOM     76  C   UNL A   1      44.102  36.978  32.529  1.00  0.00     0.034 A 
BRANCH  63  77
ATOM     77  C   UNL A   1      47.518  35.705  27.511  1.00  0.00     0.023 A 
ATOM     78  C   UNL A   1      48.847  35.295  27.725  1.00  0.00     0.031 A 
ATOM     79  C   UNL A   1      47.258  36.539  26.409  1.00  0.00     0.131 A 
ATOM     80  C   UNL A   1      49.870  35.773  26.893  1.00  0.00     0.055 A 
ATOM     81  C   UNL A   1      48.268  36.943  25.535  1.00  0.00     0.041 A 
ATOM     82  F   UNL A   1      46.014  36.985  26.168  1.00  0.00    -0.206 F 
ATOM     83  C   UNL A   1      49.586  36.572  25.782  1.00  0.00     0.022 A 
BRANCH  80  84
ATOM     84  S   UNL A   1      51.592  35.457  27.365  1.00  0.00     0.124 S 
ATOM     85  O   UNL A   1      51.500  35.442  28.823  1.00  0.00    -0.237 OA
ATOM     86  O   UNL A   1      51.862  34.173  26.729  1.00  0.00    -0.237 OA
ATOM     87  O   UNL A   1      52.316  36.596  26.805  1.00  0.00    -0.744 OA
ENDBRANCH  80  84
ENDBRANCH  63  77
BRANCH  64  88
ATOM     88  C   UNL A   1      40.190  32.443  33.513  1.00  0.00     0.023 A 
ATOM     89  C   UNL A   1      38.919  33.041  33.561  1.00  0.00     0.031 A 
ATOM     90  C   UNL A   1      40.467  31.419  34.437  1.00  0.00     0.131 A 
ATOM     91  C   UNL A   1      37.998  32.652  34.546  1.00  0.00     0.055 A 
ATOM     92  C   UNL A   1      39.523  30.990  35.372  1.00  0.00     0.041 A 
ATOM     93  F   UNL A   1      41.668  30.817  34.444  1.00  0.00    -0.206 F 
ATOM     94  C   UNL A   1      38.285  31.619  35.441  1.00  0.00     0.022 A 
BRANCH  91  95
ATOM     95  S   UNL A   1      36.455  33.594  34.714  1.00  0.00     0.124 S 
ATOM     96  O   UNL A   1      36.239  33.551  36.155  1.00  0.00    -0.237 OA
ATOM     97  O   UNL A   1      36.831  34.890  34.158  1.00  0.00    -0.237 OA
ATOM     98  O   UNL A   1      35.501  32.828  33.915  1.00  0.00    -0.744 OA
ENDBRANCH  91  95
ENDBRANCH  64  88
BRANCH  76  99
ATOM     99  C   UNL A   1      44.103  38.226  33.385  1.00  0.00     0.023 A 
ATOM    100  C   UNL A   1      43.339  39.360  33.059  1.00  0.00     0.031 A 
ATOM    101  C   UNL A   1      44.897  38.281  34.546  1.00  0.00     0.131 A 
ATOM    102  C   UNL A   1      43.438  40.521  33.844  1.00  0.00     0.055 A 
ATOM    103  C   UNL A   1      44.934  39.411  35.364  1.00  0.00     0.041 A 
ATOM    104  F   UNL A   1      45.653  37.231  34.908  1.00  0.00    -0.206 F 
ATOM    105  C   UNL A   1      44.215  40.546  35.005  1.00  0.00     0.022 A 
BRANCH 102 106
ATOM    106  S   UNL A   1      42.631  42.039  33.263  1.00  0.00     0.124 S 
ATOM    107  O   UNL A   1      43.769  42.833  32.815  1.00  0.00    -0.237 OA
ATOM    108  O   UNL A   1      41.748  41.540  32.213  1.00  0.00    -0.237 OA
ATOM    109  O   UNL A   1      41.952  42.544  34.455  1.00  0.00    -0.744 OA
ENDBRANCH 102 106
ENDBRANCH  76  99
ENDBRANCH  50  51
ENDBRANCH  43  45
ENDBRANCH  42  43
ENDBRANCH  41  42
ENDBRANCH  40  41
ENDBRANCH  39  40
ENDBRANCH  38  39
ENDBRANCH  37  38
ENDBRANCH   1  37
TORSDOF 26
ENDMDL
MODEL 3
REMARK VINA RESULT:      -9.3      2.558      3.141
REMARK SMILES Cc1ccc2occ(/C=N/NC(=O)CCC(=O)Nc3ccc(C(=O)OCCOCCOCCOC(=O)c4ccc(-c5c6nc(c(-c7cc(S(=O)(=O)[O-])ccc7F)c7ccc([nH]7)c(-c7cc(S(=O)(=O)[O-])ccc7F)c7nc(c(-c8cc(S(=O)(=O)[O-])ccc8F)c8ccc5[nH]8)C=C7)C=C6)cc4)cc3)c(=O)c2c1
REMARK SMILES IDX 28 1 27 2 26 3 25 4 23 5 24 6 22 7 19 8 20 9 101 10 21 11
REMARK SMILES IDX 100 12 18 13 16 14 17 15 15 17 14 18 12 19 11 20 13 22 10 23
REMARK SMILES IDX 9 24 8 25 1 26 2 27 3 28 105 29 4 30 104 31 5 32 102 33 6 34
REMARK SMILES IDX 103 35 7 36 29 37 30 38 31 39 32 40 33 41 34 42 35 43 36 44
REMARK SMILES IDX 37 45 38 46 99 47 39 48 98 49 40 50 41 51 42 52 92 53 43 54
REMARK SMILES IDX 97 55 91 56 93 57 44 58 96 59 90 60 89 61 45 63 77 64 57 65
REMARK SMILES IDX 76 66 58 67 61 68 75 69 94 70 59 71 60 72 74 74 95 75 62 76
REMARK SMILES IDX 46 77 47 78 55 79 48 80 54 81 56 82 53 83 49 84 50 85 51 86
REMARK SMILES IDX 52 87 78 88 79 89 87 90 80 91 86 92 88 93 85 94 81 95 82 96
REMARK SMILES IDX 83 97 84 98 63 99 64 100 72 101 65 102 71 103 73 104 70 105
REMARK SMILES IDX 66 106 67 107 68 108 69 109
REMARK H PARENT 18 16 11 21 93 62 61 73
REMARK Flexibility Score: inf
ROOT
ATOM      1  O   UNL A   1      33.881  30.822  26.774  1.00  0.00    -0.376 OA
ENDROOT
BRANCH   1   2
ATOM      2  C   UNL A   1      32.471  30.668  26.764  1.00  0.00     0.202 C 
BRANCH   2   3
ATOM      3  C   UNL A   1      31.834  29.464  26.068  1.00  0.00     0.261 C 
BRANCH   3   4
ATOM      4  O   UNL A   1      32.485  28.209  26.251  1.00  0.00    -0.460 OA
BRANCH   4   5
ATOM      5  C   UNL A   1      31.759  27.095  26.515  1.00  0.00     0.338 C 
ATOM      6  O   UNL A   1      30.591  27.026  26.815  1.00  0.00    -0.246 OA
BRANCH   5   7
ATOM      7  C   UNL A   1      32.685  25.965  26.257  1.00  0.00     0.060 A 
ATOM      8  C   UNL A   1      34.302  23.707  25.817  1.00  0.00     0.041 A 
ATOM      9  C   UNL A   1      34.787  24.994  25.538  1.00  0.00     0.027 A 
ATOM     10  C   UNL A   1      33.036  23.598  26.369  1.00  0.00     0.027 A 
ATOM     11  C   UNL A   1      33.971  26.125  25.735  1.00  0.00     0.018 A 
ATOM     12  C   UNL A   1      32.238  24.699  26.604  1.00  0.00     0.018 A 
BRANCH   8  13
ATOM     13  N   UNL A   1      35.106  22.595  25.521  1.00  0.00    -0.326 N 
ATOM     14  C   UNL A   1      34.912  21.249  25.666  1.00  0.00     0.224 C 
ATOM     15  O   UNL A   1      35.810  20.497  25.263  1.00  0.00    -0.275 OA
ATOM     16  H   UNL A   1      35.980  22.830  25.135  1.00  0.00     0.169 HD
BRANCH  14  17
ATOM     17  C   UNL A   1      33.618  20.639  26.174  1.00  0.00     0.110 C 
BRANCH  17  18
ATOM     18  C   UNL A   1      32.391  20.517  25.260  1.00  0.00     0.112 C 
BRANCH  18  19
ATOM     19  C   UNL A   1      32.513  20.220  23.760  1.00  0.00     0.240 C 
ATOM     20  N   UNL A   1      32.843  21.204  22.859  1.00  0.00    -0.247 N 
ATOM     21  H   UNL A   1      32.926  20.933  21.916  1.00  0.00     0.193 HD
ATOM     22  O   UNL A   1      32.309  19.074  23.346  1.00  0.00    -0.273 OA
BRANCH  20  23
ATOM     23  N   UNL A   1      33.069  22.513  23.145  1.00  0.00    -0.180 NA
ATOM     24  C   UNL A   1      32.581  23.328  22.268  1.00  0.00     0.148 C 
BRANCH  24  25
ATOM     25  C   UNL A   1      32.386  24.765  22.468  1.00  0.00     0.078 A 
ATOM     26  C   UNL A   1      27.972  29.076  23.263  1.00  0.00     0.044 C 
ATOM     27  C   UNL A   1      29.358  28.549  23.052  1.00  0.00    -0.050 A 
ATOM     28  C   UNL A   1      30.424  29.389  22.694  1.00  0.00     0.007 A 
ATOM     29  C   UNL A   1      29.594  27.183  23.207  1.00  0.00     0.019 A 
ATOM     30  C   UNL A   1      31.710  28.871  22.493  1.00  0.00     0.048 A 
ATOM     31  C   UNL A   1      30.868  26.671  22.956  1.00  0.00     0.066 A 
ATOM     32  C   UNL A   1      31.931  27.504  22.617  1.00  0.00     0.137 A 
ATOM     33  C   UNL A   1      31.070  25.224  22.942  1.00  0.00     0.201 A 
ATOM     34  O   UNL A   1      33.196  27.031  22.361  1.00  0.00    -0.463 OA
ATOM     35  O   UNL A   1      30.175  24.442  23.246  1.00  0.00    -0.288 OA
ATOM     36  C   UNL A   1      33.349  25.665  22.251  1.00  0.00     0.209 A 
ENDBRANCH  24  25
ENDBRANCH  20  23
ENDBRANCH  18  19
ENDBRANCH  17  18
ENDBRANCH  14  17
ENDBRANCH   8  13
ENDBRANCH   5   7
ENDBRANCH   4   5
ENDBRANCH   3   4
ENDBRANCH   2   3
ENDBRANCH   1   2
BRANCH   1  37
ATOM     37  C   UNL A   1      34.569  30.647  27.998  1.00  0.00     0.188 C 
BRANCH  37  38
ATOM     38  C   UNL A   1      35.841  31.514  28.099  1.00  0.00     0.188 C 
BRANCH  38  39
ATOM     39  O   UNL A   1      35.713  32.925  28.170  1.00  0.00    -0.376 OA
BRANCH  39  40
ATOM     40  C   UNL A   1      34.462  33.542  27.904  1.00  0.00     0.202 C 
BRANCH  40  41
ATOM     41  C   UNL A   1      33.505  34.053  29.007  1.00  0.00     0.261 C 
BRANCH  41  42
ATOM     42  O   UNL A   1      33.986  35.048  29.919  1.00  0.00    -0.460 OA
BRANCH  42  43
ATOM     43  C   UNL A   1      33.953  34.717  31.233  1.00  0.00     0.338 C 
ATOM     44  O   UNL A   1      32.989  34.777  31.976  1.00  0.00    -0.246 OA
BRANCH  43  45
ATOM     45  C   UNL A   1      35.234  34.073  31.610  1.00  0.00     0.060 A 
ATOM     46  C   UNL A   1      35.192  32.863  32.316  1.00  0.00     0.016 A 
ATOM     47  C   UNL A   1      36.464  34.663  31.304  1.00  0.00     0.016 A 
ATOM     48  C   UNL A   1      36.372  32.259  32.753  1.00  0.00     0.010 A 
ATOM     49  C   UNL A   1      37.646  34.067  31.763  1.00  0.00     0.010 A 
ATOM     50  C   UNL A   1      37.605  32.881  32.523  1.00  0.00    -0.014 A 
BRANCH  50  51
ATOM     51  C   UNL A   1      38.810  32.411  33.256  1.00  0.00     0.031 A 
ATOM     52  C   UNL A   1      38.976  32.823  34.697  1.00  0.00     0.074 A 
ATOM     53  C   UNL A   1      39.722  31.605  32.680  1.00  0.00     0.049 A 
ATOM     54  N   UNL A   1      39.956  32.581  35.527  1.00  0.00    -0.248 NA
ATOM     55  C   UNL A   1      37.881  33.620  35.274  1.00  0.00     0.031 C 
ATOM     56  C   UNL A   1      39.652  31.090  31.314  1.00  0.00     0.029 A 
ATOM     57  N   UNL A   1      40.892  31.081  33.175  1.00  0.00    -0.354 N 
ATOM     58  C   UNL A   1      39.604  33.203  36.722  1.00  0.00     0.074 A 
ATOM     59  C   UNL A   1      38.337  33.865  36.492  1.00  0.00     0.031 C 
ATOM     60  C   UNL A   1      40.738  30.332  31.076  1.00  0.00     0.029 A 
ATOM     61  C   UNL A   1      41.602  30.341  32.257  1.00  0.00     0.049 A 
ATOM     62  H   UNL A   1      41.195  31.222  34.102  1.00  0.00     0.167 HD
ATOM     63  C   UNL A   1      40.270  33.216  37.903  1.00  0.00     0.034 A 
ATOM     64  C   UNL A   1      42.818  29.763  32.350  1.00  0.00     0.034 A 
ATOM     65  C   UNL A   1      41.538  32.562  38.116  1.00  0.00     0.049 A 
ATOM     66  C   UNL A   1      43.588  29.869  33.650  1.00  0.00     0.074 A 
ATOM     67  C   UNL A   1      42.294  32.507  39.275  1.00  0.00     0.029 A 
ATOM     68  N   UNL A   1      42.247  31.860  37.149  1.00  0.00    -0.354 N 
ATOM     69  N   UNL A   1      43.243  30.459  34.772  1.00  0.00    -0.248 NA
ATOM     70  C   UNL A   1      44.905  29.221  33.697  1.00  0.00     0.031 C 
ATOM     71  C   UNL A   1      43.493  31.848  38.987  1.00  0.00     0.029 A 
ATOM     72  C   UNL A   1      43.444  31.400  37.677  1.00  0.00     0.049 A 
ATOM     73  H   UNL A   1      41.943  31.712  36.224  1.00  0.00     0.167 HD
ATOM     74  C   UNL A   1      44.282  30.210  35.668  1.00  0.00     0.074 A 
ATOM     75  C   UNL A   1      45.257  29.410  34.960  1.00  0.00     0.031 C 
ATOM     76  C   UNL A   1      44.414  30.601  36.963  1.00  0.00     0.034 A 
BRANCH  63  77
ATOM     77  C   UNL A   1      39.663  34.010  39.035  1.00  0.00     0.023 A 
ATOM     78  C   UNL A   1      40.067  35.327  39.321  1.00  0.00     0.031 A 
ATOM     79  C   UNL A   1      38.678  33.433  39.856  1.00  0.00     0.131 A 
ATOM     80  C   UNL A   1      39.538  35.996  40.435  1.00  0.00     0.055 A 
ATOM     81  C   UNL A   1      38.094  34.135  40.912  1.00  0.00     0.041 A 
ATOM     82  F   UNL A   1      38.270  32.170  39.650  1.00  0.00    -0.206 F 
ATOM     83  C   UNL A   1      38.533  35.419  41.216  1.00  0.00     0.022 A 
BRANCH  80  84
ATOM     84  S   UNL A   1      40.285  37.571  40.936  1.00  0.00     0.124 S 
ATOM     85  O   UNL A   1      40.429  38.251  39.652  1.00  0.00    -0.237 OA
ATOM     86  O   UNL A   1      39.283  38.120  41.842  1.00  0.00    -0.237 OA
ATOM     87  O   UNL A   1      41.542  37.170  41.565  1.00  0.00    -0.744 OA
ENDBRANCH  80  84
ENDBRANCH  63  77
BRANCH  64  88
ATOM     88  C   UNL A   1      43.423  29.064  31.175  1.00  0.00     0.023 A 
ATOM     89  C   UNL A   1      43.937  29.785  30.084  1.00  0.00     0.031 A 
ATOM     90  C   UNL A   1      43.420  27.660  31.090  1.00  0.00     0.131 A 
ATOM     91  C   UNL A   1      44.371  29.102  28.936  1.00  0.00     0.055 A 
ATOM     92  C   UNL A   1      43.915  26.985  29.973  1.00  0.00     0.041 A 
ATOM     93  F   UNL A   1      42.932  26.920  32.099  1.00  0.00    -0.206 F 
ATOM     94  C   UNL A   1      44.379  27.708  28.880  1.00  0.00     0.022 A 
BRANCH  91  95
ATOM     95  S   UNL A   1      44.824  30.071  27.469  1.00  0.00     0.124 S 
ATOM     96  O   UNL A   1      46.250  30.284  27.684  1.00  0.00    -0.237 OA
ATOM     97  O   UNL A   1      44.465  29.163  26.385  1.00  0.00    -0.237 OA
ATOM     98  O   UNL A   1      43.989  31.266  27.580  1.00  0.00    -0.744 OA
ENDBRANCH  91  95
ENDBRANCH  64  88
BRANCH  76  99
ATOM     99  C   UNL A   1      45.625  30.103  37.721  1.00  0.00     0.023 A 
ATOM    100  C   UNL A   1      46.774  30.891  37.901  1.00  0.00     0.031 A 
ATOM    101  C   UNL A   1      45.627  28.804  38.264  1.00  0.00     0.131 A 
ATOM    102  C   UNL A   1      47.900  30.351  38.543  1.00  0.00     0.055 A 
ATOM    103  C   UNL A   1      46.722  28.299  38.967  1.00  0.00     0.041 A 
ATOM    104  F   UNL A   1      44.561  28.001  38.121  1.00  0.00    -0.206 F 
ATOM    105  C   UNL A   1      47.875  29.068  39.095  1.00  0.00     0.022 A 
BRANCH 102 106
ATOM    106  S   UNL A   1      49.445  31.305  38.546  1.00  0.00     0.124 S 
ATOM    107  O   UNL A   1      50.430  30.284  38.205  1.00  0.00    -0.237 OA
ATOM    108  O   UNL A   1      49.190  32.313  37.521  1.00  0.00    -0.237 OA
ATOM    109  O   UNL A   1      49.529  31.818  39.912  1.00  0.00    -0.744 OA
ENDBRANCH 102 106
ENDBRANCH  76  99
ENDBRANCH  50  51
ENDBRANCH  43  45
ENDBRANCH  42  43
ENDBRANCH  41  42
ENDBRANCH  40  41
ENDBRANCH  39  40
ENDBRANCH  38  39
ENDBRANCH  37  38
ENDBRANCH   1  37
TORSDOF 26
ENDMDL
