MODEL 1
REMARK VINA RESULT:     -10.1      0.000      0.000
REMARK SMILES C[NH+]1CC[NH+]([C@]2(C(=O)OCCOCCOCCOC(=O)c3ccc(-c4c5nc(c(-c6cc(S(=O)(=O)[O-])ccc6F)c6ccc([nH]6)c(-c6cc(S(=O)(=O)[O-])ccc6F)c6nc(c(-c7cc(S(=O)(=O)[O-])ccc7F)c7ccc4[nH]7)C=C6)C=C5)cc3)CCCC2(C)C)CC1
REMARK SMILES IDX 14 1 13 2 12 3 11 4 10 5 9 6 7 7 8 8 6 9 84 10 87 11 85 12
REMARK SMILES IDX 86 13 88 14 89 15 5 16 1 17 2 18 3 19 91 20 4 22 90 23 15 25
REMARK SMILES IDX 16 26 17 27 18 28 19 29 20 30 21 31 22 32 83 33 23 34 82 35
REMARK SMILES IDX 24 36 25 37 26 38 76 39 27 40 81 41 75 42 77 43 28 44 80 45
REMARK SMILES IDX 74 46 73 47 29 49 61 50 41 51 60 52 42 53 45 54 59 55 78 56
REMARK SMILES IDX 43 57 44 58 58 60 79 61 46 62 30 63 31 64 39 65 32 66 38 67
REMARK SMILES IDX 40 68 37 69 33 70 34 71 35 72 36 73 62 74 63 75 71 76 64 77
REMARK SMILES IDX 70 78 72 79 69 80 65 81 66 82 67 83 68 84 47 85 48 86 56 87
REMARK SMILES IDX 49 88 55 89 57 90 54 91 50 92 51 93 52 94 53 95
REMARK H PARENT 2 21 5 24 77 48 45 59
REMARK Flexibility Score: inf
ROOT
ATOM      1  C   UNL A   1      30.115  26.720  24.346  1.00  0.00     0.188 C 
ENDROOT
BRANCH   1   2
ATOM      2  C   UNL A   1      29.905  27.488  23.028  1.00  0.00     0.188 C 
BRANCH   2   3
ATOM      3  O   UNL A   1      30.812  27.271  21.950  1.00  0.00    -0.376 OA
BRANCH   3   4
ATOM      4  C   UNL A   1      31.576  26.074  21.941  1.00  0.00     0.202 C 
BRANCH   4   5
ATOM      5  C   UNL A   1      33.096  26.199  22.114  1.00  0.00     0.261 C 
BRANCH   5   6
ATOM      6  O   UNL A   1      33.615  25.627  23.338  1.00  0.00    -0.459 OA
BRANCH   6   7
ATOM      7  C   UNL A   1      34.013  24.332  23.273  1.00  0.00     0.368 C 
ATOM      8  O   UNL A   1      34.333  23.816  22.202  1.00  0.00    -0.245 OA
BRANCH   7   9
ATOM      9  C   UNL A   1      33.935  23.507  24.675  1.00  0.00     0.201 C 
ATOM     10  C   UNL A   1      33.653  24.335  25.976  1.00  0.00     0.082 C 
ATOM     11  C   UNL A   1      32.617  22.576  24.569  1.00  0.00     0.031 C 
ATOM     12  C   UNL A   1      32.255  24.009  26.488  1.00  0.00     0.008 C 
ATOM     13  C   UNL A   1      31.530  23.396  25.313  1.00  0.00     0.014 C 
ATOM     14  C   UNL A   1      32.116  22.304  23.136  1.00  0.00     0.018 C 
ATOM     15  C   UNL A   1      32.679  21.208  25.271  1.00  0.00     0.018 C 
BRANCH   9  16
ATOM     16  N   UNL A   1      35.339  22.948  24.767  1.00  0.00    -0.311 N 
ATOM     17  C   UNL A   1      39.253  21.741  26.213  1.00  0.00     0.333 C 
ATOM     18  N   UNL A   1      37.861  22.173  26.152  1.00  0.00    -0.328 N 
ATOM     19  C   UNL A   1      37.026  21.191  25.454  1.00  0.00     0.324 C 
ATOM     20  C   UNL A   1      37.742  23.464  25.463  1.00  0.00     0.324 C 
ATOM     21  H   UNL A   1      37.538  22.264  27.115  1.00  0.00     0.348 HD
ATOM     22  C   UNL A   1      35.541  21.626  25.374  1.00  0.00     0.325 C 
ATOM     23  C   UNL A   1      36.271  23.921  25.439  1.00  0.00     0.325 C 
ATOM     24  H   UNL A   1      35.551  22.808  23.779  1.00  0.00     0.349 HD
ENDBRANCH   9  16
ENDBRANCH   7   9
ENDBRANCH   6   7
ENDBRANCH   5   6
ENDBRANCH   4   5
ENDBRANCH   3   4
ENDBRANCH   2   3
ENDBRANCH   1   2
BRANCH   1  25
ATOM     25  O   UNL A   1      30.627  27.524  25.390  1.00  0.00    -0.376 OA
BRANCH  25  26
ATOM     26  C   UNL A   1      32.025  27.724  25.373  1.00  0.00     0.202 C 
BRANCH  26  27
ATOM     27  C   UNL A   1      32.423  29.066  24.746  1.00  0.00     0.261 C 
BRANCH  27  28
ATOM     28  O   UNL A   1      33.518  29.760  25.379  1.00  0.00    -0.460 OA
BRANCH  28  29
ATOM     29  C   UNL A   1      33.222  30.575  26.419  1.00  0.00     0.338 C 
ATOM     30  O   UNL A   1      32.142  31.107  26.631  1.00  0.00    -0.246 OA
BRANCH  29  31
ATOM     31  C   UNL A   1      34.349  30.531  27.384  1.00  0.00     0.060 A 
ATOM     32  C   UNL A   1      35.043  31.710  27.695  1.00  0.00     0.016 A 
ATOM     33  C   UNL A   1      34.724  29.326  27.981  1.00  0.00     0.016 A 
ATOM     34  C   UNL A   1      36.134  31.680  28.573  1.00  0.00     0.010 A 
ATOM     35  C   UNL A   1      35.828  29.294  28.842  1.00  0.00     0.010 A 
ATOM     36  C   UNL A   1      36.560  30.462  29.121  1.00  0.00    -0.014 A 
BRANCH  36  37
ATOM     37  C   UNL A   1      37.869  30.358  29.825  1.00  0.00     0.031 A 
ATOM     38  C   UNL A   1      38.968  29.558  29.174  1.00  0.00     0.074 A 
ATOM     39  C   UNL A   1      38.086  30.945  31.017  1.00  0.00     0.049 A 
ATOM     40  N   UNL A   1      40.143  29.220  29.641  1.00  0.00    -0.248 NA
ATOM     41  C   UNL A   1      38.695  29.071  27.815  1.00  0.00     0.031 C 
ATOM     42  C   UNL A   1      37.136  31.797  31.727  1.00  0.00     0.029 A 
ATOM     43  N   UNL A   1      39.182  30.899  31.849  1.00  0.00    -0.354 N 
ATOM     44  C   UNL A   1      40.745  28.468  28.636  1.00  0.00     0.074 A 
ATOM     45  C   UNL A   1      39.789  28.375  27.553  1.00  0.00     0.031 C 
ATOM     46  C   UNL A   1      37.682  32.181  32.895  1.00  0.00     0.029 A 
ATOM     47  C   UNL A   1      39.000  31.562  33.041  1.00  0.00     0.049 A 
ATOM     48  H   UNL A   1      40.017  30.435  31.612  1.00  0.00     0.167 HD
ATOM     49  C   UNL A   1      41.982  27.911  28.617  1.00  0.00     0.034 A 
ATOM     50  C   UNL A   1      39.787  31.632  34.136  1.00  0.00     0.034 A 
ATOM     51  C   UNL A   1      42.921  27.998  29.709  1.00  0.00     0.049 A 
ATOM     52  C   UNL A   1      41.117  30.907  34.138  1.00  0.00     0.074 A 
ATOM     53  C   UNL A   1      44.201  27.476  29.787  1.00  0.00     0.029 A 
ATOM     54  N   UNL A   1      42.679  28.634  30.920  1.00  0.00    -0.354 N 
ATOM     55  N   UNL A   1      41.675  30.194  33.185  1.00  0.00    -0.248 NA
ATOM     56  C   UNL A   1      41.924  31.001  35.364  1.00  0.00     0.031 C 
ATOM     57  C   UNL A   1      44.698  27.720  31.072  1.00  0.00     0.029 A 
ATOM     58  C   UNL A   1      43.770  28.481  31.764  1.00  0.00     0.049 A 
ATOM     59  H   UNL A   1      41.855  29.122  31.147  1.00  0.00     0.167 HD
ATOM     60  C   UNL A   1      42.913  29.790  33.687  1.00  0.00     0.074 A 
ATOM     61  C   UNL A   1      43.023  30.347  35.018  1.00  0.00     0.031 C 
ATOM     62  C   UNL A   1      43.874  29.033  33.095  1.00  0.00     0.034 A 
BRANCH  49  63
ATOM     63  C   UNL A   1      42.361  27.106  27.396  1.00  0.00     0.023 A 
ATOM     64  C   UNL A   1      42.335  25.701  27.395  1.00  0.00     0.031 A 
ATOM     65  C   UNL A   1      42.785  27.756  26.222  1.00  0.00     0.131 A 
ATOM     66  C   UNL A   1      42.793  24.993  26.273  1.00  0.00     0.055 A 
ATOM     67  C   UNL A   1      43.156  27.046  25.079  1.00  0.00     0.041 A 
ATOM     68  F   UNL A   1      42.856  29.095  26.170  1.00  0.00    -0.206 F 
ATOM     69  C   UNL A   1      43.177  25.656  25.105  1.00  0.00     0.022 A 
BRANCH  66  70
ATOM     70  S   UNL A   1      43.028  23.200  26.417  1.00  0.00     0.124 S 
ATOM     71  O   UNL A   1      44.483  23.099  26.515  1.00  0.00    -0.237 OA
ATOM     72  O   UNL A   1      42.282  22.880  27.628  1.00  0.00    -0.237 OA
ATOM     73  O   UNL A   1      42.458  22.679  25.176  1.00  0.00    -0.744 OA
ENDBRANCH  66  70
ENDBRANCH  49  63
BRANCH  50  74
ATOM     74  C   UNL A   1      39.332  32.364  35.357  1.00  0.00     0.023 A 
ATOM     75  C   UNL A   1      39.789  33.661  35.642  1.00  0.00     0.031 A 
ATOM     76  C   UNL A   1      38.490  31.743  36.298  1.00  0.00     0.131 A 
ATOM     77  C   UNL A   1      39.443  34.275  36.858  1.00  0.00     0.055 A 
ATOM     78  C   UNL A   1      38.098  32.383  37.475  1.00  0.00     0.041 A 
ATOM     79  F   UNL A   1      38.033  30.499  36.084  1.00  0.00    -0.206 F 
ATOM     80  C   UNL A   1      38.588  33.651  37.767  1.00  0.00     0.022 A 
BRANCH  77  81
ATOM     81  S   UNL A   1      40.215  35.861  37.283  1.00  0.00     0.124 S 
ATOM     82  O   UNL A   1      41.633  35.537  37.188  1.00  0.00    -0.237 OA
ATOM     83  O   UNL A   1      39.687  36.743  36.245  1.00  0.00    -0.237 OA
ATOM     84  O   UNL A   1      39.723  36.128  38.633  1.00  0.00    -0.744 OA
ENDBRANCH  77  81
ENDBRANCH  50  74
BRANCH  62  85
ATOM     85  C   UNL A   1      45.159  28.813  33.861  1.00  0.00     0.023 A 
ATOM     86  C   UNL A   1      45.347  27.706  34.707  1.00  0.00     0.031 A 
ATOM     87  C   UNL A   1      46.218  29.734  33.739  1.00  0.00     0.131 A 
ATOM     88  C   UNL A   1      46.539  27.575  35.438  1.00  0.00     0.055 A 
ATOM     89  C   UNL A   1      47.427  29.563  34.416  1.00  0.00     0.041 A 
ATOM     90  F   UNL A   1      46.097  30.813  32.951  1.00  0.00    -0.206 F 
ATOM     91  C   UNL A   1      47.587  28.486  35.282  1.00  0.00     0.022 A 
BRANCH  88  92
ATOM     92  S   UNL A   1      46.668  26.253  36.674  1.00  0.00     0.124 S 
ATOM     93  O   UNL A   1      45.284  25.802  36.779  1.00  0.00    -0.237 OA
ATOM     94  O   UNL A   1      47.595  25.322  36.039  1.00  0.00    -0.237 OA
ATOM     95  O   UNL A   1      47.188  26.936  37.856  1.00  0.00    -0.744 OA
ENDBRANCH  88  92
ENDBRANCH  62  85
ENDBRANCH  36  37
ENDBRANCH  29  31
ENDBRANCH  28  29
ENDBRANCH  27  28
ENDBRANCH  26  27
ENDBRANCH  25  26
ENDBRANCH   1  25
TORSDOF 21
ENDMDL
MODEL 2
REMARK VINA RESULT:      -9.7      5.420      9.102
REMARK SMILES C[NH+]1CC[NH+]([C@]2(C(=O)OCCOCCOCCOC(=O)c3ccc(-c4c5nc(c(-c6cc(S(=O)(=O)[O-])ccc6F)c6ccc([nH]6)c(-c6cc(S(=O)(=O)[O-])ccc6F)c6nc(c(-c7cc(S(=O)(=O)[O-])ccc7F)c7ccc4[nH]7)C=C6)C=C5)cc3)CCCC2(C)C)CC1
REMARK SMILES IDX 14 1 13 2 12 3 11 4 10 5 9 6 7 7 8 8 6 9 84 10 87 11 85 12
REMARK SMILES IDX 86 13 88 14 89 15 5 16 1 17 2 18 3 19 91 20 4 22 90 23 15 25
REMARK SMILES IDX 16 26 17 27 18 28 19 29 20 30 21 31 22 32 83 33 23 34 82 35
REMARK SMILES IDX 24 36 25 37 26 38 76 39 27 40 81 41 75 42 77 43 28 44 80 45
REMARK SMILES IDX 74 46 73 47 29 49 61 50 41 51 60 52 42 53 45 54 59 55 78 56
REMARK SMILES IDX 43 57 44 58 58 60 79 61 46 62 30 63 31 64 39 65 32 66 38 67
REMARK SMILES IDX 40 68 37 69 33 70 34 71 35 72 36 73 62 74 63 75 71 76 64 77
REMARK SMILES IDX 70 78 72 79 69 80 65 81 66 82 67 83 68 84 47 85 48 86 56 87
REMARK SMILES IDX 49 88 55 89 57 90 54 91 50 92 51 93 52 94 53 95
REMARK H PARENT 2 21 5 24 77 48 45 59
REMARK Flexibility Score: inf
ROOT
ATOM      1  C   UNL A   1      40.805  20.866  27.234  1.00  0.00     0.188 C 
ENDROOT
BRANCH   1   2
ATOM      2  C   UNL A   1      40.512  22.095  26.354  1.00  0.00     0.188 C 
BRANCH   2   3
ATOM      3  O   UNL A   1      39.293  22.809  26.549  1.00  0.00    -0.376 OA
BRANCH   3   4
ATOM      4  C   UNL A   1      38.158  22.428  25.785  1.00  0.00     0.202 C 
BRANCH   4   5
ATOM      5  C   UNL A   1      37.447  23.521  24.974  1.00  0.00     0.261 C 
BRANCH   5   6
ATOM      6  O   UNL A   1      36.028  23.636  25.228  1.00  0.00    -0.459 OA
BRANCH   6   7
ATOM      7  C   UNL A   1      35.204  23.163  24.260  1.00  0.00     0.368 C 
ATOM      8  O   UNL A   1      35.574  23.089  23.087  1.00  0.00    -0.245 OA
BRANCH   7   9
ATOM      9  C   UNL A   1      33.690  22.807  24.744  1.00  0.00     0.201 C 
ATOM     10  C   UNL A   1      33.363  23.003  26.264  1.00  0.00     0.082 C 
ATOM     11  C   UNL A   1      32.731  23.903  24.042  1.00  0.00     0.031 C 
ATOM     12  C   UNL A   1      32.413  24.183  26.428  1.00  0.00     0.008 C 
ATOM     13  C   UNL A   1      32.533  24.975  25.147  1.00  0.00     0.014 C 
ATOM     14  C   UNL A   1      33.323  24.598  22.799  1.00  0.00     0.018 C 
ATOM     15  C   UNL A   1      31.320  23.434  23.643  1.00  0.00     0.018 C 
BRANCH   9  16
ATOM     16  N   UNL A   1      33.622  21.327  24.434  1.00  0.00    -0.311 N 
ATOM     17  C   UNL A   1      33.628  16.996  24.777  1.00  0.00     0.333 C 
ATOM     18  N   UNL A   1      33.577  18.420  25.091  1.00  0.00    -0.328 N 
ATOM     19  C   UNL A   1      32.458  19.079  24.410  1.00  0.00     0.324 C 
ATOM     20  C   UNL A   1      34.824  19.089  24.696  1.00  0.00     0.324 C 
ATOM     21  H   UNL A   1      33.449  18.496  26.100  1.00  0.00     0.348 HD
ATOM     22  C   UNL A   1      32.382  20.594  24.725  1.00  0.00     0.325 C 
ATOM     23  C   UNL A   1      34.767  20.582  25.066  1.00  0.00     0.325 C 
ATOM     24  H   UNL A   1      33.670  21.345  23.415  1.00  0.00     0.349 HD
ENDBRANCH   9  16
ENDBRANCH   7   9
ENDBRANCH   6   7
ENDBRANCH   5   6
ENDBRANCH   4   5
ENDBRANCH   3   4
ENDBRANCH   2   3
ENDBRANCH   1   2
BRANCH   1  25
ATOM     25  O   UNL A   1      41.072  19.694  26.491  1.00  0.00    -0.376 OA
BRANCH  25  26
ATOM     26  C   UNL A   1      42.022  18.817  27.060  1.00  0.00     0.202 C 
BRANCH  26  27
ATOM     27  C   UNL A   1      43.004  18.257  26.025  1.00  0.00     0.261 C 
BRANCH  27  28
ATOM     28  O   UNL A   1      43.190  19.051  24.835  1.00  0.00    -0.460 OA
BRANCH  28  29
ATOM     29  C   UNL A   1      44.406  19.613  24.643  1.00  0.00     0.338 C 
ATOM     30  O   UNL A   1      45.354  19.098  24.067  1.00  0.00    -0.246 OA
BRANCH  29  31
ATOM     31  C   UNL A   1      44.330  21.042  25.038  1.00  0.00     0.060 A 
ATOM     32  C   UNL A   1      44.156  22.027  24.054  1.00  0.00     0.016 A 
ATOM     33  C   UNL A   1      44.432  21.412  26.380  1.00  0.00     0.016 A 
ATOM     34  C   UNL A   1      44.122  23.382  24.406  1.00  0.00     0.010 A 
ATOM     35  C   UNL A   1      44.418  22.768  26.728  1.00  0.00     0.010 A 
ATOM     36  C   UNL A   1      44.295  23.765  25.743  1.00  0.00    -0.014 A 
BRANCH  36  37
ATOM     37  C   UNL A   1      44.541  25.189  26.104  1.00  0.00     0.031 A 
ATOM     38  C   UNL A   1      45.944  25.725  25.982  1.00  0.00     0.074 A 
ATOM     39  C   UNL A   1      43.554  25.995  26.540  1.00  0.00     0.049 A 
ATOM     40  N   UNL A   1      46.431  26.882  26.349  1.00  0.00    -0.248 NA
ATOM     41  C   UNL A   1      46.929  24.823  25.366  1.00  0.00     0.031 C 
ATOM     42  C   UNL A   1      42.145  25.626  26.646  1.00  0.00     0.029 A 
ATOM     43  N   UNL A   1      43.596  27.294  26.991  1.00  0.00    -0.354 N 
ATOM     44  C   UNL A   1      47.783  26.844  26.021  1.00  0.00     0.074 A 
ATOM     45  C   UNL A   1      48.040  25.536  25.457  1.00  0.00     0.031 C 
ATOM     46  C   UNL A   1      41.457  26.669  27.145  1.00  0.00     0.029 A 
ATOM     47  C   UNL A   1      42.383  27.762  27.443  1.00  0.00     0.049 A 
ATOM     48  H   UNL A   1      44.416  27.838  26.989  1.00  0.00     0.167 HD
ATOM     49  C   UNL A   1      48.722  27.812  26.171  1.00  0.00     0.034 A 
ATOM     50  C   UNL A   1      42.064  28.921  28.059  1.00  0.00     0.034 A 
ATOM     51  C   UNL A   1      48.457  29.108  26.749  1.00  0.00     0.049 A 
ATOM     52  C   UNL A   1      43.150  29.943  28.321  1.00  0.00     0.074 A 
ATOM     53  C   UNL A   1      49.336  30.161  26.939  1.00  0.00     0.029 A 
ATOM     54  N   UNL A   1      47.228  29.525  27.243  1.00  0.00    -0.354 N 
ATOM     55  N   UNL A   1      44.427  29.895  28.013  1.00  0.00    -0.248 NA
ATOM     56  C   UNL A   1      42.749  31.178  29.012  1.00  0.00     0.031 C 
ATOM     57  C   UNL A   1      48.661  31.177  27.624  1.00  0.00     0.029 A 
ATOM     58  C   UNL A   1      47.336  30.802  27.774  1.00  0.00     0.049 A 
ATOM     59  H   UNL A   1      46.400  28.992  27.220  1.00  0.00     0.167 HD
ATOM     60  C   UNL A   1      44.968  31.109  28.439  1.00  0.00     0.074 A 
ATOM     61  C   UNL A   1      43.879  31.869  29.014  1.00  0.00     0.031 C 
ATOM     62  C   UNL A   1      46.248  31.556  28.354  1.00  0.00     0.034 A 
BRANCH  49  63
ATOM     63  C   UNL A   1      50.136  27.476  25.760  1.00  0.00     0.023 A 
ATOM     64  C   UNL A   1      50.586  27.645  24.439  1.00  0.00     0.031 A 
ATOM     65  C   UNL A   1      51.041  26.950  26.700  1.00  0.00     0.131 A 
ATOM     66  C   UNL A   1      51.876  27.224  24.080  1.00  0.00     0.055 A 
ATOM     67  C   UNL A   1      52.351  26.615  26.355  1.00  0.00     0.041 A 
ATOM     68  F   UNL A   1      50.662  26.741  27.971  1.00  0.00    -0.206 F 
ATOM     69  C   UNL A   1      52.771  26.736  25.035  1.00  0.00     0.022 A 
BRANCH  66  70
ATOM     70  S   UNL A   1      52.313  27.177  22.320  1.00  0.00     0.124 S 
ATOM     71  O   UNL A   1      53.357  26.154  22.302  1.00  0.00    -0.237 OA
ATOM     72  O   UNL A   1      51.050  26.812  21.691  1.00  0.00    -0.237 OA
ATOM     73  O   UNL A   1      52.778  28.536  22.046  1.00  0.00    -0.744 OA
ENDBRANCH  66  70
ENDBRANCH  49  63
BRANCH  50  74
ATOM     74  C   UNL A   1      40.668  29.173  28.532  1.00  0.00     0.023 A 
ATOM     75  C   UNL A   1      40.344  29.140  29.898  1.00  0.00     0.031 A 
ATOM     76  C   UNL A   1      39.621  29.375  27.614  1.00  0.00     0.131 A 
ATOM     77  C   UNL A   1      39.004  29.255  30.304  1.00  0.00     0.055 A 
ATOM     78  C   UNL A   1      38.300  29.552  28.027  1.00  0.00     0.041 A 
ATOM     79  F   UNL A   1      39.870  29.403  26.295  1.00  0.00    -0.206 F 
ATOM     80  C   UNL A   1      37.983  29.478  29.379  1.00  0.00     0.022 A 
BRANCH  77  81
ATOM     81  S   UNL A   1      38.599  29.004  32.055  1.00  0.00     0.124 S 
ATOM     82  O   UNL A   1      38.950  30.297  32.629  1.00  0.00    -0.237 OA
ATOM     83  O   UNL A   1      37.174  28.693  31.996  1.00  0.00    -0.237 OA
ATOM     84  O   UNL A   1      39.461  27.891  32.447  1.00  0.00    -0.744 OA
ENDBRANCH  77  81
ENDBRANCH  50  74
BRANCH  62  85
ATOM     85  C   UNL A   1      46.532  32.959  28.841  1.00  0.00     0.023 A 
ATOM     86  C   UNL A   1      46.382  34.084  28.013  1.00  0.00     0.031 A 
ATOM     87  C   UNL A   1      46.965  33.170  30.165  1.00  0.00     0.131 A 
ATOM     88  C   UNL A   1      46.711  35.361  28.496  1.00  0.00     0.055 A 
ATOM     89  C   UNL A   1      47.225  34.448  30.661  1.00  0.00     0.041 A 
ATOM     90  F   UNL A   1      47.132  32.135  31.002  1.00  0.00    -0.206 F 
ATOM     91  C   UNL A   1      47.112  35.552  29.821  1.00  0.00     0.022 A 
BRANCH  88  92
ATOM     92  S   UNL A   1      46.705  36.763  27.344  1.00  0.00     0.124 S 
ATOM     93  O   UNL A   1      47.497  36.244  26.234  1.00  0.00    -0.237 OA
ATOM     94  O   UNL A   1      45.281  36.944  27.082  1.00  0.00    -0.237 OA
ATOM     95  O   UNL A   1      47.336  37.838  28.107  1.00  0.00    -0.744 OA
ENDBRANCH  88  92
ENDBRANCH  62  85
ENDBRANCH  36  37
ENDBRANCH  29  31
ENDBRANCH  28  29
ENDBRANCH  27  28
ENDBRANCH  26  27
ENDBRANCH  25  26
ENDBRANCH   1  25
TORSDOF 21
ENDMDL
MODEL 3
REMARK VINA RESULT:      -9.6      1.350      2.067
REMARK SMILES C[NH+]1CC[NH+]([C@]2(C(=O)OCCOCCOCCOC(=O)c3ccc(-c4c5nc(c(-c6cc(S(=O)(=O)[O-])ccc6F)c6ccc([nH]6)c(-c6cc(S(=O)(=O)[O-])ccc6F)c6nc(c(-c7cc(S(=O)(=O)[O-])ccc7F)c7ccc4[nH]7)C=C6)C=C5)cc3)CCCC2(C)C)CC1
REMARK SMILES IDX 14 1 13 2 12 3 11 4 10 5 9 6 7 7 8 8 6 9 84 10 87 11 85 12
REMARK SMILES IDX 86 13 88 14 89 15 5 16 1 17 2 18 3 19 91 20 4 22 90 23 15 25
REMARK SMILES IDX 16 26 17 27 18 28 19 29 20 30 21 31 22 32 83 33 23 34 82 35
REMARK SMILES IDX 24 36 25 37 26 38 76 39 27 40 81 41 75 42 77 43 28 44 80 45
REMARK SMILES IDX 74 46 73 47 29 49 61 50 41 51 60 52 42 53 45 54 59 55 78 56
REMARK SMILES IDX 43 57 44 58 58 60 79 61 46 62 30 63 31 64 39 65 32 66 38 67
REMARK SMILES IDX 40 68 37 69 33 70 34 71 35 72 36 73 62 74 63 75 71 76 64 77
REMARK SMILES IDX 70 78 72 79 69 80 65 81 66 82 67 83 68 84 47 85 48 86 56 87
REMARK SMILES IDX 49 88 55 89 57 90 54 91 50 92 51 93 52 94 53 95
REMARK H PARENT 2 21 5 24 77 48 45 59
REMARK Flexibility Score: inf
ROOT
ATOM      1  C   UNL A   1      31.583  26.355  23.848  1.00  0.00     0.188 C 
ENDROOT
BRANCH   1   2
ATOM      2  C   UNL A   1      31.927  26.702  22.388  1.00  0.00     0.188 C 
BRANCH   2   3
ATOM      3  O   UNL A   1      32.817  25.852  21.667  1.00  0.00    -0.376 OA
BRANCH   3   4
ATOM      4  C   UNL A   1      32.864  24.476  22.013  1.00  0.00     0.202 C 
BRANCH   4   5
ATOM      5  C   UNL A   1      33.967  24.024  22.981  1.00  0.00     0.261 C 
BRANCH   5   6
ATOM      6  O   UNL A   1      34.221  22.600  22.987  1.00  0.00    -0.459 OA
BRANCH   6   7
ATOM      7  C   UNL A   1      33.542  21.873  23.910  1.00  0.00     0.368 C 
ATOM      8  O   UNL A   1      32.378  21.523  23.715  1.00  0.00    -0.245 OA
BRANCH   7   9
ATOM      9  C   UNL A   1      34.337  21.599  25.305  1.00  0.00     0.201 C 
ATOM     10  C   UNL A   1      35.850  22.007  25.356  1.00  0.00     0.082 C 
ATOM     11  C   UNL A   1      33.676  22.594  26.395  1.00  0.00     0.031 C 
ATOM     12  C   UNL A   1      36.018  23.206  26.283  1.00  0.00     0.008 C 
ATOM     13  C   UNL A   1      34.639  23.811  26.409  1.00  0.00     0.014 C 
ATOM     14  C   UNL A   1      32.262  23.105  26.049  1.00  0.00     0.018 C 
ATOM     15  C   UNL A   1      33.608  22.084  27.845  1.00  0.00     0.018 C 
BRANCH   9  16
ATOM     16  N   UNL A   1      34.252  20.091  25.401  1.00  0.00    -0.311 N 
ATOM     17  C   UNL A   1      33.097  15.942  24.832  1.00  0.00     0.333 C 
ATOM     18  N   UNL A   1      33.260  17.381  24.656  1.00  0.00    -0.328 N 
ATOM     19  C   UNL A   1      34.674  17.749  24.538  1.00  0.00     0.324 C 
ATOM     20  C   UNL A   1      32.677  18.117  25.785  1.00  0.00     0.324 C 
ATOM     21  H   UNL A   1      32.775  17.630  23.794  1.00  0.00     0.348 HD
ATOM     22  C   UNL A   1      34.876  19.274  24.352  1.00  0.00     0.325 C 
ATOM     23  C   UNL A   1      32.827  19.634  25.567  1.00  0.00     0.325 C 
ATOM     24  H   UNL A   1      34.825  19.921  26.228  1.00  0.00     0.349 HD
ENDBRANCH   9  16
ENDBRANCH   7   9
ENDBRANCH   6   7
ENDBRANCH   5   6
ENDBRANCH   4   5
ENDBRANCH   3   4
ENDBRANCH   2   3
ENDBRANCH   1   2
BRANCH   1  25
ATOM     25  O   UNL A   1      30.778  27.329  24.483  1.00  0.00    -0.376 OA
BRANCH  25  26
ATOM     26  C   UNL A   1      31.431  28.116  25.458  1.00  0.00     0.202 C 
BRANCH  26  27
ATOM     27  C   UNL A   1      32.010  29.412  24.880  1.00  0.00     0.261 C 
BRANCH  27  28
ATOM     28  O   UNL A   1      33.204  29.912  25.520  1.00  0.00    -0.460 OA
BRANCH  28  29
ATOM     29  C   UNL A   1      33.052  30.877  26.457  1.00  0.00     0.338 C 
ATOM     30  O   UNL A   1      32.066  31.585  26.606  1.00  0.00    -0.246 OA
BRANCH  29  31
ATOM     31  C   UNL A   1      34.178  30.779  27.418  1.00  0.00     0.060 A 
ATOM     32  C   UNL A   1      34.896  31.933  27.767  1.00  0.00     0.016 A 
ATOM     33  C   UNL A   1      34.529  29.548  27.975  1.00  0.00     0.016 A 
ATOM     34  C   UNL A   1      35.987  31.851  28.642  1.00  0.00     0.010 A 
ATOM     35  C   UNL A   1      35.632  29.465  28.833  1.00  0.00     0.010 A 
ATOM     36  C   UNL A   1      36.389  30.608  29.149  1.00  0.00    -0.014 A 
BRANCH  36  37
ATOM     37  C   UNL A   1      37.695  30.454  29.848  1.00  0.00     0.031 A 
ATOM     38  C   UNL A   1      38.748  29.586  29.209  1.00  0.00     0.074 A 
ATOM     39  C   UNL A   1      37.951  31.057  31.024  1.00  0.00     0.049 A 
ATOM     40  N   UNL A   1      39.908  29.199  29.676  1.00  0.00    -0.248 NA
ATOM     41  C   UNL A   1      38.441  29.082  27.862  1.00  0.00     0.031 C 
ATOM     42  C   UNL A   1      37.049  31.972  31.719  1.00  0.00     0.029 A 
ATOM     43  N   UNL A   1      39.048  30.975  31.850  1.00  0.00    -0.354 N 
ATOM     44  C   UNL A   1      40.465  28.395  28.685  1.00  0.00     0.074 A 
ATOM     45  C   UNL A   1      39.497  28.326  27.610  1.00  0.00     0.031 C 
ATOM     46  C   UNL A   1      37.623  32.355  32.875  1.00  0.00     0.029 A 
ATOM     47  C   UNL A   1      38.909  31.674  33.027  1.00  0.00     0.049 A 
ATOM     48  H   UNL A   1      39.857  30.465  31.619  1.00  0.00     0.167 HD
ATOM     49  C   UNL A   1      41.672  27.777  28.671  1.00  0.00     0.034 A 
ATOM     50  C   UNL A   1      39.706  31.729  34.115  1.00  0.00     0.034 A 
ATOM     51  C   UNL A   1      42.622  27.841  29.756  1.00  0.00     0.049 A 
ATOM     52  C   UNL A   1      40.998  30.939  34.126  1.00  0.00     0.074 A 
ATOM     53  C   UNL A   1      43.875  27.257  29.838  1.00  0.00     0.029 A 
ATOM     54  N   UNL A   1      42.421  28.516  30.953  1.00  0.00    -0.354 N 
ATOM     55  N   UNL A   1      41.512  30.176  33.187  1.00  0.00    -0.248 NA
ATOM     56  C   UNL A   1      41.818  31.020  35.345  1.00  0.00     0.031 C 
ATOM     57  C   UNL A   1      44.392  27.505  31.114  1.00  0.00     0.029 A 
ATOM     58  C   UNL A   1      43.509  28.328  31.794  1.00  0.00     0.049 A 
ATOM     59  H   UNL A   1      41.624  29.050  31.173  1.00  0.00     0.167 HD
ATOM     60  C   UNL A   1      42.732  29.722  33.691  1.00  0.00     0.074 A 
ATOM     61  C   UNL A   1      42.880  30.303  35.008  1.00  0.00     0.031 C 
ATOM     62  C   UNL A   1      43.650  28.905  33.111  1.00  0.00     0.034 A 
BRANCH  49  63
ATOM     63  C   UNL A   1      42.001  26.925  27.468  1.00  0.00     0.023 A 
ATOM     64  C   UNL A   1      41.698  25.553  27.422  1.00  0.00     0.031 A 
ATOM     65  C   UNL A   1      42.656  27.491  26.358  1.00  0.00     0.131 A 
ATOM     66  C   UNL A   1      42.115  24.781  26.326  1.00  0.00     0.055 A 
ATOM     67  C   UNL A   1      42.989  26.734  25.234  1.00  0.00     0.041 A 
ATOM     68  F   UNL A   1      42.995  28.790  26.353  1.00  0.00    -0.206 F 
ATOM     69  C   UNL A   1      42.733  25.367  25.220  1.00  0.00     0.022 A 
BRANCH  66  70
ATOM     70  S   UNL A   1      41.976  22.975  26.438  1.00  0.00     0.124 S 
ATOM     71  O   UNL A   1      42.682  22.702  27.689  1.00  0.00    -0.237 OA
ATOM     72  O   UNL A   1      40.533  22.770  26.461  1.00  0.00    -0.237 OA
ATOM     73  O   UNL A   1      42.656  22.504  25.233  1.00  0.00    -0.744 OA
ENDBRANCH  66  70
ENDBRANCH  49  63
BRANCH  50  74
ATOM     74  C   UNL A   1      39.297  32.511  35.322  1.00  0.00     0.023 A 
ATOM     75  C   UNL A   1      39.721  33.837  35.509  1.00  0.00     0.031 A 
ATOM     76  C   UNL A   1      38.536  31.915  36.344  1.00  0.00     0.131 A 
ATOM     77  C   UNL A   1      39.425  34.504  36.710  1.00  0.00     0.055 A 
ATOM     78  C   UNL A   1      38.192  32.604  37.508  1.00  0.00     0.041 A 
ATOM     79  F   UNL A   1      38.115  30.646  36.225  1.00  0.00    -0.206 F 
ATOM     80  C   UNL A   1      38.650  33.903  37.702  1.00  0.00     0.022 A 
BRANCH  77  81
ATOM     81  S   UNL A   1      40.161  36.137  37.002  1.00  0.00     0.124 S 
ATOM     82  O   UNL A   1      39.908  36.808  35.733  1.00  0.00    -0.237 OA
ATOM     83  O   UNL A   1      39.390  36.617  38.146  1.00  0.00    -0.237 OA
ATOM     84  O   UNL A   1      41.563  35.834  37.282  1.00  0.00    -0.744 OA
ENDBRANCH  77  81
ENDBRANCH  50  74
BRANCH  62  85
ATOM     85  C   UNL A   1      44.928  28.637  33.874  1.00  0.00     0.023 A 
ATOM     86  C   UNL A   1      45.018  27.636  34.857  1.00  0.00     0.031 A 
ATOM     87  C   UNL A   1      46.079  29.404  33.609  1.00  0.00     0.131 A 
ATOM     88  C   UNL A   1      46.213  27.464  35.575  1.00  0.00     0.055 A 
ATOM     89  C   UNL A   1      47.284  29.183  34.279  1.00  0.00     0.041 A 
ATOM     90  F   UNL A   1      46.054  30.378  32.686  1.00  0.00    -0.206 F 
ATOM     91  C   UNL A   1      47.351  28.217  35.278  1.00  0.00     0.022 A 
BRANCH  88  92
ATOM     92  S   UNL A   1      46.234  26.309  36.974  1.00  0.00     0.124 S 
ATOM     93  O   UNL A   1      44.820  25.973  37.111  1.00  0.00    -0.237 OA
ATOM     94  O   UNL A   1      47.099  25.241  36.483  1.00  0.00    -0.237 OA
ATOM     95  O   UNL A   1      46.791  27.103  38.068  1.00  0.00    -0.744 OA
ENDBRANCH  88  92
ENDBRANCH  62  85
ENDBRANCH  36  37
ENDBRANCH  29  31
ENDBRANCH  28  29
ENDBRANCH  27  28
ENDBRANCH  26  27
ENDBRANCH  25  26
ENDBRANCH   1  25
TORSDOF 21
ENDMDL
