MODEL 1
REMARK VINA RESULT:     -10.9      0.000      0.000
REMARK SMILES O=C(OCCOCCOCCOC(=O)[C@@H]1CCCCN1c1ccccc1[N+](=O)[O-])c1ccc(-c2c3nc(c(-c4cc(S(=O)(=O)[O-])ccc4F)c4ccc([nH]4)c(-c4cc(S(=O)(=O)[O-])ccc4F)c4nc(c(-c5cc(S(=O)(=O)[O-])ccc5F)c5ccc2[nH]5)C=C4)C=C3)cc1
REMARK SMILES IDX 7 1 6 2 5 3 4 4 3 5 2 6 1 7 30 8 31 9 92 10 32 11 91 12
REMARK SMILES IDX 33 13 34 14 35 15 85 16 36 17 90 18 84 19 86 20 37 21 89 22
REMARK SMILES IDX 83 23 82 24 38 26 70 27 50 28 69 29 51 30 54 31 68 32 87 33
REMARK SMILES IDX 52 34 53 35 67 37 88 38 55 39 39 40 40 41 48 42 41 43 47 44
REMARK SMILES IDX 49 45 46 46 42 47 43 48 44 49 45 50 71 51 72 52 80 53 73 54
REMARK SMILES IDX 79 55 81 56 78 57 74 58 75 59 76 60 77 61 56 62 57 63 65 64
REMARK SMILES IDX 58 65 64 66 66 67 63 68 59 69 60 70 61 71 62 72 8 73 9 74
REMARK SMILES IDX 10 75 11 76 12 77 13 78 14 79 15 80 16 81 20 82 17 83 19 84
REMARK SMILES IDX 18 85 21 86 22 87 26 88 23 89 25 90 24 91 27 92 28 93 29 94
REMARK H PARENT 86 25 54 36
REMARK Flexibility Score: inf
ROOT
ATOM      1  C   UNL A   1      40.912  19.484  26.616  1.00  0.00     0.188 C 
ENDROOT
BRANCH   1   2
ATOM      2  O   UNL A   1      41.832  18.674  25.917  1.00  0.00    -0.376 OA
BRANCH   2   3
ATOM      3  C   UNL A   1      43.009  19.319  25.485  1.00  0.00     0.202 C 
BRANCH   3   4
ATOM      4  C   UNL A   1      43.154  20.807  25.823  1.00  0.00     0.261 C 
BRANCH   4   5
ATOM      5  O   UNL A   1      43.766  21.778  24.900  1.00  0.00    -0.460 OA
BRANCH   5   6
ATOM      6  C   UNL A   1      43.939  23.264  24.930  1.00  0.00     0.338 C 
ATOM      7  O   UNL A   1      44.630  23.368  23.889  1.00  0.00    -0.246 OA
BRANCH   6   8
ATOM      8  C   UNL A   1      42.935  24.736  26.151  1.00  0.00     0.060 A 
ATOM      9  C   UNL A   1      41.973  24.490  27.312  1.00  0.00     0.016 A 
ATOM     10  C   UNL A   1      43.021  26.249  26.154  1.00  0.00     0.016 A 
ATOM     11  C   UNL A   1      41.506  25.346  28.266  1.00  0.00     0.010 A 
ATOM     12  C   UNL A   1      42.660  27.131  27.180  1.00  0.00     0.010 A 
ATOM     13  C   UNL A   1      41.973  26.627  28.251  1.00  0.00    -0.014 A 
BRANCH  13  14
ATOM     14  C   UNL A   1      41.475  27.409  29.347  1.00  0.00     0.031 A 
ATOM     15  C   UNL A   1      42.380  27.469  30.512  1.00  0.00     0.074 A 
ATOM     16  C   UNL A   1      40.485  28.263  29.042  1.00  0.00     0.049 A 
ATOM     17  N   UNL A   1      42.322  28.255  31.535  1.00  0.00    -0.248 NA
ATOM     18  C   UNL A   1      43.588  26.620  30.453  1.00  0.00     0.031 C 
ATOM     19  C   UNL A   1      39.869  28.392  27.710  1.00  0.00     0.029 A 
ATOM     20  N   UNL A   1      39.864  29.215  29.771  1.00  0.00    -0.354 N 
ATOM     21  C   UNL A   1      43.499  28.025  32.227  1.00  0.00     0.074 A 
ATOM     22  C   UNL A   1      44.257  27.032  31.512  1.00  0.00     0.031 C 
ATOM     23  C   UNL A   1      38.889  29.303  27.753  1.00  0.00     0.029 A 
ATOM     24  C   UNL A   1      38.804  29.789  29.113  1.00  0.00     0.049 A 
ATOM     25  H   UNL A   1      40.144  29.471  30.680  1.00  0.00     0.167 HD
ATOM     26  C   UNL A   1      43.863  28.614  33.384  1.00  0.00     0.034 A 
ATOM     27  C   UNL A   1      37.845  30.572  29.625  1.00  0.00     0.034 A 
ATOM     28  C   UNL A   1      42.931  29.485  34.053  1.00  0.00     0.049 A 
ATOM     29  C   UNL A   1      38.088  30.965  31.052  1.00  0.00     0.074 A 
ATOM     30  C   UNL A   1      42.956  29.987  35.333  1.00  0.00     0.029 A 
ATOM     31  N   UNL A   1      41.738  29.934  33.466  1.00  0.00    -0.354 N 
ATOM     32  N   UNL A   1      39.124  30.654  31.809  1.00  0.00    -0.248 NA
ATOM     33  C   UNL A   1      37.090  31.805  31.694  1.00  0.00     0.031 C 
ATOM     34  C   UNL A   1      41.739  30.650  35.547  1.00  0.00     0.029 A 
ATOM     35  C   UNL A   1      40.992  30.658  34.370  1.00  0.00     0.049 A 
ATOM     36  H   UNL A   1      41.470  29.755  32.536  1.00  0.00     0.167 HD
ATOM     37  C   UNL A   1      38.933  31.294  33.014  1.00  0.00     0.074 A 
ATOM     38  C   UNL A   1      37.665  32.009  32.873  1.00  0.00     0.031 C 
ATOM     39  C   UNL A   1      39.719  31.312  34.126  1.00  0.00     0.034 A 
BRANCH  26  40
ATOM     40  C   UNL A   1      45.147  28.105  33.987  1.00  0.00     0.023 A 
ATOM     41  C   UNL A   1      46.408  28.572  33.556  1.00  0.00     0.031 A 
ATOM     42  C   UNL A   1      45.115  26.958  34.797  1.00  0.00     0.131 A 
ATOM     43  C   UNL A   1      47.566  27.827  33.847  1.00  0.00     0.055 A 
ATOM     44  C   UNL A   1      46.281  26.277  35.158  1.00  0.00     0.041 A 
ATOM     45  F   UNL A   1      43.945  26.425  35.180  1.00  0.00    -0.206 F 
ATOM     46  C   UNL A   1      47.512  26.697  34.666  1.00  0.00     0.022 A 
BRANCH  43  47
ATOM     47  S   UNL A   1      49.106  28.215  32.959  1.00  0.00     0.124 S 
ATOM     48  O   UNL A   1      50.005  27.178  33.461  1.00  0.00    -0.237 OA
ATOM     49  O   UNL A   1      48.709  28.093  31.561  1.00  0.00    -0.237 OA
ATOM     50  O   UNL A   1      49.426  29.571  33.400  1.00  0.00    -0.744 OA
ENDBRANCH  43  47
ENDBRANCH  26  40
BRANCH  27  51
ATOM     51  C   UNL A   1      36.635  30.915  28.831  1.00  0.00     0.023 A 
ATOM     52  C   UNL A   1      35.782  29.931  28.317  1.00  0.00     0.031 A 
ATOM     53  C   UNL A   1      36.295  32.265  28.591  1.00  0.00     0.131 A 
ATOM     54  C   UNL A   1      34.652  30.306  27.569  1.00  0.00     0.055 A 
ATOM     55  C   UNL A   1      35.154  32.633  27.875  1.00  0.00     0.041 A 
ATOM     56  F   UNL A   1      37.062  33.256  29.074  1.00  0.00    -0.206 F 
ATOM     57  C   UNL A   1      34.329  31.647  27.349  1.00  0.00     0.022 A 
BRANCH  54  58
ATOM     58  S   UNL A   1      33.629  29.001  26.833  1.00  0.00     0.124 S 
ATOM     59  O   UNL A   1      32.575  28.850  27.828  1.00  0.00    -0.237 OA
ATOM     60  O   UNL A   1      33.236  29.609  25.566  1.00  0.00    -0.237 OA
ATOM     61  O   UNL A   1      34.548  27.870  26.721  1.00  0.00    -0.744 OA
ENDBRANCH  54  58
ENDBRANCH  27  51
BRANCH  39  62
ATOM     62  C   UNL A   1      39.214  32.185  35.228  1.00  0.00     0.023 A 
ATOM     63  C   UNL A   1      39.627  33.518  35.340  1.00  0.00     0.031 A 
ATOM     64  C   UNL A   1      38.324  31.657  36.175  1.00  0.00     0.131 A 
ATOM     65  C   UNL A   1      39.209  34.264  36.442  1.00  0.00     0.055 A 
ATOM     66  C   UNL A   1      37.836  32.437  37.215  1.00  0.00     0.041 A 
ATOM     67  F   UNL A   1      37.916  30.380  36.094  1.00  0.00    -0.206 F 
ATOM     68  C   UNL A   1      38.293  33.744  37.363  1.00  0.00     0.022 A 
BRANCH  65  69
ATOM     69  S   UNL A   1      39.992  35.869  36.721  1.00  0.00     0.124 S 
ATOM     70  O   UNL A   1      39.313  36.323  37.931  1.00  0.00    -0.237 OA
ATOM     71  O   UNL A   1      41.397  35.510  36.876  1.00  0.00    -0.237 OA
ATOM     72  O   UNL A   1      39.669  36.619  35.509  1.00  0.00    -0.744 OA
ENDBRANCH  65  69
ENDBRANCH  39  62
ENDBRANCH  13  14
ENDBRANCH   6   8
ENDBRANCH   5   6
ENDBRANCH   4   5
ENDBRANCH   3   4
ENDBRANCH   2   3
ENDBRANCH   1   2
BRANCH   1  73
ATOM     73  C   UNL A   1      39.656  19.803  25.815  1.00  0.00     0.188 C 
BRANCH  73  74
ATOM     74  O   UNL A   1      39.183  21.139  25.822  1.00  0.00    -0.376 OA
BRANCH  74  75
ATOM     75  C   UNL A   1      37.885  21.393  25.280  1.00  0.00     0.202 C 
BRANCH  75  76
ATOM     76  C   UNL A   1      37.368  22.840  25.156  1.00  0.00     0.261 C 
BRANCH  76  77
ATOM     77  O   UNL A   1      35.952  23.025  24.918  1.00  0.00    -0.462 OA
BRANCH  77  78
ATOM     78  C   UNL A   1      35.609  23.338  23.646  1.00  0.00     0.328 C 
ATOM     79  O   UNL A   1      36.415  23.281  22.711  1.00  0.00    -0.250 OA
BRANCH  78  80
ATOM     80  C   UNL A   1      34.272  24.027  23.427  1.00  0.00     0.192 C 
ATOM     81  C   UNL A   1      34.372  25.445  24.014  1.00  0.00     0.037 C 
ATOM     82  N   UNL A   1      32.895  23.490  23.663  1.00  0.00    -0.353 N 
ATOM     83  C   UNL A   1      33.447  26.379  23.246  1.00  0.00     0.005 C 
ATOM     84  C   UNL A   1      31.881  24.338  22.970  1.00  0.00     0.118 C 
ATOM     85  C   UNL A   1      32.022  25.850  23.217  1.00  0.00     0.022 C 
BRANCH  82  86
ATOM     86  C   UNL A   1      32.511  22.195  24.088  1.00  0.00     0.116 A 
ATOM     87  C   UNL A   1      32.182  20.966  22.787  1.00  0.00     0.033 A 
ATOM     88  C   UNL A   1      32.786  21.577  25.789  1.00  0.00     0.292 A 
ATOM     89  C   UNL A   1      32.325  19.146  23.120  1.00  0.00     0.003 A 
ATOM     90  C   UNL A   1      32.856  19.774  26.144  1.00  0.00     0.088 A 
ATOM     91  C   UNL A   1      32.747  18.564  24.802  1.00  0.00     0.007 A 
BRANCH  88  92
ATOM     92  N   UNL A   1      32.832  22.434  26.964  1.00  0.00     0.064 N 
ATOM     93  O   UNL A   1      33.933  22.948  27.223  1.00  0.00    -0.258 OA
ATOM     94  O   UNL A   1      31.810  22.604  27.634  1.00  0.00    -0.258 OA
ENDBRANCH  88  92
ENDBRANCH  82  86
ENDBRANCH  78  80
ENDBRANCH  77  78
ENDBRANCH  76  77
ENDBRANCH  75  76
ENDBRANCH  74  75
ENDBRANCH  73  74
ENDBRANCH   1  73
TORSDOF 22
ENDMDL
MODEL 2
REMARK VINA RESULT:     -10.9      2.717      9.054
REMARK SMILES O=C(OCCOCCOCCOC(=O)[C@@H]1CCCCN1c1ccccc1[N+](=O)[O-])c1ccc(-c2c3nc(c(-c4cc(S(=O)(=O)[O-])ccc4F)c4ccc([nH]4)c(-c4cc(S(=O)(=O)[O-])ccc4F)c4nc(c(-c5cc(S(=O)(=O)[O-])ccc5F)c5ccc2[nH]5)C=C4)C=C3)cc1
REMARK SMILES IDX 7 1 6 2 5 3 4 4 3 5 2 6 1 7 30 8 31 9 92 10 32 11 91 12
REMARK SMILES IDX 33 13 34 14 35 15 85 16 36 17 90 18 84 19 86 20 37 21 89 22
REMARK SMILES IDX 83 23 82 24 38 26 70 27 50 28 69 29 51 30 54 31 68 32 87 33
REMARK SMILES IDX 52 34 53 35 67 37 88 38 55 39 39 40 40 41 48 42 41 43 47 44
REMARK SMILES IDX 49 45 46 46 42 47 43 48 44 49 45 50 71 51 72 52 80 53 73 54
REMARK SMILES IDX 79 55 81 56 78 57 74 58 75 59 76 60 77 61 56 62 57 63 65 64
REMARK SMILES IDX 58 65 64 66 66 67 63 68 59 69 60 70 61 71 62 72 8 73 9 74
REMARK SMILES IDX 10 75 11 76 12 77 13 78 14 79 15 80 16 81 20 82 17 83 19 84
REMARK SMILES IDX 18 85 21 86 22 87 26 88 23 89 25 90 24 91 27 92 28 93 29 94
REMARK H PARENT 86 25 54 36
REMARK Flexibility Score: inf
ROOT
ATOM      1  C   UNL A   1      32.562  28.682  22.545  1.00  0.00     0.188 C 
ENDROOT
BRANCH   1   2
ATOM      2  O   UNL A   1      31.330  28.413  23.178  1.00  0.00    -0.376 OA
BRANCH   2   3
ATOM      3  C   UNL A   1      31.307  28.602  24.575  1.00  0.00     0.202 C 
BRANCH   3   4
ATOM      4  C   UNL A   1      32.137  29.762  25.137  1.00  0.00     0.261 C 
BRANCH   4   5
ATOM      5  O   UNL A   1      33.404  29.558  25.861  1.00  0.00    -0.460 OA
BRANCH   5   6
ATOM      6  C   UNL A   1      34.001  30.169  27.089  1.00  0.00     0.338 C 
ATOM      7  O   UNL A   1      32.934  30.592  27.595  1.00  0.00    -0.246 OA
BRANCH   6   8
ATOM      8  C   UNL A   1      35.999  29.971  27.887  1.00  0.00     0.060 A 
ATOM      9  C   UNL A   1      36.413  29.389  29.238  1.00  0.00     0.016 A 
ATOM     10  C   UNL A   1      37.348  30.292  27.277  1.00  0.00     0.016 A 
ATOM     11  C   UNL A   1      37.641  29.011  29.694  1.00  0.00     0.010 A 
ATOM     12  C   UNL A   1      38.605  29.810  27.662  1.00  0.00     0.010 A 
ATOM     13  C   UNL A   1      38.695  29.110  28.835  1.00  0.00    -0.014 A 
BRANCH  13  14
ATOM     14  C   UNL A   1      39.917  28.610  29.399  1.00  0.00     0.031 A 
ATOM     15  C   UNL A   1      40.285  29.223  30.691  1.00  0.00     0.074 A 
ATOM     16  C   UNL A   1      40.339  27.435  28.907  1.00  0.00     0.049 A 
ATOM     17  N   UNL A   1      41.180  28.836  31.537  1.00  0.00    -0.248 NA
ATOM     18  C   UNL A   1      39.442  30.345  31.153  1.00  0.00     0.031 C 
ATOM     19  C   UNL A   1      39.676  26.692  27.822  1.00  0.00     0.029 A 
ATOM     20  N   UNL A   1      41.359  26.626  29.267  1.00  0.00    -0.354 N 
ATOM     21  C   UNL A   1      40.990  29.640  32.649  1.00  0.00     0.074 A 
ATOM     22  C   UNL A   1      39.895  30.535  32.376  1.00  0.00     0.031 C 
ATOM     23  C   UNL A   1      40.372  25.582  27.544  1.00  0.00     0.029 A 
ATOM     24  C   UNL A   1      41.529  25.563  28.413  1.00  0.00     0.049 A 
ATOM     25  H   UNL A   1      41.921  26.782  30.060  1.00  0.00     0.167 HD
ATOM     26  C   UNL A   1      41.718  29.607  33.782  1.00  0.00     0.034 A 
ATOM     27  C   UNL A   1      42.572  24.726  28.338  1.00  0.00     0.034 A 
ATOM     28  C   UNL A   1      42.876  28.751  33.849  1.00  0.00     0.049 A 
ATOM     29  C   UNL A   1      43.574  24.916  29.438  1.00  0.00     0.074 A 
ATOM     30  C   UNL A   1      43.903  28.727  34.763  1.00  0.00     0.029 A 
ATOM     31  N   UNL A   1      43.173  27.781  32.880  1.00  0.00    -0.354 N 
ATOM     32  N   UNL A   1      43.515  25.769  30.444  1.00  0.00    -0.248 NA
ATOM     33  C   UNL A   1      44.748  24.058  29.429  1.00  0.00     0.031 C 
ATOM     34  C   UNL A   1      44.862  27.818  34.291  1.00  0.00     0.029 A 
ATOM     35  C   UNL A   1      44.391  27.192  33.138  1.00  0.00     0.049 A 
ATOM     36  H   UNL A   1      42.592  27.553  32.118  1.00  0.00     0.167 HD
ATOM     37  C   UNL A   1      44.626  25.528  31.224  1.00  0.00     0.074 A 
ATOM     38  C   UNL A   1      45.339  24.442  30.554  1.00  0.00     0.031 C 
ATOM     39  C   UNL A   1      45.022  26.123  32.383  1.00  0.00     0.034 A 
BRANCH  26  40
ATOM     40  C   UNL A   1      41.374  30.665  34.798  1.00  0.00     0.023 A 
ATOM     41  C   UNL A   1      40.132  30.676  35.469  1.00  0.00     0.031 A 
ATOM     42  C   UNL A   1      42.179  31.813  34.891  1.00  0.00     0.131 A 
ATOM     43  C   UNL A   1      39.690  31.852  36.104  1.00  0.00     0.055 A 
ATOM     44  C   UNL A   1      41.770  32.945  35.602  1.00  0.00     0.041 A 
ATOM     45  F   UNL A   1      43.336  31.891  34.217  1.00  0.00    -0.206 F 
ATOM     46  C   UNL A   1      40.512  32.977  36.195  1.00  0.00     0.022 A 
BRANCH  43  47
ATOM     47  S   UNL A   1      37.945  31.976  36.607  1.00  0.00     0.124 S 
ATOM     48  O   UNL A   1      37.265  31.972  35.314  1.00  0.00    -0.237 OA
ATOM     49  O   UNL A   1      37.764  30.785  37.428  1.00  0.00    -0.237 OA
ATOM     50  O   UNL A   1      37.886  33.246  37.329  1.00  0.00    -0.744 OA
ENDBRANCH  43  47
ENDBRANCH  26  40
BRANCH  27  51
ATOM     51  C   UNL A   1      42.709  23.778  27.202  1.00  0.00     0.023 A 
ATOM     52  C   UNL A   1      42.236  22.463  27.271  1.00  0.00     0.031 A 
ATOM     53  C   UNL A   1      43.309  24.193  25.991  1.00  0.00     0.131 A 
ATOM     54  C   UNL A   1      42.392  21.602  26.170  1.00  0.00     0.055 A 
ATOM     55  C   UNL A   1      43.433  23.345  24.889  1.00  0.00     0.041 A 
ATOM     56  F   UNL A   1      43.766  25.448  25.853  1.00  0.00    -0.206 F 
ATOM     57  C   UNL A   1      42.981  22.034  24.979  1.00  0.00     0.022 A 
BRANCH  54  58
ATOM     58  S   UNL A   1      41.858  19.876  26.337  1.00  0.00     0.124 S 
ATOM     59  O   UNL A   1      42.325  19.547  27.678  1.00  0.00    -0.237 OA
ATOM     60  O   UNL A   1      40.413  19.994  26.170  1.00  0.00    -0.237 OA
ATOM     61  O   UNL A   1      42.557  19.197  25.248  1.00  0.00    -0.744 OA
ENDBRANCH  54  58
ENDBRANCH  27  51
BRANCH  39  62
ATOM     62  C   UNL A   1      46.259  25.543  32.987  1.00  0.00     0.023 A 
ATOM     63  C   UNL A   1      47.529  25.913  32.527  1.00  0.00     0.031 A 
ATOM     64  C   UNL A   1      46.147  24.600  34.020  1.00  0.00     0.131 A 
ATOM     65  C   UNL A   1      48.650  25.270  33.051  1.00  0.00     0.055 A 
ATOM     66  C   UNL A   1      47.275  24.037  34.604  1.00  0.00     0.041 A 
ATOM     67  F   UNL A   1      44.942  24.224  34.476  1.00  0.00    -0.206 F 
ATOM     68  C   UNL A   1      48.536  24.358  34.106  1.00  0.00     0.022 A 
BRANCH  65  69
ATOM     69  S   UNL A   1      50.239  25.545  32.235  1.00  0.00     0.124 S 
ATOM     70  O   UNL A   1      49.963  26.740  31.443  1.00  0.00    -0.237 OA
ATOM     71  O   UNL A   1      51.145  25.724  33.364  1.00  0.00    -0.237 OA
ATOM     72  O   UNL A   1      50.440  24.320  31.463  1.00  0.00    -0.744 OA
ENDBRANCH  65  69
ENDBRANCH  39  62
ENDBRANCH  13  14
ENDBRANCH   6   8
ENDBRANCH   5   6
ENDBRANCH   4   5
ENDBRANCH   3   4
ENDBRANCH   2   3
ENDBRANCH   1   2
BRANCH   1  73
ATOM     73  C   UNL A   1      33.511  27.490  22.535  1.00  0.00     0.188 C 
BRANCH  73  74
ATOM     74  O   UNL A   1      33.346  26.516  21.519  1.00  0.00    -0.376 OA
BRANCH  74  75
ATOM     75  C   UNL A   1      32.279  25.576  21.659  1.00  0.00     0.202 C 
BRANCH  75  76
ATOM     76  C   UNL A   1      32.229  24.637  22.881  1.00  0.00     0.261 C 
BRANCH  76  77
ATOM     77  O   UNL A   1      32.348  23.216  22.637  1.00  0.00    -0.462 OA
BRANCH  77  78
ATOM     78  C   UNL A   1      33.559  22.674  22.911  1.00  0.00     0.328 C 
ATOM     79  O   UNL A   1      34.615  23.182  22.515  1.00  0.00    -0.250 OA
BRANCH  78  80
ATOM     80  C   UNL A   1      33.587  21.272  23.494  1.00  0.00     0.192 C 
ATOM     81  C   UNL A   1      32.132  20.806  23.669  1.00  0.00     0.037 C 
ATOM     82  N   UNL A   1      34.413  20.747  24.627  1.00  0.00    -0.353 N 
ATOM     83  C   UNL A   1      32.064  19.290  23.537  1.00  0.00     0.005 C 
ATOM     84  C   UNL A   1      34.413  19.255  24.622  1.00  0.00     0.118 C 
ATOM     85  C   UNL A   1      33.024  18.606  24.499  1.00  0.00     0.022 C 
BRANCH  82  86
ATOM     86  C   UNL A   1      35.406  21.417  25.381  1.00  0.00     0.116 A 
ATOM     87  C   UNL A   1      37.139  20.984  25.032  1.00  0.00     0.033 A 
ATOM     88  C   UNL A   1      35.088  22.968  26.300  1.00  0.00     0.292 A 
ATOM     89  C   UNL A   1      38.523  22.164  25.401  1.00  0.00     0.003 A 
ATOM     90  C   UNL A   1      36.462  24.110  26.737  1.00  0.00     0.088 A 
ATOM     91  C   UNL A   1      38.153  23.774  26.188  1.00  0.00     0.007 A 
BRANCH  88  92
ATOM     92  N   UNL A   1      33.792  23.332  26.850  1.00  0.00     0.064 N 
ATOM     93  O   UNL A   1      33.437  22.716  27.868  1.00  0.00    -0.258 OA
ATOM     94  O   UNL A   1      33.119  24.206  26.296  1.00  0.00    -0.258 OA
ENDBRANCH  88  92
ENDBRANCH  82  86
ENDBRANCH  78  80
ENDBRANCH  77  78
ENDBRANCH  76  77
ENDBRANCH  75  76
ENDBRANCH  74  75
ENDBRANCH  73  74
ENDBRANCH   1  73
TORSDOF 22
ENDMDL
MODEL 3
REMARK VINA RESULT:     -10.8      4.488      6.835
REMARK SMILES O=C(OCCOCCOCCOC(=O)[C@@H]1CCCCN1c1ccccc1[N+](=O)[O-])c1ccc(-c2c3nc(c(-c4cc(S(=O)(=O)[O-])ccc4F)c4ccc([nH]4)c(-c4cc(S(=O)(=O)[O-])ccc4F)c4nc(c(-c5cc(S(=O)(=O)[O-])ccc5F)c5ccc2[nH]5)C=C4)C=C3)cc1
REMARK SMILES IDX 7 1 6 2 5 3 4 4 3 5 2 6 1 7 30 8 31 9 92 10 32 11 91 12
REMARK SMILES IDX 33 13 34 14 35 15 85 16 36 17 90 18 84 19 86 20 37 21 89 22
REMARK SMILES IDX 83 23 82 24 38 26 70 27 50 28 69 29 51 30 54 31 68 32 87 33
REMARK SMILES IDX 52 34 53 35 67 37 88 38 55 39 39 40 40 41 48 42 41 43 47 44
REMARK SMILES IDX 49 45 46 46 42 47 43 48 44 49 45 50 71 51 72 52 80 53 73 54
REMARK SMILES IDX 79 55 81 56 78 57 74 58 75 59 76 60 77 61 56 62 57 63 65 64
REMARK SMILES IDX 58 65 64 66 66 67 63 68 59 69 60 70 61 71 62 72 8 73 9 74
REMARK SMILES IDX 10 75 11 76 12 77 13 78 14 79 15 80 16 81 20 82 17 83 19 84
REMARK SMILES IDX 18 85 21 86 22 87 26 88 23 89 25 90 24 91 27 92 28 93 29 94
REMARK H PARENT 86 25 54 36
REMARK Flexibility Score: inf
ROOT
ATOM      1  C   UNL A   1      35.771  24.270  25.329  1.00  0.00     0.188 C 
ENDROOT
BRANCH   1   2
ATOM      2  O   UNL A   1      36.232  23.104  25.977  1.00  0.00    -0.376 OA
BRANCH   2   3
ATOM      3  C   UNL A   1      37.322  22.454  25.363  1.00  0.00     0.202 C 
BRANCH   3   4
ATOM      4  C   UNL A   1      37.201  20.941  25.144  1.00  0.00     0.261 C 
BRANCH   4   5
ATOM      5  O   UNL A   1      38.363  20.037  25.162  1.00  0.00    -0.460 OA
BRANCH   5   6
ATOM      6  C   UNL A   1      39.659  20.037  25.909  1.00  0.00     0.338 C 
ATOM      7  O   UNL A   1      39.930  18.821  25.764  1.00  0.00    -0.246 OA
BRANCH   6   8
ATOM      8  C   UNL A   1      40.838  21.706  26.610  1.00  0.00     0.060 A 
ATOM      9  C   UNL A   1      41.277  22.938  25.821  1.00  0.00     0.016 A 
ATOM     10  C   UNL A   1      41.397  22.019  27.983  1.00  0.00     0.016 A 
ATOM     11  C   UNL A   1      41.798  24.122  26.254  1.00  0.00     0.010 A 
ATOM     12  C   UNL A   1      41.819  23.259  28.479  1.00  0.00     0.010 A 
ATOM     13  C   UNL A   1      41.932  24.301  27.599  1.00  0.00    -0.014 A 
BRANCH  13  14
ATOM     14  C   UNL A   1      42.413  25.611  27.936  1.00  0.00     0.031 A 
ATOM     15  C   UNL A   1      43.768  25.909  27.430  1.00  0.00     0.074 A 
ATOM     16  C   UNL A   1      41.472  26.492  28.308  1.00  0.00     0.049 A 
ATOM     17  N   UNL A   1      44.371  27.049  27.373  1.00  0.00    -0.248 NA
ATOM     18  C   UNL A   1      44.489  24.795  26.779  1.00  0.00     0.031 C 
ATOM     19  C   UNL A   1      40.038  26.184  28.440  1.00  0.00     0.029 A 
ATOM     20  N   UNL A   1      41.537  27.813  28.580  1.00  0.00    -0.354 N 
ATOM     21  C   UNL A   1      45.526  26.805  26.650  1.00  0.00     0.074 A 
ATOM     22  C   UNL A   1      45.544  25.412  26.285  1.00  0.00     0.031 C 
ATOM     23  C   UNL A   1      39.379  27.269  28.864  1.00  0.00     0.029 A 
ATOM     24  C   UNL A   1      40.352  28.324  29.052  1.00  0.00     0.049 A 
ATOM     25  H   UNL A   1      42.349  28.355  28.451  1.00  0.00     0.167 HD
ATOM     26  C   UNL A   1      46.482  27.709  26.358  1.00  0.00     0.034 A 
ATOM     27  C   UNL A   1      40.142  29.511  29.636  1.00  0.00     0.034 A 
ATOM     28  C   UNL A   1      46.390  29.034  26.917  1.00  0.00     0.049 A 
ATOM     29  C   UNL A   1      41.338  30.415  29.604  1.00  0.00     0.074 A 
ATOM     30  C   UNL A   1      47.336  30.030  26.984  1.00  0.00     0.029 A 
ATOM     31  N   UNL A   1      45.250  29.514  27.578  1.00  0.00    -0.354 N 
ATOM     32  N   UNL A   1      42.515  30.177  29.055  1.00  0.00    -0.248 NA
ATOM     33  C   UNL A   1      41.206  31.723  30.227  1.00  0.00     0.031 C 
ATOM     34  C   UNL A   1      46.801  31.064  27.768  1.00  0.00     0.029 A 
ATOM     35  C   UNL A   1      45.482  30.766  28.105  1.00  0.00     0.049 A 
ATOM     36  H   UNL A   1      44.399  29.023  27.656  1.00  0.00     0.167 HD
ATOM     37  C   UNL A   1      43.263  31.322  29.224  1.00  0.00     0.074 A 
ATOM     38  C   UNL A   1      42.388  32.252  29.938  1.00  0.00     0.031 C 
ATOM     39  C   UNL A   1      44.535  31.599  28.825  1.00  0.00     0.034 A 
BRANCH  26  40
ATOM     40  C   UNL A   1      47.694  27.158  25.652  1.00  0.00     0.023 A 
ATOM     41  C   UNL A   1      48.794  26.632  26.364  1.00  0.00     0.031 A 
ATOM     42  C   UNL A   1      47.862  27.412  24.281  1.00  0.00     0.131 A 
ATOM     43  C   UNL A   1      50.037  26.485  25.721  1.00  0.00     0.055 A 
ATOM     44  C   UNL A   1      49.076  27.175  23.630  1.00  0.00     0.041 A 
ATOM     45  F   UNL A   1      46.878  27.978  23.565  1.00  0.00    -0.206 F 
ATOM     46  C   UNL A   1      50.178  26.731  24.353  1.00  0.00     0.022 A 
BRANCH  43  47
ATOM     47  S   UNL A   1      51.521  26.194  26.734  1.00  0.00     0.124 S 
ATOM     48  O   UNL A   1      52.449  27.181  26.188  1.00  0.00    -0.237 OA
ATOM     49  O   UNL A   1      51.040  26.449  28.086  1.00  0.00    -0.237 OA
ATOM     50  O   UNL A   1      51.865  24.802  26.447  1.00  0.00    -0.744 OA
ENDBRANCH  43  47
ENDBRANCH  26  40
BRANCH  27  51
ATOM     51  C   UNL A   1      38.851  29.813  30.308  1.00  0.00     0.023 A 
ATOM     52  C   UNL A   1      37.872  30.613  29.707  1.00  0.00     0.031 A 
ATOM     53  C   UNL A   1      38.562  29.272  31.581  1.00  0.00     0.131 A 
ATOM     54  C   UNL A   1      36.667  30.872  30.384  1.00  0.00     0.055 A 
ATOM     55  C   UNL A   1      37.352  29.506  32.236  1.00  0.00     0.041 A 
ATOM     56  F   UNL A   1      39.452  28.481  32.202  1.00  0.00    -0.206 F 
ATOM     57  C   UNL A   1      36.398  30.322  31.640  1.00  0.00     0.022 A 
BRANCH  54  58
ATOM     58  S   UNL A   1      35.467  31.997  29.618  1.00  0.00     0.124 S 
ATOM     59  O   UNL A   1      36.329  33.063  29.125  1.00  0.00    -0.237 OA
ATOM     60  O   UNL A   1      34.861  31.139  28.604  1.00  0.00    -0.237 OA
ATOM     61  O   UNL A   1      34.589  32.366  30.727  1.00  0.00    -0.744 OA
ENDBRANCH  54  58
ENDBRANCH  27  51
BRANCH  39  62
ATOM     62  C   UNL A   1      44.991  32.989  29.128  1.00  0.00     0.023 A 
ATOM     63  C   UNL A   1      44.694  34.051  28.265  1.00  0.00     0.031 A 
ATOM     64  C   UNL A   1      45.744  33.232  30.287  1.00  0.00     0.131 A 
ATOM     65  C   UNL A   1      45.226  35.311  28.537  1.00  0.00     0.055 A 
ATOM     66  C   UNL A   1      46.187  34.511  30.600  1.00  0.00     0.041 A 
ATOM     67  F   UNL A   1      46.048  32.232  31.129  1.00  0.00    -0.206 F 
ATOM     68  C   UNL A   1      45.944  35.556  29.712  1.00  0.00     0.022 A 
BRANCH  65  69
ATOM     69  S   UNL A   1      45.080  36.582  27.260  1.00  0.00     0.124 S 
ATOM     70  O   UNL A   1      45.361  37.797  28.018  1.00  0.00    -0.237 OA
ATOM     71  O   UNL A   1      46.102  36.180  26.300  1.00  0.00    -0.237 OA
ATOM     72  O   UNL A   1      43.701  36.442  26.797  1.00  0.00    -0.744 OA
ENDBRANCH  65  69
ENDBRANCH  39  62
ENDBRANCH  13  14
ENDBRANCH   6   8
ENDBRANCH   5   6
ENDBRANCH   4   5
ENDBRANCH   3   4
ENDBRANCH   2   3
ENDBRANCH   1   2
BRANCH   1  73
ATOM     73  C   UNL A   1      34.404  24.733  25.815  1.00  0.00     0.188 C 
BRANCH  73  74
ATOM     74  O   UNL A   1      34.023  26.073  25.557  1.00  0.00    -0.376 OA
BRANCH  74  75
ATOM     75  C   UNL A   1      32.980  26.638  26.354  1.00  0.00     0.202 C 
BRANCH  75  76
ATOM     76  C   UNL A   1      31.602  25.951  26.425  1.00  0.00     0.261 C 
BRANCH  76  77
ATOM     77  O   UNL A   1      31.528  24.671  27.096  1.00  0.00    -0.462 OA
BRANCH  77  78
ATOM     78  C   UNL A   1      30.648  23.785  26.570  1.00  0.00     0.328 C 
ATOM     79  O   UNL A   1      29.600  23.473  27.148  1.00  0.00    -0.250 OA
BRANCH  78  80
ATOM     80  C   UNL A   1      31.101  22.970  25.371  1.00  0.00     0.192 C 
ATOM     81  C   UNL A   1      32.368  22.199  25.779  1.00  0.00     0.037 C 
ATOM     82  N   UNL A   1      31.221  23.398  23.941  1.00  0.00    -0.353 N 
ATOM     83  C   UNL A   1      32.451  20.902  24.984  1.00  0.00     0.005 C 
ATOM     84  C   UNL A   1      31.331  22.206  23.050  1.00  0.00     0.118 C 
ATOM     85  C   UNL A   1      32.372  21.162  23.487  1.00  0.00     0.022 C 
BRANCH  82  86
ATOM     86  C   UNL A   1      30.884  24.643  23.360  1.00  0.00     0.116 A 
ATOM     87  C   UNL A   1      29.350  25.433  23.938  1.00  0.00     0.033 A 
ATOM     88  C   UNL A   1      32.088  25.688  22.461  1.00  0.00     0.292 A 
ATOM     89  C   UNL A   1      29.100  27.268  23.811  1.00  0.00     0.003 A 
ATOM     90  C   UNL A   1      31.817  27.496  22.265  1.00  0.00     0.088 A 
ATOM     91  C   UNL A   1      30.394  28.305  23.037  1.00  0.00     0.007 A 
BRANCH  88  92
ATOM     92  N   UNL A   1      33.240  25.161  21.745  1.00  0.00     0.064 N 
ATOM     93  O   UNL A   1      33.147  25.129  20.507  1.00  0.00    -0.258 OA
ATOM     94  O   UNL A   1      34.227  24.776  22.379  1.00  0.00    -0.258 OA
ENDBRANCH  88  92
ENDBRANCH  82  86
ENDBRANCH  78  80
ENDBRANCH  77  78
ENDBRANCH  76  77
ENDBRANCH  75  76
ENDBRANCH  74  75
ENDBRANCH  73  74
ENDBRANCH   1  73
TORSDOF 22
ENDMDL
