MODEL 1
REMARK VINA RESULT:     -12.0      0.000      0.000
REMARK SMILES Cc1ccc(NC(=O)C[C@@H]2C[NH2+]CCO2)c(C(=O)OCCOCCOCCOC(=O)c2ccc(-c3c4nc(c(-c5cc(S(=O)(=O)[O-])ccc5F)c5ccc([nH]5)c(-c5cc(S(=O)(=O)[O-])ccc5F)c5nc(c(-c6cc(S(=O)(=O)[O-])ccc6F)c6ccc3[nH]6)C=C5)C=C4)cc2)c1
REMARK SMILES IDX 23 1 22 2 21 3 20 4 19 5 17 6 18 7 16 8 1 9 2 10 3 11 94 12
REMARK SMILES IDX 4 13 5 14 6 15 7 16 8 18 9 19 10 20 11 21 15 22 12 23 14 24
REMARK SMILES IDX 13 25 24 28 25 29 26 30 27 31 28 32 29 33 30 34 31 35 32 36
REMARK SMILES IDX 93 37 33 38 92 39 34 40 35 41 36 42 86 43 37 44 91 45 85 46
REMARK SMILES IDX 87 47 38 48 90 49 84 50 83 51 39 53 71 54 51 55 70 56 52 57
REMARK SMILES IDX 55 58 69 59 88 60 53 61 54 62 68 64 89 65 56 66 40 67 41 68
REMARK SMILES IDX 49 69 42 70 48 71 50 72 47 73 43 74 44 75 45 76 46 77 72 78
REMARK SMILES IDX 73 79 81 80 74 81 80 82 82 83 79 84 75 85 76 86 77 87 78 88
REMARK SMILES IDX 57 89 58 90 66 91 59 92 65 93 67 94 64 95 60 96 61 97 62 98
REMARK SMILES IDX 63 99
REMARK H PARENT 6 17 12 26 12 27 87 52 55 63
REMARK Flexibility Score: inf
ROOT
ATOM      1  C   UNL A   1      36.231  23.667  26.028  1.00  0.00     0.188 C 
ENDROOT
BRANCH   1   2
ATOM      2  O   UNL A   1      34.939  23.888  26.639  1.00  0.00    -0.376 OA
BRANCH   2   3
ATOM      3  C   UNL A   1      34.143  22.925  27.349  1.00  0.00     0.202 C 
BRANCH   3   4
ATOM      4  C   UNL A   1      32.464  22.934  27.764  1.00  0.00     0.261 C 
BRANCH   4   5
ATOM      5  O   UNL A   1      31.057  23.865  27.214  1.00  0.00    -0.460 OA
BRANCH   5   6
ATOM      6  C   UNL A   1      30.744  24.965  26.293  1.00  0.00     0.340 C 
ATOM      7  O   UNL A   1      29.663  25.237  25.766  1.00  0.00    -0.246 OA
BRANCH   6   8
ATOM      8  C   UNL A   1      31.691  25.872  25.641  1.00  0.00     0.083 A 
ATOM      9  C   UNL A   1      34.191  28.391  26.899  1.00  0.00     0.044 C 
ATOM     10  C   UNL A   1      33.469  27.440  26.004  1.00  0.00    -0.050 A 
ATOM     11  C   UNL A   1      33.975  27.177  24.723  1.00  0.00     0.005 A 
ATOM     12  C   UNL A   1      32.322  26.792  26.462  1.00  0.00     0.021 A 
ATOM     13  C   UNL A   1      33.364  26.246  23.892  1.00  0.00     0.027 A 
ATOM     14  C   UNL A   1      32.216  25.581  24.314  1.00  0.00     0.055 A 
BRANCH  14  15
ATOM     15  N   UNL A   1      31.683  24.549  23.473  1.00  0.00    -0.325 N 
ATOM     16  C   UNL A   1      31.649  23.182  23.568  1.00  0.00     0.227 C 
ATOM     17  H   UNL A   1      31.251  24.894  22.658  1.00  0.00     0.169 HD
ATOM     18  O   UNL A   1      30.858  22.545  22.865  1.00  0.00    -0.275 OA
BRANCH  16  19
ATOM     19  C   UNL A   1      32.514  22.366  24.510  1.00  0.00     0.138 C 
BRANCH  19  20
ATOM     20  C   UNL A   1      33.226  21.125  23.956  1.00  0.00     0.182 C 
ATOM     21  C   UNL A   1      32.168  19.999  23.788  1.00  0.00     0.293 C 
ATOM     22  O   UNL A   1      34.303  20.750  24.807  1.00  0.00    -0.366 OA
ATOM     23  N   UNL A   1      32.731  18.652  23.574  1.00  0.00    -0.342 N 
ATOM     24  C   UNL A   1      34.825  19.450  24.600  1.00  0.00     0.222 C 
ATOM     25  C   UNL A   1      33.707  18.410  24.654  1.00  0.00     0.289 C 
ATOM     26  H   UNL A   1      33.194  18.608  22.667  1.00  0.00     0.346 HD
ATOM     27  H   UNL A   1      31.994  17.947  23.588  1.00  0.00     0.346 HD
ENDBRANCH  19  20
ENDBRANCH  16  19
ENDBRANCH  14  15
ENDBRANCH   6   8
ENDBRANCH   5   6
ENDBRANCH   4   5
ENDBRANCH   3   4
ENDBRANCH   2   3
ENDBRANCH   1   2
BRANCH   1  28
ATOM     28  C   UNL A   1      36.398  23.329  24.548  1.00  0.00     0.188 C 
BRANCH  28  29
ATOM     29  O   UNL A   1      37.491  22.448  24.375  1.00  0.00    -0.376 OA
BRANCH  29  30
ATOM     30  C   UNL A   1      37.750  21.558  25.435  1.00  0.00     0.202 C 
BRANCH  30  31
ATOM     31  C   UNL A   1      39.221  21.557  25.880  1.00  0.00     0.261 C 
BRANCH  31  32
ATOM     32  O   UNL A   1      39.495  22.556  26.894  1.00  0.00    -0.460 OA
BRANCH  32  33
ATOM     33  C   UNL A   1      40.574  23.407  26.682  1.00  0.00     0.338 C 
ATOM     34  O   UNL A   1      41.655  23.026  26.336  1.00  0.00    -0.246 OA
BRANCH  33  35
ATOM     35  C   UNL A   1      40.137  24.841  26.864  1.00  0.00     0.060 A 
ATOM     36  C   UNL A   1      40.666  26.008  26.286  1.00  0.00     0.016 A 
ATOM     37  C   UNL A   1      39.295  25.034  27.895  1.00  0.00     0.016 A 
ATOM     38  C   UNL A   1      40.493  27.334  26.904  1.00  0.00     0.010 A 
ATOM     39  C   UNL A   1      39.468  26.222  28.583  1.00  0.00     0.010 A 
ATOM     40  C   UNL A   1      39.952  27.505  28.184  1.00  0.00    -0.014 A 
BRANCH  40  41
ATOM     41  C   UNL A   1      39.956  28.948  29.148  1.00  0.00     0.031 A 
ATOM     42  C   UNL A   1      38.913  30.383  29.196  1.00  0.00     0.074 A 
ATOM     43  C   UNL A   1      41.044  29.147  29.926  1.00  0.00     0.049 A 
ATOM     44  N   UNL A   1      39.320  31.599  29.520  1.00  0.00    -0.248 NA
ATOM     45  C   UNL A   1      37.453  30.598  28.752  1.00  0.00     0.031 C 
ATOM     46  C   UNL A   1      41.207  30.126  30.997  1.00  0.00     0.029 A 
ATOM     47  N   UNL A   1      42.298  28.556  29.814  1.00  0.00    -0.354 N 
ATOM     48  C   UNL A   1      38.201  32.450  29.495  1.00  0.00     0.074 A 
ATOM     49  C   UNL A   1      37.259  31.893  28.631  1.00  0.00     0.031 C 
ATOM     50  C   UNL A   1      42.513  30.263  31.260  1.00  0.00     0.029 A 
ATOM     51  C   UNL A   1      43.235  29.495  30.267  1.00  0.00     0.049 A 
ATOM     52  H   UNL A   1      42.492  27.650  29.481  1.00  0.00     0.167 HD
ATOM     53  C   UNL A   1      37.958  33.408  30.427  1.00  0.00     0.034 A 
ATOM     54  C   UNL A   1      44.207  29.961  29.435  1.00  0.00     0.034 A 
ATOM     55  C   UNL A   1      39.227  33.845  30.936  1.00  0.00     0.049 A 
ATOM     56  C   UNL A   1      44.151  31.471  29.248  1.00  0.00     0.074 A 
ATOM     57  C   UNL A   1      39.918  33.646  32.109  1.00  0.00     0.029 A 
ATOM     58  N   UNL A   1      40.141  34.282  29.991  1.00  0.00    -0.354 N 
ATOM     59  N   UNL A   1      43.219  32.252  29.733  1.00  0.00    -0.248 NA
ATOM     60  C   UNL A   1      45.152  32.225  28.501  1.00  0.00     0.031 C 
ATOM     61  C   UNL A   1      41.303  33.818  31.802  1.00  0.00     0.029 A 
ATOM     62  C   UNL A   1      41.424  34.202  30.475  1.00  0.00     0.049 A 
ATOM     63  H   UNL A   1      39.902  34.608  29.093  1.00  0.00     0.167 HD
ATOM     64  C   UNL A   1      43.419  33.547  29.317  1.00  0.00     0.074 A 
ATOM     65  C   UNL A   1      44.678  33.479  28.597  1.00  0.00     0.031 C 
ATOM     66  C   UNL A   1      42.515  34.548  29.571  1.00  0.00     0.034 A 
BRANCH  53  67
ATOM     67  C   UNL A   1      36.563  33.805  30.953  1.00  0.00     0.023 A 
ATOM     68  C   UNL A   1      35.617  34.299  30.033  1.00  0.00     0.031 A 
ATOM     69  C   UNL A   1      36.137  33.885  32.315  1.00  0.00     0.131 A 
ATOM     70  C   UNL A   1      34.370  34.829  30.458  1.00  0.00     0.055 A 
ATOM     71  C   UNL A   1      34.873  34.342  32.725  1.00  0.00     0.041 A 
ATOM     72  F   UNL A   1      36.927  33.607  33.361  1.00  0.00    -0.206 F 
ATOM     73  C   UNL A   1      33.984  34.832  31.796  1.00  0.00     0.022 A 
BRANCH  70  74
ATOM     74  S   UNL A   1      33.272  35.612  29.245  1.00  0.00     0.124 S 
ATOM     75  O   UNL A   1      32.569  34.462  28.687  1.00  0.00    -0.237 OA
ATOM     76  O   UNL A   1      32.489  36.517  30.077  1.00  0.00    -0.237 OA
ATOM     77  O   UNL A   1      34.198  36.270  28.322  1.00  0.00    -0.744 OA
ENDBRANCH  70  74
ENDBRANCH  53  67
BRANCH  54  78
ATOM     78  C   UNL A   1      44.660  28.925  28.448  1.00  0.00     0.023 A 
ATOM     79  C   UNL A   1      45.511  27.891  28.924  1.00  0.00     0.031 A 
ATOM     80  C   UNL A   1      43.992  28.699  27.242  1.00  0.00     0.131 A 
ATOM     81  C   UNL A   1      45.533  26.635  28.298  1.00  0.00     0.055 A 
ATOM     82  C   UNL A   1      44.087  27.466  26.572  1.00  0.00     0.041 A 
ATOM     83  F   UNL A   1      43.138  29.617  26.771  1.00  0.00    -0.206 F 
ATOM     84  C   UNL A   1      44.822  26.414  27.121  1.00  0.00     0.022 A 
BRANCH  81  85
ATOM     85  S   UNL A   1      46.238  25.199  29.170  1.00  0.00     0.124 S 
ATOM     86  O   UNL A   1      45.356  24.117  28.745  1.00  0.00    -0.237 OA
ATOM     87  O   UNL A   1      47.609  25.132  28.669  1.00  0.00    -0.237 OA
ATOM     88  O   UNL A   1      46.133  25.586  30.575  1.00  0.00    -0.744 OA
ENDBRANCH  81  85
ENDBRANCH  54  78
BRANCH  66  89
ATOM     89  C   UNL A   1      42.526  35.956  28.979  1.00  0.00     0.023 A 
ATOM     90  C   UNL A   1      43.159  37.050  29.577  1.00  0.00     0.031 A 
ATOM     91  C   UNL A   1      41.930  36.227  27.714  1.00  0.00     0.131 A 
ATOM     92  C   UNL A   1      43.109  38.332  28.998  1.00  0.00     0.055 A 
ATOM     93  C   UNL A   1      41.989  37.472  27.082  1.00  0.00     0.041 A 
ATOM     94  F   UNL A   1      41.254  35.293  27.027  1.00  0.00    -0.206 F 
ATOM     95  C   UNL A   1      42.562  38.546  27.736  1.00  0.00     0.022 A 
BRANCH  92  96
ATOM     96  S   UNL A   1      43.645  39.741  30.001  1.00  0.00     0.124 S 
ATOM     97  O   UNL A   1      45.049  39.866  29.616  1.00  0.00    -0.237 OA
ATOM     98  O   UNL A   1      42.764  40.809  29.540  1.00  0.00    -0.237 OA
ATOM     99  O   UNL A   1      43.419  39.295  31.374  1.00  0.00    -0.744 OA
ENDBRANCH  92  96
ENDBRANCH  66  89
ENDBRANCH  40  41
ENDBRANCH  33  35
ENDBRANCH  32  33
ENDBRANCH  31  32
ENDBRANCH  30  31
ENDBRANCH  29  30
ENDBRANCH  28  29
ENDBRANCH   1  28
TORSDOF 23
ENDMDL
MODEL 2
REMARK VINA RESULT:     -12.0      1.481      3.386
REMARK SMILES Cc1ccc(NC(=O)C[C@@H]2C[NH2+]CCO2)c(C(=O)OCCOCCOCCOC(=O)c2ccc(-c3c4nc(c(-c5cc(S(=O)(=O)[O-])ccc5F)c5ccc([nH]5)c(-c5cc(S(=O)(=O)[O-])ccc5F)c5nc(c(-c6cc(S(=O)(=O)[O-])ccc6F)c6ccc3[nH]6)C=C5)C=C4)cc2)c1
REMARK SMILES IDX 23 1 22 2 21 3 20 4 19 5 17 6 18 7 16 8 1 9 2 10 3 11 94 12
REMARK SMILES IDX 4 13 5 14 6 15 7 16 8 18 9 19 10 20 11 21 15 22 12 23 14 24
REMARK SMILES IDX 13 25 24 28 25 29 26 30 27 31 28 32 29 33 30 34 31 35 32 36
REMARK SMILES IDX 93 37 33 38 92 39 34 40 35 41 36 42 86 43 37 44 91 45 85 46
REMARK SMILES IDX 87 47 38 48 90 49 84 50 83 51 39 53 71 54 51 55 70 56 52 57
REMARK SMILES IDX 55 58 69 59 88 60 53 61 54 62 68 64 89 65 56 66 40 67 41 68
REMARK SMILES IDX 49 69 42 70 48 71 50 72 47 73 43 74 44 75 45 76 46 77 72 78
REMARK SMILES IDX 73 79 81 80 74 81 80 82 82 83 79 84 75 85 76 86 77 87 78 88
REMARK SMILES IDX 57 89 58 90 66 91 59 92 65 93 67 94 64 95 60 96 61 97 62 98
REMARK SMILES IDX 63 99
REMARK H PARENT 6 17 12 26 12 27 87 52 55 63
REMARK Flexibility Score: inf
ROOT
ATOM      1  C   UNL A   1      35.963  23.378  25.774  1.00  0.00     0.188 C 
ENDROOT
BRANCH   1   2
ATOM      2  O   UNL A   1      34.684  23.868  26.238  1.00  0.00    -0.376 OA
BRANCH   2   3
ATOM      3  C   UNL A   1      33.637  23.100  26.852  1.00  0.00     0.202 C 
BRANCH   3   4
ATOM      4  C   UNL A   1      32.156  22.486  26.203  1.00  0.00     0.261 C 
BRANCH   4   5
ATOM      5  O   UNL A   1      30.979  23.088  25.018  1.00  0.00    -0.460 OA
BRANCH   5   6
ATOM      6  C   UNL A   1      30.852  24.165  24.027  1.00  0.00     0.340 C 
ATOM      7  O   UNL A   1      29.834  24.563  23.457  1.00  0.00    -0.246 OA
BRANCH   6   8
ATOM      8  C   UNL A   1      31.937  24.878  23.349  1.00  0.00     0.083 A 
ATOM      9  C   UNL A   1      32.712  25.649  19.746  1.00  0.00     0.044 C 
ATOM     10  C   UNL A   1      32.723  25.699  21.238  1.00  0.00    -0.050 A 
ATOM     11  C   UNL A   1      33.472  26.688  21.890  1.00  0.00     0.005 A 
ATOM     12  C   UNL A   1      31.959  24.788  21.967  1.00  0.00     0.021 A 
ATOM     13  C   UNL A   1      33.448  26.803  23.275  1.00  0.00     0.027 A 
ATOM     14  C   UNL A   1      32.699  25.911  24.036  1.00  0.00     0.055 A 
BRANCH  14  15
ATOM     15  N   UNL A   1      32.614  26.134  25.451  1.00  0.00    -0.325 N 
ATOM     16  C   UNL A   1      32.030  27.110  26.215  1.00  0.00     0.227 C 
ATOM     17  H   UNL A   1      33.068  25.441  25.983  1.00  0.00     0.169 HD
ATOM     18  O   UNL A   1      31.836  26.903  27.418  1.00  0.00    -0.275 OA
BRANCH  16  19
ATOM     19  C   UNL A   1      31.571  28.455  25.684  1.00  0.00     0.138 C 
BRANCH  19  20
ATOM     20  C   UNL A   1      32.526  29.651  25.803  1.00  0.00     0.182 C 
ATOM     21  C   UNL A   1      33.897  29.122  26.307  1.00  0.00     0.293 C 
ATOM     22  O   UNL A   1      31.969  30.646  26.655  1.00  0.00    -0.366 OA
ATOM     23  N   UNL A   1      34.824  30.168  26.780  1.00  0.00    -0.342 N 
ATOM     24  C   UNL A   1      32.872  31.636  27.113  1.00  0.00     0.222 C 
ATOM     25  C   UNL A   1      34.091  30.987  27.766  1.00  0.00     0.289 C 
ATOM     26  H   UNL A   1      35.124  30.749  25.997  1.00  0.00     0.346 HD
ATOM     27  H   UNL A   1      35.654  29.752  27.203  1.00  0.00     0.346 HD
ENDBRANCH  19  20
ENDBRANCH  16  19
ENDBRANCH  14  15
ENDBRANCH   6   8
ENDBRANCH   5   6
ENDBRANCH   4   5
ENDBRANCH   3   4
ENDBRANCH   2   3
ENDBRANCH   1   2
BRANCH   1  28
ATOM     28  C   UNL A   1      36.180  22.849  24.358  1.00  0.00     0.188 C 
BRANCH  28  29
ATOM     29  O   UNL A   1      37.402  22.140  24.290  1.00  0.00    -0.376 OA
BRANCH  29  30
ATOM     30  C   UNL A   1      37.791  21.452  25.456  1.00  0.00     0.202 C 
BRANCH  30  31
ATOM     31  C   UNL A   1      39.222  21.785  25.907  1.00  0.00     0.261 C 
BRANCH  31  32
ATOM     32  O   UNL A   1      39.261  22.847  26.893  1.00  0.00    -0.460 OA
BRANCH  32  33
ATOM     33  C   UNL A   1      40.396  23.651  26.926  1.00  0.00     0.338 C 
ATOM     34  O   UNL A   1      41.502  23.237  26.724  1.00  0.00    -0.246 OA
BRANCH  33  35
ATOM     35  C   UNL A   1      39.997  25.089  27.156  1.00  0.00     0.060 A 
ATOM     36  C   UNL A   1      40.447  26.248  26.501  1.00  0.00     0.016 A 
ATOM     37  C   UNL A   1      39.309  25.294  28.294  1.00  0.00     0.016 A 
ATOM     38  C   UNL A   1      40.370  27.579  27.126  1.00  0.00     0.010 A 
ATOM     39  C   UNL A   1      39.585  26.486  28.941  1.00  0.00     0.010 A 
ATOM     40  C   UNL A   1      40.015  27.762  28.468  1.00  0.00    -0.014 A 
BRANCH  40  41
ATOM     41  C   UNL A   1      40.163  29.212  29.411  1.00  0.00     0.031 A 
ATOM     42  C   UNL A   1      39.128  30.639  29.621  1.00  0.00     0.074 A 
ATOM     43  C   UNL A   1      41.361  29.426  29.999  1.00  0.00     0.049 A 
ATOM     44  N   UNL A   1      39.571  31.860  29.867  1.00  0.00    -0.248 NA
ATOM     45  C   UNL A   1      37.614  30.838  29.420  1.00  0.00     0.031 C 
ATOM     46  C   UNL A   1      41.688  30.414  31.024  1.00  0.00     0.029 A 
ATOM     47  N   UNL A   1      42.586  28.844  29.687  1.00  0.00    -0.354 N 
ATOM     48  C   UNL A   1      38.455  32.702  30.021  1.00  0.00     0.074 A 
ATOM     49  C   UNL A   1      37.390  32.131  29.325  1.00  0.00     0.031 C 
ATOM     50  C   UNL A   1      43.019  30.563  31.069  1.00  0.00     0.029 A 
ATOM     51  C   UNL A   1      43.575  29.795  29.976  1.00  0.00     0.049 A 
ATOM     52  H   UNL A   1      42.732  27.938  29.332  1.00  0.00     0.167 HD
ATOM     53  C   UNL A   1      38.359  33.664  30.975  1.00  0.00     0.034 A 
ATOM     54  C   UNL A   1      44.394  30.263  28.994  1.00  0.00     0.034 A 
ATOM     55  C   UNL A   1      39.689  34.115  31.267  1.00  0.00     0.049 A 
ATOM     56  C   UNL A   1      44.294  31.771  28.810  1.00  0.00     0.074 A 
ATOM     57  C   UNL A   1      40.565  33.930  32.312  1.00  0.00     0.029 A 
ATOM     58  N   UNL A   1      40.432  34.554  30.182  1.00  0.00    -0.354 N 
ATOM     59  N   UNL A   1      43.446  32.548  29.436  1.00  0.00    -0.248 NA
ATOM     60  C   UNL A   1      45.152  32.528  27.905  1.00  0.00     0.031 C 
ATOM     61  C   UNL A   1      41.879  34.111  31.782  1.00  0.00     0.029 A 
ATOM     62  C   UNL A   1      41.779  34.488  30.451  1.00  0.00     0.049 A 
ATOM     63  H   UNL A   1      40.047  34.871  29.334  1.00  0.00     0.167 HD
ATOM     64  C   UNL A   1      43.563  33.841  28.986  1.00  0.00     0.074 A 
ATOM     65  C   UNL A   1      44.689  33.779  28.071  1.00  0.00     0.031 C 
ATOM     66  C   UNL A   1      42.704  34.836  29.379  1.00  0.00     0.034 A 
BRANCH  53  67
ATOM     67  C   UNL A   1      37.065  34.053  31.719  1.00  0.00     0.023 A 
ATOM     68  C   UNL A   1      35.905  34.304  30.959  1.00  0.00     0.031 A 
ATOM     69  C   UNL A   1      36.917  34.352  33.109  1.00  0.00     0.131 A 
ATOM     70  C   UNL A   1      34.721  34.814  31.552  1.00  0.00     0.055 A 
ATOM     71  C   UNL A   1      35.721  34.788  33.704  1.00  0.00     0.041 A 
ATOM     72  F   UNL A   1      37.927  34.326  33.988  1.00  0.00    -0.206 F 
ATOM     73  C   UNL A   1      34.615  35.036  32.923  1.00  0.00     0.022 A 
BRANCH  70  74
ATOM     74  S   UNL A   1      33.323  35.283  30.496  1.00  0.00     0.124 S 
ATOM     75  O   UNL A   1      33.301  34.197  29.522  1.00  0.00    -0.237 OA
ATOM     76  O   UNL A   1      32.220  35.331  31.448  1.00  0.00    -0.237 OA
ATOM     77  O   UNL A   1      33.725  36.583  29.955  1.00  0.00    -0.744 OA
ENDBRANCH  70  74
ENDBRANCH  53  67
BRANCH  54  78
ATOM     78  C   UNL A   1      44.690  29.224  27.952  1.00  0.00     0.023 A 
ATOM     79  C   UNL A   1      45.586  28.179  28.301  1.00  0.00     0.031 A 
ATOM     80  C   UNL A   1      43.854  29.009  26.852  1.00  0.00     0.131 A 
ATOM     81  C   UNL A   1      45.504  26.923  27.677  1.00  0.00     0.055 A 
ATOM     82  C   UNL A   1      43.838  27.777  26.175  1.00  0.00     0.041 A 
ATOM     83  F   UNL A   1      42.953  29.939  26.508  1.00  0.00    -0.206 F 
ATOM     84  C   UNL A   1      44.631  26.715  26.612  1.00  0.00     0.022 A 
BRANCH  81  85
ATOM     85  S   UNL A   1      46.308  25.477  28.439  1.00  0.00     0.124 S 
ATOM     86  O   UNL A   1      47.714  25.706  28.126  1.00  0.00    -0.237 OA
ATOM     87  O   UNL A   1      45.946  25.587  29.850  1.00  0.00    -0.237 OA
ATOM     88  O   UNL A   1      45.679  24.354  27.747  1.00  0.00    -0.744 OA
ENDBRANCH  81  85
ENDBRANCH  54  78
BRANCH  66  89
ATOM     89  C   UNL A   1      42.604  36.240  28.785  1.00  0.00     0.023 A 
ATOM     90  C   UNL A   1      43.106  37.388  29.407  1.00  0.00     0.031 A 
ATOM     91  C   UNL A   1      42.037  36.456  27.497  1.00  0.00     0.131 A 
ATOM     92  C   UNL A   1      42.957  38.661  28.824  1.00  0.00     0.055 A 
ATOM     93  C   UNL A   1      42.004  37.703  26.865  1.00  0.00     0.041 A 
ATOM     94  F   UNL A   1      41.482  35.464  26.785  1.00  0.00    -0.206 F 
ATOM     95  C   UNL A   1      42.444  38.825  27.540  1.00  0.00     0.022 A 
BRANCH  92  96
ATOM     96  S   UNL A   1      43.315  40.113  29.845  1.00  0.00     0.124 S 
ATOM     97  O   UNL A   1      43.692  39.499  31.117  1.00  0.00    -0.237 OA
ATOM     98  O   UNL A   1      44.396  40.758  29.108  1.00  0.00    -0.237 OA
ATOM     99  O   UNL A   1      42.050  40.844  29.865  1.00  0.00    -0.744 OA
ENDBRANCH  92  96
ENDBRANCH  66  89
ENDBRANCH  40  41
ENDBRANCH  33  35
ENDBRANCH  32  33
ENDBRANCH  31  32
ENDBRANCH  30  31
ENDBRANCH  29  30
ENDBRANCH  28  29
ENDBRANCH   1  28
TORSDOF 23
ENDMDL
MODEL 3
REMARK VINA RESULT:     -11.6      3.751      5.204
REMARK SMILES Cc1ccc(NC(=O)C[C@@H]2C[NH2+]CCO2)c(C(=O)OCCOCCOCCOC(=O)c2ccc(-c3c4nc(c(-c5cc(S(=O)(=O)[O-])ccc5F)c5ccc([nH]5)c(-c5cc(S(=O)(=O)[O-])ccc5F)c5nc(c(-c6cc(S(=O)(=O)[O-])ccc6F)c6ccc3[nH]6)C=C5)C=C4)cc2)c1
REMARK SMILES IDX 23 1 22 2 21 3 20 4 19 5 17 6 18 7 16 8 1 9 2 10 3 11 94 12
REMARK SMILES IDX 4 13 5 14 6 15 7 16 8 18 9 19 10 20 11 21 15 22 12 23 14 24
REMARK SMILES IDX 13 25 24 28 25 29 26 30 27 31 28 32 29 33 30 34 31 35 32 36
REMARK SMILES IDX 93 37 33 38 92 39 34 40 35 41 36 42 86 43 37 44 91 45 85 46
REMARK SMILES IDX 87 47 38 48 90 49 84 50 83 51 39 53 71 54 51 55 70 56 52 57
REMARK SMILES IDX 55 58 69 59 88 60 53 61 54 62 68 64 89 65 56 66 40 67 41 68
REMARK SMILES IDX 49 69 42 70 48 71 50 72 47 73 43 74 44 75 45 76 46 77 72 78
REMARK SMILES IDX 73 79 81 80 74 81 80 82 82 83 79 84 75 85 76 86 77 87 78 88
REMARK SMILES IDX 57 89 58 90 66 91 59 92 65 93 67 94 64 95 60 96 61 97 62 98
REMARK SMILES IDX 63 99
REMARK H PARENT 6 17 12 26 12 27 87 52 55 63
REMARK Flexibility Score: inf
ROOT
ATOM      1  C   UNL A   1      40.962  21.957  26.769  1.00  0.00     0.188 C 
ENDROOT
BRANCH   1   2
ATOM      2  O   UNL A   1      40.295  23.179  26.377  1.00  0.00    -0.376 OA
BRANCH   2   3
ATOM      3  C   UNL A   1      38.882  23.439  26.406  1.00  0.00     0.202 C 
BRANCH   3   4
ATOM      4  C   UNL A   1      37.572  22.653  25.596  1.00  0.00     0.261 C 
BRANCH   4   5
ATOM      5  O   UNL A   1      35.953  23.162  25.075  1.00  0.00    -0.460 OA
BRANCH   5   6
ATOM      6  C   UNL A   1      35.246  23.522  23.839  1.00  0.00     0.340 C 
ATOM      7  O   UNL A   1      35.585  23.304  22.674  1.00  0.00    -0.246 OA
BRANCH   6   8
ATOM      8  C   UNL A   1      34.074  24.391  23.708  1.00  0.00     0.083 A 
ATOM      9  C   UNL A   1      33.543  28.114  23.892  1.00  0.00     0.044 C 
ATOM     10  C   UNL A   1      33.324  26.666  23.605  1.00  0.00    -0.050 A 
ATOM     11  C   UNL A   1      32.194  26.270  22.876  1.00  0.00     0.005 A 
ATOM     12  C   UNL A   1      34.264  25.725  24.027  1.00  0.00     0.021 A 
ATOM     13  C   UNL A   1      31.997  24.938  22.534  1.00  0.00     0.027 A 
ATOM     14  C   UNL A   1      32.911  23.970  22.939  1.00  0.00     0.055 A 
BRANCH  14  15
ATOM     15  N   UNL A   1      32.729  22.627  22.471  1.00  0.00    -0.325 N 
ATOM     16  C   UNL A   1      32.253  21.484  23.058  1.00  0.00     0.227 C 
ATOM     17  H   UNL A   1      33.002  22.500  21.534  1.00  0.00     0.169 HD
ATOM     18  O   UNL A   1      31.910  20.534  22.346  1.00  0.00    -0.275 OA
BRANCH  16  19
ATOM     19  C   UNL A   1      32.089  21.292  24.554  1.00  0.00     0.138 C 
BRANCH  19  20
ATOM     20  C   UNL A   1      32.760  20.078  25.212  1.00  0.00     0.182 C 
ATOM     21  C   UNL A   1      34.201  19.961  24.645  1.00  0.00     0.293 C 
ATOM     22  O   UNL A   1      31.982  18.905  24.997  1.00  0.00    -0.366 OA
ATOM     23  N   UNL A   1      34.869  18.675  24.924  1.00  0.00    -0.342 N 
ATOM     24  C   UNL A   1      32.640  17.678  25.255  1.00  0.00     0.222 C 
ATOM     25  C   UNL A   1      33.955  17.603  24.483  1.00  0.00     0.289 C 
ATOM     26  H   UNL A   1      35.055  18.588  25.922  1.00  0.00     0.346 HD
ATOM     27  H   UNL A   1      35.760  18.616  24.430  1.00  0.00     0.346 HD
ENDBRANCH  19  20
ENDBRANCH  16  19
ENDBRANCH  14  15
ENDBRANCH   6   8
ENDBRANCH   5   6
ENDBRANCH   4   5
ENDBRANCH   3   4
ENDBRANCH   2   3
ENDBRANCH   1   2
BRANCH   1  28
ATOM     28  C   UNL A   1      41.878  21.871  27.987  1.00  0.00     0.188 C 
BRANCH  28  29
ATOM     29  O   UNL A   1      42.595  23.081  28.137  1.00  0.00    -0.376 OA
BRANCH  29  30
ATOM     30  C   UNL A   1      43.793  23.193  27.405  1.00  0.00     0.202 C 
BRANCH  30  31
ATOM     31  C   UNL A   1      43.855  24.460  26.537  1.00  0.00     0.261 C 
BRANCH  31  32
ATOM     32  O   UNL A   1      42.821  25.417  26.875  1.00  0.00    -0.460 OA
BRANCH  32  33
ATOM     33  C   UNL A   1      42.453  26.337  25.899  1.00  0.00     0.338 C 
ATOM     34  O   UNL A   1      42.528  26.116  24.724  1.00  0.00    -0.246 OA
BRANCH  33  35
ATOM     35  C   UNL A   1      41.878  27.572  26.551  1.00  0.00     0.060 A 
ATOM     36  C   UNL A   1      42.506  28.497  27.402  1.00  0.00     0.016 A 
ATOM     37  C   UNL A   1      40.536  27.648  26.500  1.00  0.00     0.016 A 
ATOM     38  C   UNL A   1      41.745  29.338  28.341  1.00  0.00     0.010 A 
ATOM     39  C   UNL A   1      39.934  28.196  27.619  1.00  0.00     0.010 A 
ATOM     40  C   UNL A   1      40.377  29.153  28.580  1.00  0.00    -0.014 A 
BRANCH  40  41
ATOM     41  C   UNL A   1      39.423  29.855  29.849  1.00  0.00     0.031 A 
ATOM     42  C   UNL A   1      38.628  31.429  30.047  1.00  0.00     0.074 A 
ATOM     43  C   UNL A   1      39.378  29.170  31.014  1.00  0.00     0.049 A 
ATOM     44  N   UNL A   1      38.452  32.043  31.204  1.00  0.00    -0.248 NA
ATOM     45  C   UNL A   1      38.143  32.463  29.012  1.00  0.00     0.031 C 
ATOM     46  C   UNL A   1      38.480  29.392  32.144  1.00  0.00     0.029 A 
ATOM     47  N   UNL A   1      40.246  28.179  31.461  1.00  0.00    -0.354 N 
ATOM     48  C   UNL A   1      37.741  33.232  30.959  1.00  0.00     0.074 A 
ATOM     49  C   UNL A   1      37.982  33.609  29.638  1.00  0.00     0.031 C 
ATOM     50  C   UNL A   1      38.985  28.780  33.223  1.00  0.00     0.029 A 
ATOM     51  C   UNL A   1      40.293  28.278  32.859  1.00  0.00     0.049 A 
ATOM     52  H   UNL A   1      40.733  27.531  30.904  1.00  0.00     0.167 HD
ATOM     53  C   UNL A   1      36.731  33.685  31.745  1.00  0.00     0.034 A 
ATOM     54  C   UNL A   1      41.467  28.547  33.494  1.00  0.00     0.034 A 
ATOM     55  C   UNL A   1      36.979  33.218  33.079  1.00  0.00     0.049 A 
ATOM     56  C   UNL A   1      41.413  29.822  34.323  1.00  0.00     0.074 A 
ATOM     57  C   UNL A   1      36.433  32.238  33.876  1.00  0.00     0.029 A 
ATOM     58  N   UNL A   1      38.216  33.540  33.613  1.00  0.00    -0.354 N 
ATOM     59  N   UNL A   1      40.400  30.651  34.357  1.00  0.00    -0.248 NA
ATOM     60  C   UNL A   1      42.500  30.264  35.189  1.00  0.00     0.031 C 
ATOM     61  C   UNL A   1      37.445  31.862  34.812  1.00  0.00     0.029 A 
ATOM     62  C   UNL A   1      38.554  32.674  34.626  1.00  0.00     0.049 A 
ATOM     63  H   UNL A   1      38.778  34.289  33.309  1.00  0.00     0.167 HD
ATOM     64  C   UNL A   1      40.702  31.740  35.138  1.00  0.00     0.074 A 
ATOM     65  C   UNL A   1      42.008  31.413  35.682  1.00  0.00     0.031 C 
ATOM     66  C   UNL A   1      39.868  32.825  35.240  1.00  0.00     0.034 A 
BRANCH  53  67
ATOM     67  C   UNL A   1      35.467  34.414  31.239  1.00  0.00     0.023 A 
ATOM     68  C   UNL A   1      34.940  35.460  32.022  1.00  0.00     0.031 A 
ATOM     69  C   UNL A   1      34.645  34.058  30.125  1.00  0.00     0.131 A 
ATOM     70  C   UNL A   1      33.700  36.074  31.707  1.00  0.00     0.055 A 
ATOM     71  C   UNL A   1      33.455  34.718  29.776  1.00  0.00     0.041 A 
ATOM     72  F   UNL A   1      34.878  33.003  29.335  1.00  0.00    -0.206 F 
ATOM     73  C   UNL A   1      32.966  35.724  30.577  1.00  0.00     0.022 A 
BRANCH  70  74
ATOM     74  S   UNL A   1      32.990  37.291  32.851  1.00  0.00     0.124 S 
ATOM     75  O   UNL A   1      33.903  37.209  33.986  1.00  0.00    -0.237 OA
ATOM     76  O   UNL A   1      33.034  38.516  32.062  1.00  0.00    -0.237 OA
ATOM     77  O   UNL A   1      31.645  36.773  33.107  1.00  0.00    -0.744 OA
ENDBRANCH  70  74
ENDBRANCH  53  67
BRANCH  54  78
ATOM     78  C   UNL A   1      42.651  27.958  32.782  1.00  0.00     0.023 A 
ATOM     79  C   UNL A   1      43.288  28.754  31.795  1.00  0.00     0.031 A 
ATOM     80  C   UNL A   1      43.376  26.882  33.303  1.00  0.00     0.131 A 
ATOM     81  C   UNL A   1      44.647  28.573  31.492  1.00  0.00     0.055 A 
ATOM     82  C   UNL A   1      44.713  26.652  32.930  1.00  0.00     0.041 A 
ATOM     83  F   UNL A   1      42.845  26.127  34.273  1.00  0.00    -0.206 F 
ATOM     84  C   UNL A   1      45.367  27.523  32.057  1.00  0.00     0.022 A 
BRANCH  81  85
ATOM     85  S   UNL A   1      45.561  29.874  30.603  1.00  0.00     0.124 S 
ATOM     86  O   UNL A   1      44.797  31.071  30.938  1.00  0.00    -0.237 OA
ATOM     87  O   UNL A   1      46.905  29.800  31.171  1.00  0.00    -0.237 OA
ATOM     88  O   UNL A   1      45.476  29.438  29.210  1.00  0.00    -0.744 OA
ENDBRANCH  81  85
ENDBRANCH  54  78
BRANCH  66  89
ATOM     89  C   UNL A   1      40.193  34.166  35.896  1.00  0.00     0.023 A 
ATOM     90  C   UNL A   1      40.354  34.343  37.274  1.00  0.00     0.031 A 
ATOM     91  C   UNL A   1      40.425  35.332  35.112  1.00  0.00     0.131 A 
ATOM     92  C   UNL A   1      40.624  35.611  37.823  1.00  0.00     0.055 A 
ATOM     93  C   UNL A   1      40.816  36.561  35.650  1.00  0.00     0.041 A 
ATOM     94  F   UNL A   1      40.278  35.337  33.778  1.00  0.00    -0.206 F 
ATOM     95  C   UNL A   1      40.894  36.716  37.021  1.00  0.00     0.022 A 
BRANCH  92  96
ATOM     96  S   UNL A   1      40.468  35.813  39.616  1.00  0.00     0.124 S 
ATOM     97  O   UNL A   1      39.235  35.080  39.894  1.00  0.00    -0.237 OA
ATOM     98  O   UNL A   1      41.696  35.201  40.110  1.00  0.00    -0.237 OA
ATOM     99  O   UNL A   1      40.377  37.261  39.794  1.00  0.00    -0.744 OA
ENDBRANCH  92  96
ENDBRANCH  66  89
ENDBRANCH  40  41
ENDBRANCH  33  35
ENDBRANCH  32  33
ENDBRANCH  31  32
ENDBRANCH  30  31
ENDBRANCH  29  30
ENDBRANCH  28  29
ENDBRANCH   1  28
TORSDOF 23
ENDMDL
