MODEL 1
REMARK VINA RESULT:      -9.0      0.000      0.000
REMARK SMILES C[C@](NC(=O)[C@](C)([NH3+])C(F)(F)F)(C(=O)OCCOCCOCCOC(=O)c1ccc(-c2c3nc(c(-c4cc(S(=O)(=O)[O-])ccc4F)c4ccc([nH]4)c(-c4cc(S(=O)(=O)[O-])ccc4F)c4nc(c(-c5cc(S(=O)(=O)[O-])ccc5F)c5ccc2[nH]5)C=C4)C=C3)cc1)c1ccccc1
REMARK SMILES IDX 19 1 18 2 17 3 16 4 15 5 13 6 14 7 2 8 1 9 90 10 91 11 95 12
REMARK SMILES IDX 92 13 94 14 93 15 3 16 4 17 5 19 6 20 7 21 8 22 9 26 10 27
REMARK SMILES IDX 11 28 12 29 20 30 21 31 22 32 23 33 24 34 25 35 26 36 27 37
REMARK SMILES IDX 28 38 89 39 29 40 88 41 30 42 31 43 32 44 82 45 33 46 87 47
REMARK SMILES IDX 81 48 83 49 34 50 86 51 80 52 79 53 35 55 67 56 47 57 66 58
REMARK SMILES IDX 48 59 51 60 65 61 84 62 49 63 50 64 64 66 85 67 52 68 36 69
REMARK SMILES IDX 37 70 45 71 38 72 44 73 46 74 43 75 39 76 40 77 41 78 42 79
REMARK SMILES IDX 68 80 69 81 77 82 70 83 76 84 78 85 75 86 71 87 72 88 73 89
REMARK SMILES IDX 74 90 53 91 54 92 62 93 55 94 61 95 63 96 60 97 56 98 57 99
REMARK SMILES IDX 58 100 59 101
REMARK H PARENT 3 18 8 23 8 24 8 25 83 54 51 65
REMARK Flexibility Score: inf
ROOT
ATOM      1  C   UNL A   1      37.297  22.503  25.801  1.00  0.00     0.188 C 
ENDROOT
BRANCH   1   2
ATOM      2  O   UNL A   1      37.127  23.447  24.750  1.00  0.00    -0.376 OA
BRANCH   2   3
ATOM      3  C   UNL A   1      36.751  22.901  23.480  1.00  0.00     0.202 C 
BRANCH   3   4
ATOM      4  C   UNL A   1      35.234  22.842  23.266  1.00  0.00     0.261 C 
BRANCH   4   5
ATOM      5  O   UNL A   1      34.780  24.180  22.974  1.00  0.00    -0.461 OA
BRANCH   5   6
ATOM      6  C   UNL A   1      33.567  24.325  22.395  1.00  0.00     0.336 C 
ATOM      7  O   UNL A   1      33.219  23.695  21.402  1.00  0.00    -0.249 OA
BRANCH   6   8
ATOM      8  C   UNL A   1      32.666  25.381  23.166  1.00  0.00     0.161 C 
ATOM      9  C   UNL A   1      31.421  25.622  22.295  1.00  0.00     0.053 C 
BRANCH   8  10
ATOM     10  C   UNL A   1      32.232  24.654  24.513  1.00  0.00    -0.012 A 
ATOM     11  C   UNL A   1      33.068  24.542  25.651  1.00  0.00     0.007 A 
ATOM     12  C   UNL A   1      30.982  24.005  24.597  1.00  0.00     0.007 A 
ATOM     13  C   UNL A   1      32.660  23.849  26.801  1.00  0.00     0.000 A 
ATOM     14  C   UNL A   1      30.594  23.281  25.733  1.00  0.00     0.000 A 
ATOM     15  C   UNL A   1      31.431  23.206  26.837  1.00  0.00     0.000 A 
ENDBRANCH   8  10
BRANCH   8  16
ATOM     16  N   UNL A   1      33.214  26.748  23.539  1.00  0.00    -0.331 N 
ATOM     17  C   UNL A   1      33.039  27.852  24.278  1.00  0.00     0.291 C 
ATOM     18  H   UNL A   1      34.043  26.875  23.023  1.00  0.00     0.165 HD
ATOM     19  O   UNL A   1      34.124  28.463  24.403  1.00  0.00    -0.267 OA
BRANCH  17  20
ATOM     20  C   UNL A   1      31.847  28.408  25.099  1.00  0.00     0.267 C 
ATOM     21  C   UNL A   1      30.555  28.030  24.318  1.00  0.00     0.100 C 
BRANCH  20  22
ATOM     22  N   UNL A   1      31.937  29.918  25.041  1.00  0.00    -0.337 N 
ATOM     23  H   UNL A   1      32.888  30.211  25.265  1.00  0.00     0.345 HD
ATOM     24  H   UNL A   1      31.289  30.324  25.717  1.00  0.00     0.345 HD
ATOM     25  H   UNL A   1      31.694  30.238  24.103  1.00  0.00     0.345 HD
ENDBRANCH  20  22
BRANCH  20  26
ATOM     26  C   UNL A   1      31.671  27.854  26.508  1.00  0.00     0.453 C 
ATOM     27  F   UNL A   1      31.234  28.817  27.366  1.00  0.00    -0.164 F 
ATOM     28  F   UNL A   1      30.739  26.882  26.560  1.00  0.00    -0.164 F 
ATOM     29  F   UNL A   1      32.835  27.404  27.023  1.00  0.00    -0.164 F 
ENDBRANCH  20  26
ENDBRANCH  17  20
ENDBRANCH   8  16
ENDBRANCH   6   8
ENDBRANCH   5   6
ENDBRANCH   4   5
ENDBRANCH   3   4
ENDBRANCH   2   3
ENDBRANCH   1   2
BRANCH   1  30
ATOM     30  C   UNL A   1      38.080  21.256  25.438  1.00  0.00     0.188 C 
BRANCH  30  31
ATOM     31  O   UNL A   1      39.495  21.308  25.576  1.00  0.00    -0.376 OA
BRANCH  31  32
ATOM     32  C   UNL A   1      39.913  21.818  26.851  1.00  0.00     0.202 C 
BRANCH  32  33
ATOM     33  C   UNL A   1      40.895  23.011  26.800  1.00  0.00     0.261 C 
BRANCH  33  34
ATOM     34  O   UNL A   1      41.924  22.836  25.800  1.00  0.00    -0.460 OA
BRANCH  34  35
ATOM     35  C   UNL A   1      43.206  22.887  26.266  1.00  0.00     0.338 C 
ATOM     36  O   UNL A   1      44.032  22.001  26.185  1.00  0.00    -0.246 OA
BRANCH  35  37
ATOM     37  C   UNL A   1      43.556  24.289  26.644  1.00  0.00     0.060 A 
ATOM     38  C   UNL A   1      43.975  24.511  27.966  1.00  0.00     0.016 A 
ATOM     39  C   UNL A   1      43.536  25.355  25.739  1.00  0.00     0.016 A 
ATOM     40  C   UNL A   1      44.323  25.794  28.395  1.00  0.00     0.010 A 
ATOM     41  C   UNL A   1      43.875  26.647  26.176  1.00  0.00     0.010 A 
ATOM     42  C   UNL A   1      44.243  26.879  27.514  1.00  0.00    -0.014 A 
BRANCH  42  43
ATOM     43  C   UNL A   1      44.286  28.262  28.065  1.00  0.00     0.031 A 
ATOM     44  C   UNL A   1      42.993  28.847  28.573  1.00  0.00     0.074 A 
ATOM     45  C   UNL A   1      45.429  28.966  28.175  1.00  0.00     0.049 A 
ATOM     46  N   UNL A   1      42.745  30.036  29.056  1.00  0.00    -0.248 NA
ATOM     47  C   UNL A   1      41.823  27.955  28.532  1.00  0.00     0.031 C 
ATOM     48  C   UNL A   1      46.759  28.489  27.802  1.00  0.00     0.029 A 
ATOM     49  N   UNL A   1      45.651  30.242  28.640  1.00  0.00    -0.354 N 
ATOM     50  C   UNL A   1      41.392  30.033  29.384  1.00  0.00     0.074 A 
ATOM     51  C   UNL A   1      40.869  28.738  29.005  1.00  0.00     0.031 C 
ATOM     52  C   UNL A   1      47.655  29.465  28.037  1.00  0.00     0.029 A 
ATOM     53  C   UNL A   1      46.961  30.653  28.540  1.00  0.00     0.049 A 
ATOM     54  H   UNL A   1      44.938  30.809  29.012  1.00  0.00     0.167 HD
ATOM     55  C   UNL A   1      40.653  31.015  29.956  1.00  0.00     0.034 A 
ATOM     56  C   UNL A   1      47.524  31.856  28.792  1.00  0.00     0.034 A 
ATOM     57  C   UNL A   1      41.171  32.317  30.291  1.00  0.00     0.049 A 
ATOM     58  C   UNL A   1      46.648  32.986  29.296  1.00  0.00     0.074 A 
ATOM     59  C   UNL A   1      40.498  33.401  30.829  1.00  0.00     0.029 A 
ATOM     60  N   UNL A   1      42.487  32.718  30.108  1.00  0.00    -0.354 N 
ATOM     61  N   UNL A   1      45.365  32.978  29.581  1.00  0.00    -0.248 NA
ATOM     62  C   UNL A   1      47.298  34.286  29.516  1.00  0.00     0.031 C 
ATOM     63  C   UNL A   1      41.388  34.477  30.899  1.00  0.00     0.029 A 
ATOM     64  C   UNL A   1      42.640  34.041  30.494  1.00  0.00     0.049 A 
ATOM     65  H   UNL A   1      43.207  32.147  29.756  1.00  0.00     0.167 HD
ATOM     66  C   UNL A   1      45.070  34.259  30.052  1.00  0.00     0.074 A 
ATOM     67  C   UNL A   1      46.311  35.004  30.027  1.00  0.00     0.031 C 
ATOM     68  C   UNL A   1      43.884  34.774  30.468  1.00  0.00     0.034 A 
BRANCH  55  69
ATOM     69  C   UNL A   1      39.190  30.723  30.187  1.00  0.00     0.023 A 
ATOM     70  C   UNL A   1      38.204  31.136  29.274  1.00  0.00     0.031 A 
ATOM     71  C   UNL A   1      38.770  30.072  31.360  1.00  0.00     0.131 A 
ATOM     72  C   UNL A   1      36.847  30.965  29.586  1.00  0.00     0.055 A 
ATOM     73  C   UNL A   1      37.422  29.827  31.623  1.00  0.00     0.041 A 
ATOM     74  F   UNL A   1      39.665  29.681  32.282  1.00  0.00    -0.206 F 
ATOM     75  C   UNL A   1      36.450  30.289  30.741  1.00  0.00     0.022 A 
BRANCH  72  76
ATOM     76  S   UNL A   1      35.610  31.782  28.540  1.00  0.00     0.124 S 
ATOM     77  O   UNL A   1      36.362  32.929  28.037  1.00  0.00    -0.237 OA
ATOM     78  O   UNL A   1      35.290  30.748  27.562  1.00  0.00    -0.237 OA
ATOM     79  O   UNL A   1      34.536  32.112  29.475  1.00  0.00    -0.744 OA
ENDBRANCH  72  76
ENDBRANCH  55  69
BRANCH  56  80
ATOM     80  C   UNL A   1      48.975  32.103  28.519  1.00  0.00     0.023 A 
ATOM     81  C   UNL A   1      49.407  32.668  27.306  1.00  0.00     0.031 A 
ATOM     82  C   UNL A   1      49.962  31.672  29.424  1.00  0.00     0.131 A 
ATOM     83  C   UNL A   1      50.778  32.726  27.005  1.00  0.00     0.055 A 
ATOM     84  C   UNL A   1      51.326  31.793  29.148  1.00  0.00     0.041 A 
ATOM     85  F   UNL A   1      49.615  31.109  30.592  1.00  0.00    -0.206 F 
ATOM     86  C   UNL A   1      51.741  32.306  27.924  1.00  0.00     0.022 A 
BRANCH  83  87
ATOM     87  S   UNL A   1      51.283  33.237  25.338  1.00  0.00     0.124 S 
ATOM     88  O   UNL A   1      52.560  33.889  25.604  1.00  0.00    -0.237 OA
ATOM     89  O   UNL A   1      51.349  31.958  24.637  1.00  0.00    -0.237 OA
ATOM     90  O   UNL A   1      50.204  34.124  24.912  1.00  0.00    -0.744 OA
ENDBRANCH  83  87
ENDBRANCH  56  80
BRANCH  68  91
ATOM     91  C   UNL A   1      43.885  36.192  30.994  1.00  0.00     0.023 A 
ATOM     92  C   UNL A   1      43.766  37.306  30.144  1.00  0.00     0.031 A 
ATOM     93  C   UNL A   1      44.014  36.431  32.375  1.00  0.00     0.131 A 
ATOM     94  C   UNL A   1      43.841  38.603  30.674  1.00  0.00     0.055 A 
ATOM     95  C   UNL A   1      44.017  37.722  32.904  1.00  0.00     0.041 A 
ATOM     96  F   UNL A   1      44.134  35.408  33.237  1.00  0.00    -0.206 F 
ATOM     97  C   UNL A   1      43.945  38.818  32.051  1.00  0.00     0.022 A 
BRANCH  94  98
ATOM     98  S   UNL A   1      43.908  40.010  29.531  1.00  0.00     0.124 S 
ATOM     99  O   UNL A   1      42.837  39.691  28.593  1.00  0.00    -0.237 OA
ATOM    100  O   UNL A   1      43.663  41.144  30.417  1.00  0.00    -0.237 OA
ATOM    101  O   UNL A   1      45.259  39.939  28.977  1.00  0.00    -0.744 OA
ENDBRANCH  94  98
ENDBRANCH  68  91
ENDBRANCH  42  43
ENDBRANCH  35  37
ENDBRANCH  34  35
ENDBRANCH  33  34
ENDBRANCH  32  33
ENDBRANCH  31  32
ENDBRANCH  30  31
ENDBRANCH   1  30
TORSDOF 25
ENDMDL
MODEL 2
REMARK VINA RESULT:      -8.8      1.511      2.059
REMARK SMILES C[C@](NC(=O)[C@](C)([NH3+])C(F)(F)F)(C(=O)OCCOCCOCCOC(=O)c1ccc(-c2c3nc(c(-c4cc(S(=O)(=O)[O-])ccc4F)c4ccc([nH]4)c(-c4cc(S(=O)(=O)[O-])ccc4F)c4nc(c(-c5cc(S(=O)(=O)[O-])ccc5F)c5ccc2[nH]5)C=C4)C=C3)cc1)c1ccccc1
REMARK SMILES IDX 19 1 18 2 17 3 16 4 15 5 13 6 14 7 2 8 1 9 90 10 91 11 95 12
REMARK SMILES IDX 92 13 94 14 93 15 3 16 4 17 5 19 6 20 7 21 8 22 9 26 10 27
REMARK SMILES IDX 11 28 12 29 20 30 21 31 22 32 23 33 24 34 25 35 26 36 27 37
REMARK SMILES IDX 28 38 89 39 29 40 88 41 30 42 31 43 32 44 82 45 33 46 87 47
REMARK SMILES IDX 81 48 83 49 34 50 86 51 80 52 79 53 35 55 67 56 47 57 66 58
REMARK SMILES IDX 48 59 51 60 65 61 84 62 49 63 50 64 64 66 85 67 52 68 36 69
REMARK SMILES IDX 37 70 45 71 38 72 44 73 46 74 43 75 39 76 40 77 41 78 42 79
REMARK SMILES IDX 68 80 69 81 77 82 70 83 76 84 78 85 75 86 71 87 72 88 73 89
REMARK SMILES IDX 74 90 53 91 54 92 62 93 55 94 61 95 63 96 60 97 56 98 57 99
REMARK SMILES IDX 58 100 59 101
REMARK H PARENT 3 18 8 23 8 24 8 25 83 54 51 65
REMARK Flexibility Score: inf
ROOT
ATOM      1  C   UNL A   1      37.310  22.812  25.993  1.00  0.00     0.188 C 
ENDROOT
BRANCH   1   2
ATOM      2  O   UNL A   1      37.033  23.693  24.912  1.00  0.00    -0.376 OA
BRANCH   2   3
ATOM      3  C   UNL A   1      36.836  23.070  23.637  1.00  0.00     0.202 C 
BRANCH   3   4
ATOM      4  C   UNL A   1      35.359  22.899  23.263  1.00  0.00     0.261 C 
BRANCH   4   5
ATOM      5  O   UNL A   1      34.848  24.194  22.887  1.00  0.00    -0.461 OA
BRANCH   5   6
ATOM      6  C   UNL A   1      33.596  24.259  22.383  1.00  0.00     0.336 C 
ATOM      7  O   UNL A   1      33.211  23.559  21.452  1.00  0.00    -0.249 OA
BRANCH   6   8
ATOM      8  C   UNL A   1      32.703  25.324  23.152  1.00  0.00     0.161 C 
ATOM      9  C   UNL A   1      31.459  25.571  22.282  1.00  0.00     0.053 C 
BRANCH   8  10
ATOM     10  C   UNL A   1      32.266  24.604  24.502  1.00  0.00    -0.012 A 
ATOM     11  C   UNL A   1      30.955  24.129  24.753  1.00  0.00     0.007 A 
ATOM     12  C   UNL A   1      33.185  24.477  25.566  1.00  0.00     0.007 A 
ATOM     13  C   UNL A   1      30.604  23.544  25.978  1.00  0.00     0.000 A 
ATOM     14  C   UNL A   1      32.819  23.928  26.802  1.00  0.00     0.000 A 
ATOM     15  C   UNL A   1      31.530  23.456  27.008  1.00  0.00     0.000 A 
ENDBRANCH   8  10
BRANCH   8  16
ATOM     16  N   UNL A   1      33.261  26.687  23.520  1.00  0.00    -0.331 N 
ATOM     17  C   UNL A   1      33.089  27.800  24.248  1.00  0.00     0.291 C 
ATOM     18  H   UNL A   1      34.096  26.803  23.012  1.00  0.00     0.165 HD
ATOM     19  O   UNL A   1      34.179  28.401  24.380  1.00  0.00    -0.267 OA
BRANCH  17  20
ATOM     20  C   UNL A   1      31.894  28.374  25.052  1.00  0.00     0.267 C 
ATOM     21  C   UNL A   1      30.607  28.003  24.259  1.00  0.00     0.100 C 
BRANCH  20  22
ATOM     22  N   UNL A   1      32.000  29.883  24.983  1.00  0.00    -0.337 N 
ATOM     23  H   UNL A   1      32.812  30.141  24.423  1.00  0.00     0.345 HD
ATOM     24  H   UNL A   1      32.104  30.261  25.925  1.00  0.00     0.345 HD
ATOM     25  H   UNL A   1      31.156  30.264  24.555  1.00  0.00     0.345 HD
ENDBRANCH  20  22
BRANCH  20  26
ATOM     26  C   UNL A   1      31.697  27.834  26.463  1.00  0.00     0.453 C 
ATOM     27  F   UNL A   1      31.308  28.818  27.319  1.00  0.00    -0.164 F 
ATOM     28  F   UNL A   1      30.722  26.905  26.521  1.00  0.00    -0.164 F 
ATOM     29  F   UNL A   1      32.841  27.332  26.975  1.00  0.00    -0.164 F 
ENDBRANCH  20  26
ENDBRANCH  17  20
ENDBRANCH   8  16
ENDBRANCH   6   8
ENDBRANCH   5   6
ENDBRANCH   4   5
ENDBRANCH   3   4
ENDBRANCH   2   3
ENDBRANCH   1   2
BRANCH   1  30
ATOM     30  C   UNL A   1      38.441  21.829  25.760  1.00  0.00     0.188 C 
BRANCH  30  31
ATOM     31  O   UNL A   1      39.770  22.321  25.879  1.00  0.00    -0.376 OA
BRANCH  31  32
ATOM     32  C   UNL A   1      40.024  22.946  27.145  1.00  0.00     0.202 C 
BRANCH  32  33
ATOM     33  C   UNL A   1      40.277  24.470  27.095  1.00  0.00     0.261 C 
BRANCH  33  34
ATOM     34  O   UNL A   1      40.781  24.905  25.812  1.00  0.00    -0.460 OA
BRANCH  34  35
ATOM     35  C   UNL A   1      42.135  25.054  25.736  1.00  0.00     0.338 C 
ATOM     36  O   UNL A   1      42.897  24.360  25.094  1.00  0.00    -0.246 OA
BRANCH  35  37
ATOM     37  C   UNL A   1      42.537  26.367  26.326  1.00  0.00     0.060 A 
ATOM     38  C   UNL A   1      43.398  26.335  27.434  1.00  0.00     0.016 A 
ATOM     39  C   UNL A   1      42.142  27.599  25.795  1.00  0.00     0.016 A 
ATOM     40  C   UNL A   1      43.822  27.521  28.040  1.00  0.00     0.010 A 
ATOM     41  C   UNL A   1      42.560  28.790  26.413  1.00  0.00     0.010 A 
ATOM     42  C   UNL A   1      43.380  28.757  27.556  1.00  0.00    -0.014 A 
BRANCH  42  43
ATOM     43  C   UNL A   1      43.559  29.970  28.402  1.00  0.00     0.031 A 
ATOM     44  C   UNL A   1      42.401  30.387  29.271  1.00  0.00     0.074 A 
ATOM     45  C   UNL A   1      44.719  30.653  28.456  1.00  0.00     0.049 A 
ATOM     46  N   UNL A   1      42.277  31.421  30.061  1.00  0.00    -0.248 NA
ATOM     47  C   UNL A   1      41.224  29.504  29.244  1.00  0.00     0.031 C 
ATOM     48  C   UNL A   1      45.941  30.310  27.732  1.00  0.00     0.029 A 
ATOM     49  N   UNL A   1      45.055  31.787  29.160  1.00  0.00    -0.354 N 
ATOM     50  C   UNL A   1      41.013  31.309  30.632  1.00  0.00     0.074 A 
ATOM     51  C   UNL A   1      40.397  30.130  30.063  1.00  0.00     0.031 C 
ATOM     52  C   UNL A   1      46.889  31.223  28.018  1.00  0.00     0.029 A 
ATOM     53  C   UNL A   1      46.331  32.240  28.911  1.00  0.00     0.049 A 
ATOM     54  H   UNL A   1      44.439  32.233  29.785  1.00  0.00     0.167 HD
ATOM     55  C   UNL A   1      40.420  32.110  31.551  1.00  0.00     0.034 A 
ATOM     56  C   UNL A   1      46.960  33.361  29.330  1.00  0.00     0.034 A 
ATOM     57  C   UNL A   1      41.022  33.306  32.081  1.00  0.00     0.049 A 
ATOM     58  C   UNL A   1      46.223  34.319  30.247  1.00  0.00     0.074 A 
ATOM     59  C   UNL A   1      40.491  34.215  32.980  1.00  0.00     0.029 A 
ATOM     60  N   UNL A   1      42.289  33.770  31.751  1.00  0.00    -0.354 N 
ATOM     61  N   UNL A   1      45.018  34.213  30.761  1.00  0.00    -0.248 NA
ATOM     62  C   UNL A   1      46.933  35.543  30.641  1.00  0.00     0.031 C 
ATOM     63  C   UNL A   1      41.403  35.263  33.133  1.00  0.00     0.029 A 
ATOM     64  C   UNL A   1      42.544  34.966  32.404  1.00  0.00     0.049 A 
ATOM     65  H   UNL A   1      42.915  33.315  31.142  1.00  0.00     0.167 HD
ATOM     66  C   UNL A   1      44.849  35.339  31.571  1.00  0.00     0.074 A 
ATOM     67  C   UNL A   1      46.079  36.096  31.488  1.00  0.00     0.031 C 
ATOM     68  C   UNL A   1      43.776  35.712  32.316  1.00  0.00     0.034 A 
BRANCH  55  69
ATOM     69  C   UNL A   1      39.021  31.737  31.981  1.00  0.00     0.023 A 
ATOM     70  C   UNL A   1      37.892  32.158  31.257  1.00  0.00     0.031 A 
ATOM     71  C   UNL A   1      38.811  30.999  33.158  1.00  0.00     0.131 A 
ATOM     72  C   UNL A   1      36.606  31.906  31.758  1.00  0.00     0.055 A 
ATOM     73  C   UNL A   1      37.528  30.677  33.606  1.00  0.00     0.041 A 
ATOM     74  F   UNL A   1      39.850  30.597  33.908  1.00  0.00    -0.206 F 
ATOM     75  C   UNL A   1      36.416  31.146  32.913  1.00  0.00     0.022 A 
BRANCH  72  76
ATOM     76  S   UNL A   1      35.194  32.726  30.967  1.00  0.00     0.124 S 
ATOM     77  O   UNL A   1      34.986  31.882  29.792  1.00  0.00    -0.237 OA
ATOM     78  O   UNL A   1      34.166  32.651  31.999  1.00  0.00    -0.237 OA
ATOM     79  O   UNL A   1      35.695  34.068  30.679  1.00  0.00    -0.744 OA
ENDBRANCH  72  76
ENDBRANCH  55  69
BRANCH  56  80
ATOM     80  C   UNL A   1      48.338  33.700  28.853  1.00  0.00     0.023 A 
ATOM     81  C   UNL A   1      48.552  34.292  27.596  1.00  0.00     0.031 A 
ATOM     82  C   UNL A   1      49.471  33.331  29.600  1.00  0.00     0.131 A 
ATOM     83  C   UNL A   1      49.859  34.435  27.099  1.00  0.00     0.055 A 
ATOM     84  C   UNL A   1      50.770  33.538  29.131  1.00  0.00     0.041 A 
ATOM     85  F   UNL A   1      49.332  32.746  30.801  1.00  0.00    -0.206 F 
ATOM     86  C   UNL A   1      50.969  34.077  27.865  1.00  0.00     0.022 A 
BRANCH  83  87
ATOM     87  S   UNL A   1      50.084  34.979  25.381  1.00  0.00     0.124 S 
ATOM     88  O   UNL A   1      48.708  35.221  24.966  1.00  0.00    -0.237 OA
ATOM     89  O   UNL A   1      50.923  36.161  25.547  1.00  0.00    -0.237 OA
ATOM     90  O   UNL A   1      50.738  33.837  24.746  1.00  0.00    -0.744 OA
ENDBRANCH  83  87
ENDBRANCH  56  80
BRANCH  68  91
ATOM     91  C   UNL A   1      43.911  36.964  33.154  1.00  0.00     0.023 A 
ATOM     92  C   UNL A   1      43.520  38.229  32.679  1.00  0.00     0.031 A 
ATOM     93  C   UNL A   1      44.448  36.887  34.453  1.00  0.00     0.131 A 
ATOM     94  C   UNL A   1      43.729  39.369  33.469  1.00  0.00     0.055 A 
ATOM     95  C   UNL A   1      44.588  38.016  35.262  1.00  0.00     0.041 A 
ATOM     96  F   UNL A   1      44.842  35.708  34.961  1.00  0.00    -0.206 F 
ATOM     97  C   UNL A   1      44.242  39.268  34.765  1.00  0.00     0.022 A 
BRANCH  94  98
ATOM     98  S   UNL A   1      43.422  41.002  32.743  1.00  0.00     0.124 S 
ATOM     99  O   UNL A   1      43.376  40.696  31.317  1.00  0.00    -0.237 OA
ATOM    100  O   UNL A   1      42.152  41.382  33.354  1.00  0.00    -0.237 OA
ATOM    101  O   UNL A   1      44.575  41.791  33.172  1.00  0.00    -0.744 OA
ENDBRANCH  94  98
ENDBRANCH  68  91
ENDBRANCH  42  43
ENDBRANCH  35  37
ENDBRANCH  34  35
ENDBRANCH  33  34
ENDBRANCH  32  33
ENDBRANCH  31  32
ENDBRANCH  30  31
ENDBRANCH   1  30
TORSDOF 25
ENDMDL
MODEL 3
REMARK VINA RESULT:      -8.7      2.568      7.747
REMARK SMILES C[C@](NC(=O)[C@](C)([NH3+])C(F)(F)F)(C(=O)OCCOCCOCCOC(=O)c1ccc(-c2c3nc(c(-c4cc(S(=O)(=O)[O-])ccc4F)c4ccc([nH]4)c(-c4cc(S(=O)(=O)[O-])ccc4F)c4nc(c(-c5cc(S(=O)(=O)[O-])ccc5F)c5ccc2[nH]5)C=C4)C=C3)cc1)c1ccccc1
REMARK SMILES IDX 19 1 18 2 17 3 16 4 15 5 13 6 14 7 2 8 1 9 90 10 91 11 95 12
REMARK SMILES IDX 92 13 94 14 93 15 3 16 4 17 5 19 6 20 7 21 8 22 9 26 10 27
REMARK SMILES IDX 11 28 12 29 20 30 21 31 22 32 23 33 24 34 25 35 26 36 27 37
REMARK SMILES IDX 28 38 89 39 29 40 88 41 30 42 31 43 32 44 82 45 33 46 87 47
REMARK SMILES IDX 81 48 83 49 34 50 86 51 80 52 79 53 35 55 67 56 47 57 66 58
REMARK SMILES IDX 48 59 51 60 65 61 84 62 49 63 50 64 64 66 85 67 52 68 36 69
REMARK SMILES IDX 37 70 45 71 38 72 44 73 46 74 43 75 39 76 40 77 41 78 42 79
REMARK SMILES IDX 68 80 69 81 77 82 70 83 76 84 78 85 75 86 71 87 72 88 73 89
REMARK SMILES IDX 74 90 53 91 54 92 62 93 55 94 61 95 63 96 60 97 56 98 57 99
REMARK SMILES IDX 58 100 59 101
REMARK H PARENT 3 18 8 23 8 24 8 25 83 54 51 65
REMARK Flexibility Score: inf
ROOT
ATOM      1  C   UNL A   1      36.873  22.547  25.970  1.00  0.00     0.188 C 
ENDROOT
BRANCH   1   2
ATOM      2  O   UNL A   1      36.572  23.545  25.002  1.00  0.00    -0.376 OA
BRANCH   2   3
ATOM      3  C   UNL A   1      36.780  23.169  23.636  1.00  0.00     0.202 C 
BRANCH   3   4
ATOM      4  C   UNL A   1      35.483  23.087  22.821  1.00  0.00     0.261 C 
BRANCH   4   5
ATOM      5  O   UNL A   1      34.531  23.991  23.420  1.00  0.00    -0.461 OA
BRANCH   5   6
ATOM      6  C   UNL A   1      33.316  24.106  22.840  1.00  0.00     0.336 C 
ATOM      7  O   UNL A   1      33.156  24.520  21.697  1.00  0.00    -0.249 OA
BRANCH   6   8
ATOM      8  C   UNL A   1      32.151  23.626  23.807  1.00  0.00     0.161 C 
ATOM      9  C   UNL A   1      30.825  23.926  23.088  1.00  0.00     0.053 C 
BRANCH   8  10
ATOM     10  C   UNL A   1      32.336  22.050  23.932  1.00  0.00    -0.012 A 
ATOM     11  C   UNL A   1      32.176  21.150  22.851  1.00  0.00     0.007 A 
ATOM     12  C   UNL A   1      32.602  21.467  25.190  1.00  0.00     0.007 A 
ATOM     13  C   UNL A   1      32.302  19.764  23.020  1.00  0.00     0.000 A 
ATOM     14  C   UNL A   1      32.688  20.079  25.362  1.00  0.00     0.000 A 
ATOM     15  C   UNL A   1      32.543  19.226  24.277  1.00  0.00     0.000 A 
ENDBRANCH   8  10
BRANCH   8  16
ATOM     16  N   UNL A   1      32.026  24.186  25.213  1.00  0.00    -0.331 N 
ATOM     17  C   UNL A   1      31.892  25.289  25.963  1.00  0.00     0.291 C 
ATOM     18  H   UNL A   1      32.057  23.420  25.831  1.00  0.00     0.165 HD
ATOM     19  O   UNL A   1      31.443  24.990  27.092  1.00  0.00    -0.267 OA
BRANCH  17  20
ATOM     20  C   UNL A   1      32.029  26.805  25.665  1.00  0.00     0.267 C 
ATOM     21  C   UNL A   1      31.590  27.553  26.957  1.00  0.00     0.100 C 
BRANCH  20  22
ATOM     22  N   UNL A   1      30.989  27.144  24.619  1.00  0.00    -0.337 N 
ATOM     23  H   UNL A   1      30.171  27.552  25.072  1.00  0.00     0.345 HD
ATOM     24  H   UNL A   1      30.714  26.295  24.124  1.00  0.00     0.345 HD
ATOM     25  H   UNL A   1      31.379  27.813  23.955  1.00  0.00     0.345 HD
ENDBRANCH  20  22
BRANCH  20  26
ATOM     26  C   UNL A   1      33.427  27.312  25.332  1.00  0.00     0.453 C 
ATOM     27  F   UNL A   1      33.827  26.887  24.102  1.00  0.00    -0.164 F 
ATOM     28  F   UNL A   1      33.481  28.657  25.280  1.00  0.00    -0.164 F 
ATOM     29  F   UNL A   1      34.352  26.847  26.199  1.00  0.00    -0.164 F 
ENDBRANCH  20  26
ENDBRANCH  17  20
ENDBRANCH   8  16
ENDBRANCH   6   8
ENDBRANCH   5   6
ENDBRANCH   4   5
ENDBRANCH   3   4
ENDBRANCH   2   3
ENDBRANCH   1   2
BRANCH   1  30
ATOM     30  C   UNL A   1      38.089  21.693  25.670  1.00  0.00     0.188 C 
BRANCH  30  31
ATOM     31  O   UNL A   1      39.368  22.282  25.869  1.00  0.00    -0.376 OA
BRANCH  31  32
ATOM     32  C   UNL A   1      39.443  23.062  27.071  1.00  0.00     0.202 C 
BRANCH  32  33
ATOM     33  C   UNL A   1      39.314  24.591  26.881  1.00  0.00     0.261 C 
BRANCH  33  34
ATOM     34  O   UNL A   1      40.285  25.115  25.947  1.00  0.00    -0.460 OA
BRANCH  34  35
ATOM     35  C   UNL A   1      41.571  25.154  26.400  1.00  0.00     0.338 C 
ATOM     36  O   UNL A   1      42.410  24.291  26.245  1.00  0.00    -0.246 OA
BRANCH  35  37
ATOM     37  C   UNL A   1      41.902  26.531  26.877  1.00  0.00     0.060 A 
ATOM     38  C   UNL A   1      42.879  26.644  27.880  1.00  0.00     0.016 A 
ATOM     39  C   UNL A   1      41.331  27.687  26.337  1.00  0.00     0.016 A 
ATOM     40  C   UNL A   1      43.246  27.897  28.376  1.00  0.00     0.010 A 
ATOM     41  C   UNL A   1      41.693  28.946  26.846  1.00  0.00     0.010 A 
ATOM     42  C   UNL A   1      42.632  29.057  27.888  1.00  0.00    -0.014 A 
BRANCH  42  43
ATOM     43  C   UNL A   1      42.782  30.329  28.649  1.00  0.00     0.031 A 
ATOM     44  C   UNL A   1      43.933  31.228  28.279  1.00  0.00     0.074 A 
ATOM     45  C   UNL A   1      41.903  30.718  29.593  1.00  0.00     0.049 A 
ATOM     46  N   UNL A   1      44.315  32.360  28.809  1.00  0.00    -0.248 NA
ATOM     47  C   UNL A   1      44.761  30.781  27.147  1.00  0.00     0.031 C 
ATOM     48  C   UNL A   1      40.702  29.985  29.989  1.00  0.00     0.029 A 
ATOM     49  N   UNL A   1      41.891  31.837  30.394  1.00  0.00    -0.354 N 
ATOM     50  C   UNL A   1      45.422  32.766  28.070  1.00  0.00     0.074 A 
ATOM     51  C   UNL A   1      45.672  31.737  27.084  1.00  0.00     0.031 C 
ATOM     52  C   UNL A   1      40.078  30.667  30.968  1.00  0.00     0.029 A 
ATOM     53  C   UNL A   1      40.855  31.863  31.301  1.00  0.00     0.049 A 
ATOM     54  H   UNL A   1      42.562  32.554  30.324  1.00  0.00     0.167 HD
ATOM     55  C   UNL A   1      46.161  33.896  28.194  1.00  0.00     0.034 A 
ATOM     56  C   UNL A   1      40.587  32.733  32.300  1.00  0.00     0.034 A 
ATOM     57  C   UNL A   1      45.932  34.896  29.206  1.00  0.00     0.049 A 
ATOM     58  C   UNL A   1      41.512  33.916  32.513  1.00  0.00     0.074 A 
ATOM     59  C   UNL A   1      46.649  36.055  29.451  1.00  0.00     0.029 A 
ATOM     60  N   UNL A   1      44.916  34.851  30.150  1.00  0.00    -0.354 N 
ATOM     61  N   UNL A   1      42.570  34.277  31.822  1.00  0.00    -0.248 NA
ATOM     62  C   UNL A   1      41.203  34.809  33.638  1.00  0.00     0.031 C 
ATOM     63  C   UNL A   1      46.114  36.668  30.588  1.00  0.00     0.029 A 
ATOM     64  C   UNL A   1      45.005  35.945  30.999  1.00  0.00     0.049 A 
ATOM     65  H   UNL A   1      44.231  34.146  30.210  1.00  0.00     0.167 HD
ATOM     66  C   UNL A   1      43.023  35.461  32.407  1.00  0.00     0.074 A 
ATOM     67  C   UNL A   1      42.114  35.759  33.493  1.00  0.00     0.031 C 
ATOM     68  C   UNL A   1      44.090  36.234  32.078  1.00  0.00     0.034 A 
BRANCH  55  69
ATOM     69  C   UNL A   1      47.322  34.062  27.244  1.00  0.00     0.023 A 
ATOM     70  C   UNL A   1      48.562  33.444  27.484  1.00  0.00     0.031 A 
ATOM     71  C   UNL A   1      47.206  34.890  26.115  1.00  0.00     0.131 A 
ATOM     72  C   UNL A   1      49.656  33.727  26.653  1.00  0.00     0.055 A 
ATOM     73  C   UNL A   1      48.276  35.099  25.242  1.00  0.00     0.041 A 
ATOM     74  F   UNL A   1      46.056  35.530  25.852  1.00  0.00    -0.206 F 
ATOM     75  C   UNL A   1      49.515  34.528  25.519  1.00  0.00     0.022 A 
BRANCH  72  76
ATOM     76  S   UNL A   1      51.302  33.163  27.168  1.00  0.00     0.124 S 
ATOM     77  O   UNL A   1      52.144  34.273  26.725  1.00  0.00    -0.237 OA
ATOM     78  O   UNL A   1      51.148  33.013  28.610  1.00  0.00    -0.237 OA
ATOM     79  O   UNL A   1      51.485  31.918  26.425  1.00  0.00    -0.744 OA
ENDBRANCH  72  76
ENDBRANCH  55  69
BRANCH  56  80
ATOM     80  C   UNL A   1      39.438  32.509  33.233  1.00  0.00     0.023 A 
ATOM     81  C   UNL A   1      38.159  33.024  32.958  1.00  0.00     0.031 A 
ATOM     82  C   UNL A   1      39.630  31.872  34.473  1.00  0.00     0.131 A 
ATOM     83  C   UNL A   1      37.147  32.952  33.930  1.00  0.00     0.055 A 
ATOM     84  C   UNL A   1      38.602  31.743  35.409  1.00  0.00     0.041 A 
ATOM     85  F   UNL A   1      40.832  31.373  34.802  1.00  0.00    -0.206 F 
ATOM     86  C   UNL A   1      37.355  32.302  35.147  1.00  0.00     0.022 A 
BRANCH  83  87
ATOM     87  S   UNL A   1      35.590  33.838  33.634  1.00  0.00     0.124 S 
ATOM     88  O   UNL A   1      34.677  32.739  33.344  1.00  0.00    -0.237 OA
ATOM     89  O   UNL A   1      35.387  34.524  34.906  1.00  0.00    -0.237 OA
ATOM     90  O   UNL A   1      35.902  34.707  32.502  1.00  0.00    -0.744 OA
ENDBRANCH  83  87
ENDBRANCH  56  80
BRANCH  68  91
ATOM     91  C   UNL A   1      44.294  37.512  32.861  1.00  0.00     0.023 A 
ATOM     92  C   UNL A   1      43.603  38.697  32.552  1.00  0.00     0.031 A 
ATOM     93  C   UNL A   1      45.204  37.542  33.934  1.00  0.00     0.131 A 
ATOM     94  C   UNL A   1      43.877  39.873  33.266  1.00  0.00     0.055 A 
ATOM     95  C   UNL A   1      45.421  38.698  34.685  1.00  0.00     0.041 A 
ATOM     96  F   UNL A   1      45.897  36.442  34.274  1.00  0.00    -0.206 F 
ATOM     97  C   UNL A   1      44.767  39.877  34.343  1.00  0.00     0.022 A 
BRANCH  94  98
ATOM     98  S   UNL A   1      43.137  41.429  32.700  1.00  0.00     0.124 S 
ATOM     99  O   UNL A   1      44.170  42.401  33.047  1.00  0.00    -0.237 OA
ATOM    100  O   UNL A   1      42.946  41.184  31.274  1.00  0.00    -0.237 OA
ATOM    101  O   UNL A   1      41.905  41.528  33.482  1.00  0.00    -0.744 OA
ENDBRANCH  94  98
ENDBRANCH  68  91
ENDBRANCH  42  43
ENDBRANCH  35  37
ENDBRANCH  34  35
ENDBRANCH  33  34
ENDBRANCH  32  33
ENDBRANCH  31  32
ENDBRANCH  30  31
ENDBRANCH   1  30
TORSDOF 25
ENDMDL
