MODEL 1
REMARK VINA RESULT:      -9.5      0.000      0.000
REMARK SMILES Cc1c(-c2nn(-c3ccccc3)cc2/C=N/O)nnn1-c1ccc(C(=O)OCCOCCOCCOC(=O)c2ccc(-c3c4nc(c(-c5cc(S(=O)(=O)[O-])ccc5F)c5ccc([nH]5)c(-c5cc(S(=O)(=O)[O-])ccc5F)c5nc(c(-c6cc(S(=O)(=O)[O-])ccc6F)c6ccc3[nH]6)C=C5)C=C4)cc2)cc1
REMARK SMILES IDX 31 1 30 2 29 3 28 4 27 5 25 6 26 7 24 8 21 9 22 10 103 11
REMARK SMILES IDX 23 12 102 13 20 14 1 15 2 16 3 17 18 18 19 19 4 20 5 21
REMARK SMILES IDX 14 22 6 23 13 24 15 25 16 26 17 27 7 29 8 30 12 31 9 32
REMARK SMILES IDX 11 33 10 34 32 35 33 36 34 37 35 38 36 39 37 40 38 41 39 42
REMARK SMILES IDX 40 43 101 44 41 45 100 46 42 47 43 48 44 49 94 50 45 51
REMARK SMILES IDX 99 52 93 53 95 54 46 55 98 56 92 57 91 58 47 60 79 61 59 62
REMARK SMILES IDX 78 63 60 64 63 65 77 66 96 67 61 68 62 69 76 71 97 72 64 73
REMARK SMILES IDX 48 74 49 75 57 76 50 77 56 78 58 79 55 80 51 81 52 82 53 83
REMARK SMILES IDX 54 84 80 85 81 86 89 87 82 88 88 89 90 90 87 91 83 92 84 93
REMARK SMILES IDX 85 94 86 95 65 96 66 97 74 98 67 99 73 100 75 101 72 102
REMARK SMILES IDX 68 103 69 104 70 105 71 106
REMARK H PARENT 17 28 95 59 63 70
REMARK Flexibility Score: inf
ROOT
ATOM      1  C   UNL A   1      36.217  31.247  28.935  1.00  0.00     0.188 C 
ENDROOT
BRANCH   1   2
ATOM      2  O   UNL A   1      36.507  29.860  28.798  1.00  0.00    -0.376 OA
BRANCH   2   3
ATOM      3  C   UNL A   1      37.715  29.333  29.321  1.00  0.00     0.202 C 
BRANCH   3   4
ATOM      4  C   UNL A   1      39.033  29.649  28.596  1.00  0.00     0.261 C 
BRANCH   4   5
ATOM      5  O   UNL A   1      40.197  29.003  29.142  1.00  0.00    -0.460 OA
BRANCH   5   6
ATOM      6  C   UNL A   1      41.013  28.406  28.243  1.00  0.00     0.338 C 
ATOM      7  O   UNL A   1      42.101  28.806  27.857  1.00  0.00    -0.246 OA
BRANCH   6   8
ATOM      8  C   UNL A   1      40.479  27.081  27.854  1.00  0.00     0.060 A 
ATOM      9  C   UNL A   1      39.344  24.692  26.940  1.00  0.00     0.067 A 
ATOM     10  C   UNL A   1      40.154  25.450  26.085  1.00  0.00     0.029 A 
ATOM     11  C   UNL A   1      39.192  25.078  28.282  1.00  0.00     0.029 A 
ATOM     12  C   UNL A   1      40.688  26.659  26.534  1.00  0.00     0.018 A 
ATOM     13  C   UNL A   1      39.774  26.267  28.744  1.00  0.00     0.018 A 
BRANCH   9  14
ATOM     14  N   UNL A   1      38.633  23.588  26.401  1.00  0.00    -0.217 N 
ATOM     15  C   UNL A   1      36.258  24.522  26.381  1.00  0.00     0.069 C 
ATOM     16  C   UNL A   1      37.270  23.460  26.180  1.00  0.00     0.071 A 
ATOM     17  C   UNL A   1      37.152  22.205  25.615  1.00  0.00     0.137 A 
ATOM     18  N   UNL A   1      38.380  21.646  25.443  1.00  0.00    -0.128 NA
ATOM     19  N   UNL A   1      39.283  22.521  25.871  1.00  0.00    -0.061 NA
BRANCH  17  20
ATOM     20  C   UNL A   1      35.933  21.558  25.138  1.00  0.00     0.124 A 
ATOM     21  N   UNL A   1      35.597  20.317  25.513  1.00  0.00    -0.165 NA
ATOM     22  C   UNL A   1      35.052  22.089  24.170  1.00  0.00     0.044 A 
ATOM     23  N   UNL A   1      34.560  19.991  24.711  1.00  0.00    -0.240 N 
ATOM     24  C   UNL A   1      34.203  21.035  23.888  1.00  0.00     0.125 A 
BRANCH  22  25
ATOM     25  C   UNL A   1      34.983  23.385  23.544  1.00  0.00     0.166 C 
ATOM     26  N   UNL A   1      34.013  23.667  22.741  1.00  0.00    -0.097 NA
BRANCH  26  27
ATOM     27  O   UNL A   1      34.190  24.963  22.241  1.00  0.00    -0.411 OA
ATOM     28  H   UNL A   1      33.885  25.701  22.732  1.00  0.00     0.330 HD
ENDBRANCH  26  27
ENDBRANCH  22  25
BRANCH  23  29
ATOM     29  C   UNL A   1      33.996  18.692  24.738  1.00  0.00     0.065 A 
ATOM     30  C   UNL A   1      34.598  17.663  24.000  1.00  0.00     0.028 A 
ATOM     31  C   UNL A   1      32.836  18.436  25.483  1.00  0.00     0.028 A 
ATOM     32  C   UNL A   1      34.060  16.376  24.040  1.00  0.00     0.002 A 
ATOM     33  C   UNL A   1      32.279  17.156  25.476  1.00  0.00     0.002 A 
ATOM     34  C   UNL A   1      32.897  16.125  24.767  1.00  0.00     0.000 A 
ENDBRANCH  23  29
ENDBRANCH  17  20
ENDBRANCH   9  14
ENDBRANCH   6   8
ENDBRANCH   5   6
ENDBRANCH   4   5
ENDBRANCH   3   4
ENDBRANCH   2   3
ENDBRANCH   1   2
BRANCH   1  35
ATOM     35  C   UNL A   1      35.398  32.023  27.879  1.00  0.00     0.188 C 
BRANCH  35  36
ATOM     36  O   UNL A   1      35.592  33.431  27.858  1.00  0.00    -0.376 OA
BRANCH  36  37
ATOM     37  C   UNL A   1      34.406  34.213  27.762  1.00  0.00     0.202 C 
BRANCH  37  38
ATOM     38  C   UNL A   1      33.998  34.912  29.057  1.00  0.00     0.261 C 
BRANCH  38  39
ATOM     39  O   UNL A   1      33.729  34.035  30.146  1.00  0.00    -0.460 OA
BRANCH  39  40
ATOM     40  C   UNL A   1      34.220  34.412  31.340  1.00  0.00     0.338 C 
ATOM     41  O   UNL A   1      33.783  35.311  32.055  1.00  0.00    -0.246 OA
BRANCH  40  42
ATOM     42  C   UNL A   1      35.420  33.623  31.632  1.00  0.00     0.060 A 
ATOM     43  C   UNL A   1      35.273  32.510  32.460  1.00  0.00     0.016 A 
ATOM     44  C   UNL A   1      36.690  34.120  31.286  1.00  0.00     0.016 A 
ATOM     45  C   UNL A   1      36.389  32.019  33.104  1.00  0.00     0.010 A 
ATOM     46  C   UNL A   1      37.803  33.636  31.940  1.00  0.00     0.010 A 
ATOM     47  C   UNL A   1      37.622  32.650  32.904  1.00  0.00    -0.014 A 
BRANCH  47  48
ATOM     48  C   UNL A   1      38.694  32.302  33.815  1.00  0.00     0.031 A 
ATOM     49  C   UNL A   1      38.772  33.085  35.057  1.00  0.00     0.074 A 
ATOM     50  C   UNL A   1      39.576  31.324  33.546  1.00  0.00     0.049 A 
ATOM     51  N   UNL A   1      39.672  33.952  35.377  1.00  0.00    -0.248 NA
ATOM     52  C   UNL A   1      37.672  32.961  36.017  1.00  0.00     0.031 C 
ATOM     53  C   UNL A   1      39.495  30.302  32.499  1.00  0.00     0.029 A 
ATOM     54  N   UNL A   1      40.710  30.998  34.225  1.00  0.00    -0.354 N 
ATOM     55  C   UNL A   1      39.374  34.344  36.673  1.00  0.00     0.074 A 
ATOM     56  C   UNL A   1      38.060  33.825  36.958  1.00  0.00     0.031 C 
ATOM     57  C   UNL A   1      40.431  29.356  32.734  1.00  0.00     0.029 A 
ATOM     58  C   UNL A   1      41.253  29.777  33.858  1.00  0.00     0.049 A 
ATOM     59  H   UNL A   1      41.109  31.578  34.914  1.00  0.00     0.167 HD
ATOM     60  C   UNL A   1      40.320  34.899  37.476  1.00  0.00     0.034 A 
ATOM     61  C   UNL A   1      42.275  29.128  34.467  1.00  0.00     0.034 A 
ATOM     62  C   UNL A   1      41.447  35.382  36.711  1.00  0.00     0.049 A 
ATOM     63  C   UNL A   1      43.094  30.141  35.171  1.00  0.00     0.074 A 
ATOM     64  C   UNL A   1      41.610  36.318  35.707  1.00  0.00     0.029 A 
ATOM     65  N   UNL A   1      42.602  34.635  36.713  1.00  0.00    -0.354 N 
ATOM     66  N   UNL A   1      43.785  31.062  34.556  1.00  0.00    -0.248 NA
ATOM     67  C   UNL A   1      42.850  30.403  36.582  1.00  0.00     0.031 C 
ATOM     68  C   UNL A   1      42.645  35.802  34.873  1.00  0.00     0.029 A 
ATOM     69  C   UNL A   1      43.075  34.594  35.423  1.00  0.00     0.049 A 
ATOM     70  H   UNL A   1      43.014  34.204  37.497  1.00  0.00     0.167 HD
ATOM     71  C   UNL A   1      43.691  32.185  35.361  1.00  0.00     0.074 A 
ATOM     72  C   UNL A   1      43.234  31.681  36.650  1.00  0.00     0.031 C 
ATOM     73  C   UNL A   1      43.721  33.440  34.824  1.00  0.00     0.034 A 
BRANCH  60  74
ATOM     74  C   UNL A   1      40.372  34.738  38.975  1.00  0.00     0.023 A 
ATOM     75  C   UNL A   1      40.279  35.904  39.759  1.00  0.00     0.031 A 
ATOM     76  C   UNL A   1      40.773  33.568  39.659  1.00  0.00     0.131 A 
ATOM     77  C   UNL A   1      40.643  35.893  41.116  1.00  0.00     0.055 A 
ATOM     78  C   UNL A   1      41.057  33.545  41.026  1.00  0.00     0.041 A 
ATOM     79  F   UNL A   1      41.010  32.409  39.029  1.00  0.00    -0.206 F 
ATOM     80  C   UNL A   1      41.021  34.718  41.759  1.00  0.00     0.022 A 
BRANCH  77  81
ATOM     81  S   UNL A   1      40.801  37.479  41.976  1.00  0.00     0.124 S 
ATOM     82  O   UNL A   1      39.470  38.049  41.796  1.00  0.00    -0.237 OA
ATOM     83  O   UNL A   1      41.143  37.054  43.329  1.00  0.00    -0.237 OA
ATOM     84  O   UNL A   1      41.870  38.154  41.245  1.00  0.00    -0.744 OA
ENDBRANCH  77  81
ENDBRANCH  60  74
BRANCH  61  85
ATOM     85  C   UNL A   1      42.395  27.664  34.665  1.00  0.00     0.023 A 
ATOM     86  C   UNL A   1      43.262  26.870  33.894  1.00  0.00     0.031 A 
ATOM     87  C   UNL A   1      41.804  27.055  35.796  1.00  0.00     0.131 A 
ATOM     88  C   UNL A   1      43.503  25.528  34.259  1.00  0.00     0.055 A 
ATOM     89  C   UNL A   1      42.030  25.722  36.142  1.00  0.00     0.041 A 
ATOM     90  F   UNL A   1      41.051  27.759  36.655  1.00  0.00    -0.206 F 
ATOM     91  C   UNL A   1      42.890  24.954  35.377  1.00  0.00     0.022 A 
BRANCH  88  92
ATOM     92  S   UNL A   1      44.725  24.541  33.342  1.00  0.00     0.124 S 
ATOM     93  O   UNL A   1      44.762  25.219  32.051  1.00  0.00    -0.237 OA
ATOM     94  O   UNL A   1      45.917  24.664  34.174  1.00  0.00    -0.237 OA
ATOM     95  O   UNL A   1      44.133  23.203  33.318  1.00  0.00    -0.744 OA
ENDBRANCH  88  92
ENDBRANCH  61  85
BRANCH  73  96
ATOM     96  C   UNL A   1      44.225  33.590  33.404  1.00  0.00     0.023 A 
ATOM     97  C   UNL A   1      43.423  33.415  32.254  1.00  0.00     0.031 A 
ATOM     98  C   UNL A   1      45.547  34.029  33.216  1.00  0.00     0.131 A 
ATOM     99  C   UNL A   1      43.958  33.656  30.975  1.00  0.00     0.055 A 
ATOM    100  C   UNL A   1      46.070  34.287  31.948  1.00  0.00     0.041 A 
ATOM    101  F   UNL A   1      46.349  34.249  34.271  1.00  0.00    -0.206 F 
ATOM    102  C   UNL A   1      45.278  34.094  30.820  1.00  0.00     0.022 A 
BRANCH  99 103
ATOM    103  S   UNL A   1      42.935  33.405  29.491  1.00  0.00     0.124 S 
ATOM    104  O   UNL A   1      41.594  33.759  29.937  1.00  0.00    -0.237 OA
ATOM    105  O   UNL A   1      43.551  34.312  28.525  1.00  0.00    -0.237 OA
ATOM    106  O   UNL A   1      43.119  31.983  29.187  1.00  0.00    -0.744 OA
ENDBRANCH  99 103
ENDBRANCH  73  96
ENDBRANCH  47  48
ENDBRANCH  40  42
ENDBRANCH  39  40
ENDBRANCH  38  39
ENDBRANCH  37  38
ENDBRANCH  36  37
ENDBRANCH  35  36
ENDBRANCH   1  35
TORSDOF 25
ENDMDL
MODEL 2
REMARK VINA RESULT:      -9.5      1.937      3.641
REMARK SMILES Cc1c(-c2nn(-c3ccccc3)cc2/C=N/O)nnn1-c1ccc(C(=O)OCCOCCOCCOC(=O)c2ccc(-c3c4nc(c(-c5cc(S(=O)(=O)[O-])ccc5F)c5ccc([nH]5)c(-c5cc(S(=O)(=O)[O-])ccc5F)c5nc(c(-c6cc(S(=O)(=O)[O-])ccc6F)c6ccc3[nH]6)C=C5)C=C4)cc2)cc1
REMARK SMILES IDX 31 1 30 2 29 3 28 4 27 5 25 6 26 7 24 8 21 9 22 10 103 11
REMARK SMILES IDX 23 12 102 13 20 14 1 15 2 16 3 17 18 18 19 19 4 20 5 21
REMARK SMILES IDX 14 22 6 23 13 24 15 25 16 26 17 27 7 29 8 30 12 31 9 32
REMARK SMILES IDX 11 33 10 34 32 35 33 36 34 37 35 38 36 39 37 40 38 41 39 42
REMARK SMILES IDX 40 43 101 44 41 45 100 46 42 47 43 48 44 49 94 50 45 51
REMARK SMILES IDX 99 52 93 53 95 54 46 55 98 56 92 57 91 58 47 60 79 61 59 62
REMARK SMILES IDX 78 63 60 64 63 65 77 66 96 67 61 68 62 69 76 71 97 72 64 73
REMARK SMILES IDX 48 74 49 75 57 76 50 77 56 78 58 79 55 80 51 81 52 82 53 83
REMARK SMILES IDX 54 84 80 85 81 86 89 87 82 88 88 89 90 90 87 91 83 92 84 93
REMARK SMILES IDX 85 94 86 95 65 96 66 97 74 98 67 99 73 100 75 101 72 102
REMARK SMILES IDX 68 103 69 104 70 105 71 106
REMARK H PARENT 17 28 95 59 63 70
REMARK Flexibility Score: inf
ROOT
ATOM      1  C   UNL A   1      41.472  28.240  28.144  1.00  0.00     0.188 C 
ENDROOT
BRANCH   1   2
ATOM      2  O   UNL A   1      42.795  27.901  28.542  1.00  0.00    -0.376 OA
BRANCH   2   3
ATOM      3  C   UNL A   1      43.341  26.641  28.185  1.00  0.00     0.202 C 
BRANCH   3   4
ATOM      4  C   UNL A   1      43.596  25.607  29.294  1.00  0.00     0.261 C 
BRANCH   4   5
ATOM      5  O   UNL A   1      42.636  24.538  29.360  1.00  0.00    -0.460 OA
BRANCH   5   6
ATOM      6  C   UNL A   1      42.970  23.406  28.700  1.00  0.00     0.338 C 
ATOM      7  O   UNL A   1      44.002  22.762  28.817  1.00  0.00    -0.246 OA
BRANCH   6   8
ATOM      8  C   UNL A   1      41.838  22.933  27.872  1.00  0.00     0.060 A 
ATOM      9  C   UNL A   1      39.553  22.187  26.439  1.00  0.00     0.067 A 
ATOM     10  C   UNL A   1      39.975  23.522  26.430  1.00  0.00     0.029 A 
ATOM     11  C   UNL A   1      40.336  21.211  27.077  1.00  0.00     0.029 A 
ATOM     12  C   UNL A   1      41.094  23.896  27.176  1.00  0.00     0.018 A 
ATOM     13  C   UNL A   1      41.490  21.582  27.781  1.00  0.00     0.018 A 
BRANCH   9  14
ATOM     14  N   UNL A   1      38.295  21.867  25.862  1.00  0.00    -0.217 N 
ATOM     15  C   UNL A   1      37.078  24.094  26.123  1.00  0.00     0.069 C 
ATOM     16  C   UNL A   1      37.169  22.667  25.744  1.00  0.00     0.071 A 
ATOM     17  C   UNL A   1      36.269  21.858  25.078  1.00  0.00     0.137 A 
ATOM     18  N   UNL A   1      36.849  20.670  24.754  1.00  0.00    -0.128 NA
ATOM     19  N   UNL A   1      38.105  20.706  25.185  1.00  0.00    -0.061 NA
BRANCH  17  20
ATOM     20  C   UNL A   1      34.918  22.201  24.646  1.00  0.00     0.124 A 
ATOM     21  N   UNL A   1      34.668  23.275  23.885  1.00  0.00    -0.165 NA
ATOM     22  C   UNL A   1      33.737  21.542  25.057  1.00  0.00     0.044 A 
ATOM     23  N   UNL A   1      33.322  23.384  23.886  1.00  0.00    -0.240 N 
ATOM     24  C   UNL A   1      32.726  22.357  24.582  1.00  0.00     0.125 A 
BRANCH  22  25
ATOM     25  C   UNL A   1      33.527  20.331  25.809  1.00  0.00     0.166 C 
ATOM     26  N   UNL A   1      32.599  19.505  25.461  1.00  0.00    -0.097 NA
BRANCH  26  27
ATOM     27  O   UNL A   1      32.574  18.433  26.363  1.00  0.00    -0.411 OA
ATOM     28  H   UNL A   1      33.186  18.404  27.073  1.00  0.00     0.330 HD
ENDBRANCH  26  27
ENDBRANCH  22  25
BRANCH  23  29
ATOM     29  C   UNL A   1      32.678  24.483  23.266  1.00  0.00     0.065 A 
ATOM     30  C   UNL A   1      32.782  24.650  21.878  1.00  0.00     0.028 A 
ATOM     31  C   UNL A   1      31.954  25.408  24.031  1.00  0.00     0.028 A 
ATOM     32  C   UNL A   1      32.132  25.718  21.257  1.00  0.00     0.002 A 
ATOM     33  C   UNL A   1      31.348  26.500  23.406  1.00  0.00     0.002 A 
ATOM     34  C   UNL A   1      31.426  26.646  22.021  1.00  0.00     0.000 A 
ENDBRANCH  23  29
ENDBRANCH  17  20
ENDBRANCH   9  14
ENDBRANCH   6   8
ENDBRANCH   5   6
ENDBRANCH   4   5
ENDBRANCH   3   4
ENDBRANCH   2   3
ENDBRANCH   1   2
BRANCH   1  35
ATOM     35  C   UNL A   1      40.232  27.518  28.719  1.00  0.00     0.188 C 
BRANCH  35  36
ATOM     36  O   UNL A   1      38.995  27.810  28.080  1.00  0.00    -0.376 OA
BRANCH  36  37
ATOM     37  C   UNL A   1      38.237  28.865  28.664  1.00  0.00     0.202 C 
BRANCH  37  38
ATOM     38  C   UNL A   1      37.542  29.780  27.658  1.00  0.00     0.261 C 
BRANCH  38  39
ATOM     39  O   UNL A   1      36.202  30.123  27.994  1.00  0.00    -0.460 OA
BRANCH  39  40
ATOM     40  C   UNL A   1      35.967  31.428  28.222  1.00  0.00     0.338 C 
ATOM     41  O   UNL A   1      35.494  32.231  27.422  1.00  0.00    -0.246 OA
BRANCH  40  42
ATOM     42  C   UNL A   1      36.436  31.768  29.568  1.00  0.00     0.060 A 
ATOM     43  C   UNL A   1      37.542  32.613  29.670  1.00  0.00     0.016 A 
ATOM     44  C   UNL A   1      35.938  31.071  30.684  1.00  0.00     0.016 A 
ATOM     45  C   UNL A   1      38.269  32.603  30.841  1.00  0.00     0.010 A 
ATOM     46  C   UNL A   1      36.673  31.053  31.850  1.00  0.00     0.010 A 
ATOM     47  C   UNL A   1      37.875  31.752  31.880  1.00  0.00    -0.014 A 
BRANCH  47  48
ATOM     48  C   UNL A   1      38.821  31.549  32.958  1.00  0.00     0.031 A 
ATOM     49  C   UNL A   1      38.745  32.500  34.077  1.00  0.00     0.074 A 
ATOM     50  C   UNL A   1      39.725  30.554  32.943  1.00  0.00     0.049 A 
ATOM     51  N   UNL A   1      39.602  33.414  34.383  1.00  0.00    -0.248 NA
ATOM     52  C   UNL A   1      37.532  32.499  34.899  1.00  0.00     0.031 C 
ATOM     53  C   UNL A   1      39.772  29.394  32.049  1.00  0.00     0.029 A 
ATOM     54  N   UNL A   1      40.762  30.341  33.799  1.00  0.00    -0.354 N 
ATOM     55  C   UNL A   1      39.144  33.981  35.563  1.00  0.00     0.074 A 
ATOM     56  C   UNL A   1      37.802  33.491  35.749  1.00  0.00     0.031 C 
ATOM     57  C   UNL A   1      40.665  28.502  32.532  1.00  0.00     0.029 A 
ATOM     58  C   UNL A   1      41.340  29.088  33.680  1.00  0.00     0.049 A 
ATOM     59  H   UNL A   1      41.073  31.016  34.445  1.00  0.00     0.167 HD
ATOM     60  C   UNL A   1      39.984  34.655  36.393  1.00  0.00     0.034 A 
ATOM     61  C   UNL A   1      42.273  28.543  34.499  1.00  0.00     0.034 A 
ATOM     62  C   UNL A   1      41.202  35.039  35.716  1.00  0.00     0.049 A 
ATOM     63  C   UNL A   1      43.002  29.655  35.150  1.00  0.00     0.074 A 
ATOM     64  C   UNL A   1      41.496  35.827  34.618  1.00  0.00     0.029 A 
ATOM     65  N   UNL A   1      42.343  34.314  35.968  1.00  0.00    -0.354 N 
ATOM     66  N   UNL A   1      43.770  30.489  34.503  1.00  0.00    -0.248 NA
ATOM     67  C   UNL A   1      42.582  30.109  36.469  1.00  0.00     0.031 C 
ATOM     68  C   UNL A   1      42.626  35.212  34.003  1.00  0.00     0.029 A 
ATOM     69  C   UNL A   1      42.976  34.099  34.768  1.00  0.00     0.049 A 
ATOM     70  H   UNL A   1      42.650  34.004  36.851  1.00  0.00     0.167 HD
ATOM     71  C   UNL A   1      43.581  31.712  35.124  1.00  0.00     0.074 A 
ATOM     72  C   UNL A   1      42.961  31.389  36.403  1.00  0.00     0.031 C 
ATOM     73  C   UNL A   1      43.686  32.880  34.423  1.00  0.00     0.034 A 
BRANCH  60  74
ATOM     74  C   UNL A   1      39.845  34.707  37.893  1.00  0.00     0.023 A 
ATOM     75  C   UNL A   1      39.488  35.940  38.472  1.00  0.00     0.031 A 
ATOM     76  C   UNL A   1      40.297  33.714  38.792  1.00  0.00     0.131 A 
ATOM     77  C   UNL A   1      39.655  36.167  39.849  1.00  0.00     0.055 A 
ATOM     78  C   UNL A   1      40.385  33.918  40.171  1.00  0.00     0.041 A 
ATOM     79  F   UNL A   1      40.772  32.531  38.381  1.00  0.00    -0.206 F 
ATOM     80  C   UNL A   1      40.091  35.160  40.706  1.00  0.00     0.022 A 
BRANCH  77  81
ATOM     81  S   UNL A   1      39.478  37.860  40.468  1.00  0.00     0.124 S 
ATOM     82  O   UNL A   1      38.342  38.344  39.690  1.00  0.00    -0.237 OA
ATOM     83  O   UNL A   1      39.238  37.636  41.889  1.00  0.00    -0.237 OA
ATOM     84  O   UNL A   1      40.762  38.475  40.141  1.00  0.00    -0.744 OA
ENDBRANCH  77  81
ENDBRANCH  60  74
BRANCH  61  85
ATOM     85  C   UNL A   1      42.359  27.123  34.915  1.00  0.00     0.023 A 
ATOM     86  C   UNL A   1      43.223  26.208  34.289  1.00  0.00     0.031 A 
ATOM     87  C   UNL A   1      41.734  26.700  36.111  1.00  0.00     0.131 A 
ATOM     88  C   UNL A   1      43.429  24.931  34.855  1.00  0.00     0.055 A 
ATOM     89  C   UNL A   1      41.927  25.431  36.656  1.00  0.00     0.041 A 
ATOM     90  F   UNL A   1      40.981  27.538  36.839  1.00  0.00    -0.206 F 
ATOM     91  C   UNL A   1      42.785  24.541  36.032  1.00  0.00     0.022 A 
BRANCH  88  92
ATOM     92  S   UNL A   1      44.647  23.797  34.120  1.00  0.00     0.124 S 
ATOM     93  O   UNL A   1      44.202  22.501  34.620  1.00  0.00    -0.237 OA
ATOM     94  O   UNL A   1      44.476  24.034  32.691  1.00  0.00    -0.237 OA
ATOM     95  O   UNL A   1      45.920  24.265  34.668  1.00  0.00    -0.744 OA
ENDBRANCH  88  92
ENDBRANCH  61  85
BRANCH  73  96
ATOM     96  C   UNL A   1      44.367  32.835  33.072  1.00  0.00     0.023 A 
ATOM     97  C   UNL A   1      43.680  32.799  31.838  1.00  0.00     0.031 A 
ATOM     98  C   UNL A   1      45.768  32.938  33.035  1.00  0.00     0.131 A 
ATOM     99  C   UNL A   1      44.397  32.843  30.628  1.00  0.00     0.055 A 
ATOM    100  C   UNL A   1      46.476  33.000  31.834  1.00  0.00     0.041 A 
ATOM    101  F   UNL A   1      46.476  33.012  34.174  1.00  0.00    -0.206 F 
ATOM    102  C   UNL A   1      45.793  32.946  30.624  1.00  0.00     0.022 A 
BRANCH  99 103
ATOM    103  S   UNL A   1      43.516  32.768  29.036  1.00  0.00     0.124 S 
ATOM    104  O   UNL A   1      44.344  33.579  28.152  1.00  0.00    -0.237 OA
ATOM    105  O   UNL A   1      43.490  31.335  28.756  1.00  0.00    -0.237 OA
ATOM    106  O   UNL A   1      42.207  33.348  29.344  1.00  0.00    -0.744 OA
ENDBRANCH  99 103
ENDBRANCH  73  96
ENDBRANCH  47  48
ENDBRANCH  40  42
ENDBRANCH  39  40
ENDBRANCH  38  39
ENDBRANCH  37  38
ENDBRANCH  36  37
ENDBRANCH  35  36
ENDBRANCH   1  35
TORSDOF 25
ENDMDL
MODEL 3
REMARK VINA RESULT:      -9.2      1.608      2.941
REMARK SMILES Cc1c(-c2nn(-c3ccccc3)cc2/C=N/O)nnn1-c1ccc(C(=O)OCCOCCOCCOC(=O)c2ccc(-c3c4nc(c(-c5cc(S(=O)(=O)[O-])ccc5F)c5ccc([nH]5)c(-c5cc(S(=O)(=O)[O-])ccc5F)c5nc(c(-c6cc(S(=O)(=O)[O-])ccc6F)c6ccc3[nH]6)C=C5)C=C4)cc2)cc1
REMARK SMILES IDX 31 1 30 2 29 3 28 4 27 5 25 6 26 7 24 8 21 9 22 10 103 11
REMARK SMILES IDX 23 12 102 13 20 14 1 15 2 16 3 17 18 18 19 19 4 20 5 21
REMARK SMILES IDX 14 22 6 23 13 24 15 25 16 26 17 27 7 29 8 30 12 31 9 32
REMARK SMILES IDX 11 33 10 34 32 35 33 36 34 37 35 38 36 39 37 40 38 41 39 42
REMARK SMILES IDX 40 43 101 44 41 45 100 46 42 47 43 48 44 49 94 50 45 51
REMARK SMILES IDX 99 52 93 53 95 54 46 55 98 56 92 57 91 58 47 60 79 61 59 62
REMARK SMILES IDX 78 63 60 64 63 65 77 66 96 67 61 68 62 69 76 71 97 72 64 73
REMARK SMILES IDX 48 74 49 75 57 76 50 77 56 78 58 79 55 80 51 81 52 82 53 83
REMARK SMILES IDX 54 84 80 85 81 86 89 87 82 88 88 89 90 90 87 91 83 92 84 93
REMARK SMILES IDX 85 94 86 95 65 96 66 97 74 98 67 99 73 100 75 101 72 102
REMARK SMILES IDX 68 103 69 104 70 105 71 106
REMARK H PARENT 17 28 95 59 63 70
REMARK Flexibility Score: inf
ROOT
ATOM      1  C   UNL A   1      42.226  28.528  28.118  1.00  0.00     0.188 C 
ENDROOT
BRANCH   1   2
ATOM      2  O   UNL A   1      43.613  28.334  28.371  1.00  0.00    -0.376 OA
BRANCH   2   3
ATOM      3  C   UNL A   1      44.256  27.151  27.924  1.00  0.00     0.202 C 
BRANCH   3   4
ATOM      4  C   UNL A   1      44.586  26.057  28.952  1.00  0.00     0.261 C 
BRANCH   4   5
ATOM      5  O   UNL A   1      43.581  25.038  29.098  1.00  0.00    -0.460 OA
BRANCH   5   6
ATOM      6  C   UNL A   1      43.690  23.981  28.261  1.00  0.00     0.338 C 
ATOM      7  O   UNL A   1      44.675  23.281  28.084  1.00  0.00    -0.246 OA
BRANCH   6   8
ATOM      8  C   UNL A   1      42.380  23.665  27.648  1.00  0.00     0.060 A 
ATOM      9  C   UNL A   1      39.808  23.249  26.627  1.00  0.00     0.067 A 
ATOM     10  C   UNL A   1      40.439  24.485  26.441  1.00  0.00     0.029 A 
ATOM     11  C   UNL A   1      40.508  22.191  27.230  1.00  0.00     0.029 A 
ATOM     12  C   UNL A   1      41.707  24.700  26.983  1.00  0.00     0.018 A 
ATOM     13  C   UNL A   1      41.803  22.395  27.728  1.00  0.00     0.018 A 
BRANCH   9  14
ATOM     14  N   UNL A   1      38.441  23.122  26.265  1.00  0.00    -0.217 N 
ATOM     15  C   UNL A   1      38.379  20.688  25.503  1.00  0.00     0.069 C 
ATOM     16  C   UNL A   1      37.785  22.026  25.728  1.00  0.00     0.071 A 
ATOM     17  C   UNL A   1      36.477  22.455  25.615  1.00  0.00     0.137 A 
ATOM     18  N   UNL A   1      36.346  23.711  26.122  1.00  0.00    -0.128 NA
ATOM     19  N   UNL A   1      37.538  24.089  26.571  1.00  0.00    -0.061 NA
BRANCH  17  20
ATOM     20  C   UNL A   1      35.329  21.689  25.142  1.00  0.00     0.124 A 
ATOM     21  N   UNL A   1      35.140  20.409  25.487  1.00  0.00    -0.165 NA
ATOM     22  C   UNL A   1      34.375  22.144  24.204  1.00  0.00     0.044 A 
ATOM     23  N   UNL A   1      34.130  19.991  24.694  1.00  0.00    -0.240 N 
ATOM     24  C   UNL A   1      33.642  21.010  23.908  1.00  0.00     0.125 A 
BRANCH  22  25
ATOM     25  C   UNL A   1      34.150  23.440  23.616  1.00  0.00     0.166 C 
ATOM     26  N   UNL A   1      34.201  23.588  22.335  1.00  0.00    -0.097 NA
BRANCH  26  27
ATOM     27  O   UNL A   1      33.985  24.936  22.018  1.00  0.00    -0.411 OA
ATOM     28  H   UNL A   1      34.694  25.547  22.062  1.00  0.00     0.330 HD
ENDBRANCH  26  27
ENDBRANCH  22  25
BRANCH  23  29
ATOM     29  C   UNL A   1      33.713  18.636  24.694  1.00  0.00     0.065 A 
ATOM     30  C   UNL A   1      32.883  18.170  25.723  1.00  0.00     0.028 A 
ATOM     31  C   UNL A   1      34.138  17.762  23.685  1.00  0.00     0.028 A 
ATOM     32  C   UNL A   1      32.452  16.843  25.718  1.00  0.00     0.002 A 
ATOM     33  C   UNL A   1      33.740  16.424  23.716  1.00  0.00     0.002 A 
ATOM     34  C   UNL A   1      32.888  15.969  24.723  1.00  0.00     0.000 A 
ENDBRANCH  23  29
ENDBRANCH  17  20
ENDBRANCH   9  14
ENDBRANCH   6   8
ENDBRANCH   5   6
ENDBRANCH   4   5
ENDBRANCH   3   4
ENDBRANCH   2   3
ENDBRANCH   1   2
BRANCH   1  35
ATOM     35  C   UNL A   1      41.139  27.666  28.799  1.00  0.00     0.188 C 
BRANCH  35  36
ATOM     36  O   UNL A   1      39.838  27.752  28.233  1.00  0.00    -0.376 OA
BRANCH  36  37
ATOM     37  C   UNL A   1      39.009  28.786  28.755  1.00  0.00     0.202 C 
BRANCH  37  38
ATOM     38  C   UNL A   1      37.975  29.330  27.771  1.00  0.00     0.261 C 
BRANCH  38  39
ATOM     39  O   UNL A   1      36.654  29.428  28.291  1.00  0.00    -0.460 OA
BRANCH  39  40
ATOM     40  C   UNL A   1      36.201  30.674  28.517  1.00  0.00     0.338 C 
ATOM     41  O   UNL A   1      35.585  31.379  27.722  1.00  0.00    -0.246 OA
BRANCH  40  42
ATOM     42  C   UNL A   1      36.624  31.098  29.856  1.00  0.00     0.060 A 
ATOM     43  C   UNL A   1      37.600  32.091  29.938  1.00  0.00     0.016 A 
ATOM     44  C   UNL A   1      36.233  30.354  30.985  1.00  0.00     0.016 A 
ATOM     45  C   UNL A   1      38.326  32.201  31.105  1.00  0.00     0.010 A 
ATOM     46  C   UNL A   1      36.968  30.458  32.146  1.00  0.00     0.010 A 
ATOM     47  C   UNL A   1      38.061  31.319  32.158  1.00  0.00    -0.014 A 
BRANCH  47  48
ATOM     48  C   UNL A   1      39.030  31.267  33.233  1.00  0.00     0.031 A 
ATOM     49  C   UNL A   1      38.874  32.270  34.298  1.00  0.00     0.074 A 
ATOM     50  C   UNL A   1      40.023  30.361  33.263  1.00  0.00     0.049 A 
ATOM     51  N   UNL A   1      39.644  33.276  34.540  1.00  0.00    -0.248 NA
ATOM     52  C   UNL A   1      37.673  32.203  35.135  1.00  0.00     0.031 C 
ATOM     53  C   UNL A   1      40.171  29.162  32.435  1.00  0.00     0.029 A 
ATOM     54  N   UNL A   1      41.082  30.296  34.115  1.00  0.00    -0.354 N 
ATOM     55  C   UNL A   1      39.145  33.865  35.692  1.00  0.00     0.074 A 
ATOM     56  C   UNL A   1      37.857  33.263  35.924  1.00  0.00     0.031 C 
ATOM     57  C   UNL A   1      41.148  28.387  32.956  1.00  0.00     0.029 A 
ATOM     58  C   UNL A   1      41.775  29.097  34.059  1.00  0.00     0.049 A 
ATOM     59  H   UNL A   1      41.334  31.034  34.717  1.00  0.00     0.167 HD
ATOM     60  C   UNL A   1      39.925  34.661  36.471  1.00  0.00     0.034 A 
ATOM     61  C   UNL A   1      42.760  28.690  34.895  1.00  0.00     0.034 A 
ATOM     62  C   UNL A   1      41.096  35.118  35.757  1.00  0.00     0.049 A 
ATOM     63  C   UNL A   1      43.388  29.901  35.472  1.00  0.00     0.074 A 
ATOM     64  C   UNL A   1      41.306  35.865  34.613  1.00  0.00     0.029 A 
ATOM     65  N   UNL A   1      42.302  34.517  36.035  1.00  0.00    -0.354 N 
ATOM     66  N   UNL A   1      44.069  30.763  34.769  1.00  0.00    -0.248 NA
ATOM     67  C   UNL A   1      42.938  30.389  36.769  1.00  0.00     0.031 C 
ATOM     68  C   UNL A   1      42.483  35.323  34.018  1.00  0.00     0.029 A 
ATOM     69  C   UNL A   1      42.942  34.293  34.840  1.00  0.00     0.049 A 
ATOM     70  H   UNL A   1      42.644  34.288  36.929  1.00  0.00     0.167 HD
ATOM     71  C   UNL A   1      43.771  31.998  35.322  1.00  0.00     0.074 A 
ATOM     72  C   UNL A   1      43.195  31.692  36.626  1.00  0.00     0.031 C 
ATOM     73  C   UNL A   1      43.760  33.128  34.555  1.00  0.00     0.034 A 
BRANCH  60  74
ATOM     74  C   UNL A   1      39.794  34.786  37.968  1.00  0.00     0.023 A 
ATOM     75  C   UNL A   1      39.446  36.047  38.489  1.00  0.00     0.031 A 
ATOM     76  C   UNL A   1      40.246  33.835  38.911  1.00  0.00     0.131 A 
ATOM     77  C   UNL A   1      39.621  36.340  39.852  1.00  0.00     0.055 A 
ATOM     78  C   UNL A   1      40.342  34.106  40.278  1.00  0.00     0.041 A 
ATOM     79  F   UNL A   1      40.714  32.632  38.556  1.00  0.00    -0.206 F 
ATOM     80  C   UNL A   1      40.056  35.374  40.754  1.00  0.00     0.022 A 
BRANCH  77  81
ATOM     81  S   UNL A   1      39.454  38.061  40.389  1.00  0.00     0.124 S 
ATOM     82  O   UNL A   1      39.270  37.907  41.829  1.00  0.00    -0.237 OA
ATOM     83  O   UNL A   1      40.725  38.634  39.960  1.00  0.00    -0.237 OA
ATOM     84  O   UNL A   1      38.279  38.530  39.660  1.00  0.00    -0.744 OA
ENDBRANCH  77  81
ENDBRANCH  60  74
BRANCH  61  85
ATOM     85  C   UNL A   1      42.983  27.311  35.389  1.00  0.00     0.023 A 
ATOM     86  C   UNL A   1      44.126  26.565  35.050  1.00  0.00     0.031 A 
ATOM     87  C   UNL A   1      42.154  26.784  36.406  1.00  0.00     0.131 A 
ATOM     88  C   UNL A   1      44.398  25.349  35.712  1.00  0.00     0.055 A 
ATOM     89  C   UNL A   1      42.418  25.572  37.045  1.00  0.00     0.041 A 
ATOM     90  F   UNL A   1      41.103  27.474  36.877  1.00  0.00    -0.206 F 
ATOM     91  C   UNL A   1      43.549  24.851  36.705  1.00  0.00     0.022 A 
BRANCH  88  92
ATOM     92  S   UNL A   1      45.943  24.453  35.369  1.00  0.00     0.124 S 
ATOM     93  O   UNL A   1      46.942  25.307  36.002  1.00  0.00    -0.237 OA
ATOM     94  O   UNL A   1      45.703  23.159  35.997  1.00  0.00    -0.237 OA
ATOM     95  O   UNL A   1      46.000  24.420  33.907  1.00  0.00    -0.744 OA
ENDBRANCH  88  92
ENDBRANCH  61  85
BRANCH  73  96
ATOM     96  C   UNL A   1      44.432  33.069  33.199  1.00  0.00     0.023 A 
ATOM     97  C   UNL A   1      43.754  32.796  31.990  1.00  0.00     0.031 A 
ATOM     98  C   UNL A   1      45.793  33.406  33.122  1.00  0.00     0.131 A 
ATOM     99  C   UNL A   1      44.446  32.843  30.766  1.00  0.00     0.055 A 
ATOM    100  C   UNL A   1      46.473  33.472  31.905  1.00  0.00     0.041 A 
ATOM    101  F   UNL A   1      46.485  33.712  34.233  1.00  0.00    -0.206 F 
ATOM    102  C   UNL A   1      45.803  33.183  30.720  1.00  0.00     0.022 A 
BRANCH  99 103
ATOM    103  S   UNL A   1      43.583  32.465  29.208  1.00  0.00     0.124 S 
ATOM    104  O   UNL A   1      43.103  33.766  28.760  1.00  0.00    -0.237 OA
ATOM    105  O   UNL A   1      44.639  31.856  28.401  1.00  0.00    -0.237 OA
ATOM    106  O   UNL A   1      42.527  31.537  29.621  1.00  0.00    -0.744 OA
ENDBRANCH  99 103
ENDBRANCH  73  96
ENDBRANCH  47  48
ENDBRANCH  40  42
ENDBRANCH  39  40
ENDBRANCH  38  39
ENDBRANCH  37  38
ENDBRANCH  36  37
ENDBRANCH  35  36
ENDBRANCH   1  35
TORSDOF 25
ENDMDL
