MODEL 1
REMARK VINA RESULT:     -11.1      0.000      0.000
REMARK SMILES O=C(C[C@H]1C[C@H]2CC[C@@H](C1)[N@H+]2[C@@H]1CCCSC1)OCCOCCOCCOC(=O)c1ccc(-c2c3nc(c(-c4cc(S(=O)(=O)[O-])ccc4F)c4ccc([nH]4)c(-c4cc(S(=O)(=O)[O-])ccc4F)c4nc(c(-c5cc(S(=O)(=O)[O-])ccc5F)c5ccc2[nH]5)C=C4)C=C3)cc1
REMARK SMILES IDX 23 1 22 2 21 3 20 4 19 5 18 6 2 7 1 8 3 9 4 10 5 11 10 12
REMARK SMILES IDX 6 13 9 14 7 15 11 16 8 17 12 19 13 20 17 21 14 22 16 23
REMARK SMILES IDX 15 24 24 25 25 26 26 27 27 28 28 29 29 30 30 31 31 32 92 33
REMARK SMILES IDX 32 34 91 35 33 36 34 37 35 38 85 39 36 40 90 41 84 42 86 43
REMARK SMILES IDX 37 44 89 45 83 46 82 47 38 49 70 50 50 51 69 52 51 53 54 54
REMARK SMILES IDX 68 55 87 56 52 57 53 58 67 60 88 61 55 62 39 63 40 64 48 65
REMARK SMILES IDX 41 66 47 67 49 68 46 69 42 70 43 71 44 72 45 73 71 74 72 75
REMARK SMILES IDX 80 76 73 77 79 78 81 79 78 80 74 81 75 82 76 83 77 84 56 85
REMARK SMILES IDX 57 86 65 87 58 88 64 89 66 90 63 91 59 92 60 93 61 94 62 95
REMARK H PARENT 11 18 86 48 54 59
REMARK Flexibility Score: inf
ROOT
ATOM      1  C   UNL A   1      32.341  30.046  26.576  1.00  0.00     0.188 C 
ENDROOT
BRANCH   1   2
ATOM      2  C   UNL A   1      33.318  29.266  25.685  1.00  0.00     0.188 C 
BRANCH   2   3
ATOM      3  O   UNL A   1      33.174  29.540  24.299  1.00  0.00    -0.376 OA
BRANCH   3   4
ATOM      4  C   UNL A   1      32.697  28.488  23.477  1.00  0.00     0.202 C 
BRANCH   4   5
ATOM      5  C   UNL A   1      33.569  28.204  22.255  1.00  0.00     0.261 C 
BRANCH   5   6
ATOM      6  O   UNL A   1      33.860  26.825  21.915  1.00  0.00    -0.463 OA
BRANCH   6   7
ATOM      7  C   UNL A   1      33.061  25.826  21.489  1.00  0.00     0.306 C 
ATOM      8  O   UNL A   1      33.037  25.537  20.294  1.00  0.00    -0.252 OA
BRANCH   7   9
ATOM      9  C   UNL A   1      32.180  25.097  22.469  1.00  0.00     0.126 C 
BRANCH   9  10
ATOM     10  C   UNL A   1      32.628  23.652  22.683  1.00  0.00     0.012 C 
ATOM     11  C   UNL A   1      34.148  23.547  22.963  1.00  0.00     0.069 C 
ATOM     12  C   UNL A   1      31.694  22.944  23.691  1.00  0.00     0.069 C 
ATOM     13  C   UNL A   1      34.538  22.893  24.301  1.00  0.00     0.185 C 
ATOM     14  C   UNL A   1      32.369  22.541  24.999  1.00  0.00     0.185 C 
ATOM     15  C   UNL A   1      34.323  23.914  25.425  1.00  0.00     0.071 C 
ATOM     16  N   UNL A   1      33.622  21.842  24.732  1.00  0.00    -0.327 N 
ATOM     17  C   UNL A   1      32.848  23.766  25.791  1.00  0.00     0.071 C 
ATOM     18  H   UNL A   1      33.976  21.381  25.570  1.00  0.00     0.348 HD
BRANCH  16  19
ATOM     19  C   UNL A   1      33.638  20.498  24.126  1.00  0.00     0.194 C 
ATOM     20  C   UNL A   1      32.271  19.934  23.678  1.00  0.00     0.067 C 
ATOM     21  C   UNL A   1      34.440  19.502  25.005  1.00  0.00     0.134 C 
ATOM     22  C   UNL A   1      32.294  18.525  23.086  1.00  0.00     0.017 C 
ATOM     23  S   UNL A   1      34.613  17.825  24.319  1.00  0.00    -0.156 SA
ATOM     24  C   UNL A   1      32.860  17.491  24.040  1.00  0.00     0.070 C 
ENDBRANCH  16  19
ENDBRANCH   9  10
ENDBRANCH   7   9
ENDBRANCH   6   7
ENDBRANCH   5   6
ENDBRANCH   4   5
ENDBRANCH   3   4
ENDBRANCH   2   3
ENDBRANCH   1   2
BRANCH   1  25
ATOM     25  O   UNL A   1      31.415  30.910  25.933  1.00  0.00    -0.376 OA
BRANCH  25  26
ATOM     26  C   UNL A   1      31.111  32.143  26.588  1.00  0.00     0.202 C 
BRANCH  26  27
ATOM     27  C   UNL A   1      32.247  33.161  26.777  1.00  0.00     0.261 C 
BRANCH  27  28
ATOM     28  O   UNL A   1      32.457  33.605  28.137  1.00  0.00    -0.460 OA
BRANCH  28  29
ATOM     29  C   UNL A   1      33.638  34.248  28.338  1.00  0.00     0.338 C 
ATOM     30  O   UNL A   1      33.794  35.444  28.519  1.00  0.00    -0.246 OA
BRANCH  29  31
ATOM     31  C   UNL A   1      34.781  33.317  28.396  1.00  0.00     0.060 A 
ATOM     32  C   UNL A   1      34.579  32.037  28.928  1.00  0.00     0.016 A 
ATOM     33  C   UNL A   1      36.078  33.796  28.194  1.00  0.00     0.016 A 
ATOM     34  C   UNL A   1      35.675  31.258  29.315  1.00  0.00     0.010 A 
ATOM     35  C   UNL A   1      37.174  33.013  28.584  1.00  0.00     0.010 A 
ATOM     36  C   UNL A   1      36.980  31.760  29.194  1.00  0.00    -0.014 A 
BRANCH  36  37
ATOM     37  C   UNL A   1      38.109  31.053  29.862  1.00  0.00     0.031 A 
ATOM     38  C   UNL A   1      38.442  31.381  31.297  1.00  0.00     0.074 A 
ATOM     39  C   UNL A   1      38.814  30.102  29.221  1.00  0.00     0.049 A 
ATOM     40  N   UNL A   1      39.380  30.890  32.068  1.00  0.00    -0.248 NA
ATOM     41  C   UNL A   1      37.605  32.401  31.947  1.00  0.00     0.031 C 
ATOM     42  C   UNL A   1      38.586  29.666  27.845  1.00  0.00     0.029 A 
ATOM     43  N   UNL A   1      39.871  29.333  29.646  1.00  0.00    -0.354 N 
ATOM     44  C   UNL A   1      39.239  31.527  33.297  1.00  0.00     0.074 A 
ATOM     45  C   UNL A   1      38.154  32.476  33.150  1.00  0.00     0.031 C 
ATOM     46  C   UNL A   1      39.485  28.717  27.534  1.00  0.00     0.029 A 
ATOM     47  C   UNL A   1      40.367  28.492  28.679  1.00  0.00     0.049 A 
ATOM     48  H   UNL A   1      40.236  29.380  30.558  1.00  0.00     0.167 HD
ATOM     49  C   UNL A   1      39.933  31.333  34.447  1.00  0.00     0.034 A 
ATOM     50  C   UNL A   1      41.423  27.653  28.704  1.00  0.00     0.034 A 
ATOM     51  C   UNL A   1      41.030  30.405  34.590  1.00  0.00     0.049 A 
ATOM     52  C   UNL A   1      42.228  27.503  29.974  1.00  0.00     0.074 A 
ATOM     53  C   UNL A   1      41.798  30.142  35.714  1.00  0.00     0.029 A 
ATOM     54  N   UNL A   1      41.524  29.592  33.580  1.00  0.00    -0.354 N 
ATOM     55  N   UNL A   1      42.072  28.107  31.130  1.00  0.00    -0.248 NA
ATOM     56  C   UNL A   1      43.341  26.544  29.943  1.00  0.00     0.031 C 
ATOM     57  C   UNL A   1      42.790  29.217  35.366  1.00  0.00     0.029 A 
ATOM     58  C   UNL A   1      42.599  28.849  34.044  1.00  0.00     0.049 A 
ATOM     59  H   UNL A   1      41.162  29.550  32.665  1.00  0.00     0.167 HD
ATOM     60  C   UNL A   1      43.054  27.580  31.967  1.00  0.00     0.074 A 
ATOM     61  C   UNL A   1      43.779  26.596  31.192  1.00  0.00     0.031 C 
ATOM     62  C   UNL A   1      43.333  27.883  33.262  1.00  0.00     0.034 A 
BRANCH  49  63
ATOM     63  C   UNL A   1      39.544  32.176  35.638  1.00  0.00     0.023 A 
ATOM     64  C   UNL A   1      38.691  31.680  36.641  1.00  0.00     0.031 A 
ATOM     65  C   UNL A   1      40.017  33.493  35.765  1.00  0.00     0.131 A 
ATOM     66  C   UNL A   1      38.292  32.516  37.694  1.00  0.00     0.055 A 
ATOM     67  C   UNL A   1      39.672  34.297  36.853  1.00  0.00     0.041 A 
ATOM     68  F   UNL A   1      40.820  34.024  34.828  1.00  0.00    -0.206 F 
ATOM     69  C   UNL A   1      38.794  33.814  37.820  1.00  0.00     0.022 A 
BRANCH  66  70
ATOM     70  S   UNL A   1      37.013  31.925  38.836  1.00  0.00     0.124 S 
ATOM     71  O   UNL A   1      36.923  30.512  38.472  1.00  0.00    -0.237 OA
ATOM     72  O   UNL A   1      37.597  32.213  40.140  1.00  0.00    -0.237 OA
ATOM     73  O   UNL A   1      35.843  32.726  38.486  1.00  0.00    -0.744 OA
ENDBRANCH  66  70
ENDBRANCH  49  63
BRANCH  50  74
ATOM     74  C   UNL A   1      41.824  26.908  27.476  1.00  0.00     0.023 A 
ATOM     75  C   UNL A   1      41.640  25.520  27.371  1.00  0.00     0.031 A 
ATOM     76  C   UNL A   1      42.471  27.571  26.418  1.00  0.00     0.131 A 
ATOM     77  C   UNL A   1      42.150  24.831  26.259  1.00  0.00     0.055 A 
ATOM     78  C   UNL A   1      42.930  26.889  25.291  1.00  0.00     0.041 A 
ATOM     79  F   UNL A   1      42.670  28.898  26.469  1.00  0.00    -0.206 F 
ATOM     80  C   UNL A   1      42.783  25.507  25.214  1.00  0.00     0.022 A 
BRANCH  77  81
ATOM     81  S   UNL A   1      42.058  23.020  26.245  1.00  0.00     0.124 S 
ATOM     82  O   UNL A   1      42.822  22.673  27.439  1.00  0.00    -0.237 OA
ATOM     83  O   UNL A   1      40.618  22.791  26.316  1.00  0.00    -0.237 OA
ATOM     84  O   UNL A   1      42.683  22.657  24.976  1.00  0.00    -0.744 OA
ENDBRANCH  77  81
ENDBRANCH  50  74
BRANCH  62  85
ATOM     85  C   UNL A   1      44.452  27.111  33.922  1.00  0.00     0.023 A 
ATOM     86  C   UNL A   1      44.268  25.797  34.392  1.00  0.00     0.031 A 
ATOM     87  C   UNL A   1      45.708  27.711  34.119  1.00  0.00     0.131 A 
ATOM     88  C   UNL A   1      45.300  25.152  35.092  1.00  0.00     0.055 A 
ATOM     89  C   UNL A   1      46.751  27.043  34.766  1.00  0.00     0.041 A 
ATOM     90  F   UNL A   1      45.942  28.963  33.693  1.00  0.00    -0.206 F 
ATOM     91  C   UNL A   1      46.543  25.762  35.270  1.00  0.00     0.022 A 
BRANCH  88  92
ATOM     92  S   UNL A   1      44.958  23.545  35.863  1.00  0.00     0.124 S 
ATOM     93  O   UNL A   1      45.294  23.798  37.260  1.00  0.00    -0.237 OA
ATOM     94  O   UNL A   1      43.541  23.357  35.572  1.00  0.00    -0.237 OA
ATOM     95  O   UNL A   1      45.861  22.631  35.165  1.00  0.00    -0.744 OA
ENDBRANCH  88  92
ENDBRANCH  62  85
ENDBRANCH  36  37
ENDBRANCH  29  31
ENDBRANCH  28  29
ENDBRANCH  27  28
ENDBRANCH  26  27
ENDBRANCH  25  26
ENDBRANCH   1  25
TORSDOF 22
ENDMDL
MODEL 2
REMARK VINA RESULT:     -10.8      1.400      7.573
REMARK SMILES O=C(C[C@H]1C[C@H]2CC[C@@H](C1)[N@H+]2[C@@H]1CCCSC1)OCCOCCOCCOC(=O)c1ccc(-c2c3nc(c(-c4cc(S(=O)(=O)[O-])ccc4F)c4ccc([nH]4)c(-c4cc(S(=O)(=O)[O-])ccc4F)c4nc(c(-c5cc(S(=O)(=O)[O-])ccc5F)c5ccc2[nH]5)C=C4)C=C3)cc1
REMARK SMILES IDX 23 1 22 2 21 3 20 4 19 5 18 6 2 7 1 8 3 9 4 10 5 11 10 12
REMARK SMILES IDX 6 13 9 14 7 15 11 16 8 17 12 19 13 20 17 21 14 22 16 23
REMARK SMILES IDX 15 24 24 25 25 26 26 27 27 28 28 29 29 30 30 31 31 32 92 33
REMARK SMILES IDX 32 34 91 35 33 36 34 37 35 38 85 39 36 40 90 41 84 42 86 43
REMARK SMILES IDX 37 44 89 45 83 46 82 47 38 49 70 50 50 51 69 52 51 53 54 54
REMARK SMILES IDX 68 55 87 56 52 57 53 58 67 60 88 61 55 62 39 63 40 64 48 65
REMARK SMILES IDX 41 66 47 67 49 68 46 69 42 70 43 71 44 72 45 73 71 74 72 75
REMARK SMILES IDX 80 76 73 77 79 78 81 79 78 80 74 81 75 82 76 83 77 84 56 85
REMARK SMILES IDX 57 86 65 87 58 88 64 89 66 90 63 91 59 92 60 93 61 94 62 95
REMARK H PARENT 11 18 86 48 54 59
REMARK Flexibility Score: inf
ROOT
ATOM      1  C   UNL A   1      32.330  29.778  25.423  1.00  0.00     0.188 C 
ENDROOT
BRANCH   1   2
ATOM      2  C   UNL A   1      31.138  29.206  24.643  1.00  0.00     0.188 C 
BRANCH   2   3
ATOM      3  O   UNL A   1      31.420  27.980  23.983  1.00  0.00    -0.376 OA
BRANCH   3   4
ATOM      4  C   UNL A   1      31.713  26.858  24.800  1.00  0.00     0.202 C 
BRANCH   4   5
ATOM      5  C   UNL A   1      30.506  25.968  25.094  1.00  0.00     0.261 C 
BRANCH   5   6
ATOM      6  O   UNL A   1      30.430  25.305  26.381  1.00  0.00    -0.463 OA
BRANCH   6   7
ATOM      7  C   UNL A   1      30.927  24.125  26.806  1.00  0.00     0.306 C 
ATOM      8  O   UNL A   1      30.174  23.300  27.319  1.00  0.00    -0.252 OA
BRANCH   7   9
ATOM      9  C   UNL A   1      32.401  23.841  26.685  1.00  0.00     0.126 C 
BRANCH   9  10
ATOM     10  C   UNL A   1      32.677  22.421  26.193  1.00  0.00     0.012 C 
ATOM     11  C   UNL A   1      32.485  22.286  24.661  1.00  0.00     0.069 C 
ATOM     12  C   UNL A   1      34.017  21.906  26.764  1.00  0.00     0.069 C 
ATOM     13  C   UNL A   1      33.717  21.809  23.873  1.00  0.00     0.185 C 
ATOM     14  C   UNL A   1      35.096  21.659  25.714  1.00  0.00     0.185 C 
ATOM     15  C   UNL A   1      34.690  22.986  23.725  1.00  0.00     0.071 C 
ATOM     16  N   UNL A   1      34.560  20.872  24.607  1.00  0.00    -0.327 N 
ATOM     17  C   UNL A   1      35.511  22.959  25.011  1.00  0.00     0.071 C 
ATOM     18  H   UNL A   1      35.306  20.517  24.009  1.00  0.00     0.348 HD
BRANCH  16  19
ATOM     19  C   UNL A   1      34.185  19.458  24.782  1.00  0.00     0.194 C 
ATOM     20  C   UNL A   1      35.306  18.419  24.558  1.00  0.00     0.067 C 
ATOM     21  C   UNL A   1      32.891  19.125  23.992  1.00  0.00     0.134 C 
ATOM     22  C   UNL A   1      34.896  16.954  24.705  1.00  0.00     0.017 C 
ATOM     23  S   UNL A   1      32.268  17.428  24.201  1.00  0.00    -0.156 SA
ATOM     24  C   UNL A   1      33.783  16.552  23.756  1.00  0.00     0.070 C 
ENDBRANCH  16  19
ENDBRANCH   9  10
ENDBRANCH   7   9
ENDBRANCH   6   7
ENDBRANCH   5   6
ENDBRANCH   4   5
ENDBRANCH   3   4
ENDBRANCH   2   3
ENDBRANCH   1   2
BRANCH   1  25
ATOM     25  O   UNL A   1      32.046  30.528  26.596  1.00  0.00    -0.376 OA
BRANCH  25  26
ATOM     26  C   UNL A   1      31.310  31.742  26.432  1.00  0.00     0.202 C 
BRANCH  26  27
ATOM     27  C   UNL A   1      31.996  33.061  26.821  1.00  0.00     0.261 C 
BRANCH  27  28
ATOM     28  O   UNL A   1      32.791  33.010  28.028  1.00  0.00    -0.460 OA
BRANCH  28  29
ATOM     29  C   UNL A   1      33.939  33.735  27.971  1.00  0.00     0.338 C 
ATOM     30  O   UNL A   1      34.030  34.944  27.832  1.00  0.00    -0.246 OA
BRANCH  29  31
ATOM     31  C   UNL A   1      35.141  32.903  28.176  1.00  0.00     0.060 A 
ATOM     32  C   UNL A   1      34.983  31.615  28.701  1.00  0.00     0.016 A 
ATOM     33  C   UNL A   1      36.408  33.488  28.117  1.00  0.00     0.016 A 
ATOM     34  C   UNL A   1      36.087  30.932  29.225  1.00  0.00     0.010 A 
ATOM     35  C   UNL A   1      37.512  32.801  28.644  1.00  0.00     0.010 A 
ATOM     36  C   UNL A   1      37.351  31.540  29.248  1.00  0.00    -0.014 A 
BRANCH  36  37
ATOM     37  C   UNL A   1      38.449  30.934  30.054  1.00  0.00     0.031 A 
ATOM     38  C   UNL A   1      39.310  29.857  29.440  1.00  0.00     0.074 A 
ATOM     39  C   UNL A   1      38.711  31.356  31.305  1.00  0.00     0.049 A 
ATOM     40  N   UNL A   1      40.314  29.195  29.959  1.00  0.00    -0.248 NA
ATOM     41  C   UNL A   1      38.992  29.475  28.055  1.00  0.00     0.031 C 
ATOM     42  C   UNL A   1      37.979  32.404  32.012  1.00  0.00     0.029 A 
ATOM     43  N   UNL A   1      39.666  30.947  32.205  1.00  0.00    -0.354 N 
ATOM     44  C   UNL A   1      40.759  28.331  28.964  1.00  0.00     0.074 A 
ATOM     45  C   UNL A   1      39.881  28.520  27.827  1.00  0.00     0.031 C 
ATOM     46  C   UNL A   1      38.502  32.547  33.243  1.00  0.00     0.029 A 
ATOM     47  C   UNL A   1      39.591  31.586  33.419  1.00  0.00     0.049 A 
ATOM     48  H   UNL A   1      40.341  30.261  31.998  1.00  0.00     0.167 HD
ATOM     49  C   UNL A   1      41.808  27.470  28.984  1.00  0.00     0.034 A 
ATOM     50  C   UNL A   1      40.303  31.405  34.551  1.00  0.00     0.034 A 
ATOM     51  C   UNL A   1      42.670  27.262  30.123  1.00  0.00     0.049 A 
ATOM     52  C   UNL A   1      41.422  30.391  34.575  1.00  0.00     0.074 A 
ATOM     53  C   UNL A   1      43.756  26.408  30.240  1.00  0.00     0.029 A 
ATOM     54  N   UNL A   1      42.545  27.906  31.346  1.00  0.00    -0.354 N 
ATOM     55  N   UNL A   1      41.835  29.590  33.620  1.00  0.00    -0.248 NA
ATOM     56  C   UNL A   1      42.181  30.272  35.828  1.00  0.00     0.031 C 
ATOM     57  C   UNL A   1      44.247  26.493  31.549  1.00  0.00     0.029 A 
ATOM     58  C   UNL A   1      43.513  27.451  32.229  1.00  0.00     0.049 A 
ATOM     59  H   UNL A   1      41.866  28.588  31.556  1.00  0.00     0.167 HD
ATOM     60  C   UNL A   1      42.917  28.890  34.154  1.00  0.00     0.074 A 
ATOM     61  C   UNL A   1      43.106  29.381  35.502  1.00  0.00     0.031 C 
ATOM     62  C   UNL A   1      43.686  27.928  33.580  1.00  0.00     0.034 A 
BRANCH  49  63
ATOM     63  C   UNL A   1      42.056  26.657  27.736  1.00  0.00     0.023 A 
ATOM     64  C   UNL A   1      41.656  25.312  27.645  1.00  0.00     0.031 A 
ATOM     65  C   UNL A   1      42.711  27.227  26.631  1.00  0.00     0.131 A 
ATOM     66  C   UNL A   1      41.968  24.566  26.498  1.00  0.00     0.055 A 
ATOM     67  C   UNL A   1      42.956  26.500  25.465  1.00  0.00     0.041 A 
ATOM     68  F   UNL A   1      43.131  28.502  26.670  1.00  0.00    -0.206 F 
ATOM     69  C   UNL A   1      42.595  25.157  25.398  1.00  0.00     0.022 A 
BRANCH  66  70
ATOM     70  S   UNL A   1      41.648  22.781  26.508  1.00  0.00     0.124 S 
ATOM     71  O   UNL A   1      42.354  22.362  27.717  1.00  0.00    -0.237 OA
ATOM     72  O   UNL A   1      40.192  22.722  26.565  1.00  0.00    -0.237 OA
ATOM     73  O   UNL A   1      42.241  22.318  25.256  1.00  0.00    -0.744 OA
ENDBRANCH  66  70
ENDBRANCH  49  63
BRANCH  50  74
ATOM     74  C   UNL A   1      39.962  32.169  35.786  1.00  0.00     0.023 A 
ATOM     75  C   UNL A   1      38.978  31.713  36.678  1.00  0.00     0.031 A 
ATOM     76  C   UNL A   1      40.567  33.411  36.047  1.00  0.00     0.131 A 
ATOM     77  C   UNL A   1      38.588  32.521  37.758  1.00  0.00     0.055 A 
ATOM     78  C   UNL A   1      40.212  34.186  37.151  1.00  0.00     0.041 A 
ATOM     79  F   UNL A   1      41.515  33.891  35.225  1.00  0.00    -0.206 F 
ATOM     80  C   UNL A   1      39.206  33.749  38.006  1.00  0.00     0.022 A 
BRANCH  77  81
ATOM     81  S   UNL A   1      37.188  31.985  38.780  1.00  0.00     0.124 S 
ATOM     82  O   UNL A   1      37.660  32.304  40.123  1.00  0.00    -0.237 OA
ATOM     83  O   UNL A   1      36.105  32.817  38.266  1.00  0.00    -0.237 OA
ATOM     84  O   UNL A   1      37.074  30.560  38.479  1.00  0.00    -0.744 OA
ENDBRANCH  77  81
ENDBRANCH  50  74
BRANCH  62  85
ATOM     85  C   UNL A   1      44.821  27.372  34.409  1.00  0.00     0.023 A 
ATOM     86  C   UNL A   1      44.651  26.246  35.235  1.00  0.00     0.031 A 
ATOM     87  C   UNL A   1      46.078  28.001  34.403  1.00  0.00     0.131 A 
ATOM     88  C   UNL A   1      45.699  25.822  36.068  1.00  0.00     0.055 A 
ATOM     89  C   UNL A   1      47.136  27.540  35.191  1.00  0.00     0.041 A 
ATOM     90  F   UNL A   1      46.299  29.080  33.636  1.00  0.00    -0.206 F 
ATOM     91  C   UNL A   1      46.943  26.455  36.041  1.00  0.00     0.022 A 
BRANCH  88  92
ATOM     92  S   UNL A   1      45.378  24.500  37.268  1.00  0.00     0.124 S 
ATOM     93  O   UNL A   1      46.501  24.643  38.189  1.00  0.00    -0.237 OA
ATOM     94  O   UNL A   1      44.070  24.871  37.797  1.00  0.00    -0.237 OA
ATOM     95  O   UNL A   1      45.396  23.286  36.454  1.00  0.00    -0.744 OA
ENDBRANCH  88  92
ENDBRANCH  62  85
ENDBRANCH  36  37
ENDBRANCH  29  31
ENDBRANCH  28  29
ENDBRANCH  27  28
ENDBRANCH  26  27
ENDBRANCH  25  26
ENDBRANCH   1  25
TORSDOF 22
ENDMDL
MODEL 3
REMARK VINA RESULT:     -10.6      2.412      7.878
REMARK SMILES O=C(C[C@H]1C[C@H]2CC[C@@H](C1)[N@H+]2[C@@H]1CCCSC1)OCCOCCOCCOC(=O)c1ccc(-c2c3nc(c(-c4cc(S(=O)(=O)[O-])ccc4F)c4ccc([nH]4)c(-c4cc(S(=O)(=O)[O-])ccc4F)c4nc(c(-c5cc(S(=O)(=O)[O-])ccc5F)c5ccc2[nH]5)C=C4)C=C3)cc1
REMARK SMILES IDX 23 1 22 2 21 3 20 4 19 5 18 6 2 7 1 8 3 9 4 10 5 11 10 12
REMARK SMILES IDX 6 13 9 14 7 15 11 16 8 17 12 19 13 20 17 21 14 22 16 23
REMARK SMILES IDX 15 24 24 25 25 26 26 27 27 28 28 29 29 30 30 31 31 32 92 33
REMARK SMILES IDX 32 34 91 35 33 36 34 37 35 38 85 39 36 40 90 41 84 42 86 43
REMARK SMILES IDX 37 44 89 45 83 46 82 47 38 49 70 50 50 51 69 52 51 53 54 54
REMARK SMILES IDX 68 55 87 56 52 57 53 58 67 60 88 61 55 62 39 63 40 64 48 65
REMARK SMILES IDX 41 66 47 67 49 68 46 69 42 70 43 71 44 72 45 73 71 74 72 75
REMARK SMILES IDX 80 76 73 77 79 78 81 79 78 80 74 81 75 82 76 83 77 84 56 85
REMARK SMILES IDX 57 86 65 87 58 88 64 89 66 90 63 91 59 92 60 93 61 94 62 95
REMARK H PARENT 11 18 86 48 54 59
REMARK Flexibility Score: inf
ROOT
ATOM      1  C   UNL A   1      32.322  29.687  25.061  1.00  0.00     0.188 C 
ENDROOT
BRANCH   1   2
ATOM      2  C   UNL A   1      31.497  28.926  24.014  1.00  0.00     0.188 C 
BRANCH   2   3
ATOM      3  O   UNL A   1      31.633  27.514  24.094  1.00  0.00    -0.376 OA
BRANCH   3   4
ATOM      4  C   UNL A   1      31.390  26.911  25.354  1.00  0.00     0.202 C 
BRANCH   4   5
ATOM      5  C   UNL A   1      30.459  25.701  25.298  1.00  0.00     0.261 C 
BRANCH   5   6
ATOM      6  O   UNL A   1      30.281  24.907  26.498  1.00  0.00    -0.463 OA
BRANCH   6   7
ATOM      7  C   UNL A   1      30.889  23.778  26.917  1.00  0.00     0.306 C 
ATOM      8  O   UNL A   1      30.254  22.957  27.576  1.00  0.00    -0.252 OA
BRANCH   7   9
ATOM      9  C   UNL A   1      32.346  23.549  26.610  1.00  0.00     0.126 C 
BRANCH   9  10
ATOM     10  C   UNL A   1      32.644  22.084  26.294  1.00  0.00     0.012 C 
ATOM     11  C   UNL A   1      31.785  21.553  25.118  1.00  0.00     0.069 C 
ATOM     12  C   UNL A   1      34.169  21.859  26.184  1.00  0.00     0.069 C 
ATOM     13  C   UNL A   1      32.568  21.015  23.908  1.00  0.00     0.185 C 
ATOM     14  C   UNL A   1      34.649  21.463  24.791  1.00  0.00     0.185 C 
ATOM     15  C   UNL A   1      33.086  22.206  23.091  1.00  0.00     0.071 C 
ATOM     16  N   UNL A   1      33.832  20.377  24.259  1.00  0.00    -0.327 N 
ATOM     17  C   UNL A   1      34.403  22.580  23.767  1.00  0.00     0.071 C 
ATOM     18  H   UNL A   1      34.262  19.957  23.435  1.00  0.00     0.348 HD
BRANCH  16  19
ATOM     19  C   UNL A   1      33.886  19.021  24.836  1.00  0.00     0.194 C 
ATOM     20  C   UNL A   1      35.085  18.145  24.411  1.00  0.00     0.067 C 
ATOM     21  C   UNL A   1      32.524  18.294  24.676  1.00  0.00     0.134 C 
ATOM     22  C   UNL A   1      35.112  16.729  24.985  1.00  0.00     0.017 C 
ATOM     23  S   UNL A   1      32.432  16.642  25.432  1.00  0.00    -0.156 SA
ATOM     24  C   UNL A   1      33.879  15.921  24.627  1.00  0.00     0.070 C 
ENDBRANCH  16  19
ENDBRANCH   9  10
ENDBRANCH   7   9
ENDBRANCH   6   7
ENDBRANCH   5   6
ENDBRANCH   4   5
ENDBRANCH   3   4
ENDBRANCH   2   3
ENDBRANCH   1   2
BRANCH   1  25
ATOM     25  O   UNL A   1      31.613  30.349  26.100  1.00  0.00    -0.376 OA
BRANCH  25  26
ATOM     26  C   UNL A   1      30.914  31.545  25.752  1.00  0.00     0.202 C 
BRANCH  26  27
ATOM     27  C   UNL A   1      31.409  32.872  26.350  1.00  0.00     0.261 C 
BRANCH  27  28
ATOM     28  O   UNL A   1      32.057  32.763  27.639  1.00  0.00    -0.460 OA
BRANCH  28  29
ATOM     29  C   UNL A   1      33.096  33.621  27.815  1.00  0.00     0.338 C 
ATOM     30  O   UNL A   1      33.037  34.839  27.856  1.00  0.00    -0.246 OA
BRANCH  29  31
ATOM     31  C   UNL A   1      34.374  32.917  28.040  1.00  0.00     0.060 A 
ATOM     32  C   UNL A   1      34.339  31.578  28.446  1.00  0.00     0.016 A 
ATOM     33  C   UNL A   1      35.563  33.646  28.121  1.00  0.00     0.016 A 
ATOM     34  C   UNL A   1      35.482  30.982  28.992  1.00  0.00     0.010 A 
ATOM     35  C   UNL A   1      36.706  33.046  28.670  1.00  0.00     0.010 A 
ATOM     36  C   UNL A   1      36.660  31.727  29.157  1.00  0.00    -0.014 A 
BRANCH  36  37
ATOM     37  C   UNL A   1      37.770  31.181  29.989  1.00  0.00     0.031 A 
ATOM     38  C   UNL A   1      38.678  30.123  29.411  1.00  0.00     0.074 A 
ATOM     39  C   UNL A   1      38.001  31.642  31.232  1.00  0.00     0.049 A 
ATOM     40  N   UNL A   1      39.699  29.512  29.957  1.00  0.00    -0.248 NA
ATOM     41  C   UNL A   1      38.391  29.697  28.032  1.00  0.00     0.031 C 
ATOM     42  C   UNL A   1      37.222  32.678  31.907  1.00  0.00     0.029 A 
ATOM     43  N   UNL A   1      38.959  31.290  32.152  1.00  0.00    -0.354 N 
ATOM     44  C   UNL A   1      40.188  28.641  28.988  1.00  0.00     0.074 A 
ATOM     45  C   UNL A   1      39.318  28.771  27.837  1.00  0.00     0.031 C 
ATOM     46  C   UNL A   1      37.724  32.869  33.139  1.00  0.00     0.029 A 
ATOM     47  C   UNL A   1      38.846  31.954  33.351  1.00  0.00     0.049 A 
ATOM     48  H   UNL A   1      39.661  30.625  31.970  1.00  0.00     0.167 HD
ATOM     49  C   UNL A   1      41.269  27.821  29.040  1.00  0.00     0.034 A 
ATOM     50  C   UNL A   1      39.550  31.827  34.495  1.00  0.00     0.034 A 
ATOM     51  C   UNL A   1      42.124  27.673  30.193  1.00  0.00     0.049 A 
ATOM     52  C   UNL A   1      40.706  30.856  34.555  1.00  0.00     0.074 A 
ATOM     53  C   UNL A   1      43.239  26.863  30.343  1.00  0.00     0.029 A 
ATOM     54  N   UNL A   1      41.960  28.340  31.399  1.00  0.00    -0.354 N 
ATOM     55  N   UNL A   1      41.160  30.049  33.624  1.00  0.00    -0.248 NA
ATOM     56  C   UNL A   1      41.454  30.794  35.819  1.00  0.00     0.031 C 
ATOM     57  C   UNL A   1      43.711  26.997  31.655  1.00  0.00     0.029 A 
ATOM     58  C   UNL A   1      42.933  27.942  32.304  1.00  0.00     0.049 A 
ATOM     59  H   UNL A   1      41.253  29.000  31.585  1.00  0.00     0.167 HD
ATOM     60  C   UNL A   1      42.261  29.403  34.187  1.00  0.00     0.074 A 
ATOM     61  C   UNL A   1      42.415  29.931  35.525  1.00  0.00     0.031 C 
ATOM     62  C   UNL A   1      43.072  28.457  33.645  1.00  0.00     0.034 A 
BRANCH  49  63
ATOM     63  C   UNL A   1      41.562  26.989  27.815  1.00  0.00     0.023 A 
ATOM     64  C   UNL A   1      41.225  25.625  27.756  1.00  0.00     0.031 A 
ATOM     65  C   UNL A   1      42.196  27.561  26.699  1.00  0.00     0.131 A 
ATOM     66  C   UNL A   1      41.579  24.865  26.631  1.00  0.00     0.055 A 
ATOM     67  C   UNL A   1      42.483  26.817  25.553  1.00  0.00     0.041 A 
ATOM     68  F   UNL A   1      42.556  28.855  26.706  1.00  0.00    -0.206 F 
ATOM     69  C   UNL A   1      42.185  25.456  25.519  1.00  0.00     0.022 A 
BRANCH  66  70
ATOM     70  S   UNL A   1      41.342  23.069  26.685  1.00  0.00     0.124 S 
ATOM     71  O   UNL A   1      42.178  22.627  25.571  1.00  0.00    -0.237 OA
ATOM     72  O   UNL A   1      41.823  22.727  28.019  1.00  0.00    -0.237 OA
ATOM     73  O   UNL A   1      39.905  22.905  26.480  1.00  0.00    -0.744 OA
ENDBRANCH  66  70
ENDBRANCH  49  63
BRANCH  50  74
ATOM     74  C   UNL A   1      39.166  32.605  35.707  1.00  0.00     0.023 A 
ATOM     75  C   UNL A   1      39.627  33.916  35.909  1.00  0.00     0.031 A 
ATOM     76  C   UNL A   1      38.393  32.013  36.720  1.00  0.00     0.131 A 
ATOM     77  C   UNL A   1      39.358  34.570  37.122  1.00  0.00     0.055 A 
ATOM     78  C   UNL A   1      38.084  32.687  37.902  1.00  0.00     0.041 A 
ATOM     79  F   UNL A   1      37.927  30.761  36.575  1.00  0.00    -0.206 F 
ATOM     80  C   UNL A   1      38.581  33.969  38.115  1.00  0.00     0.022 A 
BRANCH  77  81
ATOM     81  S   UNL A   1      40.123  36.187  37.422  1.00  0.00     0.124 S 
ATOM     82  O   UNL A   1      41.470  35.808  37.834  1.00  0.00    -0.237 OA
ATOM     83  O   UNL A   1      40.007  36.822  36.114  1.00  0.00    -0.237 OA
ATOM     84  O   UNL A   1      39.289  36.768  38.472  1.00  0.00    -0.744 OA
ENDBRANCH  77  81
ENDBRANCH  50  74
BRANCH  62  85
ATOM     85  C   UNL A   1      44.216  27.964  34.500  1.00  0.00     0.023 A 
ATOM     86  C   UNL A   1      45.477  28.589  34.480  1.00  0.00     0.031 A 
ATOM     87  C   UNL A   1      44.056  26.829  35.314  1.00  0.00     0.131 A 
ATOM     88  C   UNL A   1      46.544  28.038  35.209  1.00  0.00     0.055 A 
ATOM     89  C   UNL A   1      45.105  26.319  36.082  1.00  0.00     0.041 A 
ATOM     90  F   UNL A   1      42.876  26.190  35.373  1.00  0.00    -0.206 F 
ATOM     91  C   UNL A   1      46.361  26.915  36.019  1.00  0.00     0.022 A 
BRANCH  88  92
ATOM     92  S   UNL A   1      48.201  28.746  34.997  1.00  0.00     0.124 S 
ATOM     93  O   UNL A   1      49.035  27.796  35.726  1.00  0.00    -0.237 OA
ATOM     94  O   UNL A   1      48.355  28.747  33.547  1.00  0.00    -0.237 OA
ATOM     95  O   UNL A   1      48.090  30.069  35.609  1.00  0.00    -0.744 OA
ENDBRANCH  88  92
ENDBRANCH  62  85
ENDBRANCH  36  37
ENDBRANCH  29  31
ENDBRANCH  28  29
ENDBRANCH  27  28
ENDBRANCH  26  27
ENDBRANCH  25  26
ENDBRANCH   1  25
TORSDOF 22
ENDMDL
