MODEL 1
REMARK VINA RESULT:     -11.6      0.000      0.000
REMARK SMILES Nc1nccc(N2CCC[C@@](Cc3ccc(F)cc3F)(C(=O)OCCOCCOCCOC(=O)c3ccc(-c4c5nc(c(-c6cc(S(=O)(=O)[O-])ccc6F)c6ccc([nH]6)c(-c6cc(S(=O)(=O)[O-])ccc6F)c6nc(c(-c7cc(S(=O)(=O)[O-])ccc7F)c7ccc4[nH]7)C=C6)C=C5)cc3)C2)n1
REMARK SMILES IDX 28 1 27 2 26 3 25 4 24 5 23 6 21 7 22 8 11 9 7 10 8 11 98 12
REMARK SMILES IDX 9 13 10 14 6 15 2 16 3 17 99 18 4 19 5 20 1 21 12 24 13 25
REMARK SMILES IDX 14 26 19 27 15 28 18 29 20 30 16 31 17 32 29 33 30 34 31 35
REMARK SMILES IDX 32 36 33 37 34 38 35 39 36 40 97 41 37 42 96 43 38 44 39 45
REMARK SMILES IDX 40 46 90 47 41 48 95 49 89 50 91 51 42 52 94 53 88 54 87 55
REMARK SMILES IDX 43 57 75 58 55 59 74 60 56 61 59 62 73 63 92 64 57 65 58 66
REMARK SMILES IDX 72 68 93 69 60 70 44 71 45 72 53 73 46 74 52 75 54 76 51 77
REMARK SMILES IDX 47 78 48 79 49 80 50 81 76 82 77 83 85 84 78 85 84 86 86 87
REMARK SMILES IDX 83 88 79 89 80 90 81 91 82 92 61 93 62 94 70 95 63 96 69 97
REMARK SMILES IDX 71 98 68 99 64 100 65 101 66 102 67 103
REMARK H PARENT 1 22 1 23 91 56 59 67
REMARK Flexibility Score: inf
ROOT
ATOM      1  C   UNL A   1      34.015  21.002  25.032  1.00  0.00     0.188 C 
ENDROOT
BRANCH   1   2
ATOM      2  C   UNL A   1      33.002  21.673  24.103  1.00  0.00     0.188 C 
BRANCH   2   3
ATOM      3  O   UNL A   1      33.337  22.921  23.513  1.00  0.00    -0.376 OA
BRANCH   3   4
ATOM      4  C   UNL A   1      32.303  23.726  22.961  1.00  0.00     0.202 C 
BRANCH   4   5
ATOM      5  C   UNL A   1      32.686  24.995  22.185  1.00  0.00     0.261 C 
BRANCH   5   6
ATOM      6  O   UNL A   1      31.596  25.863  21.786  1.00  0.00    -0.463 OA
BRANCH   6   7
ATOM      7  C   UNL A   1      31.632  27.114  22.314  1.00  0.00     0.314 C 
ATOM      8  O   UNL A   1      32.619  27.841  22.223  1.00  0.00    -0.252 OA
BRANCH   7   9
ATOM      9  C   UNL A   1      30.402  27.536  23.135  1.00  0.00     0.090 C 
ATOM     10  N   UNL A   1      28.667  29.256  22.971  1.00  0.00    -0.355 N 
ATOM     11  C   UNL A   1      27.513  28.386  23.092  1.00  0.00     0.118 C 
ATOM     12  C   UNL A   1      29.831  28.708  22.294  1.00  0.00     0.137 C 
ATOM     13  C   UNL A   1      27.947  27.166  23.912  1.00  0.00     0.023 C 
ATOM     14  C   UNL A   1      29.241  26.520  23.368  1.00  0.00     0.023 C 
BRANCH  10  15
ATOM     15  C   UNL A   1      28.463  30.616  22.778  1.00  0.00     0.134 A 
ATOM     16  C   UNL A   1      28.018  32.391  21.399  1.00  0.00     0.221 A 
ATOM     17  N   UNL A   1      28.460  33.286  22.289  1.00  0.00    -0.222 NA
ATOM     18  N   UNL A   1      28.015  31.066  21.593  1.00  0.00    -0.196 NA
ATOM     19  C   UNL A   1      28.893  32.804  23.461  1.00  0.00     0.119 A 
ATOM     20  C   UNL A   1      28.896  31.470  23.769  1.00  0.00     0.067 A 
BRANCH  16  21
ATOM     21  N   UNL A   1      27.551  32.875  20.214  1.00  0.00    -0.368 N 
ATOM     22  H   UNL A   1      27.900  33.724  19.856  1.00  0.00     0.159 HD
ATOM     23  H   UNL A   1      26.864  32.376  19.714  1.00  0.00     0.159 HD
ENDBRANCH  16  21
ENDBRANCH  10  15
BRANCH   9  24
ATOM     24  C   UNL A   1      30.963  28.062  24.499  1.00  0.00     0.059 C 
BRANCH  24  25
ATOM     25  C   UNL A   1      31.796  27.032  25.244  1.00  0.00    -0.011 A 
ATOM     26  C   UNL A   1      33.191  26.994  25.096  1.00  0.00     0.010 A 
ATOM     27  C   UNL A   1      31.182  26.031  26.009  1.00  0.00     0.129 A 
ATOM     28  C   UNL A   1      33.926  25.926  25.609  1.00  0.00     0.040 A 
ATOM     29  C   UNL A   1      31.910  24.974  26.541  1.00  0.00     0.078 A 
ATOM     30  F   UNL A   1      29.858  26.057  26.210  1.00  0.00    -0.207 F 
ATOM     31  C   UNL A   1      33.277  24.920  26.314  1.00  0.00     0.126 A 
ATOM     32  F   UNL A   1      33.983  23.881  26.779  1.00  0.00    -0.207 F 
ENDBRANCH  24  25
ENDBRANCH   9  24
ENDBRANCH   7   9
ENDBRANCH   6   7
ENDBRANCH   5   6
ENDBRANCH   4   5
ENDBRANCH   3   4
ENDBRANCH   2   3
ENDBRANCH   1   2
BRANCH   1  33
ATOM     33  O   UNL A   1      35.368  21.119  24.643  1.00  0.00    -0.376 OA
BRANCH  33  34
ATOM     34  C   UNL A   1      36.225  20.019  24.908  1.00  0.00     0.202 C 
BRANCH  34  35
ATOM     35  C   UNL A   1      37.723  20.332  24.783  1.00  0.00     0.261 C 
BRANCH  35  36
ATOM     36  O   UNL A   1      38.226  21.265  25.758  1.00  0.00    -0.460 OA
BRANCH  36  37
ATOM     37  C   UNL A   1      39.465  21.019  26.258  1.00  0.00     0.338 C 
ATOM     38  O   UNL A   1      40.116  20.000  26.114  1.00  0.00    -0.246 OA
BRANCH  37  39
ATOM     39  C   UNL A   1      40.006  22.312  26.747  1.00  0.00     0.060 A 
ATOM     40  C   UNL A   1      39.504  23.502  26.198  1.00  0.00     0.016 A 
ATOM     41  C   UNL A   1      40.926  22.354  27.797  1.00  0.00     0.016 A 
ATOM     42  C   UNL A   1      39.945  24.737  26.678  1.00  0.00     0.010 A 
ATOM     43  C   UNL A   1      41.384  23.590  28.261  1.00  0.00     0.010 A 
ATOM     44  C   UNL A   1      40.918  24.786  27.685  1.00  0.00    -0.014 A 
BRANCH  44  45
ATOM     45  C   UNL A   1      41.628  26.060  27.970  1.00  0.00     0.031 A 
ATOM     46  C   UNL A   1      40.871  27.129  28.713  1.00  0.00     0.074 A 
ATOM     47  C   UNL A   1      42.900  26.273  27.589  1.00  0.00     0.049 A 
ATOM     48  N   UNL A   1      41.234  28.344  29.028  1.00  0.00    -0.248 NA
ATOM     49  C   UNL A   1      39.512  26.772  29.149  1.00  0.00     0.031 C 
ATOM     50  C   UNL A   1      43.758  25.306  26.908  1.00  0.00     0.029 A 
ATOM     51  N   UNL A   1      43.688  27.390  27.716  1.00  0.00    -0.354 N 
ATOM     52  C   UNL A   1      40.148  28.899  29.696  1.00  0.00     0.074 A 
ATOM     53  C   UNL A   1      39.100  27.900  29.703  1.00  0.00     0.031 C 
ATOM     54  C   UNL A   1      44.952  25.877  26.666  1.00  0.00     0.029 A 
ATOM     55  C   UNL A   1      44.932  27.260  27.142  1.00  0.00     0.049 A 
ATOM     56  H   UNL A   1      43.391  28.210  28.175  1.00  0.00     0.167 HD
ATOM     57  C   UNL A   1      40.033  30.127  30.259  1.00  0.00     0.034 A 
ATOM     58  C   UNL A   1      45.925  28.163  27.001  1.00  0.00     0.034 A 
ATOM     59  C   UNL A   1      41.075  31.122  30.231  1.00  0.00     0.049 A 
ATOM     60  C   UNL A   1      45.735  29.564  27.542  1.00  0.00     0.074 A 
ATOM     61  C   UNL A   1      41.073  32.388  30.791  1.00  0.00     0.029 A 
ATOM     62  N   UNL A   1      42.298  30.975  29.591  1.00  0.00    -0.354 N 
ATOM     63  N   UNL A   1      44.713  30.073  28.192  1.00  0.00    -0.248 NA
ATOM     64  C   UNL A   1      46.842  30.510  27.333  1.00  0.00     0.031 C 
ATOM     65  C   UNL A   1      42.257  33.033  30.420  1.00  0.00     0.029 A 
ATOM     66  C   UNL A   1      43.040  32.142  29.703  1.00  0.00     0.049 A 
ATOM     67  H   UNL A   1      42.596  30.160  29.125  1.00  0.00     0.167 HD
ATOM     68  C   UNL A   1      45.071  31.385  28.499  1.00  0.00     0.074 A 
ATOM     69  C   UNL A   1      46.406  31.585  27.974  1.00  0.00     0.031 C 
ATOM     70  C   UNL A   1      44.366  32.336  29.165  1.00  0.00     0.034 A 
BRANCH  57  71
ATOM     71  C   UNL A   1      38.707  30.473  30.891  1.00  0.00     0.023 A 
ATOM     72  C   UNL A   1      37.699  31.151  30.182  1.00  0.00     0.031 A 
ATOM     73  C   UNL A   1      38.466  30.161  32.241  1.00  0.00     0.131 A 
ATOM     74  C   UNL A   1      36.533  31.563  30.845  1.00  0.00     0.055 A 
ATOM     75  C   UNL A   1      37.268  30.499  32.872  1.00  0.00     0.041 A 
ATOM     76  F   UNL A   1      39.401  29.540  32.976  1.00  0.00    -0.206 F 
ATOM     77  C   UNL A   1      36.300  31.219  32.178  1.00  0.00     0.022 A 
BRANCH  74  78
ATOM     78  S   UNL A   1      35.402  32.691  29.987  1.00  0.00     0.124 S 
ATOM     79  O   UNL A   1      34.256  32.708  30.894  1.00  0.00    -0.237 OA
ATOM     80  O   UNL A   1      36.178  33.923  29.915  1.00  0.00    -0.237 OA
ATOM     81  O   UNL A   1      35.162  32.029  28.706  1.00  0.00    -0.744 OA
ENDBRANCH  74  78
ENDBRANCH  57  71
BRANCH  58  82
ATOM     82  C   UNL A   1      47.185  27.803  26.289  1.00  0.00     0.023 A 
ATOM     83  C   UNL A   1      47.310  27.989  24.903  1.00  0.00     0.031 A 
ATOM     84  C   UNL A   1      48.256  27.197  26.970  1.00  0.00     0.131 A 
ATOM     85  C   UNL A   1      48.456  27.530  24.234  1.00  0.00     0.055 A 
ATOM     86  C   UNL A   1      49.417  26.792  26.309  1.00  0.00     0.041 A 
ATOM     87  F   UNL A   1      48.186  26.988  28.295  1.00  0.00    -0.206 F 
ATOM     88  C   UNL A   1      49.516  26.945  24.930  1.00  0.00     0.022 A 
BRANCH  85  89
ATOM     89  S   UNL A   1      48.503  27.633  22.424  1.00  0.00     0.124 S 
ATOM     90  O   UNL A   1      47.273  28.362  22.138  1.00  0.00    -0.237 OA
ATOM     91  O   UNL A   1      49.747  28.362  22.199  1.00  0.00    -0.237 OA
ATOM     92  O   UNL A   1      48.513  26.234  22.004  1.00  0.00    -0.744 OA
ENDBRANCH  85  89
ENDBRANCH  58  82
BRANCH  70  93
ATOM     93  C   UNL A   1      45.047  33.664  29.406  1.00  0.00     0.023 A 
ATOM     94  C   UNL A   1      45.727  33.947  30.605  1.00  0.00     0.031 A 
ATOM     95  C   UNL A   1      45.005  34.668  28.421  1.00  0.00     0.131 A 
ATOM     96  C   UNL A   1      46.288  35.218  30.809  1.00  0.00     0.055 A 
ATOM     97  C   UNL A   1      45.621  35.908  28.604  1.00  0.00     0.041 A 
ATOM     98  F   UNL A   1      44.370  34.457  27.257  1.00  0.00    -0.206 F 
ATOM     99  C   UNL A   1      46.254  36.193  29.809  1.00  0.00     0.022 A 
BRANCH  96 100
ATOM    100  S   UNL A   1      46.977  35.617  32.439  1.00  0.00     0.124 S 
ATOM    101  O   UNL A   1      48.408  35.681  32.157  1.00  0.00    -0.237 OA
ATOM    102  O   UNL A   1      46.331  36.889  32.749  1.00  0.00    -0.237 OA
ATOM    103  O   UNL A   1      46.559  34.492  33.273  1.00  0.00    -0.744 OA
ENDBRANCH  96 100
ENDBRANCH  70  93
ENDBRANCH  44  45
ENDBRANCH  37  39
ENDBRANCH  36  37
ENDBRANCH  35  36
ENDBRANCH  34  35
ENDBRANCH  33  34
ENDBRANCH   1  33
TORSDOF 24
ENDMDL
MODEL 2
REMARK VINA RESULT:     -11.2      5.113      9.283
REMARK SMILES Nc1nccc(N2CCC[C@@](Cc3ccc(F)cc3F)(C(=O)OCCOCCOCCOC(=O)c3ccc(-c4c5nc(c(-c6cc(S(=O)(=O)[O-])ccc6F)c6ccc([nH]6)c(-c6cc(S(=O)(=O)[O-])ccc6F)c6nc(c(-c7cc(S(=O)(=O)[O-])ccc7F)c7ccc4[nH]7)C=C6)C=C5)cc3)C2)n1
REMARK SMILES IDX 28 1 27 2 26 3 25 4 24 5 23 6 21 7 22 8 11 9 7 10 8 11 98 12
REMARK SMILES IDX 9 13 10 14 6 15 2 16 3 17 99 18 4 19 5 20 1 21 12 24 13 25
REMARK SMILES IDX 14 26 19 27 15 28 18 29 20 30 16 31 17 32 29 33 30 34 31 35
REMARK SMILES IDX 32 36 33 37 34 38 35 39 36 40 97 41 37 42 96 43 38 44 39 45
REMARK SMILES IDX 40 46 90 47 41 48 95 49 89 50 91 51 42 52 94 53 88 54 87 55
REMARK SMILES IDX 43 57 75 58 55 59 74 60 56 61 59 62 73 63 92 64 57 65 58 66
REMARK SMILES IDX 72 68 93 69 60 70 44 71 45 72 53 73 46 74 52 75 54 76 51 77
REMARK SMILES IDX 47 78 48 79 49 80 50 81 76 82 77 83 85 84 78 85 84 86 86 87
REMARK SMILES IDX 83 88 79 89 80 90 81 91 82 92 61 93 62 94 70 95 63 96 69 97
REMARK SMILES IDX 71 98 68 99 64 100 65 101 66 102 67 103
REMARK H PARENT 1 22 1 23 91 56 59 67
REMARK Flexibility Score: inf
ROOT
ATOM      1  C   UNL A   1      40.778  20.446  27.207  1.00  0.00     0.188 C 
ENDROOT
BRANCH   1   2
ATOM      2  C   UNL A   1      40.053  21.092  26.024  1.00  0.00     0.188 C 
BRANCH   2   3
ATOM      3  O   UNL A   1      38.891  21.868  26.276  1.00  0.00    -0.376 OA
BRANCH   3   4
ATOM      4  C   UNL A   1      37.778  21.753  25.398  1.00  0.00     0.202 C 
BRANCH   4   5
ATOM      5  C   UNL A   1      37.537  22.859  24.359  1.00  0.00     0.261 C 
BRANCH   5   6
ATOM      6  O   UNL A   1      36.176  23.012  23.882  1.00  0.00    -0.463 OA
BRANCH   6   7
ATOM      7  C   UNL A   1      35.296  23.498  24.796  1.00  0.00     0.314 C 
ATOM      8  O   UNL A   1      35.637  24.247  25.708  1.00  0.00    -0.252 OA
BRANCH   7   9
ATOM      9  C   UNL A   1      33.856  22.968  24.692  1.00  0.00     0.090 C 
ATOM     10  N   UNL A   1      32.771  20.773  24.701  1.00  0.00    -0.355 N 
ATOM     11  C   UNL A   1      31.799  21.036  25.745  1.00  0.00     0.118 C 
ATOM     12  C   UNL A   1      34.059  21.436  24.825  1.00  0.00     0.137 C 
ATOM     13  C   UNL A   1      31.507  22.540  25.725  1.00  0.00     0.023 C 
ATOM     14  C   UNL A   1      32.796  23.392  25.756  1.00  0.00     0.023 C 
BRANCH  10  15
ATOM     15  C   UNL A   1      32.816  19.507  24.133  1.00  0.00     0.134 A 
ATOM     16  C   UNL A   1      33.721  17.405  24.008  1.00  0.00     0.221 A 
ATOM     17  N   UNL A   1      33.213  17.180  22.792  1.00  0.00    -0.222 NA
ATOM     18  N   UNL A   1      33.562  18.543  24.698  1.00  0.00    -0.196 NA
ATOM     19  C   UNL A   1      32.469  18.158  22.261  1.00  0.00     0.119 A 
ATOM     20  C   UNL A   1      32.218  19.342  22.902  1.00  0.00     0.067 A 
BRANCH  16  21
ATOM     21  N   UNL A   1      34.458  16.404  24.566  1.00  0.00    -0.368 N 
ATOM     22  H   UNL A   1      34.042  15.786  25.210  1.00  0.00     0.159 HD
ATOM     23  H   UNL A   1      35.408  16.298  24.326  1.00  0.00     0.159 HD
ENDBRANCH  16  21
ENDBRANCH  10  15
BRANCH   9  24
ATOM     24  C   UNL A   1      33.372  23.334  23.248  1.00  0.00     0.059 C 
BRANCH  24  25
ATOM     25  C   UNL A   1      32.829  24.748  23.136  1.00  0.00    -0.011 A 
ATOM     26  C   UNL A   1      33.685  25.856  23.240  1.00  0.00     0.010 A 
ATOM     27  C   UNL A   1      31.451  24.981  23.035  1.00  0.00     0.129 A 
ATOM     28  C   UNL A   1      33.160  27.144  23.347  1.00  0.00     0.040 A 
ATOM     29  C   UNL A   1      30.922  26.263  23.121  1.00  0.00     0.078 A 
ATOM     30  F   UNL A   1      30.605  23.952  22.891  1.00  0.00    -0.207 F 
ATOM     31  C   UNL A   1      31.785  27.333  23.300  1.00  0.00     0.126 A 
ATOM     32  F   UNL A   1      31.285  28.569  23.435  1.00  0.00    -0.207 F 
ENDBRANCH  24  25
ENDBRANCH   9  24
ENDBRANCH   7   9
ENDBRANCH   6   7
ENDBRANCH   5   6
ENDBRANCH   4   5
ENDBRANCH   3   4
ENDBRANCH   2   3
ENDBRANCH   1   2
BRANCH   1  33
ATOM     33  O   UNL A   1      42.188  20.441  27.127  1.00  0.00    -0.376 OA
BRANCH  33  34
ATOM     34  C   UNL A   1      42.776  20.829  25.895  1.00  0.00     0.202 C 
BRANCH  34  35
ATOM     35  C   UNL A   1      44.240  21.281  26.001  1.00  0.00     0.261 C 
BRANCH  35  36
ATOM     36  O   UNL A   1      44.427  22.708  26.052  1.00  0.00    -0.460 OA
BRANCH  36  37
ATOM     37  C   UNL A   1      43.584  23.463  25.303  1.00  0.00     0.338 C 
ATOM     38  O   UNL A   1      43.190  23.212  24.178  1.00  0.00    -0.246 OA
BRANCH  37  39
ATOM     39  C   UNL A   1      42.991  24.484  26.203  1.00  0.00     0.060 A 
ATOM     40  C   UNL A   1      43.537  25.777  26.206  1.00  0.00     0.016 A 
ATOM     41  C   UNL A   1      41.857  24.197  26.966  1.00  0.00     0.016 A 
ATOM     42  C   UNL A   1      42.965  26.778  26.993  1.00  0.00     0.010 A 
ATOM     43  C   UNL A   1      41.300  25.193  27.771  1.00  0.00     0.010 A 
ATOM     44  C   UNL A   1      41.868  26.480  27.812  1.00  0.00    -0.014 A 
BRANCH  44  45
ATOM     45  C   UNL A   1      41.463  27.425  28.885  1.00  0.00     0.031 A 
ATOM     46  C   UNL A   1      42.247  27.398  30.170  1.00  0.00     0.074 A 
ATOM     47  C   UNL A   1      40.437  28.282  28.736  1.00  0.00     0.049 A 
ATOM     48  N   UNL A   1      42.061  28.069  31.276  1.00  0.00    -0.248 NA
ATOM     49  C   UNL A   1      43.394  26.477  30.207  1.00  0.00     0.031 C 
ATOM     50  C   UNL A   1      39.630  28.442  27.528  1.00  0.00     0.029 A 
ATOM     51  N   UNL A   1      39.894  29.177  29.624  1.00  0.00    -0.354 N 
ATOM     52  C   UNL A   1      43.064  27.649  32.144  1.00  0.00     0.074 A 
ATOM     53  C   UNL A   1      43.829  26.637  31.446  1.00  0.00     0.031 C 
ATOM     54  C   UNL A   1      38.685  29.372  27.756  1.00  0.00     0.029 A 
ATOM     55  C   UNL A   1      38.797  29.848  29.134  1.00  0.00     0.049 A 
ATOM     56  H   UNL A   1      40.256  29.326  30.528  1.00  0.00     0.167 HD
ATOM     57  C   UNL A   1      43.330  28.071  33.404  1.00  0.00     0.034 A 
ATOM     58  C   UNL A   1      37.969  30.725  29.741  1.00  0.00     0.034 A 
ATOM     59  C   UNL A   1      42.551  29.066  34.097  1.00  0.00     0.049 A 
ATOM     60  C   UNL A   1      38.220  31.102  31.186  1.00  0.00     0.074 A 
ATOM     61  C   UNL A   1      42.748  29.584  35.365  1.00  0.00     0.029 A 
ATOM     62  N   UNL A   1      41.413  29.680  33.591  1.00  0.00    -0.354 N 
ATOM     63  N   UNL A   1      39.184  30.716  31.990  1.00  0.00    -0.248 NA
ATOM     64  C   UNL A   1      37.268  32.040  31.799  1.00  0.00     0.031 C 
ATOM     65  C   UNL A   1      41.685  30.447  35.655  1.00  0.00     0.029 A 
ATOM     66  C   UNL A   1      40.871  30.537  34.537  1.00  0.00     0.049 A 
ATOM     67  H   UNL A   1      41.044  29.529  32.690  1.00  0.00     0.167 HD
ATOM     68  C   UNL A   1      38.974  31.394  33.191  1.00  0.00     0.074 A 
ATOM     69  C   UNL A   1      37.799  32.220  33.000  1.00  0.00     0.031 C 
ATOM     70  C   UNL A   1      39.692  31.348  34.343  1.00  0.00     0.034 A 
BRANCH  57  71
ATOM     71  C   UNL A   1      44.473  27.401  34.127  1.00  0.00     0.023 A 
ATOM     72  C   UNL A   1      44.318  26.164  34.777  1.00  0.00     0.031 A 
ATOM     73  C   UNL A   1      45.726  28.036  34.207  1.00  0.00     0.131 A 
ATOM     74  C   UNL A   1      45.371  25.640  35.542  1.00  0.00     0.055 A 
ATOM     75  C   UNL A   1      46.795  27.467  34.899  1.00  0.00     0.041 A 
ATOM     76  F   UNL A   1      45.924  29.230  33.630  1.00  0.00    -0.206 F 
ATOM     77  C   UNL A   1      46.616  26.270  35.587  1.00  0.00     0.022 A 
BRANCH  74  78
ATOM     78  S   UNL A   1      45.039  24.210  36.608  1.00  0.00     0.124 S 
ATOM     79  O   UNL A   1      44.042  23.482  35.826  1.00  0.00    -0.237 OA
ATOM     80  O   UNL A   1      46.351  23.583  36.712  1.00  0.00    -0.237 OA
ATOM     81  O   UNL A   1      44.535  24.810  37.841  1.00  0.00    -0.744 OA
ENDBRANCH  74  78
ENDBRANCH  57  71
BRANCH  58  82
ATOM     82  C   UNL A   1      36.798  31.293  29.014  1.00  0.00     0.023 A 
ATOM     83  C   UNL A   1      35.747  30.469  28.580  1.00  0.00     0.031 A 
ATOM     84  C   UNL A   1      36.746  32.657  28.677  1.00  0.00     0.131 A 
ATOM     85  C   UNL A   1      34.716  31.004  27.792  1.00  0.00     0.055 A 
ATOM     86  C   UNL A   1      35.690  33.196  27.939  1.00  0.00     0.041 A 
ATOM     87  F   UNL A   1      37.728  33.489  29.059  1.00  0.00    -0.206 F 
ATOM     88  C   UNL A   1      34.673  32.365  27.479  1.00  0.00     0.022 A 
BRANCH  85  89
ATOM     89  S   UNL A   1      33.474  29.875  27.108  1.00  0.00     0.124 S 
ATOM     90  O   UNL A   1      33.696  28.673  27.904  1.00  0.00    -0.237 OA
ATOM     91  O   UNL A   1      32.234  30.598  27.372  1.00  0.00    -0.237 OA
ATOM     92  O   UNL A   1      33.847  29.770  25.699  1.00  0.00    -0.744 OA
ENDBRANCH  85  89
ENDBRANCH  58  82
BRANCH  70  93
ATOM     93  C   UNL A   1      39.254  32.254  35.471  1.00  0.00     0.023 A 
ATOM     94  C   UNL A   1      39.701  33.583  35.576  1.00  0.00     0.031 A 
ATOM     95  C   UNL A   1      38.380  31.773  36.464  1.00  0.00     0.131 A 
ATOM     96  C   UNL A   1      39.320  34.366  36.678  1.00  0.00     0.055 A 
ATOM     97  C   UNL A   1      37.953  32.577  37.522  1.00  0.00     0.041 A 
ATOM     98  F   UNL A   1      37.921  30.513  36.417  1.00  0.00    -0.206 F 
ATOM     99  C   UNL A   1      38.434  33.877  37.641  1.00  0.00     0.022 A 
BRANCH  96 100
ATOM    100  S   UNL A   1      40.074  36.003  36.890  1.00  0.00     0.124 S 
ATOM    101  O   UNL A   1      39.756  36.651  35.622  1.00  0.00    -0.237 OA
ATOM    102  O   UNL A   1      39.375  36.519  38.063  1.00  0.00    -0.237 OA
ATOM    103  O   UNL A   1      41.490  35.704  37.096  1.00  0.00    -0.744 OA
ENDBRANCH  96 100
ENDBRANCH  70  93
ENDBRANCH  44  45
ENDBRANCH  37  39
ENDBRANCH  36  37
ENDBRANCH  35  36
ENDBRANCH  34  35
ENDBRANCH  33  34
ENDBRANCH   1  33
TORSDOF 24
ENDMDL
MODEL 3
REMARK VINA RESULT:     -11.0      2.075      2.494
REMARK SMILES Nc1nccc(N2CCC[C@@](Cc3ccc(F)cc3F)(C(=O)OCCOCCOCCOC(=O)c3ccc(-c4c5nc(c(-c6cc(S(=O)(=O)[O-])ccc6F)c6ccc([nH]6)c(-c6cc(S(=O)(=O)[O-])ccc6F)c6nc(c(-c7cc(S(=O)(=O)[O-])ccc7F)c7ccc4[nH]7)C=C6)C=C5)cc3)C2)n1
REMARK SMILES IDX 28 1 27 2 26 3 25 4 24 5 23 6 21 7 22 8 11 9 7 10 8 11 98 12
REMARK SMILES IDX 9 13 10 14 6 15 2 16 3 17 99 18 4 19 5 20 1 21 12 24 13 25
REMARK SMILES IDX 14 26 19 27 15 28 18 29 20 30 16 31 17 32 29 33 30 34 31 35
REMARK SMILES IDX 32 36 33 37 34 38 35 39 36 40 97 41 37 42 96 43 38 44 39 45
REMARK SMILES IDX 40 46 90 47 41 48 95 49 89 50 91 51 42 52 94 53 88 54 87 55
REMARK SMILES IDX 43 57 75 58 55 59 74 60 56 61 59 62 73 63 92 64 57 65 58 66
REMARK SMILES IDX 72 68 93 69 60 70 44 71 45 72 53 73 46 74 52 75 54 76 51 77
REMARK SMILES IDX 47 78 48 79 49 80 50 81 76 82 77 83 85 84 78 85 84 86 86 87
REMARK SMILES IDX 83 88 79 89 80 90 81 91 82 92 61 93 62 94 70 95 63 96 69 97
REMARK SMILES IDX 71 98 68 99 64 100 65 101 66 102 67 103
REMARK H PARENT 1 22 1 23 91 56 59 67
REMARK Flexibility Score: inf
ROOT
ATOM      1  C   UNL A   1      33.696  19.619  24.670  1.00  0.00     0.188 C 
ENDROOT
BRANCH   1   2
ATOM      2  C   UNL A   1      32.729  20.547  23.931  1.00  0.00     0.188 C 
BRANCH   2   3
ATOM      3  O   UNL A   1      33.170  21.849  23.575  1.00  0.00    -0.376 OA
BRANCH   3   4
ATOM      4  C   UNL A   1      32.666  22.451  22.389  1.00  0.00     0.202 C 
BRANCH   4   5
ATOM      5  C   UNL A   1      33.349  23.718  21.853  1.00  0.00     0.261 C 
BRANCH   5   6
ATOM      6  O   UNL A   1      32.475  24.754  21.337  1.00  0.00    -0.463 OA
BRANCH   6   7
ATOM      7  C   UNL A   1      32.561  25.951  21.975  1.00  0.00     0.314 C 
ATOM      8  O   UNL A   1      33.497  26.727  21.799  1.00  0.00    -0.252 OA
BRANCH   7   9
ATOM      9  C   UNL A   1      31.472  26.236  23.022  1.00  0.00     0.090 C 
ATOM     10  N   UNL A   1      29.742  27.936  23.361  1.00  0.00    -0.355 N 
ATOM     11  C   UNL A   1      28.615  27.039  23.533  1.00  0.00     0.118 C 
ATOM     12  C   UNL A   1      30.787  27.504  22.446  1.00  0.00     0.137 C 
ATOM     13  C   UNL A   1      29.161  25.726  24.102  1.00  0.00     0.023 C 
ATOM     14  C   UNL A   1      30.354  25.180  23.284  1.00  0.00     0.023 C 
BRANCH  10  15
ATOM     15  C   UNL A   1      29.519  29.306  23.389  1.00  0.00     0.134 A 
ATOM     16  C   UNL A   1      29.849  31.363  24.343  1.00  0.00     0.221 A 
ATOM     17  N   UNL A   1      28.792  31.900  23.725  1.00  0.00    -0.222 NA
ATOM     18  N   UNL A   1      30.234  30.086  24.217  1.00  0.00    -0.196 NA
ATOM     19  C   UNL A   1      28.106  31.097  22.901  1.00  0.00     0.119 A 
ATOM     20  C   UNL A   1      28.441  29.788  22.678  1.00  0.00     0.067 A 
BRANCH  16  21
ATOM     21  N   UNL A   1      30.568  32.181  25.163  1.00  0.00    -0.368 N 
ATOM     22  H   UNL A   1      31.354  32.660  24.814  1.00  0.00     0.159 HD
ATOM     23  H   UNL A   1      30.301  32.292  26.105  1.00  0.00     0.159 HD
ENDBRANCH  16  21
ENDBRANCH  10  15
BRANCH   9  24
ATOM     24  C   UNL A   1      32.236  26.578  24.345  1.00  0.00     0.059 C 
BRANCH  24  25
ATOM     25  C   UNL A   1      32.686  25.348  25.115  1.00  0.00    -0.011 A 
ATOM     26  C   UNL A   1      31.793  24.653  25.944  1.00  0.00     0.010 A 
ATOM     27  C   UNL A   1      34.028  24.944  25.099  1.00  0.00     0.129 A 
ATOM     28  C   UNL A   1      32.258  23.660  26.806  1.00  0.00     0.040 A 
ATOM     29  C   UNL A   1      34.495  23.942  25.940  1.00  0.00     0.078 A 
ATOM     30  F   UNL A   1      34.904  25.555  24.289  1.00  0.00    -0.207 F 
ATOM     31  C   UNL A   1      33.606  23.324  26.805  1.00  0.00     0.126 A 
ATOM     32  F   UNL A   1      34.053  22.390  27.655  1.00  0.00    -0.207 F 
ENDBRANCH  24  25
ENDBRANCH   9  24
ENDBRANCH   7   9
ENDBRANCH   6   7
ENDBRANCH   5   6
ENDBRANCH   4   5
ENDBRANCH   3   4
ENDBRANCH   2   3
ENDBRANCH   1   2
BRANCH   1  33
ATOM     33  O   UNL A   1      34.861  20.235  25.178  1.00  0.00    -0.376 OA
BRANCH  33  34
ATOM     34  C   UNL A   1      36.105  19.605  24.913  1.00  0.00     0.202 C 
BRANCH  34  35
ATOM     35  C   UNL A   1      37.250  20.571  24.572  1.00  0.00     0.261 C 
BRANCH  35  36
ATOM     36  O   UNL A   1      37.788  21.288  25.698  1.00  0.00    -0.460 OA
BRANCH  36  37
ATOM     37  C   UNL A   1      39.050  20.967  26.082  1.00  0.00     0.338 C 
ATOM     38  O   UNL A   1      39.640  19.929  25.838  1.00  0.00    -0.246 OA
BRANCH  37  39
ATOM     39  C   UNL A   1      39.687  22.210  26.584  1.00  0.00     0.060 A 
ATOM     40  C   UNL A   1      39.228  23.444  26.098  1.00  0.00     0.016 A 
ATOM     41  C   UNL A   1      40.659  22.165  27.586  1.00  0.00     0.016 A 
ATOM     42  C   UNL A   1      39.761  24.636  26.595  1.00  0.00     0.010 A 
ATOM     43  C   UNL A   1      41.209  23.357  28.064  1.00  0.00     0.010 A 
ATOM     44  C   UNL A   1      40.784  24.596  27.551  1.00  0.00    -0.014 A 
BRANCH  44  45
ATOM     45  C   UNL A   1      41.579  25.818  27.839  1.00  0.00     0.031 A 
ATOM     46  C   UNL A   1      40.888  26.943  28.564  1.00  0.00     0.074 A 
ATOM     47  C   UNL A   1      42.868  25.938  27.477  1.00  0.00     0.049 A 
ATOM     48  N   UNL A   1      41.333  28.132  28.878  1.00  0.00    -0.248 NA
ATOM     49  C   UNL A   1      39.501  26.687  28.981  1.00  0.00     0.031 C 
ATOM     50  C   UNL A   1      43.665  24.907  26.815  1.00  0.00     0.029 A 
ATOM     51  N   UNL A   1      43.732  26.997  27.609  1.00  0.00    -0.354 N 
ATOM     52  C   UNL A   1      40.278  28.768  29.526  1.00  0.00     0.074 A 
ATOM     53  C   UNL A   1      39.163  27.845  29.523  1.00  0.00     0.031 C 
ATOM     54  C   UNL A   1      44.900  25.391  26.589  1.00  0.00     0.029 A 
ATOM     55  C   UNL A   1      44.972  26.775  27.056  1.00  0.00     0.049 A 
ATOM     56  H   UNL A   1      43.487  27.839  28.059  1.00  0.00     0.167 HD
ATOM     57  C   UNL A   1      40.243  30.005  30.080  1.00  0.00     0.034 A 
ATOM     58  C   UNL A   1      46.029  27.603  26.925  1.00  0.00     0.034 A 
ATOM     59  C   UNL A   1      41.354  30.923  30.062  1.00  0.00     0.049 A 
ATOM     60  C   UNL A   1      45.931  29.018  27.454  1.00  0.00     0.074 A 
ATOM     61  C   UNL A   1      41.433  32.189  30.615  1.00  0.00     0.029 A 
ATOM     62  N   UNL A   1      42.573  30.684  29.442  1.00  0.00    -0.354 N 
ATOM     63  N   UNL A   1      44.938  29.603  28.085  1.00  0.00    -0.248 NA
ATOM     64  C   UNL A   1      47.105  29.881  27.257  1.00  0.00     0.031 C 
ATOM     65  C   UNL A   1      42.666  32.746  30.259  1.00  0.00     0.029 A 
ATOM     66  C   UNL A   1      43.394  31.796  29.559  1.00  0.00     0.049 A 
ATOM     67  H   UNL A   1      42.819  29.847  28.985  1.00  0.00     0.167 HD
ATOM     68  C   UNL A   1      45.384  30.889  28.391  1.00  0.00     0.074 A 
ATOM     69  C   UNL A   1      46.737  30.989  27.885  1.00  0.00     0.031 C 
ATOM     70  C   UNL A   1      44.738  31.892  29.040  1.00  0.00     0.034 A 
BRANCH  57  71
ATOM     71  C   UNL A   1      38.936  30.448  30.689  1.00  0.00     0.023 A 
ATOM     72  C   UNL A   1      38.002  31.216  29.970  1.00  0.00     0.031 A 
ATOM     73  C   UNL A   1      38.640  30.137  32.029  1.00  0.00     0.131 A 
ATOM     74  C   UNL A   1      36.860  31.712  30.615  1.00  0.00     0.055 A 
ATOM     75  C   UNL A   1      37.460  30.563  32.639  1.00  0.00     0.041 A 
ATOM     76  F   UNL A   1      39.505  29.431  32.773  1.00  0.00    -0.206 F 
ATOM     77  C   UNL A   1      36.569  31.369  31.937  1.00  0.00     0.022 A 
BRANCH  74  78
ATOM     78  S   UNL A   1      35.843  32.941  29.752  1.00  0.00     0.124 S 
ATOM     79  O   UNL A   1      35.730  33.993  30.759  1.00  0.00    -0.237 OA
ATOM     80  O   UNL A   1      36.655  33.259  28.584  1.00  0.00    -0.237 OA
ATOM     81  O   UNL A   1      34.600  32.223  29.472  1.00  0.00    -0.744 OA
ENDBRANCH  74  78
ENDBRANCH  57  71
BRANCH  58  82
ATOM     82  C   UNL A   1      47.270  27.150  26.234  1.00  0.00     0.023 A 
ATOM     83  C   UNL A   1      48.267  26.445  26.928  1.00  0.00     0.031 A 
ATOM     84  C   UNL A   1      47.513  27.480  24.889  1.00  0.00     0.131 A 
ATOM     85  C   UNL A   1      49.479  26.136  26.291  1.00  0.00     0.055 A 
ATOM     86  C   UNL A   1      48.699  27.123  24.244  1.00  0.00     0.041 A 
ATOM     87  F   UNL A   1      46.598  28.161  24.181  1.00  0.00    -0.206 F 
ATOM     88  C   UNL A   1      49.697  26.459  24.949  1.00  0.00     0.022 A 
BRANCH  85  89
ATOM     89  S   UNL A   1      50.805  25.381  27.271  1.00  0.00     0.124 S 
ATOM     90  O   UNL A   1      50.113  24.251  27.882  1.00  0.00    -0.237 OA
ATOM     91  O   UNL A   1      51.786  25.051  26.243  1.00  0.00    -0.237 OA
ATOM     92  O   UNL A   1      51.198  26.446  28.191  1.00  0.00    -0.744 OA
ENDBRANCH  85  89
ENDBRANCH  58  82
BRANCH  70  93
ATOM     93  C   UNL A   1      45.509  33.169  29.284  1.00  0.00     0.023 A 
ATOM     94  C   UNL A   1      45.567  34.200  28.328  1.00  0.00     0.031 A 
ATOM     95  C   UNL A   1      46.206  33.354  30.492  1.00  0.00     0.131 A 
ATOM     96  C   UNL A   1      46.349  35.340  28.573  1.00  0.00     0.055 A 
ATOM     97  C   UNL A   1      46.930  34.518  30.757  1.00  0.00     0.041 A 
ATOM     98  F   UNL A   1      46.189  32.405  31.442  1.00  0.00    -0.206 F 
ATOM     99  C   UNL A   1      47.015  35.513  29.788  1.00  0.00     0.022 A 
BRANCH  96 100
ATOM    100  S   UNL A   1      46.565  36.554  27.242  1.00  0.00     0.124 S 
ATOM    101  O   UNL A   1      45.219  36.638  26.685  1.00  0.00    -0.237 OA
ATOM    102  O   UNL A   1      47.031  37.733  27.967  1.00  0.00    -0.237 OA
ATOM    103  O   UNL A   1      47.559  35.932  26.369  1.00  0.00    -0.744 OA
ENDBRANCH  96 100
ENDBRANCH  70  93
ENDBRANCH  44  45
ENDBRANCH  37  39
ENDBRANCH  36  37
ENDBRANCH  35  36
ENDBRANCH  34  35
ENDBRANCH  33  34
ENDBRANCH   1  33
TORSDOF 24
ENDMDL
