MODEL 1
REMARK VINA RESULT:      -9.3      0.000      0.000
REMARK SMILES COc1ccccc1C[C@@H](C(=O)OCCOCCOCCOC(=O)c1ccc(-c2c3nc(c(-c4cc(S(=O)(=O)[O-])ccc4F)c4ccc([nH]4)c(-c4cc(S(=O)(=O)[O-])ccc4F)c4nc(c(-c5cc(S(=O)(=O)[O-])ccc5F)c5ccc2[nH]5)C=C4)C=C3)cc1)[C@@H]1C[C@H](C)C[C@H](C)C1
REMARK SMILES IDX 17 1 16 2 15 3 14 4 13 5 11 6 12 7 10 8 9 9 8 10 3 11 4 12
REMARK SMILES IDX 5 13 7 14 6 15 2 16 1 17 88 18 95 19 89 20 93 21 90 22 94 23
REMARK SMILES IDX 92 24 91 25 18 26 19 27 20 28 21 29 22 30 23 31 24 32 25 33
REMARK SMILES IDX 26 34 87 35 27 36 86 37 28 38 29 39 30 40 80 41 31 42 85 43
REMARK SMILES IDX 79 44 81 45 32 46 84 47 78 48 77 49 33 51 65 52 45 53 64 54
REMARK SMILES IDX 46 55 49 56 63 57 82 58 47 59 48 60 62 62 83 63 50 64 34 65
REMARK SMILES IDX 35 66 43 67 36 68 42 69 44 70 41 71 37 72 38 73 39 74 40 75
REMARK SMILES IDX 66 76 67 77 75 78 68 79 74 80 76 81 73 82 69 83 70 84 71 85
REMARK SMILES IDX 72 86 51 87 52 88 60 89 53 90 59 91 61 92 58 93 54 94 55 95
REMARK SMILES IDX 56 96 57 97
REMARK H PARENT 81 50 49 61
REMARK Flexibility Score: inf
ROOT
ATOM      1  C   UNL A   1      39.203  21.988  26.358  1.00  0.00     0.188 C 
ENDROOT
BRANCH   1   2
ATOM      2  O   UNL A   1      38.580  23.269  26.382  1.00  0.00    -0.376 OA
BRANCH   2   3
ATOM      3  C   UNL A   1      37.536  23.467  25.449  1.00  0.00     0.202 C 
BRANCH   3   4
ATOM      4  C   UNL A   1      36.188  23.773  26.147  1.00  0.00     0.261 C 
BRANCH   4   5
ATOM      5  O   UNL A   1      34.977  23.814  25.348  1.00  0.00    -0.463 OA
BRANCH   5   6
ATOM      6  C   UNL A   1      33.834  23.859  26.059  1.00  0.00     0.309 C 
ATOM      7  O   UNL A   1      33.814  23.352  27.153  1.00  0.00    -0.252 OA
BRANCH   6   8
ATOM      8  C   UNL A   1      32.609  24.466  25.382  1.00  0.00     0.107 C 
BRANCH   8   9
ATOM      9  C   UNL A   1      31.868  25.658  26.099  1.00  0.00     0.055 C 
BRANCH   9  10
ATOM     10  C   UNL A   1      31.431  26.909  25.339  1.00  0.00    -0.005 A 
ATOM     11  C   UNL A   1      31.877  28.197  25.677  1.00  0.00     0.122 A 
ATOM     12  C   UNL A   1      31.374  29.343  25.034  1.00  0.00     0.047 A 
ATOM     13  C   UNL A   1      30.476  29.224  23.978  1.00  0.00     0.004 A 
ATOM     14  C   UNL A   1      30.634  26.837  24.189  1.00  0.00     0.007 A 
ATOM     15  C   UNL A   1      30.133  27.962  23.531  1.00  0.00     0.001 A 
BRANCH  11  16
ATOM     16  O   UNL A   1      32.824  28.411  26.648  1.00  0.00    -0.496 OA
ATOM     17  C   UNL A   1      34.096  28.671  26.040  1.00  0.00     0.278 C 
ENDBRANCH  11  16
ENDBRANCH   9  10
ENDBRANCH   8   9
BRANCH   8  18
ATOM     18  C   UNL A   1      31.525  23.329  25.006  1.00  0.00     0.004 C 
ATOM     19  C   UNL A   1      31.127  23.360  23.518  1.00  0.00     0.007 C 
ATOM     20  C   UNL A   1      31.697  21.832  25.422  1.00  0.00     0.007 C 
ATOM     21  C   UNL A   1      32.075  22.593  22.590  1.00  0.00    -0.014 C 
ATOM     22  C   UNL A   1      32.472  20.854  24.490  1.00  0.00    -0.014 C 
ATOM     23  C   UNL A   1      33.415  23.301  22.405  1.00  0.00     0.007 C 
ATOM     24  C   UNL A   1      32.220  21.123  23.003  1.00  0.00     0.006 C 
ATOM     25  C   UNL A   1      33.970  20.602  24.732  1.00  0.00     0.007 C 
ENDBRANCH   8  18
ENDBRANCH   6   8
ENDBRANCH   5   6
ENDBRANCH   4   5
ENDBRANCH   3   4
ENDBRANCH   2   3
ENDBRANCH   1   2
BRANCH   1  26
ATOM     26  C   UNL A   1      40.706  22.173  26.535  1.00  0.00     0.188 C 
BRANCH  26  27
ATOM     27  O   UNL A   1      41.557  22.038  25.408  1.00  0.00    -0.376 OA
BRANCH  27  28
ATOM     28  C   UNL A   1      42.923  22.359  25.593  1.00  0.00     0.202 C 
BRANCH  28  29
ATOM     29  C   UNL A   1      43.346  23.818  25.355  1.00  0.00     0.261 C 
BRANCH  29  30
ATOM     30  O   UNL A   1      42.902  24.786  26.325  1.00  0.00    -0.460 OA
BRANCH  30  31
ATOM     31  C   UNL A   1      42.080  25.758  25.843  1.00  0.00     0.338 C 
ATOM     32  O   UNL A   1      41.052  25.588  25.211  1.00  0.00    -0.246 OA
BRANCH  31  33
ATOM     33  C   UNL A   1      42.517  27.088  26.338  1.00  0.00     0.060 A 
ATOM     34  C   UNL A   1      43.462  27.165  27.376  1.00  0.00     0.016 A 
ATOM     35  C   UNL A   1      41.924  28.252  25.853  1.00  0.00     0.016 A 
ATOM     36  C   UNL A   1      43.796  28.396  27.947  1.00  0.00     0.010 A 
ATOM     37  C   UNL A   1      42.231  29.482  26.449  1.00  0.00     0.010 A 
ATOM     38  C   UNL A   1      43.139  29.557  27.524  1.00  0.00    -0.014 A 
BRANCH  38  39
ATOM     39  C   UNL A   1      43.208  30.795  28.346  1.00  0.00     0.031 A 
ATOM     40  C   UNL A   1      44.309  31.782  28.054  1.00  0.00     0.074 A 
ATOM     41  C   UNL A   1      42.322  31.053  29.323  1.00  0.00     0.049 A 
ATOM     42  N   UNL A   1      44.643  32.878  28.687  1.00  0.00    -0.248 NA
ATOM     43  C   UNL A   1      45.152  31.474  26.891  1.00  0.00     0.031 C 
ATOM     44  C   UNL A   1      41.166  30.227  29.659  1.00  0.00     0.029 A 
ATOM     45  N   UNL A   1      42.269  32.091  30.220  1.00  0.00    -0.354 N 
ATOM     46  C   UNL A   1      45.744  33.387  28.004  1.00  0.00     0.074 A 
ATOM     47  C   UNL A   1      46.044  32.449  26.942  1.00  0.00     0.031 C 
ATOM     48  C   UNL A   1      40.518  30.789  30.695  1.00  0.00     0.029 A 
ATOM     49  C   UNL A   1      41.239  31.987  31.125  1.00  0.00     0.049 A 
ATOM     50  H   UNL A   1      42.909  32.840  30.217  1.00  0.00     0.167 HD
ATOM     51  C   UNL A   1      46.435  34.533  28.233  1.00  0.00     0.034 A 
ATOM     52  C   UNL A   1      40.931  32.757  32.190  1.00  0.00     0.034 A 
ATOM     53  C   UNL A   1      46.144  35.444  29.314  1.00  0.00     0.049 A 
ATOM     54  C   UNL A   1      41.798  33.952  32.517  1.00  0.00     0.074 A 
ATOM     55  C   UNL A   1      46.778  36.629  29.641  1.00  0.00     0.029 A 
ATOM     56  N   UNL A   1      45.142  35.260  30.261  1.00  0.00    -0.354 N 
ATOM     57  N   UNL A   1      42.844  34.422  31.875  1.00  0.00    -0.248 NA
ATOM     58  C   UNL A   1      41.435  34.722  33.715  1.00  0.00     0.031 C 
ATOM     59  C   UNL A   1      46.224  37.112  30.833  1.00  0.00     0.029 A 
ATOM     60  C   UNL A   1      45.174  36.285  31.197  1.00  0.00     0.049 A 
ATOM     61  H   UNL A   1      44.504  34.510  30.267  1.00  0.00     0.167 HD
ATOM     62  C   UNL A   1      43.235  35.567  32.569  1.00  0.00     0.074 A 
ATOM     63  C   UNL A   1      42.308  35.717  33.673  1.00  0.00     0.031 C 
ATOM     64  C   UNL A   1      44.260  36.421  32.310  1.00  0.00     0.034 A 
BRANCH  51  65
ATOM     65  C   UNL A   1      47.617  34.810  27.329  1.00  0.00     0.023 A 
ATOM     66  C   UNL A   1      48.926  34.440  27.688  1.00  0.00     0.031 A 
ATOM     67  C   UNL A   1      47.448  35.531  26.133  1.00  0.00     0.131 A 
ATOM     68  C   UNL A   1      50.016  34.891  26.929  1.00  0.00     0.055 A 
ATOM     69  C   UNL A   1      48.530  35.885  25.325  1.00  0.00     0.041 A 
ATOM     70  F   UNL A   1      46.229  35.934  25.743  1.00  0.00    -0.206 F 
ATOM     71  C   UNL A   1      49.826  35.587  25.734  1.00  0.00     0.022 A 
BRANCH  68  72
ATOM     72  S   UNL A   1      51.680  34.746  27.640  1.00  0.00     0.124 S 
ATOM     73  O   UNL A   1      51.387  34.207  28.967  1.00  0.00    -0.237 OA
ATOM     74  O   UNL A   1      52.341  33.837  26.712  1.00  0.00    -0.237 OA
ATOM     75  O   UNL A   1      52.177  36.121  27.632  1.00  0.00    -0.744 OA
ENDBRANCH  68  72
ENDBRANCH  51  65
BRANCH  52  76
ATOM     76  C   UNL A   1      39.759  32.422  33.049  1.00  0.00     0.023 A 
ATOM     77  C   UNL A   1      38.506  33.008  32.812  1.00  0.00     0.031 A 
ATOM     78  C   UNL A   1      39.882  31.549  34.145  1.00  0.00     0.131 A 
ATOM     79  C   UNL A   1      37.432  32.741  33.676  1.00  0.00     0.055 A 
ATOM     80  C   UNL A   1      38.798  31.245  34.971  1.00  0.00     0.041 A 
ATOM     81  F   UNL A   1      41.060  30.970  34.423  1.00  0.00    -0.206 F 
ATOM     82  C   UNL A   1      37.565  31.851  34.743  1.00  0.00     0.022 A 
BRANCH  79  83
ATOM     83  S   UNL A   1      35.873  33.633  33.426  1.00  0.00     0.124 S 
ATOM     84  O   UNL A   1      35.336  33.678  34.780  1.00  0.00    -0.237 OA
ATOM     85  O   UNL A   1      36.334  34.903  32.875  1.00  0.00    -0.237 OA
ATOM     86  O   UNL A   1      35.141  32.781  32.490  1.00  0.00    -0.744 OA
ENDBRANCH  79  83
ENDBRANCH  52  76
BRANCH  64  87
ATOM     87  C   UNL A   1      44.399  37.630  33.211  1.00  0.00     0.023 A 
ATOM     88  C   UNL A   1      43.768  38.854  32.924  1.00  0.00     0.031 A 
ATOM     89  C   UNL A   1      45.199  37.562  34.368  1.00  0.00     0.131 A 
ATOM     90  C   UNL A   1      44.002  39.973  33.739  1.00  0.00     0.055 A 
ATOM     91  C   UNL A   1      45.366  38.657  35.217  1.00  0.00     0.041 A 
ATOM     92  F   UNL A   1      45.833  36.424  34.695  1.00  0.00    -0.206 F 
ATOM     93  C   UNL A   1      44.779  39.877  34.895  1.00  0.00     0.022 A 
BRANCH  90  94
ATOM     94  S   UNL A   1      43.377  41.590  33.203  1.00  0.00     0.124 S 
ATOM     95  O   UNL A   1      43.774  42.451  34.313  1.00  0.00    -0.237 OA
ATOM     96  O   UNL A   1      44.090  41.800  31.947  1.00  0.00    -0.237 OA
ATOM     97  O   UNL A   1      41.937  41.375  33.070  1.00  0.00    -0.744 OA
ENDBRANCH  90  94
ENDBRANCH  64  87
ENDBRANCH  38  39
ENDBRANCH  31  33
ENDBRANCH  30  31
ENDBRANCH  29  30
ENDBRANCH  28  29
ENDBRANCH  27  28
ENDBRANCH  26  27
ENDBRANCH   1  26
TORSDOF 24
ENDMDL
MODEL 2
REMARK VINA RESULT:      -8.6      1.799      2.094
REMARK SMILES COc1ccccc1C[C@@H](C(=O)OCCOCCOCCOC(=O)c1ccc(-c2c3nc(c(-c4cc(S(=O)(=O)[O-])ccc4F)c4ccc([nH]4)c(-c4cc(S(=O)(=O)[O-])ccc4F)c4nc(c(-c5cc(S(=O)(=O)[O-])ccc5F)c5ccc2[nH]5)C=C4)C=C3)cc1)[C@@H]1C[C@H](C)C[C@H](C)C1
REMARK SMILES IDX 17 1 16 2 15 3 14 4 13 5 11 6 12 7 10 8 9 9 8 10 3 11 4 12
REMARK SMILES IDX 5 13 7 14 6 15 2 16 1 17 88 18 95 19 89 20 93 21 90 22 94 23
REMARK SMILES IDX 92 24 91 25 18 26 19 27 20 28 21 29 22 30 23 31 24 32 25 33
REMARK SMILES IDX 26 34 87 35 27 36 86 37 28 38 29 39 30 40 80 41 31 42 85 43
REMARK SMILES IDX 79 44 81 45 32 46 84 47 78 48 77 49 33 51 65 52 45 53 64 54
REMARK SMILES IDX 46 55 49 56 63 57 82 58 47 59 48 60 62 62 83 63 50 64 34 65
REMARK SMILES IDX 35 66 43 67 36 68 42 69 44 70 41 71 37 72 38 73 39 74 40 75
REMARK SMILES IDX 66 76 67 77 75 78 68 79 74 80 76 81 73 82 69 83 70 84 71 85
REMARK SMILES IDX 72 86 51 87 52 88 60 89 53 90 59 91 61 92 58 93 54 94 55 95
REMARK SMILES IDX 56 96 57 97
REMARK H PARENT 81 50 49 61
REMARK Flexibility Score: inf
ROOT
ATOM      1  C   UNL A   1      39.610  21.354  26.207  1.00  0.00     0.188 C 
ENDROOT
BRANCH   1   2
ATOM      2  O   UNL A   1      38.834  22.548  26.142  1.00  0.00    -0.376 OA
BRANCH   2   3
ATOM      3  C   UNL A   1      37.689  22.498  25.314  1.00  0.00     0.202 C 
BRANCH   3   4
ATOM      4  C   UNL A   1      36.402  22.885  26.084  1.00  0.00     0.261 C 
BRANCH   4   5
ATOM      5  O   UNL A   1      35.346  23.585  25.377  1.00  0.00    -0.463 OA
BRANCH   5   6
ATOM      6  C   UNL A   1      34.203  23.731  26.074  1.00  0.00     0.309 C 
ATOM      7  O   UNL A   1      34.162  23.324  27.209  1.00  0.00    -0.252 OA
BRANCH   6   8
ATOM      8  C   UNL A   1      33.000  24.316  25.339  1.00  0.00     0.107 C 
BRANCH   8   9
ATOM      9  C   UNL A   1      32.332  25.623  25.912  1.00  0.00     0.055 C 
BRANCH   9  10
ATOM     10  C   UNL A   1      31.489  26.547  25.035  1.00  0.00    -0.005 A 
ATOM     11  C   UNL A   1      31.934  27.813  24.620  1.00  0.00     0.122 A 
ATOM     12  C   UNL A   1      31.096  28.691  23.908  1.00  0.00     0.047 A 
ATOM     13  C   UNL A   1      29.821  28.291  23.517  1.00  0.00     0.004 A 
ATOM     14  C   UNL A   1      30.256  26.145  24.505  1.00  0.00     0.007 A 
ATOM     15  C   UNL A   1      29.414  26.998  23.788  1.00  0.00     0.001 A 
BRANCH  11  16
ATOM     16  O   UNL A   1      33.203  28.264  24.884  1.00  0.00    -0.496 OA
ATOM     17  C   UNL A   1      34.002  28.195  23.696  1.00  0.00     0.278 C 
ENDBRANCH  11  16
ENDBRANCH   9  10
ENDBRANCH   8   9
BRANCH   8  18
ATOM     18  C   UNL A   1      31.854  23.200  25.112  1.00  0.00     0.004 C 
ATOM     19  C   UNL A   1      31.342  23.164  23.660  1.00  0.00     0.007 C 
ATOM     20  C   UNL A   1      32.009  21.722  25.600  1.00  0.00     0.007 C 
ATOM     21  C   UNL A   1      32.189  22.314  22.707  1.00  0.00    -0.014 C 
ATOM     22  C   UNL A   1      32.678  20.667  24.669  1.00  0.00    -0.014 C 
ATOM     23  C   UNL A   1      33.533  22.961  22.380  1.00  0.00     0.007 C 
ATOM     24  C   UNL A   1      32.319  20.864  23.192  1.00  0.00     0.006 C 
ATOM     25  C   UNL A   1      34.181  20.375  24.809  1.00  0.00     0.007 C 
ENDBRANCH   8  18
ENDBRANCH   6   8
ENDBRANCH   5   6
ENDBRANCH   4   5
ENDBRANCH   3   4
ENDBRANCH   2   3
ENDBRANCH   1   2
BRANCH   1  26
ATOM     26  C   UNL A   1      41.058  21.729  26.504  1.00  0.00     0.188 C 
BRANCH  26  27
ATOM     27  O   UNL A   1      41.977  21.844  25.430  1.00  0.00    -0.376 OA
BRANCH  27  28
ATOM     28  C   UNL A   1      43.268  22.330  25.741  1.00  0.00     0.202 C 
BRANCH  28  29
ATOM     29  C   UNL A   1      43.501  23.846  25.627  1.00  0.00     0.261 C 
BRANCH  29  30
ATOM     30  O   UNL A   1      42.896  24.671  26.641  1.00  0.00    -0.460 OA
BRANCH  30  31
ATOM     31  C   UNL A   1      42.055  25.638  26.180  1.00  0.00     0.338 C 
ATOM     32  O   UNL A   1      40.978  25.461  25.639  1.00  0.00    -0.246 OA
BRANCH  31  33
ATOM     33  C   UNL A   1      42.553  26.979  26.579  1.00  0.00     0.060 A 
ATOM     34  C   UNL A   1      43.461  27.092  27.646  1.00  0.00     0.016 A 
ATOM     35  C   UNL A   1      42.051  28.128  25.970  1.00  0.00     0.016 A 
ATOM     36  C   UNL A   1      43.847  28.348  28.123  1.00  0.00     0.010 A 
ATOM     37  C   UNL A   1      42.409  29.386  26.472  1.00  0.00     0.010 A 
ATOM     38  C   UNL A   1      43.279  29.503  27.574  1.00  0.00    -0.014 A 
BRANCH  38  39
ATOM     39  C   UNL A   1      43.391  30.802  28.289  1.00  0.00     0.031 A 
ATOM     40  C   UNL A   1      44.525  31.723  27.917  1.00  0.00     0.074 A 
ATOM     41  C   UNL A   1      42.516  31.172  29.241  1.00  0.00     0.049 A 
ATOM     42  N   UNL A   1      44.898  32.856  28.456  1.00  0.00    -0.248 NA
ATOM     43  C   UNL A   1      45.355  31.290  26.785  1.00  0.00     0.031 C 
ATOM     44  C   UNL A   1      41.333  30.417  29.643  1.00  0.00     0.029 A 
ATOM     45  N   UNL A   1      42.500  32.283  30.047  1.00  0.00    -0.354 N 
ATOM     46  C   UNL A   1      46.014  33.268  27.734  1.00  0.00     0.074 A 
ATOM     47  C   UNL A   1      46.280  32.234  26.756  1.00  0.00     0.031 C 
ATOM     48  C   UNL A   1      40.706  31.086  30.628  1.00  0.00     0.029 A 
ATOM     49  C   UNL A   1      41.469  32.291  30.956  1.00  0.00     0.049 A 
ATOM     50  H   UNL A   1      43.165  33.006  29.982  1.00  0.00     0.167 HD
ATOM     51  C   UNL A   1      46.745  34.404  27.867  1.00  0.00     0.034 A 
ATOM     52  C   UNL A   1      41.189  33.157  31.952  1.00  0.00     0.034 A 
ATOM     53  C   UNL A   1      46.487  35.412  28.867  1.00  0.00     0.049 A 
ATOM     54  C   UNL A   1      42.097  34.345  32.179  1.00  0.00     0.074 A 
ATOM     55  C   UNL A   1      47.162  36.599  29.095  1.00  0.00     0.029 A 
ATOM     56  N   UNL A   1      45.481  35.343  29.825  1.00  0.00    -0.354 N 
ATOM     57  N   UNL A   1      43.157  34.723  31.501  1.00  0.00    -0.248 NA
ATOM     58  C   UNL A   1      41.763  35.224  33.307  1.00  0.00     0.031 C 
ATOM     59  C   UNL A   1      46.626  37.198  30.241  1.00  0.00     0.029 A 
ATOM     60  C   UNL A   1      45.549  36.442  30.672  1.00  0.00     0.049 A 
ATOM     61  H   UNL A   1      44.817  34.619  29.894  1.00  0.00     0.167 HD
ATOM     62  C   UNL A   1      43.589  35.908  32.097  1.00  0.00     0.074 A 
ATOM     63  C   UNL A   1      42.670  36.182  33.183  1.00  0.00     0.031 C 
ATOM     64  C   UNL A   1      44.642  36.702  31.768  1.00  0.00     0.034 A 
BRANCH  51  65
ATOM     65  C   UNL A   1      47.934  34.564  26.944  1.00  0.00     0.023 A 
ATOM     66  C   UNL A   1      49.191  34.015  27.256  1.00  0.00     0.031 A 
ATOM     67  C   UNL A   1      47.835  35.348  25.782  1.00  0.00     0.131 A 
ATOM     68  C   UNL A   1      50.314  34.353  26.487  1.00  0.00     0.055 A 
ATOM     69  C   UNL A   1      48.938  35.593  24.960  1.00  0.00     0.041 A 
ATOM     70  F   UNL A   1      46.671  35.920  25.438  1.00  0.00    -0.206 F 
ATOM     71  C   UNL A   1      50.192  35.115  25.324  1.00  0.00     0.022 A 
BRANCH  68  72
ATOM     72  S   UNL A   1      51.960  33.966  27.150  1.00  0.00     0.124 S 
ATOM     73  O   UNL A   1      52.141  32.587  26.700  1.00  0.00    -0.237 OA
ATOM     74  O   UNL A   1      52.803  34.966  26.504  1.00  0.00    -0.237 OA
ATOM     75  O   UNL A   1      51.794  34.125  28.593  1.00  0.00    -0.744 OA
ENDBRANCH  68  72
ENDBRANCH  51  65
BRANCH  52  76
ATOM     76  C   UNL A   1      40.008  32.936  32.835  1.00  0.00     0.023 A 
ATOM     77  C   UNL A   1      40.128  32.196  34.022  1.00  0.00     0.031 A 
ATOM     78  C   UNL A   1      38.735  33.421  32.487  1.00  0.00     0.131 A 
ATOM     79  C   UNL A   1      38.991  31.931  34.802  1.00  0.00     0.055 A 
ATOM     80  C   UNL A   1      37.616  33.201  33.293  1.00  0.00     0.041 A 
ATOM     81  F   UNL A   1      38.562  34.126  31.358  1.00  0.00    -0.206 F 
ATOM     82  C   UNL A   1      37.740  32.444  34.454  1.00  0.00     0.022 A 
BRANCH  79  83
ATOM     83  S   UNL A   1      39.160  30.847  36.244  1.00  0.00     0.124 S 
ATOM     84  O   UNL A   1      39.867  29.706  35.676  1.00  0.00    -0.237 OA
ATOM     85  O   UNL A   1      39.924  31.682  37.165  1.00  0.00    -0.237 OA
ATOM     86  O   UNL A   1      37.777  30.591  36.641  1.00  0.00    -0.744 OA
ENDBRANCH  79  83
ENDBRANCH  52  76
BRANCH  64  87
ATOM     87  C   UNL A   1      44.825  37.977  32.565  1.00  0.00     0.023 A 
ATOM     88  C   UNL A   1      45.617  38.026  33.726  1.00  0.00     0.031 A 
ATOM     89  C   UNL A   1      44.174  39.161  32.166  1.00  0.00     0.131 A 
ATOM     90  C   UNL A   1      45.682  39.207  34.483  1.00  0.00     0.055 A 
ATOM     91  C   UNL A   1      44.305  40.352  32.880  1.00  0.00     0.041 A 
ATOM     92  F   UNL A   1      43.398  39.178  31.070  1.00  0.00    -0.206 F 
ATOM     93  C   UNL A   1      45.049  40.376  34.056  1.00  0.00     0.022 A 
BRANCH  90  94
ATOM     94  S   UNL A   1      46.506  39.165  36.099  1.00  0.00     0.124 S 
ATOM     95  O   UNL A   1      46.375  40.550  36.542  1.00  0.00    -0.237 OA
ATOM     96  O   UNL A   1      45.709  38.185  36.830  1.00  0.00    -0.237 OA
ATOM     97  O   UNL A   1      47.868  38.743  35.780  1.00  0.00    -0.744 OA
ENDBRANCH  90  94
ENDBRANCH  64  87
ENDBRANCH  38  39
ENDBRANCH  31  33
ENDBRANCH  30  31
ENDBRANCH  29  30
ENDBRANCH  28  29
ENDBRANCH  27  28
ENDBRANCH  26  27
ENDBRANCH   1  26
TORSDOF 24
ENDMDL
MODEL 3
REMARK VINA RESULT:      -8.6      3.645      5.463
REMARK SMILES COc1ccccc1C[C@@H](C(=O)OCCOCCOCCOC(=O)c1ccc(-c2c3nc(c(-c4cc(S(=O)(=O)[O-])ccc4F)c4ccc([nH]4)c(-c4cc(S(=O)(=O)[O-])ccc4F)c4nc(c(-c5cc(S(=O)(=O)[O-])ccc5F)c5ccc2[nH]5)C=C4)C=C3)cc1)[C@@H]1C[C@H](C)C[C@H](C)C1
REMARK SMILES IDX 17 1 16 2 15 3 14 4 13 5 11 6 12 7 10 8 9 9 8 10 3 11 4 12
REMARK SMILES IDX 5 13 7 14 6 15 2 16 1 17 88 18 95 19 89 20 93 21 90 22 94 23
REMARK SMILES IDX 92 24 91 25 18 26 19 27 20 28 21 29 22 30 23 31 24 32 25 33
REMARK SMILES IDX 26 34 87 35 27 36 86 37 28 38 29 39 30 40 80 41 31 42 85 43
REMARK SMILES IDX 79 44 81 45 32 46 84 47 78 48 77 49 33 51 65 52 45 53 64 54
REMARK SMILES IDX 46 55 49 56 63 57 82 58 47 59 48 60 62 62 83 63 50 64 34 65
REMARK SMILES IDX 35 66 43 67 36 68 42 69 44 70 41 71 37 72 38 73 39 74 40 75
REMARK SMILES IDX 66 76 67 77 75 78 68 79 74 80 76 81 73 82 69 83 70 84 71 85
REMARK SMILES IDX 72 86 51 87 52 88 60 89 53 90 59 91 61 92 58 93 54 94 55 95
REMARK SMILES IDX 56 96 57 97
REMARK H PARENT 81 50 49 61
REMARK Flexibility Score: inf
ROOT
ATOM      1  C   UNL A   1      38.968  25.414  27.519  1.00  0.00     0.188 C 
ENDROOT
BRANCH   1   2
ATOM      2  O   UNL A   1      38.469  24.082  27.435  1.00  0.00    -0.376 OA
BRANCH   2   3
ATOM      3  C   UNL A   1      38.656  23.429  26.195  1.00  0.00     0.202 C 
BRANCH   3   4
ATOM      4  C   UNL A   1      37.330  23.298  25.405  1.00  0.00     0.261 C 
BRANCH   4   5
ATOM      5  O   UNL A   1      36.268  24.255  25.653  1.00  0.00    -0.463 OA
BRANCH   5   6
ATOM      6  C   UNL A   1      35.271  24.237  24.748  1.00  0.00     0.309 C 
ATOM      7  O   UNL A   1      35.489  23.768  23.658  1.00  0.00    -0.252 OA
BRANCH   6   8
ATOM      8  C   UNL A   1      33.956  24.907  25.136  1.00  0.00     0.107 C 
BRANCH   8   9
ATOM      9  C   UNL A   1      33.972  26.441  25.497  1.00  0.00     0.055 C 
BRANCH   9  10
ATOM     10  C   UNL A   1      32.965  27.420  24.894  1.00  0.00    -0.005 A 
ATOM     11  C   UNL A   1      32.325  28.413  25.653  1.00  0.00     0.122 A 
ATOM     12  C   UNL A   1      31.320  29.228  25.102  1.00  0.00     0.047 A 
ATOM     13  C   UNL A   1      30.991  29.130  23.753  1.00  0.00     0.004 A 
ATOM     14  C   UNL A   1      32.694  27.452  23.520  1.00  0.00     0.007 A 
ATOM     15  C   UNL A   1      31.708  28.261  22.951  1.00  0.00     0.001 A 
BRANCH  11  16
ATOM     16  O   UNL A   1      32.640  28.643  26.970  1.00  0.00    -0.496 OA
ATOM     17  C   UNL A   1      34.014  29.039  27.079  1.00  0.00     0.278 C 
ENDBRANCH  11  16
ENDBRANCH   9  10
ENDBRANCH   8   9
BRANCH   8  18
ATOM     18  C   UNL A   1      33.218  24.099  26.324  1.00  0.00     0.004 C 
ATOM     19  C   UNL A   1      31.769  24.569  26.548  1.00  0.00     0.007 C 
ATOM     20  C   UNL A   1      33.232  22.538  26.417  1.00  0.00     0.007 C 
ATOM     21  C   UNL A   1      30.737  23.913  25.624  1.00  0.00    -0.014 C 
ATOM     22  C   UNL A   1      32.129  21.710  25.692  1.00  0.00    -0.014 C 
ATOM     23  C   UNL A   1      30.839  24.410  24.184  1.00  0.00     0.007 C 
ATOM     24  C   UNL A   1      30.754  22.383  25.738  1.00  0.00     0.006 C 
ATOM     25  C   UNL A   1      32.397  21.159  24.282  1.00  0.00     0.007 C 
ENDBRANCH   8  18
ENDBRANCH   6   8
ENDBRANCH   5   6
ENDBRANCH   4   5
ENDBRANCH   3   4
ENDBRANCH   2   3
ENDBRANCH   1   2
BRANCH   1  26
ATOM     26  C   UNL A   1      40.429  25.361  27.952  1.00  0.00     0.188 C 
BRANCH  26  27
ATOM     27  O   UNL A   1      40.956  26.416  28.740  1.00  0.00    -0.376 OA
BRANCH  27  28
ATOM     28  C   UNL A   1      40.043  27.399  29.190  1.00  0.00     0.202 C 
BRANCH  28  29
ATOM     29  C   UNL A   1      39.096  27.013  30.338  1.00  0.00     0.261 C 
BRANCH  29  30
ATOM     30  O   UNL A   1      38.411  28.092  31.002  1.00  0.00    -0.460 OA
BRANCH  30  31
ATOM     31  C   UNL A   1      38.424  28.041  32.362  1.00  0.00     0.338 C 
ATOM     32  O   UNL A   1      38.151  27.074  33.052  1.00  0.00    -0.246 OA
BRANCH  31  33
ATOM     33  C   UNL A   1      38.989  29.299  32.915  1.00  0.00     0.060 A 
ATOM     34  C   UNL A   1      38.254  30.492  32.811  1.00  0.00     0.016 A 
ATOM     35  C   UNL A   1      40.279  29.321  33.443  1.00  0.00     0.016 A 
ATOM     36  C   UNL A   1      38.813  31.710  33.208  1.00  0.00     0.010 A 
ATOM     37  C   UNL A   1      40.853  30.547  33.806  1.00  0.00     0.010 A 
ATOM     38  C   UNL A   1      40.138  31.752  33.655  1.00  0.00    -0.014 A 
BRANCH  38  39
ATOM     39  C   UNL A   1      40.859  33.051  33.734  1.00  0.00     0.031 A 
ATOM     40  C   UNL A   1      41.408  33.638  32.460  1.00  0.00     0.074 A 
ATOM     41  C   UNL A   1      41.024  33.706  34.897  1.00  0.00     0.049 A 
ATOM     42  N   UNL A   1      42.154  34.698  32.278  1.00  0.00    -0.248 NA
ATOM     43  C   UNL A   1      41.072  32.915  31.226  1.00  0.00     0.031 C 
ATOM     44  C   UNL A   1      40.479  33.294  36.187  1.00  0.00     0.029 A 
ATOM     45  N   UNL A   1      41.712  34.862  35.173  1.00  0.00    -0.354 N 
ATOM     46  C   UNL A   1      42.387  34.764  30.907  1.00  0.00     0.074 A 
ATOM     47  C   UNL A   1      41.743  33.608  30.320  1.00  0.00     0.031 C 
ATOM     48  C   UNL A   1      40.858  34.183  37.122  1.00  0.00     0.029 A 
ATOM     49  C   UNL A   1      41.711  35.200  36.506  1.00  0.00     0.049 A 
ATOM     50  H   UNL A   1      42.164  35.398  34.482  1.00  0.00     0.167 HD
ATOM     51  C   UNL A   1      43.067  35.703  30.201  1.00  0.00     0.034 A 
ATOM     52  C   UNL A   1      42.346  36.199  37.154  1.00  0.00     0.034 A 
ATOM     53  C   UNL A   1      43.731  36.835  30.802  1.00  0.00     0.049 A 
ATOM     54  C   UNL A   1      43.216  37.156  36.371  1.00  0.00     0.074 A 
ATOM     55  C   UNL A   1      44.449  37.845  30.186  1.00  0.00     0.029 A 
ATOM     56  N   UNL A   1      43.777  37.098  32.167  1.00  0.00    -0.354 N 
ATOM     57  N   UNL A   1      43.442  37.206  35.077  1.00  0.00    -0.248 NA
ATOM     58  C   UNL A   1      43.915  38.193  37.142  1.00  0.00     0.031 C 
ATOM     59  C   UNL A   1      45.003  38.661  31.180  1.00  0.00     0.029 A 
ATOM     60  C   UNL A   1      44.549  38.225  32.413  1.00  0.00     0.049 A 
ATOM     61  H   UNL A   1      43.327  36.560  32.860  1.00  0.00     0.167 HD
ATOM     62  C   UNL A   1      44.274  38.308  34.878  1.00  0.00     0.074 A 
ATOM     63  C   UNL A   1      44.503  38.893  36.184  1.00  0.00     0.031 C 
ATOM     64  C   UNL A   1      44.792  38.796  33.720  1.00  0.00     0.034 A 
BRANCH  51  65
ATOM     65  C   UNL A   1      43.176  35.489  28.706  1.00  0.00     0.023 A 
ATOM     66  C   UNL A   1      43.977  34.469  28.162  1.00  0.00     0.031 A 
ATOM     67  C   UNL A   1      42.543  36.369  27.811  1.00  0.00     0.131 A 
ATOM     68  C   UNL A   1      44.217  34.427  26.781  1.00  0.00     0.055 A 
ATOM     69  C   UNL A   1      42.700  36.255  26.428  1.00  0.00     0.041 A 
ATOM     70  F   UNL A   1      41.783  37.378  28.264  1.00  0.00    -0.206 F 
ATOM     71  C   UNL A   1      43.562  35.295  25.906  1.00  0.00     0.022 A 
BRANCH  68  72
ATOM     72  S   UNL A   1      45.561  33.369  26.172  1.00  0.00     0.124 S 
ATOM     73  O   UNL A   1      46.157  32.902  27.422  1.00  0.00    -0.237 OA
ATOM     74  O   UNL A   1      44.844  32.367  25.392  1.00  0.00    -0.237 OA
ATOM     75  O   UNL A   1      46.395  34.286  25.398  1.00  0.00    -0.744 OA
ENDBRANCH  68  72
ENDBRANCH  51  65
BRANCH  52  76
ATOM     76  C   UNL A   1      42.206  36.348  38.631  1.00  0.00     0.023 A 
ATOM     77  C   UNL A   1      41.182  37.136  39.179  1.00  0.00     0.031 A 
ATOM     78  C   UNL A   1      43.118  35.745  39.516  1.00  0.00     0.131 A 
ATOM     79  C   UNL A   1      41.111  37.329  40.568  1.00  0.00     0.055 A 
ATOM     80  C   UNL A   1      43.013  35.896  40.900  1.00  0.00     0.041 A 
ATOM     81  F   UNL A   1      44.123  34.990  39.045  1.00  0.00    -0.206 F 
ATOM     82  C   UNL A   1      42.009  36.700  41.432  1.00  0.00     0.022 A 
BRANCH  79  83
ATOM     83  S   UNL A   1      39.867  38.472  41.223  1.00  0.00     0.124 S 
ATOM     84  O   UNL A   1      38.677  38.076  40.480  1.00  0.00    -0.237 OA
ATOM     85  O   UNL A   1      39.873  38.146  42.646  1.00  0.00    -0.237 OA
ATOM     86  O   UNL A   1      40.404  39.789  40.888  1.00  0.00    -0.744 OA
ENDBRANCH  79  83
ENDBRANCH  52  76
BRANCH  64  87
ATOM     87  C   UNL A   1      45.618  40.062  33.809  1.00  0.00     0.023 A 
ATOM     88  C   UNL A   1      45.028  41.339  33.854  1.00  0.00     0.031 A 
ATOM     89  C   UNL A   1      47.024  39.990  33.827  1.00  0.00     0.131 A 
ATOM     90  C   UNL A   1      45.836  42.487  33.842  1.00  0.00     0.055 A 
ATOM     91  C   UNL A   1      47.822  41.133  33.893  1.00  0.00     0.041 A 
ATOM     92  F   UNL A   1      47.649  38.802  33.780  1.00  0.00    -0.206 F 
ATOM     93  C   UNL A   1      47.228  42.392  33.884  1.00  0.00     0.022 A 
BRANCH  90  94
ATOM     94  S   UNL A   1      45.045  44.109  33.648  1.00  0.00     0.124 S 
ATOM     95  O   UNL A   1      44.868  44.187  32.201  1.00  0.00    -0.237 OA
ATOM     96  O   UNL A   1      43.824  43.956  34.432  1.00  0.00    -0.237 OA
ATOM     97  O   UNL A   1      46.027  45.038  34.203  1.00  0.00    -0.744 OA
ENDBRANCH  90  94
ENDBRANCH  64  87
ENDBRANCH  38  39
ENDBRANCH  31  33
ENDBRANCH  30  31
ENDBRANCH  29  30
ENDBRANCH  28  29
ENDBRANCH  27  28
ENDBRANCH  26  27
ENDBRANCH   1  26
TORSDOF 24
ENDMDL
