MODEL 1
REMARK VINA RESULT:     -10.9      0.000      0.000
REMARK SMILES O=C(OCCOCCOCCOC(=O)[C@H]1CC2(CC[NH+](C(=O)C3CC3)CC2)CN1C(=O)CCn1cccn1)c1ccc(-c2c3nc(c(-c4cc(S(=O)(=O)[O-])ccc4F)c4ccc([nH]4)c(-c4cc(S(=O)(=O)[O-])ccc4F)c4nc(c(-c5cc(S(=O)(=O)[O-])ccc5F)c5ccc2[nH]5)C=C4)C=C3)cc1
REMARK SMILES IDX 8 1 7 2 6 3 5 4 4 5 3 6 2 7 1 8 39 9 40 10 101 11 41 12
REMARK SMILES IDX 100 13 42 14 43 15 44 16 94 17 45 18 99 19 93 20 95 21 46 22
REMARK SMILES IDX 98 23 92 24 91 25 47 27 79 28 59 29 78 30 60 31 63 32 77 33
REMARK SMILES IDX 96 34 61 35 62 36 76 38 97 39 64 40 48 41 49 42 57 43 50 44
REMARK SMILES IDX 56 45 58 46 55 47 51 48 52 49 53 50 54 51 80 52 81 53 89 54
REMARK SMILES IDX 82 55 88 56 90 57 87 58 83 59 84 60 85 61 86 62 65 63 66 64
REMARK SMILES IDX 74 65 67 66 73 67 75 68 72 69 68 70 69 71 70 72 71 73 9 74
REMARK SMILES IDX 10 75 11 76 12 77 13 78 14 79 15 80 16 81 29 82 17 83 28 84
REMARK SMILES IDX 18 85 27 86 19 87 26 88 20 89 30 91 31 92 32 93 33 94 34 95
REMARK SMILES IDX 35 96 38 97 36 98 37 99 21 100 22 101 23 102 24 103 25 104
REMARK H PARENT 95 26 63 37 20 90
REMARK Flexibility Score: inf
ROOT
ATOM      1  C   UNL A   1      33.865  28.083  25.741  1.00  0.00     0.188 C 
ENDROOT
BRANCH   1   2
ATOM      2  C   UNL A   1      32.623  28.362  26.617  1.00  0.00     0.188 C 
BRANCH   2   3
ATOM      3  O   UNL A   1      31.493  29.068  26.147  1.00  0.00    -0.376 OA
BRANCH   3   4
ATOM      4  C   UNL A   1      31.439  30.394  25.663  1.00  0.00     0.202 C 
BRANCH   4   5
ATOM      5  C   UNL A   1      31.513  31.679  26.491  1.00  0.00     0.261 C 
BRANCH   5   6
ATOM      6  O   UNL A   1      32.626  31.832  27.355  1.00  0.00    -0.460 OA
BRANCH   6   7
ATOM      7  C   UNL A   1      33.086  32.962  27.933  1.00  0.00     0.338 C 
ATOM      8  O   UNL A   1      32.403  33.982  27.852  1.00  0.00    -0.246 OA
BRANCH   7   9
ATOM      9  C   UNL A   1      34.469  33.096  28.452  1.00  0.00     0.060 A 
ATOM     10  C   UNL A   1      35.536  33.719  27.800  1.00  0.00     0.016 A 
ATOM     11  C   UNL A   1      34.671  32.538  29.734  1.00  0.00     0.016 A 
ATOM     12  C   UNL A   1      36.815  33.534  28.265  1.00  0.00     0.010 A 
ATOM     13  C   UNL A   1      35.943  32.390  30.230  1.00  0.00     0.010 A 
ATOM     14  C   UNL A   1      36.989  32.750  29.396  1.00  0.00    -0.014 A 
BRANCH  14  15
ATOM     15  C   UNL A   1      38.294  32.156  29.570  1.00  0.00     0.031 A 
ATOM     16  C   UNL A   1      38.321  30.700  29.325  1.00  0.00     0.074 A 
ATOM     17  C   UNL A   1      39.309  32.964  29.940  1.00  0.00     0.049 A 
ATOM     18  N   UNL A   1      38.560  29.757  30.174  1.00  0.00    -0.248 NA
ATOM     19  C   UNL A   1      37.798  30.221  28.034  1.00  0.00     0.031 C 
ATOM     20  C   UNL A   1      39.311  34.431  30.051  1.00  0.00     0.029 A 
ATOM     21  N   UNL A   1      40.602  32.656  30.190  1.00  0.00    -0.354 N 
ATOM     22  C   UNL A   1      38.493  28.577  29.440  1.00  0.00     0.074 A 
ATOM     23  C   UNL A   1      37.801  28.903  28.226  1.00  0.00     0.031 C 
ATOM     24  C   UNL A   1      40.583  34.882  30.066  1.00  0.00     0.029 A 
ATOM     25  C   UNL A   1      41.474  33.740  30.118  1.00  0.00     0.049 A 
ATOM     26  H   UNL A   1      40.903  31.743  30.405  1.00  0.00     0.167 HD
ATOM     27  C   UNL A   1      39.288  27.520  29.761  1.00  0.00     0.034 A 
ATOM     28  C   UNL A   1      42.826  33.664  29.984  1.00  0.00     0.034 A 
ATOM     29  C   UNL A   1      39.697  27.590  31.148  1.00  0.00     0.049 A 
ATOM     30  C   UNL A   1      43.203  32.307  30.471  1.00  0.00     0.074 A 
ATOM     31  C   UNL A   1      39.012  27.605  32.348  1.00  0.00     0.029 A 
ATOM     32  N   UNL A   1      40.956  28.073  31.438  1.00  0.00    -0.354 N 
ATOM     33  N   UNL A   1      43.032  31.935  31.715  1.00  0.00    -0.248 NA
ATOM     34  C   UNL A   1      43.230  31.217  29.503  1.00  0.00     0.031 C 
ATOM     35  C   UNL A   1      39.703  28.557  33.153  1.00  0.00     0.029 A 
ATOM     36  C   UNL A   1      40.826  28.996  32.450  1.00  0.00     0.049 A 
ATOM     37  H   UNL A   1      41.797  27.804  31.001  1.00  0.00     0.167 HD
ATOM     38  C   UNL A   1      42.519  30.646  31.646  1.00  0.00     0.074 A 
ATOM     39  C   UNL A   1      42.729  30.232  30.257  1.00  0.00     0.031 C 
ATOM     40  C   UNL A   1      41.695  30.149  32.619  1.00  0.00     0.034 A 
BRANCH  27  41
ATOM     41  C   UNL A   1      40.032  26.700  28.726  1.00  0.00     0.023 A 
ATOM     42  C   UNL A   1      41.120  27.324  28.090  1.00  0.00     0.031 A 
ATOM     43  C   UNL A   1      39.570  25.509  28.116  1.00  0.00     0.131 A 
ATOM     44  C   UNL A   1      41.594  26.861  26.853  1.00  0.00     0.055 A 
ATOM     45  C   UNL A   1      40.086  25.018  26.915  1.00  0.00     0.041 A 
ATOM     46  F   UNL A   1      38.544  24.792  28.585  1.00  0.00    -0.206 F 
ATOM     47  C   UNL A   1      41.078  25.716  26.253  1.00  0.00     0.022 A 
BRANCH  44  48
ATOM     48  S   UNL A   1      42.760  27.904  25.944  1.00  0.00     0.124 S 
ATOM     49  O   UNL A   1      43.776  26.933  25.553  1.00  0.00    -0.237 OA
ATOM     50  O   UNL A   1      41.919  28.424  24.871  1.00  0.00    -0.237 OA
ATOM     51  O   UNL A   1      43.182  28.885  26.941  1.00  0.00    -0.744 OA
ENDBRANCH  44  48
ENDBRANCH  27  41
BRANCH  28  52
ATOM     52  C   UNL A   1      43.634  34.495  29.039  1.00  0.00     0.023 A 
ATOM     53  C   UNL A   1      44.189  33.993  27.842  1.00  0.00     0.031 A 
ATOM     54  C   UNL A   1      43.706  35.898  29.223  1.00  0.00     0.131 A 
ATOM     55  C   UNL A   1      44.789  34.877  26.908  1.00  0.00     0.055 A 
ATOM     56  C   UNL A   1      44.304  36.762  28.303  1.00  0.00     0.041 A 
ATOM     57  F   UNL A   1      43.125  36.495  30.275  1.00  0.00    -0.206 F 
ATOM     58  C   UNL A   1      44.843  36.254  27.136  1.00  0.00     0.022 A 
BRANCH  55  59
ATOM     59  S   UNL A   1      45.464  34.251  25.333  1.00  0.00     0.124 S 
ATOM     60  O   UNL A   1      44.519  34.780  24.357  1.00  0.00    -0.237 OA
ATOM     61  O   UNL A   1      46.804  34.827  25.316  1.00  0.00    -0.237 OA
ATOM     62  O   UNL A   1      45.427  32.797  25.496  1.00  0.00    -0.744 OA
ENDBRANCH  55  59
ENDBRANCH  28  52
BRANCH  40  63
ATOM     63  C   UNL A   1      41.514  30.953  33.898  1.00  0.00     0.023 A 
ATOM     64  C   UNL A   1      40.498  31.915  34.121  1.00  0.00     0.031 A 
ATOM     65  C   UNL A   1      42.326  30.603  34.990  1.00  0.00     0.131 A 
ATOM     66  C   UNL A   1      40.335  32.486  35.403  1.00  0.00     0.055 A 
ATOM     67  C   UNL A   1      42.149  31.157  36.258  1.00  0.00     0.041 A 
ATOM     68  F   UNL A   1      43.282  29.670  34.852  1.00  0.00    -0.206 F 
ATOM     69  C   UNL A   1      41.155  32.104  36.469  1.00  0.00     0.022 A 
BRANCH  66  70
ATOM     70  S   UNL A   1      39.047  33.743  35.715  1.00  0.00     0.124 S 
ATOM     71  O   UNL A   1      39.805  34.983  35.823  1.00  0.00    -0.237 OA
ATOM     72  O   UNL A   1      38.188  33.616  34.540  1.00  0.00    -0.237 OA
ATOM     73  O   UNL A   1      38.430  33.295  36.966  1.00  0.00    -0.744 OA
ENDBRANCH  66  70
ENDBRANCH  40  63
ENDBRANCH  14  15
ENDBRANCH   7   9
ENDBRANCH   6   7
ENDBRANCH   5   6
ENDBRANCH   4   5
ENDBRANCH   3   4
ENDBRANCH   2   3
ENDBRANCH   1   2
BRANCH   1  74
ATOM     74  O   UNL A   1      34.042  26.812  25.138  1.00  0.00    -0.376 OA
BRANCH  74  75
ATOM     75  C   UNL A   1      34.188  25.723  26.018  1.00  0.00     0.202 C 
BRANCH  75  76
ATOM     76  C   UNL A   1      34.288  24.363  25.301  1.00  0.00     0.261 C 
BRANCH  76  77
ATOM     77  O   UNL A   1      33.706  23.190  25.933  1.00  0.00    -0.462 OA
BRANCH  77  78
ATOM     78  C   UNL A   1      32.435  23.372  26.392  1.00  0.00     0.328 C 
ATOM     79  O   UNL A   1      32.214  23.485  27.592  1.00  0.00    -0.250 OA
BRANCH  78  80
ATOM     80  C   UNL A   1      31.336  23.599  25.322  1.00  0.00     0.195 C 
ATOM     81  C   UNL A   1      30.812  25.056  25.167  1.00  0.00     0.046 C 
ATOM     82  N   UNL A   1      31.483  23.172  23.913  1.00  0.00    -0.328 N 
ATOM     83  C   UNL A   1      30.349  25.215  23.677  1.00  0.00     0.001 C 
ATOM     84  C   UNL A   1      30.401  23.778  23.150  1.00  0.00     0.128 C 
ATOM     85  C   UNL A   1      31.300  26.059  22.801  1.00  0.00     0.071 C 
ATOM     86  C   UNL A   1      28.951  25.848  23.551  1.00  0.00     0.071 C 
ATOM     87  C   UNL A   1      31.288  27.543  23.128  1.00  0.00     0.270 C 
ATOM     88  C   UNL A   1      28.961  27.343  23.897  1.00  0.00     0.270 C 
ATOM     89  N   UNL A   1      29.942  28.093  23.100  1.00  0.00    -0.272 N 
ATOM     90  H   UNL A   1      30.753  28.650  23.140  1.00  0.00     0.356 HD
BRANCH  82  91
ATOM     91  C   UNL A   1      32.372  22.344  23.266  1.00  0.00     0.225 C 
ATOM     92  O   UNL A   1      33.241  22.816  22.520  1.00  0.00    -0.275 OA
BRANCH  91  93
ATOM     93  C   UNL A   1      32.311  20.839  23.367  1.00  0.00     0.124 C 
BRANCH  93  94
ATOM     94  C   UNL A   1      33.375  20.089  24.193  1.00  0.00     0.154 C 
BRANCH  94  95
ATOM     95  N   UNL A   1      33.642  18.667  24.056  1.00  0.00    -0.272 N 
ATOM     96  C   UNL A   1      32.860  17.753  23.387  1.00  0.00     0.108 A 
ATOM     97  N   UNL A   1      34.768  18.105  24.530  1.00  0.00    -0.182 NA
ATOM     98  C   UNL A   1      33.446  16.521  23.570  1.00  0.00     0.042 A 
ATOM     99  C   UNL A   1      34.616  16.800  24.287  1.00  0.00     0.135 A 
ENDBRANCH  94  95
ENDBRANCH  93  94
ENDBRANCH  91  93
ENDBRANCH  82  91
BRANCH  89 100
ATOM    100  C   UNL A   1      29.529  29.324  22.565  1.00  0.00     0.315 C 
ATOM    101  O   UNL A   1      29.748  29.599  21.394  1.00  0.00    -0.231 OA
BRANCH 100 102
ATOM    102  C   UNL A   1      28.834  30.403  23.340  1.00  0.00     0.119 C 
ATOM    103  C   UNL A   1      28.878  31.896  23.203  1.00  0.00     0.019 C 
ATOM    104  C   UNL A   1      27.640  31.141  22.788  1.00  0.00     0.019 C 
ENDBRANCH 100 102
ENDBRANCH  89 100
ENDBRANCH  78  80
ENDBRANCH  77  78
ENDBRANCH  76  77
ENDBRANCH  75  76
ENDBRANCH  74  75
ENDBRANCH   1  74
TORSDOF 26
ENDMDL
MODEL 2
REMARK VINA RESULT:     -10.7      1.790      2.019
REMARK SMILES O=C(OCCOCCOCCOC(=O)[C@H]1CC2(CC[NH+](C(=O)C3CC3)CC2)CN1C(=O)CCn1cccn1)c1ccc(-c2c3nc(c(-c4cc(S(=O)(=O)[O-])ccc4F)c4ccc([nH]4)c(-c4cc(S(=O)(=O)[O-])ccc4F)c4nc(c(-c5cc(S(=O)(=O)[O-])ccc5F)c5ccc2[nH]5)C=C4)C=C3)cc1
REMARK SMILES IDX 8 1 7 2 6 3 5 4 4 5 3 6 2 7 1 8 39 9 40 10 101 11 41 12
REMARK SMILES IDX 100 13 42 14 43 15 44 16 94 17 45 18 99 19 93 20 95 21 46 22
REMARK SMILES IDX 98 23 92 24 91 25 47 27 79 28 59 29 78 30 60 31 63 32 77 33
REMARK SMILES IDX 96 34 61 35 62 36 76 38 97 39 64 40 48 41 49 42 57 43 50 44
REMARK SMILES IDX 56 45 58 46 55 47 51 48 52 49 53 50 54 51 80 52 81 53 89 54
REMARK SMILES IDX 82 55 88 56 90 57 87 58 83 59 84 60 85 61 86 62 65 63 66 64
REMARK SMILES IDX 74 65 67 66 73 67 75 68 72 69 68 70 69 71 70 72 71 73 9 74
REMARK SMILES IDX 10 75 11 76 12 77 13 78 14 79 15 80 16 81 29 82 17 83 28 84
REMARK SMILES IDX 18 85 27 86 19 87 26 88 20 89 30 91 31 92 32 93 33 94 34 95
REMARK SMILES IDX 35 96 38 97 36 98 37 99 21 100 22 101 23 102 24 103 25 104
REMARK H PARENT 95 26 63 37 20 90
REMARK Flexibility Score: inf
ROOT
ATOM      1  C   UNL A   1      33.937  28.486  25.874  1.00  0.00     0.188 C 
ENDROOT
BRANCH   1   2
ATOM      2  C   UNL A   1      32.710  28.686  26.792  1.00  0.00     0.188 C 
BRANCH   2   3
ATOM      3  O   UNL A   1      31.534  29.346  26.371  1.00  0.00    -0.376 OA
BRANCH   3   4
ATOM      4  C   UNL A   1      31.422  30.627  25.784  1.00  0.00     0.202 C 
BRANCH   4   5
ATOM      5  C   UNL A   1      31.418  31.974  26.509  1.00  0.00     0.261 C 
BRANCH   5   6
ATOM      6  O   UNL A   1      32.306  32.125  27.604  1.00  0.00    -0.460 OA
BRANCH   6   7
ATOM      7  C   UNL A   1      32.884  33.256  28.061  1.00  0.00     0.338 C 
ATOM      8  O   UNL A   1      32.318  34.329  27.855  1.00  0.00    -0.246 OA
BRANCH   7   9
ATOM      9  C   UNL A   1      34.271  33.296  28.586  1.00  0.00     0.060 A 
ATOM     10  C   UNL A   1      35.325  34.054  28.069  1.00  0.00     0.016 A 
ATOM     11  C   UNL A   1      34.491  32.486  29.723  1.00  0.00     0.016 A 
ATOM     12  C   UNL A   1      36.610  33.791  28.477  1.00  0.00     0.010 A 
ATOM     13  C   UNL A   1      35.769  32.254  30.169  1.00  0.00     0.010 A 
ATOM     14  C   UNL A   1      36.803  32.792  29.419  1.00  0.00    -0.014 A 
BRANCH  14  15
ATOM     15  C   UNL A   1      38.116  32.190  29.457  1.00  0.00     0.031 A 
ATOM     16  C   UNL A   1      38.150  30.807  28.942  1.00  0.00     0.074 A 
ATOM     17  C   UNL A   1      39.131  32.926  29.954  1.00  0.00     0.049 A 
ATOM     18  N   UNL A   1      38.412  29.724  29.594  1.00  0.00    -0.248 NA
ATOM     19  C   UNL A   1      37.606  30.573  27.593  1.00  0.00     0.031 C 
ATOM     20  C   UNL A   1      39.124  34.346  30.339  1.00  0.00     0.029 A 
ATOM     21  N   UNL A   1      40.432  32.591  30.121  1.00  0.00    -0.354 N 
ATOM     22  C   UNL A   1      38.341  28.702  28.653  1.00  0.00     0.074 A 
ATOM     23  C   UNL A   1      37.623  29.242  27.534  1.00  0.00     0.031 C 
ATOM     24  C   UNL A   1      40.393  34.800  30.418  1.00  0.00     0.029 A 
ATOM     25  C   UNL A   1      41.294  33.679  30.239  1.00  0.00     0.049 A 
ATOM     26  H   UNL A   1      40.743  31.657  30.155  1.00  0.00     0.167 HD
ATOM     27  C   UNL A   1      39.149  27.612  28.756  1.00  0.00     0.034 A 
ATOM     28  C   UNL A   1      42.643  33.645  30.070  1.00  0.00     0.034 A 
ATOM     29  C   UNL A   1      39.584  27.426  30.125  1.00  0.00     0.049 A 
ATOM     30  C   UNL A   1      43.040  32.225  30.287  1.00  0.00     0.074 A 
ATOM     31  C   UNL A   1      38.921  27.207  31.318  1.00  0.00     0.029 A 
ATOM     32  N   UNL A   1      40.845  27.859  30.479  1.00  0.00    -0.354 N 
ATOM     33  N   UNL A   1      42.895  31.623  31.442  1.00  0.00    -0.248 NA
ATOM     34  C   UNL A   1      43.057  31.336  29.131  1.00  0.00     0.031 C 
ATOM     35  C   UNL A   1      39.620  27.998  32.276  1.00  0.00     0.029 A 
ATOM     36  C   UNL A   1      40.726  28.574  31.648  1.00  0.00     0.049 A 
ATOM     37  H   UNL A   1      41.679  27.687  29.985  1.00  0.00     0.167 HD
ATOM     38  C   UNL A   1      42.391  30.364  31.141  1.00  0.00     0.074 A 
ATOM     39  C   UNL A   1      42.578  30.221  29.695  1.00  0.00     0.031 C 
ATOM     40  C   UNL A   1      41.589  29.685  32.016  1.00  0.00     0.034 A 
BRANCH  27  41
ATOM     41  C   UNL A   1      39.880  27.009  27.573  1.00  0.00     0.023 A 
ATOM     42  C   UNL A   1      39.967  25.606  27.535  1.00  0.00     0.031 A 
ATOM     43  C   UNL A   1      40.738  27.699  26.683  1.00  0.00     0.131 A 
ATOM     44  C   UNL A   1      40.955  24.966  26.769  1.00  0.00     0.055 A 
ATOM     45  C   UNL A   1      41.678  27.053  25.877  1.00  0.00     0.041 A 
ATOM     46  F   UNL A   1      40.787  29.031  26.592  1.00  0.00    -0.206 F 
ATOM     47  C   UNL A   1      41.820  25.680  25.946  1.00  0.00     0.022 A 
BRANCH  44  48
ATOM     48  S   UNL A   1      41.219  23.195  27.031  1.00  0.00     0.124 S 
ATOM     49  O   UNL A   1      40.028  22.628  26.408  1.00  0.00    -0.237 OA
ATOM     50  O   UNL A   1      42.479  22.976  26.330  1.00  0.00    -0.237 OA
ATOM     51  O   UNL A   1      41.281  23.075  28.485  1.00  0.00    -0.744 OA
ENDBRANCH  44  48
ENDBRANCH  27  41
BRANCH  28  52
ATOM     52  C   UNL A   1      43.427  34.647  29.284  1.00  0.00     0.023 A 
ATOM     53  C   UNL A   1      42.878  35.849  28.790  1.00  0.00     0.031 A 
ATOM     54  C   UNL A   1      44.833  34.508  29.175  1.00  0.00     0.131 A 
ATOM     55  C   UNL A   1      43.720  36.833  28.209  1.00  0.00     0.055 A 
ATOM     56  C   UNL A   1      45.655  35.477  28.596  1.00  0.00     0.041 A 
ATOM     57  F   UNL A   1      45.474  33.452  29.698  1.00  0.00    -0.206 F 
ATOM     58  C   UNL A   1      45.101  36.650  28.116  1.00  0.00     0.022 A 
BRANCH  55  59
ATOM     59  S   UNL A   1      43.033  38.415  27.614  1.00  0.00     0.124 S 
ATOM     60  O   UNL A   1      44.235  39.177  27.297  1.00  0.00    -0.237 OA
ATOM     61  O   UNL A   1      42.214  37.994  26.483  1.00  0.00    -0.237 OA
ATOM     62  O   UNL A   1      42.275  38.915  28.762  1.00  0.00    -0.744 OA
ENDBRANCH  55  59
ENDBRANCH  28  52
BRANCH  40  63
ATOM     63  C   UNL A   1      41.425  30.232  33.426  1.00  0.00     0.023 A 
ATOM     64  C   UNL A   1      40.568  31.298  33.794  1.00  0.00     0.031 A 
ATOM     65  C   UNL A   1      42.061  29.526  34.461  1.00  0.00     0.131 A 
ATOM     66  C   UNL A   1      40.383  31.618  35.158  1.00  0.00     0.055 A 
ATOM     67  C   UNL A   1      41.861  29.834  35.807  1.00  0.00     0.041 A 
ATOM     68  F   UNL A   1      42.857  28.481  34.179  1.00  0.00    -0.206 F 
ATOM     69  C   UNL A   1      41.024  30.885  36.161  1.00  0.00     0.022 A 
BRANCH  66  70
ATOM     70  S   UNL A   1      39.300  32.999  35.662  1.00  0.00     0.124 S 
ATOM     71  O   UNL A   1      40.197  33.883  36.396  1.00  0.00    -0.237 OA
ATOM     72  O   UNL A   1      38.811  33.503  34.379  1.00  0.00    -0.237 OA
ATOM     73  O   UNL A   1      38.277  32.349  36.484  1.00  0.00    -0.744 OA
ENDBRANCH  66  70
ENDBRANCH  40  63
ENDBRANCH  14  15
ENDBRANCH   7   9
ENDBRANCH   6   7
ENDBRANCH   5   6
ENDBRANCH   4   5
ENDBRANCH   3   4
ENDBRANCH   2   3
ENDBRANCH   1   2
BRANCH   1  74
ATOM     74  O   UNL A   1      34.227  27.205  25.340  1.00  0.00    -0.376 OA
BRANCH  74  75
ATOM     75  C   UNL A   1      33.756  26.103  26.078  1.00  0.00     0.202 C 
BRANCH  75  76
ATOM     76  C   UNL A   1      34.168  24.743  25.483  1.00  0.00     0.261 C 
BRANCH  76  77
ATOM     77  O   UNL A   1      33.542  23.533  25.991  1.00  0.00    -0.462 OA
BRANCH  77  78
ATOM     78  C   UNL A   1      32.257  23.702  26.413  1.00  0.00     0.328 C 
ATOM     79  O   UNL A   1      31.996  23.796  27.607  1.00  0.00    -0.250 OA
BRANCH  78  80
ATOM     80  C   UNL A   1      31.191  23.937  25.312  1.00  0.00     0.195 C 
ATOM     81  C   UNL A   1      30.685  25.398  25.138  1.00  0.00     0.046 C 
ATOM     82  N   UNL A   1      31.373  23.505  23.908  1.00  0.00    -0.328 N 
ATOM     83  C   UNL A   1      30.267  25.558  23.636  1.00  0.00     0.001 C 
ATOM     84  C   UNL A   1      30.319  24.119  23.113  1.00  0.00     0.128 C 
ATOM     85  C   UNL A   1      31.251  26.390  22.785  1.00  0.00     0.071 C 
ATOM     86  C   UNL A   1      28.879  26.204  23.468  1.00  0.00     0.071 C 
ATOM     87  C   UNL A   1      31.243  27.875  23.108  1.00  0.00     0.270 C 
ATOM     88  C   UNL A   1      28.894  27.700  23.811  1.00  0.00     0.270 C 
ATOM     89  N   UNL A   1      29.905  28.439  23.041  1.00  0.00    -0.272 N 
ATOM     90  H   UNL A   1      30.719  28.988  23.102  1.00  0.00     0.356 HD
BRANCH  82  91
ATOM     91  C   UNL A   1      32.272  22.666  23.288  1.00  0.00     0.225 C 
ATOM     92  O   UNL A   1      33.243  23.129  22.674  1.00  0.00    -0.275 OA
BRANCH  91  93
ATOM     93  C   UNL A   1      32.106  21.166  23.260  1.00  0.00     0.124 C 
BRANCH  93  94
ATOM     94  C   UNL A   1      32.231  20.363  24.570  1.00  0.00     0.154 C 
BRANCH  94  95
ATOM     95  N   UNL A   1      32.580  18.953  24.618  1.00  0.00    -0.272 N 
ATOM     96  C   UNL A   1      33.031  18.191  23.564  1.00  0.00     0.108 A 
ATOM     97  N   UNL A   1      32.565  18.253  25.766  1.00  0.00    -0.182 NA
ATOM     98  C   UNL A   1      33.171  16.905  24.036  1.00  0.00     0.042 A 
ATOM     99  C   UNL A   1      32.863  17.004  25.398  1.00  0.00     0.135 A 
ENDBRANCH  94  95
ENDBRANCH  93  94
ENDBRANCH  91  93
ENDBRANCH  82  91
BRANCH  89 100
ATOM    100  C   UNL A   1      29.520  29.671  22.491  1.00  0.00     0.315 C 
ATOM    101  O   UNL A   1      29.557  29.855  21.283  1.00  0.00    -0.231 OA
BRANCH 100 102
ATOM    102  C   UNL A   1      29.070  30.860  23.289  1.00  0.00     0.119 C 
ATOM    103  C   UNL A   1      28.542  32.194  22.851  1.00  0.00     0.019 C 
ATOM    104  C   UNL A   1      27.611  31.187  23.481  1.00  0.00     0.019 C 
ENDBRANCH 100 102
ENDBRANCH  89 100
ENDBRANCH  78  80
ENDBRANCH  77  78
ENDBRANCH  76  77
ENDBRANCH  75  76
ENDBRANCH  74  75
ENDBRANCH   1  74
TORSDOF 26
ENDMDL
MODEL 3
REMARK VINA RESULT:     -10.3      4.038      7.578
REMARK SMILES O=C(OCCOCCOCCOC(=O)[C@H]1CC2(CC[NH+](C(=O)C3CC3)CC2)CN1C(=O)CCn1cccn1)c1ccc(-c2c3nc(c(-c4cc(S(=O)(=O)[O-])ccc4F)c4ccc([nH]4)c(-c4cc(S(=O)(=O)[O-])ccc4F)c4nc(c(-c5cc(S(=O)(=O)[O-])ccc5F)c5ccc2[nH]5)C=C4)C=C3)cc1
REMARK SMILES IDX 8 1 7 2 6 3 5 4 4 5 3 6 2 7 1 8 39 9 40 10 101 11 41 12
REMARK SMILES IDX 100 13 42 14 43 15 44 16 94 17 45 18 99 19 93 20 95 21 46 22
REMARK SMILES IDX 98 23 92 24 91 25 47 27 79 28 59 29 78 30 60 31 63 32 77 33
REMARK SMILES IDX 96 34 61 35 62 36 76 38 97 39 64 40 48 41 49 42 57 43 50 44
REMARK SMILES IDX 56 45 58 46 55 47 51 48 52 49 53 50 54 51 80 52 81 53 89 54
REMARK SMILES IDX 82 55 88 56 90 57 87 58 83 59 84 60 85 61 86 62 65 63 66 64
REMARK SMILES IDX 74 65 67 66 73 67 75 68 72 69 68 70 69 71 70 72 71 73 9 74
REMARK SMILES IDX 10 75 11 76 12 77 13 78 14 79 15 80 16 81 29 82 17 83 28 84
REMARK SMILES IDX 18 85 27 86 19 87 26 88 20 89 30 91 31 92 32 93 33 94 34 95
REMARK SMILES IDX 35 96 38 97 36 98 37 99 21 100 22 101 23 102 24 103 25 104
REMARK H PARENT 95 26 63 37 20 90
REMARK Flexibility Score: inf
ROOT
ATOM      1  C   UNL A   1      33.833  28.237  24.881  1.00  0.00     0.188 C 
ENDROOT
BRANCH   1   2
ATOM      2  C   UNL A   1      34.029  28.962  26.232  1.00  0.00     0.188 C 
BRANCH   2   3
ATOM      3  O   UNL A   1      33.078  29.860  26.767  1.00  0.00    -0.376 OA
BRANCH   3   4
ATOM      4  C   UNL A   1      33.307  31.150  27.296  1.00  0.00     0.202 C 
BRANCH   4   5
ATOM      5  C   UNL A   1      34.398  31.558  28.288  1.00  0.00     0.261 C 
BRANCH   5   6
ATOM      6  O   UNL A   1      35.633  30.866  28.214  1.00  0.00    -0.460 OA
BRANCH   6   7
ATOM      7  C   UNL A   1      36.723  31.019  28.996  1.00  0.00     0.338 C 
ATOM      8  O   UNL A   1      36.724  31.921  29.833  1.00  0.00    -0.246 OA
BRANCH   7   9
ATOM      9  C   UNL A   1      38.002  30.311  28.742  1.00  0.00     0.060 A 
ATOM     10  C   UNL A   1      38.160  29.139  27.999  1.00  0.00     0.016 A 
ATOM     11  C   UNL A   1      39.137  30.928  29.314  1.00  0.00     0.016 A 
ATOM     12  C   UNL A   1      39.344  28.446  28.071  1.00  0.00     0.010 A 
ATOM     13  C   UNL A   1      40.339  30.264  29.351  1.00  0.00     0.010 A 
ATOM     14  C   UNL A   1      40.355  28.966  28.866  1.00  0.00    -0.014 A 
BRANCH  14  15
ATOM     15  C   UNL A   1      41.350  28.028  29.333  1.00  0.00     0.031 A 
ATOM     16  C   UNL A   1      41.510  28.017  30.802  1.00  0.00     0.074 A 
ATOM     17  C   UNL A   1      42.012  27.301  28.410  1.00  0.00     0.049 A 
ATOM     18  N   UNL A   1      42.544  28.370  31.489  1.00  0.00    -0.248 NA
ATOM     19  C   UNL A   1      40.300  27.803  31.613  1.00  0.00     0.031 C 
ATOM     20  C   UNL A   1      41.756  27.214  26.964  1.00  0.00     0.029 A 
ATOM     21  N   UNL A   1      42.994  26.386  28.584  1.00  0.00    -0.354 N 
ATOM     22  C   UNL A   1      42.197  28.145  32.817  1.00  0.00     0.074 A 
ATOM     23  C   UNL A   1      40.766  28.034  32.839  1.00  0.00     0.031 C 
ATOM     24  C   UNL A   1      42.360  26.116  26.463  1.00  0.00     0.029 A 
ATOM     25  C   UNL A   1      43.159  25.512  27.511  1.00  0.00     0.049 A 
ATOM     26  H   UNL A   1      43.546  26.342  29.399  1.00  0.00     0.167 HD
ATOM     27  C   UNL A   1      43.138  27.759  33.720  1.00  0.00     0.034 A 
ATOM     28  C   UNL A   1      43.809  24.318  27.554  1.00  0.00     0.034 A 
ATOM     29  C   UNL A   1      44.460  28.160  33.285  1.00  0.00     0.049 A 
ATOM     30  C   UNL A   1      44.726  24.400  28.725  1.00  0.00     0.074 A 
ATOM     31  C   UNL A   1      45.045  29.381  33.003  1.00  0.00     0.029 A 
ATOM     32  N   UNL A   1      45.269  27.218  32.685  1.00  0.00    -0.354 N 
ATOM     33  N   UNL A   1      45.719  25.253  28.782  1.00  0.00    -0.248 NA
ATOM     34  C   UNL A   1      44.221  23.962  30.021  1.00  0.00     0.031 C 
ATOM     35  C   UNL A   1      45.846  29.145  31.848  1.00  0.00     0.029 A 
ATOM     36  C   UNL A   1      45.792  27.783  31.546  1.00  0.00     0.049 A 
ATOM     37  H   UNL A   1      45.441  26.306  33.014  1.00  0.00     0.167 HD
ATOM     38  C   UNL A   1      45.686  25.771  30.070  1.00  0.00     0.074 A 
ATOM     39  C   UNL A   1      44.783  24.885  30.809  1.00  0.00     0.031 C 
ATOM     40  C   UNL A   1      46.132  27.035  30.346  1.00  0.00     0.034 A 
BRANCH  27  41
ATOM     41  C   UNL A   1      42.908  26.659  34.737  1.00  0.00     0.023 A 
ATOM     42  C   UNL A   1      44.028  25.890  35.099  1.00  0.00     0.031 A 
ATOM     43  C   UNL A   1      41.654  26.128  35.122  1.00  0.00     0.131 A 
ATOM     44  C   UNL A   1      43.875  24.614  35.663  1.00  0.00     0.055 A 
ATOM     45  C   UNL A   1      41.510  24.884  35.740  1.00  0.00     0.041 A 
ATOM     46  F   UNL A   1      40.488  26.726  34.856  1.00  0.00    -0.206 F 
ATOM     47  C   UNL A   1      42.622  24.098  35.978  1.00  0.00     0.022 A 
BRANCH  44  48
ATOM     48  S   UNL A   1      45.339  23.557  35.787  1.00  0.00     0.124 S 
ATOM     49  O   UNL A   1      46.189  24.114  34.741  1.00  0.00    -0.237 OA
ATOM     50  O   UNL A   1      45.765  23.800  37.161  1.00  0.00    -0.237 OA
ATOM     51  O   UNL A   1      44.814  22.221  35.521  1.00  0.00    -0.744 OA
ENDBRANCH  44  48
ENDBRANCH  27  41
BRANCH  28  52
ATOM     52  C   UNL A   1      43.297  23.049  26.949  1.00  0.00     0.023 A 
ATOM     53  C   UNL A   1      44.086  22.195  26.150  1.00  0.00     0.031 A 
ATOM     54  C   UNL A   1      42.025  22.555  27.330  1.00  0.00     0.131 A 
ATOM     55  C   UNL A   1      43.590  20.923  25.759  1.00  0.00     0.055 A 
ATOM     56  C   UNL A   1      41.540  21.306  26.936  1.00  0.00     0.041 A 
ATOM     57  F   UNL A   1      41.231  23.240  28.167  1.00  0.00    -0.206 F 
ATOM     58  C   UNL A   1      42.325  20.480  26.153  1.00  0.00     0.022 A 
BRANCH  55  59
ATOM     59  S   UNL A   1      44.618  19.785  24.772  1.00  0.00     0.124 S 
ATOM     60  O   UNL A   1      43.944  18.507  24.968  1.00  0.00    -0.237 OA
ATOM     61  O   UNL A   1      44.533  20.366  23.437  1.00  0.00    -0.237 OA
ATOM     62  O   UNL A   1      45.938  19.884  25.396  1.00  0.00    -0.744 OA
ENDBRANCH  55  59
ENDBRANCH  28  52
BRANCH  40  63
ATOM     63  C   UNL A   1      46.871  27.799  29.257  1.00  0.00     0.023 A 
ATOM     64  C   UNL A   1      46.260  28.621  28.279  1.00  0.00     0.031 A 
ATOM     65  C   UNL A   1      48.274  27.805  29.324  1.00  0.00     0.131 A 
ATOM     66  C   UNL A   1      47.058  29.402  27.414  1.00  0.00     0.055 A 
ATOM     67  C   UNL A   1      49.057  28.593  28.480  1.00  0.00     0.041 A 
ATOM     68  F   UNL A   1      48.912  27.076  30.255  1.00  0.00    -0.206 F 
ATOM     69  C   UNL A   1      48.452  29.392  27.519  1.00  0.00     0.022 A 
BRANCH  66  70
ATOM     70  S   UNL A   1      46.299  30.457  26.130  1.00  0.00     0.124 S 
ATOM     71  O   UNL A   1      47.130  31.655  26.142  1.00  0.00    -0.237 OA
ATOM     72  O   UNL A   1      46.397  29.620  24.936  1.00  0.00    -0.237 OA
ATOM     73  O   UNL A   1      44.933  30.658  26.617  1.00  0.00    -0.744 OA
ENDBRANCH  66  70
ENDBRANCH  40  63
ENDBRANCH  14  15
ENDBRANCH   7   9
ENDBRANCH   6   7
ENDBRANCH   5   6
ENDBRANCH   4   5
ENDBRANCH   3   4
ENDBRANCH   2   3
ENDBRANCH   1   2
BRANCH   1  74
ATOM     74  O   UNL A   1      33.842  26.819  24.825  1.00  0.00    -0.376 OA
BRANCH  74  75
ATOM     75  C   UNL A   1      33.645  26.149  26.047  1.00  0.00     0.202 C 
BRANCH  75  76
ATOM     76  C   UNL A   1      34.325  24.767  26.106  1.00  0.00     0.261 C 
BRANCH  76  77
ATOM     77  O   UNL A   1      33.507  23.574  25.960  1.00  0.00    -0.462 OA
BRANCH  77  78
ATOM     78  C   UNL A   1      32.225  23.715  26.401  1.00  0.00     0.328 C 
ATOM     79  O   UNL A   1      31.982  23.820  27.597  1.00  0.00    -0.250 OA
BRANCH  78  80
ATOM     80  C   UNL A   1      31.135  23.907  25.315  1.00  0.00     0.195 C 
ATOM     81  C   UNL A   1      30.580  25.350  25.138  1.00  0.00     0.046 C 
ATOM     82  N   UNL A   1      31.309  23.469  23.912  1.00  0.00    -0.328 N 
ATOM     83  C   UNL A   1      30.134  25.484  23.641  1.00  0.00     0.001 C 
ATOM     84  C   UNL A   1      30.224  24.044  23.129  1.00  0.00     0.128 C 
ATOM     85  C   UNL A   1      31.077  26.340  22.768  1.00  0.00     0.071 C 
ATOM     86  C   UNL A   1      28.724  26.084  23.490  1.00  0.00     0.071 C 
ATOM     87  C   UNL A   1      31.027  27.826  23.080  1.00  0.00     0.270 C 
ATOM     88  C   UNL A   1      28.696  27.582  23.822  1.00  0.00     0.270 C 
ATOM     89  N   UNL A   1      29.670  28.346  23.030  1.00  0.00    -0.272 N 
ATOM     90  H   UNL A   1      30.468  28.922  23.073  1.00  0.00     0.356 HD
BRANCH  82  91
ATOM     91  C   UNL A   1      32.224  22.655  23.284  1.00  0.00     0.225 C 
ATOM     92  O   UNL A   1      32.697  22.971  22.184  1.00  0.00    -0.275 OA
BRANCH  91  93
ATOM     93  C   UNL A   1      32.657  21.323  23.849  1.00  0.00     0.124 C 
BRANCH  93  94
ATOM     94  C   UNL A   1      32.283  20.025  23.107  1.00  0.00     0.154 C 
BRANCH  94  95
ATOM     95  N   UNL A   1      32.708  18.703  23.536  1.00  0.00    -0.272 N 
ATOM     96  C   UNL A   1      32.913  18.297  24.836  1.00  0.00     0.108 A 
ATOM     97  N   UNL A   1      32.874  17.690  22.667  1.00  0.00    -0.182 NA
ATOM     98  C   UNL A   1      33.373  17.002  24.778  1.00  0.00     0.042 A 
ATOM     99  C   UNL A   1      33.334  16.684  23.415  1.00  0.00     0.135 A 
ENDBRANCH  94  95
ENDBRANCH  93  94
ENDBRANCH  91  93
ENDBRANCH  82  91
BRANCH  89 100
ATOM    100  C   UNL A   1      29.237  29.562  22.476  1.00  0.00     0.315 C 
ATOM    101  O   UNL A   1      29.080  29.677  21.269  1.00  0.00    -0.231 OA
BRANCH 100 102
ATOM    102  C   UNL A   1      28.961  30.809  23.263  1.00  0.00     0.119 C 
ATOM    103  C   UNL A   1      28.541  32.179  22.819  1.00  0.00     0.019 C 
ATOM    104  C   UNL A   1      27.557  31.288  23.535  1.00  0.00     0.019 C 
ENDBRANCH 100 102
ENDBRANCH  89 100
ENDBRANCH  78  80
ENDBRANCH  77  78
ENDBRANCH  76  77
ENDBRANCH  75  76
ENDBRANCH  74  75
ENDBRANCH   1  74
TORSDOF 26
ENDMDL
