MODEL 1
REMARK VINA RESULT:     -11.1      0.000      0.000
REMARK SMILES CS(=O)(=O)c1ccc(N2N=C(C(=O)OCCOCCOCCOC(=O)c3ccc(-c4c5nc(c(-c6cc(S(=O)(=O)[O-])ccc6F)c6ccc([nH]6)c(-c6cc(S(=O)(=O)[O-])ccc6F)c6nc(c(-c7cc(S(=O)(=O)[O-])ccc7F)c7ccc4[nH]7)C=C6)C=C5)cc3)C[C@H]2c2ccco2)cc1
REMARK SMILES IDX 19 1 18 2 17 3 16 4 15 5 14 6 12 7 13 8 11 9 9 10 10 11
REMARK SMILES IDX 90 12 89 13 8 14 5 15 6 16 97 17 7 18 96 19 2 20 1 21 3 22
REMARK SMILES IDX 4 23 91 24 92 25 95 26 93 27 94 28 20 29 21 30 22 31 23 32
REMARK SMILES IDX 24 33 25 34 26 35 27 36 88 37 28 38 87 39 29 40 30 41 31 42
REMARK SMILES IDX 81 43 32 44 86 45 80 46 82 47 33 48 85 49 79 50 78 51 34 53
REMARK SMILES IDX 66 54 46 55 65 56 47 57 50 58 64 59 83 60 48 61 49 62 63 64
REMARK SMILES IDX 84 65 51 66 35 67 36 68 44 69 37 70 43 71 45 72 42 73 38 74
REMARK SMILES IDX 39 75 40 76 41 77 67 78 68 79 76 80 69 81 75 82 77 83 74 84
REMARK SMILES IDX 70 85 71 86 72 87 73 88 52 89 53 90 61 91 54 92 60 93 62 94
REMARK SMILES IDX 59 95 55 96 56 97 57 98 58 99
REMARK H PARENT 82 52 50 63
REMARK Flexibility Score: inf
ROOT
ATOM      1  C   UNL A   1      31.707  29.988  26.049  1.00  0.00     0.188 C 
ENDROOT
BRANCH   1   2
ATOM      2  C   UNL A   1      33.195  29.595  25.968  1.00  0.00     0.188 C 
BRANCH   2   3
ATOM      3  O   UNL A   1      33.684  28.947  24.804  1.00  0.00    -0.376 OA
BRANCH   3   4
ATOM      4  C   UNL A   1      33.033  29.138  23.556  1.00  0.00     0.202 C 
BRANCH   4   5
ATOM      5  C   UNL A   1      32.593  27.947  22.689  1.00  0.00     0.261 C 
BRANCH   5   6
ATOM      6  O   UNL A   1      33.678  27.219  22.102  1.00  0.00    -0.459 OA
BRANCH   6   7
ATOM      7  C   UNL A   1      33.377  25.975  21.672  1.00  0.00     0.354 C 
ATOM      8  O   UNL A   1      33.036  25.633  20.557  1.00  0.00    -0.245 OA
BRANCH   7   9
ATOM      9  C   UNL A   1      33.615  24.993  22.791  1.00  0.00     0.148 C 
ATOM     10  N   UNL A   1      33.800  23.177  23.863  1.00  0.00    -0.254 N 
ATOM     11  N   UNL A   1      33.637  23.703  22.613  1.00  0.00    -0.169 NA
ATOM     12  C   UNL A   1      33.595  24.182  24.924  1.00  0.00     0.180 C 
ATOM     13  C   UNL A   1      33.942  25.473  24.169  1.00  0.00     0.101 C 
BRANCH  10  14
ATOM     14  C   UNL A   1      33.708  21.804  24.056  1.00  0.00     0.060 A 
ATOM     15  C   UNL A   1      33.606  18.988  24.222  1.00  0.00     0.067 A 
ATOM     16  C   UNL A   1      32.576  19.680  23.584  1.00  0.00     0.022 A 
ATOM     17  C   UNL A   1      34.644  19.690  24.836  1.00  0.00     0.022 A 
ATOM     18  C   UNL A   1      32.634  21.082  23.510  1.00  0.00     0.029 A 
ATOM     19  C   UNL A   1      34.678  21.086  24.764  1.00  0.00     0.029 A 
BRANCH  15  20
ATOM     20  S   UNL A   1      33.681  17.210  24.221  1.00  0.00     0.175 S 
ATOM     21  C   UNL A   1      32.530  16.631  25.435  1.00  0.00     0.163 C 
ATOM     22  O   UNL A   1      35.012  16.844  24.672  1.00  0.00    -0.224 OA
ATOM     23  O   UNL A   1      33.215  16.796  22.910  1.00  0.00    -0.224 OA
ENDBRANCH  15  20
ENDBRANCH  10  14
BRANCH  12  24
ATOM     24  C   UNL A   1      32.227  24.280  25.544  1.00  0.00     0.128 A 
ATOM     25  C   UNL A   1      31.290  25.294  25.613  1.00  0.00     0.048 A 
ATOM     26  O   UNL A   1      31.740  23.170  26.179  1.00  0.00    -0.467 OA
ATOM     27  C   UNL A   1      30.197  24.784  26.354  1.00  0.00     0.042 A 
ATOM     28  C   UNL A   1      30.515  23.484  26.663  1.00  0.00     0.195 A 
ENDBRANCH  12  24
ENDBRANCH   7   9
ENDBRANCH   6   7
ENDBRANCH   5   6
ENDBRANCH   4   5
ENDBRANCH   3   4
ENDBRANCH   2   3
ENDBRANCH   1   2
BRANCH   1  29
ATOM     29  O   UNL A   1      31.344  30.991  26.967  1.00  0.00    -0.376 OA
BRANCH  29  30
ATOM     30  C   UNL A   1      31.462  32.358  26.609  1.00  0.00     0.202 C 
BRANCH  30  31
ATOM     31  C   UNL A   1      32.557  33.342  27.078  1.00  0.00     0.261 C 
BRANCH  31  32
ATOM     32  O   UNL A   1      32.380  34.033  28.314  1.00  0.00    -0.460 OA
BRANCH  32  33
ATOM     33  C   UNL A   1      33.412  34.823  28.707  1.00  0.00     0.338 C 
ATOM     34  O   UNL A   1      33.420  36.040  28.782  1.00  0.00    -0.246 OA
BRANCH  33  35
ATOM     35  C   UNL A   1      34.484  33.946  29.217  1.00  0.00     0.060 A 
ATOM     36  C   UNL A   1      34.169  32.948  30.149  1.00  0.00     0.016 A 
ATOM     37  C   UNL A   1      35.791  34.100  28.754  1.00  0.00     0.016 A 
ATOM     38  C   UNL A   1      35.162  32.081  30.606  1.00  0.00     0.010 A 
ATOM     39  C   UNL A   1      36.789  33.251  29.239  1.00  0.00     0.010 A 
ATOM     40  C   UNL A   1      36.482  32.243  30.171  1.00  0.00    -0.014 A 
BRANCH  40  41
ATOM     41  C   UNL A   1      37.579  31.450  30.778  1.00  0.00     0.031 A 
ATOM     42  C   UNL A   1      38.015  31.780  32.177  1.00  0.00     0.074 A 
ATOM     43  C   UNL A   1      38.192  30.471  30.088  1.00  0.00     0.049 A 
ATOM     44  N   UNL A   1      39.031  31.322  32.860  1.00  0.00    -0.248 NA
ATOM     45  C   UNL A   1      37.190  32.760  32.899  1.00  0.00     0.031 C 
ATOM     46  C   UNL A   1      37.813  30.015  28.752  1.00  0.00     0.029 A 
ATOM     47  N   UNL A   1      39.278  29.695  30.414  1.00  0.00    -0.354 N 
ATOM     48  C   UNL A   1      38.979  31.969  34.090  1.00  0.00     0.074 A 
ATOM     49  C   UNL A   1      37.843  32.867  34.045  1.00  0.00     0.031 C 
ATOM     50  C   UNL A   1      38.671  29.057  28.360  1.00  0.00     0.029 A 
ATOM     51  C   UNL A   1      39.689  28.868  29.393  1.00  0.00     0.049 A 
ATOM     52  H   UNL A   1      39.720  29.729  31.292  1.00  0.00     0.167 HD
ATOM     53  C   UNL A   1      39.804  31.823  35.156  1.00  0.00     0.034 A 
ATOM     54  C   UNL A   1      40.784  28.087  29.290  1.00  0.00     0.034 A 
ATOM     55  C   UNL A   1      40.944  30.942  35.171  1.00  0.00     0.049 A 
ATOM     56  C   UNL A   1      41.762  28.039  30.443  1.00  0.00     0.074 A 
ATOM     57  C   UNL A   1      41.836  30.707  36.204  1.00  0.00     0.029 A 
ATOM     58  N   UNL A   1      41.366  30.166  34.099  1.00  0.00    -0.354 N 
ATOM     59  N   UNL A   1      41.703  28.649  31.605  1.00  0.00    -0.248 NA
ATOM     60  C   UNL A   1      42.957  27.202  30.266  1.00  0.00     0.031 C 
ATOM     61  C   UNL A   1      42.841  29.858  35.728  1.00  0.00     0.029 A 
ATOM     62  C   UNL A   1      42.530  29.489  34.430  1.00  0.00     0.049 A 
ATOM     63  H   UNL A   1      40.907  30.107  33.230  1.00  0.00     0.167 HD
ATOM     64  C   UNL A   1      42.836  28.242  32.307  1.00  0.00     0.074 A 
ATOM     65  C   UNL A   1      43.553  27.327  31.444  1.00  0.00     0.031 C 
ATOM     66  C   UNL A   1      43.243  28.588  33.555  1.00  0.00     0.034 A 
BRANCH  53  67
ATOM     67  C   UNL A   1      39.531  32.683  36.365  1.00  0.00     0.023 A 
ATOM     68  C   UNL A   1      38.706  32.242  37.413  1.00  0.00     0.031 A 
ATOM     69  C   UNL A   1      40.084  33.972  36.460  1.00  0.00     0.131 A 
ATOM     70  C   UNL A   1      38.398  33.107  38.473  1.00  0.00     0.055 A 
ATOM     71  C   UNL A   1      39.842  34.798  37.559  1.00  0.00     0.041 A 
ATOM     72  F   UNL A   1      40.860  34.457  35.477  1.00  0.00    -0.206 F 
ATOM     73  C   UNL A   1      38.983  34.372  38.568  1.00  0.00     0.022 A 
BRANCH  70  74
ATOM     74  S   UNL A   1      37.110  32.609  39.648  1.00  0.00     0.124 S 
ATOM     75  O   UNL A   1      37.487  31.226  39.929  1.00  0.00    -0.237 OA
ATOM     76  O   UNL A   1      37.299  33.556  40.741  1.00  0.00    -0.237 OA
ATOM     77  O   UNL A   1      35.873  32.768  38.887  1.00  0.00    -0.744 OA
ENDBRANCH  70  74
ENDBRANCH  53  67
BRANCH  54  78
ATOM     78  C   UNL A   1      41.061  27.331  28.033  1.00  0.00     0.023 A 
ATOM     79  C   UNL A   1      40.814  25.952  27.946  1.00  0.00     0.031 A 
ATOM     80  C   UNL A   1      41.645  27.965  26.921  1.00  0.00     0.131 A 
ATOM     81  C   UNL A   1      41.193  25.244  26.795  1.00  0.00     0.055 A 
ATOM     82  C   UNL A   1      41.961  27.268  25.753  1.00  0.00     0.041 A 
ATOM     83  F   UNL A   1      41.916  29.280  26.952  1.00  0.00    -0.206 F 
ATOM     84  C   UNL A   1      41.748  25.895  25.691  1.00  0.00     0.022 A 
BRANCH  81  85
ATOM     85  S   UNL A   1      41.048  23.435  26.801  1.00  0.00     0.124 S 
ATOM     86  O   UNL A   1      39.615  23.252  26.605  1.00  0.00    -0.237 OA
ATOM     87  O   UNL A   1      41.903  23.058  25.681  1.00  0.00    -0.237 OA
ATOM     88  O   UNL A   1      41.551  23.058  28.121  1.00  0.00    -0.744 OA
ENDBRANCH  81  85
ENDBRANCH  54  78
BRANCH  66  89
ATOM     89  C   UNL A   1      44.502  27.938  34.081  1.00  0.00     0.023 A 
ATOM     90  C   UNL A   1      44.513  26.616  34.558  1.00  0.00     0.031 A 
ATOM     91  C   UNL A   1      45.715  28.651  34.085  1.00  0.00     0.131 A 
ATOM     92  C   UNL A   1      45.702  26.062  35.058  1.00  0.00     0.055 A 
ATOM     93  C   UNL A   1      46.907  28.075  34.526  1.00  0.00     0.041 A 
ATOM     94  F   UNL A   1      45.764  29.918  33.643  1.00  0.00    -0.206 F 
ATOM     95  C   UNL A   1      46.902  26.776  35.026  1.00  0.00     0.022 A 
BRANCH  92  96
ATOM     96  S   UNL A   1      45.648  24.417  35.820  1.00  0.00     0.124 S 
ATOM     97  O   UNL A   1      44.867  23.659  34.848  1.00  0.00    -0.237 OA
ATOM     98  O   UNL A   1      47.062  24.069  35.913  1.00  0.00    -0.237 OA
ATOM     99  O   UNL A   1      44.984  24.653  37.100  1.00  0.00    -0.744 OA
ENDBRANCH  92  96
ENDBRANCH  66  89
ENDBRANCH  40  41
ENDBRANCH  33  35
ENDBRANCH  32  33
ENDBRANCH  31  32
ENDBRANCH  30  31
ENDBRANCH  29  30
ENDBRANCH   1  29
TORSDOF 23
ENDMDL
MODEL 2
REMARK VINA RESULT:     -10.6      5.606      9.936
REMARK SMILES CS(=O)(=O)c1ccc(N2N=C(C(=O)OCCOCCOCCOC(=O)c3ccc(-c4c5nc(c(-c6cc(S(=O)(=O)[O-])ccc6F)c6ccc([nH]6)c(-c6cc(S(=O)(=O)[O-])ccc6F)c6nc(c(-c7cc(S(=O)(=O)[O-])ccc7F)c7ccc4[nH]7)C=C6)C=C5)cc3)C[C@H]2c2ccco2)cc1
REMARK SMILES IDX 19 1 18 2 17 3 16 4 15 5 14 6 12 7 13 8 11 9 9 10 10 11
REMARK SMILES IDX 90 12 89 13 8 14 5 15 6 16 97 17 7 18 96 19 2 20 1 21 3 22
REMARK SMILES IDX 4 23 91 24 92 25 95 26 93 27 94 28 20 29 21 30 22 31 23 32
REMARK SMILES IDX 24 33 25 34 26 35 27 36 88 37 28 38 87 39 29 40 30 41 31 42
REMARK SMILES IDX 81 43 32 44 86 45 80 46 82 47 33 48 85 49 79 50 78 51 34 53
REMARK SMILES IDX 66 54 46 55 65 56 47 57 50 58 64 59 83 60 48 61 49 62 63 64
REMARK SMILES IDX 84 65 51 66 35 67 36 68 44 69 37 70 43 71 45 72 42 73 38 74
REMARK SMILES IDX 39 75 40 76 41 77 67 78 68 79 76 80 69 81 75 82 77 83 74 84
REMARK SMILES IDX 70 85 71 86 72 87 73 88 52 89 53 90 61 91 54 92 60 93 62 94
REMARK SMILES IDX 59 95 55 96 56 97 57 98 58 99
REMARK H PARENT 82 52 50 63
REMARK Flexibility Score: inf
ROOT
ATOM      1  C   UNL A   1      36.693  21.928  24.360  1.00  0.00     0.188 C 
ENDROOT
BRANCH   1   2
ATOM      2  C   UNL A   1      35.938  21.915  25.704  1.00  0.00     0.188 C 
BRANCH   2   3
ATOM      3  O   UNL A   1      34.746  22.671  25.841  1.00  0.00    -0.376 OA
BRANCH   3   4
ATOM      4  C   UNL A   1      33.481  22.043  25.692  1.00  0.00     0.202 C 
BRANCH   4   5
ATOM      5  C   UNL A   1      32.433  22.069  26.816  1.00  0.00     0.261 C 
BRANCH   5   6
ATOM      6  O   UNL A   1      32.186  23.374  27.355  1.00  0.00    -0.459 OA
BRANCH   6   7
ATOM      7  C   UNL A   1      31.057  23.975  26.922  1.00  0.00     0.354 C 
ATOM      8  O   UNL A   1      29.906  23.655  27.149  1.00  0.00    -0.245 OA
BRANCH   7   9
ATOM      9  C   UNL A   1      31.422  25.218  26.151  1.00  0.00     0.148 C 
ATOM     10  N   UNL A   1      31.259  27.029  25.066  1.00  0.00    -0.254 N 
ATOM     11  N   UNL A   1      30.551  26.120  25.802  1.00  0.00    -0.169 NA
ATOM     12  C   UNL A   1      32.598  26.529  24.699  1.00  0.00     0.180 C 
ATOM     13  C   UNL A   1      32.850  25.524  25.832  1.00  0.00     0.101 C 
BRANCH  10  14
ATOM     14  C   UNL A   1      30.594  28.052  24.401  1.00  0.00     0.060 A 
ATOM     15  C   UNL A   1      29.073  30.116  23.221  1.00  0.00     0.067 A 
ATOM     16  C   UNL A   1      28.731  28.784  22.984  1.00  0.00     0.022 A 
ATOM     17  C   UNL A   1      30.204  30.423  23.978  1.00  0.00     0.022 A 
ATOM     18  C   UNL A   1      29.497  27.764  23.573  1.00  0.00     0.029 A 
ATOM     19  C   UNL A   1      30.962  29.394  24.545  1.00  0.00     0.029 A 
BRANCH  15  20
ATOM     20  S   UNL A   1      28.063  31.460  22.637  1.00  0.00     0.175 S 
ATOM     21  C   UNL A   1      29.025  32.941  22.767  1.00  0.00     0.163 C 
ATOM     22  O   UNL A   1      26.949  31.582  23.560  1.00  0.00    -0.224 OA
ATOM     23  O   UNL A   1      27.821  31.190  21.231  1.00  0.00    -0.224 OA
ENDBRANCH  15  20
ENDBRANCH  10  14
BRANCH  12  24
ATOM     24  C   UNL A   1      32.757  25.868  23.356  1.00  0.00     0.128 A 
ATOM     25  C   UNL A   1      32.742  26.346  22.060  1.00  0.00     0.048 A 
ATOM     26  O   UNL A   1      32.976  24.517  23.339  1.00  0.00    -0.467 OA
ATOM     27  C   UNL A   1      32.927  25.224  21.214  1.00  0.00     0.042 A 
ATOM     28  C   UNL A   1      33.078  24.139  22.043  1.00  0.00     0.195 A 
ENDBRANCH  12  24
ENDBRANCH   7   9
ENDBRANCH   6   7
ENDBRANCH   5   6
ENDBRANCH   4   5
ENDBRANCH   3   4
ENDBRANCH   2   3
ENDBRANCH   1   2
BRANCH   1  29
ATOM     29  O   UNL A   1      37.456  20.792  24.028  1.00  0.00    -0.376 OA
BRANCH  29  30
ATOM     30  C   UNL A   1      37.810  19.855  25.031  1.00  0.00     0.202 C 
BRANCH  30  31
ATOM     31  C   UNL A   1      39.232  19.349  25.358  1.00  0.00     0.261 C 
BRANCH  31  32
ATOM     32  O   UNL A   1      39.979  20.005  26.382  1.00  0.00    -0.460 OA
BRANCH  32  33
ATOM     33  C   UNL A   1      41.330  19.951  26.261  1.00  0.00     0.338 C 
ATOM     34  O   UNL A   1      41.991  19.050  25.773  1.00  0.00    -0.246 OA
BRANCH  33  35
ATOM     35  C   UNL A   1      41.873  21.266  26.655  1.00  0.00     0.060 A 
ATOM     36  C   UNL A   1      42.341  21.452  27.963  1.00  0.00     0.016 A 
ATOM     37  C   UNL A   1      41.937  22.301  25.723  1.00  0.00     0.016 A 
ATOM     38  C   UNL A   1      42.898  22.675  28.338  1.00  0.00     0.010 A 
ATOM     39  C   UNL A   1      42.467  23.535  26.110  1.00  0.00     0.010 A 
ATOM     40  C   UNL A   1      42.943  23.731  27.420  1.00  0.00    -0.014 A 
BRANCH  40  41
ATOM     41  C   UNL A   1      43.366  25.085  27.849  1.00  0.00     0.031 A 
ATOM     42  C   UNL A   1      42.329  26.020  28.404  1.00  0.00     0.074 A 
ATOM     43  C   UNL A   1      44.645  25.486  27.726  1.00  0.00     0.049 A 
ATOM     44  N   UNL A   1      42.432  27.286  28.714  1.00  0.00    -0.248 NA
ATOM     45  C   UNL A   1      40.996  25.444  28.638  1.00  0.00     0.031 C 
ATOM     46  C   UNL A   1      45.751  24.648  27.266  1.00  0.00     0.029 A 
ATOM     47  N   UNL A   1      45.223  26.709  27.960  1.00  0.00    -0.354 N 
ATOM     48  C   UNL A   1      41.173  27.666  29.167  1.00  0.00     0.074 A 
ATOM     49  C   UNL A   1      40.321  26.499  29.067  1.00  0.00     0.031 C 
ATOM     50  C   UNL A   1      46.871  25.390  27.226  1.00  0.00     0.029 A 
ATOM     51  C   UNL A   1      46.552  26.766  27.606  1.00  0.00     0.049 A 
ATOM     52  H   UNL A   1      44.734  27.473  28.343  1.00  0.00     0.167 HD
ATOM     53  C   UNL A   1      40.771  28.877  29.624  1.00  0.00     0.034 A 
ATOM     54  C   UNL A   1      47.397  27.817  27.552  1.00  0.00     0.034 A 
ATOM     55  C   UNL A   1      41.629  30.033  29.691  1.00  0.00     0.049 A 
ATOM     56  C   UNL A   1      46.890  29.187  27.943  1.00  0.00     0.074 A 
ATOM     57  C   UNL A   1      41.327  31.303  30.152  1.00  0.00     0.029 A 
ATOM     58  N   UNL A   1      42.951  30.069  29.267  1.00  0.00    -0.354 N 
ATOM     59  N   UNL A   1      45.701  29.537  28.377  1.00  0.00    -0.248 NA
ATOM     60  C   UNL A   1      47.839  30.303  27.832  1.00  0.00     0.031 C 
ATOM     61  C   UNL A   1      42.436  32.124  29.928  1.00  0.00     0.029 A 
ATOM     62  C   UNL A   1      43.463  31.350  29.412  1.00  0.00     0.049 A 
ATOM     63  H   UNL A   1      43.452  29.299  28.913  1.00  0.00     0.167 HD
ATOM     64  C   UNL A   1      45.771  30.907  28.619  1.00  0.00     0.074 A 
ATOM     65  C   UNL A   1      47.121  31.317  28.295  1.00  0.00     0.031 C 
ATOM     66  C   UNL A   1      44.809  31.750  29.075  1.00  0.00     0.034 A 
BRANCH  53  67
ATOM     67  C   UNL A   1      39.324  29.019  30.026  1.00  0.00     0.023 A 
ATOM     68  C   UNL A   1      38.351  29.486  29.127  1.00  0.00     0.031 A 
ATOM     69  C   UNL A   1      38.916  28.706  31.335  1.00  0.00     0.131 A 
ATOM     70  C   UNL A   1      37.035  29.696  29.567  1.00  0.00     0.055 A 
ATOM     71  C   UNL A   1      37.588  28.837  31.743  1.00  0.00     0.041 A 
ATOM     72  F   UNL A   1      39.807  28.279  32.244  1.00  0.00    -0.206 F 
ATOM     73  C   UNL A   1      36.641  29.349  30.861  1.00  0.00     0.022 A 
BRANCH  70  74
ATOM     74  S   UNL A   1      35.886  30.566  28.468  1.00  0.00     0.124 S 
ATOM     75  O   UNL A   1      35.124  31.373  29.417  1.00  0.00    -0.237 OA
ATOM     76  O   UNL A   1      36.788  31.300  27.588  1.00  0.00    -0.237 OA
ATOM     77  O   UNL A   1      35.133  29.486  27.834  1.00  0.00    -0.744 OA
ENDBRANCH  70  74
ENDBRANCH  53  67
BRANCH  54  78
ATOM     78  C   UNL A   1      48.794  27.642  27.053  1.00  0.00     0.023 A 
ATOM     79  C   UNL A   1      49.134  27.950  25.726  1.00  0.00     0.031 A 
ATOM     80  C   UNL A   1      49.794  27.097  27.878  1.00  0.00     0.131 A 
ATOM     81  C   UNL A   1      50.424  27.666  25.250  1.00  0.00     0.055 A 
ATOM     82  C   UNL A   1      51.094  26.876  27.418  1.00  0.00     0.041 A 
ATOM     83  F   UNL A   1      49.522  26.771  29.152  1.00  0.00    -0.206 F 
ATOM     84  C   UNL A   1      51.411  27.148  26.092  1.00  0.00     0.022 A 
BRANCH  81  85
ATOM     85  S   UNL A   1      50.763  27.884  23.481  1.00  0.00     0.124 S 
ATOM     86  O   UNL A   1      51.659  26.765  23.212  1.00  0.00    -0.237 OA
ATOM     87  O   UNL A   1      49.428  27.791  22.902  1.00  0.00    -0.237 OA
ATOM     88  O   UNL A   1      51.380  29.207  23.412  1.00  0.00    -0.744 OA
ENDBRANCH  81  85
ENDBRANCH  54  78
BRANCH  66  89
ATOM     89  C   UNL A   1      45.196  33.194  29.294  1.00  0.00     0.023 A 
ATOM     90  C   UNL A   1      44.804  34.211  28.406  1.00  0.00     0.031 A 
ATOM     91  C   UNL A   1      45.952  33.558  30.423  1.00  0.00     0.131 A 
ATOM     92  C   UNL A   1      45.206  35.536  28.639  1.00  0.00     0.055 A 
ATOM     93  C   UNL A   1      46.296  34.885  30.682  1.00  0.00     0.041 A 
ATOM     94  F   UNL A   1      46.355  32.628  31.304  1.00  0.00    -0.206 F 
ATOM     95  C   UNL A   1      45.932  35.882  29.782  1.00  0.00     0.022 A 
BRANCH  92  96
ATOM     96  S   UNL A   1      44.830  36.796  27.390  1.00  0.00     0.124 S 
ATOM     97  O   UNL A   1      46.119  37.461  27.233  1.00  0.00    -0.237 OA
ATOM     98  O   UNL A   1      44.386  35.991  26.257  1.00  0.00    -0.237 OA
ATOM     99  O   UNL A   1      43.787  37.604  28.021  1.00  0.00    -0.744 OA
ENDBRANCH  92  96
ENDBRANCH  66  89
ENDBRANCH  40  41
ENDBRANCH  33  35
ENDBRANCH  32  33
ENDBRANCH  31  32
ENDBRANCH  30  31
ENDBRANCH  29  30
ENDBRANCH   1  29
TORSDOF 23
ENDMDL
MODEL 3
REMARK VINA RESULT:     -10.6      5.403     11.236
REMARK SMILES CS(=O)(=O)c1ccc(N2N=C(C(=O)OCCOCCOCCOC(=O)c3ccc(-c4c5nc(c(-c6cc(S(=O)(=O)[O-])ccc6F)c6ccc([nH]6)c(-c6cc(S(=O)(=O)[O-])ccc6F)c6nc(c(-c7cc(S(=O)(=O)[O-])ccc7F)c7ccc4[nH]7)C=C6)C=C5)cc3)C[C@H]2c2ccco2)cc1
REMARK SMILES IDX 19 1 18 2 17 3 16 4 15 5 14 6 12 7 13 8 11 9 9 10 10 11
REMARK SMILES IDX 90 12 89 13 8 14 5 15 6 16 97 17 7 18 96 19 2 20 1 21 3 22
REMARK SMILES IDX 4 23 91 24 92 25 95 26 93 27 94 28 20 29 21 30 22 31 23 32
REMARK SMILES IDX 24 33 25 34 26 35 27 36 88 37 28 38 87 39 29 40 30 41 31 42
REMARK SMILES IDX 81 43 32 44 86 45 80 46 82 47 33 48 85 49 79 50 78 51 34 53
REMARK SMILES IDX 66 54 46 55 65 56 47 57 50 58 64 59 83 60 48 61 49 62 63 64
REMARK SMILES IDX 84 65 51 66 35 67 36 68 44 69 37 70 43 71 45 72 42 73 38 74
REMARK SMILES IDX 39 75 40 76 41 77 67 78 68 79 76 80 69 81 75 82 77 83 74 84
REMARK SMILES IDX 70 85 71 86 72 87 73 88 52 89 53 90 61 91 54 92 60 93 62 94
REMARK SMILES IDX 59 95 55 96 56 97 57 98 58 99
REMARK H PARENT 82 52 50 63
REMARK Flexibility Score: inf
ROOT
ATOM      1  C   UNL A   1      36.453  21.941  24.721  1.00  0.00     0.188 C 
ENDROOT
BRANCH   1   2
ATOM      2  C   UNL A   1      35.945  21.741  26.163  1.00  0.00     0.188 C 
BRANCH   2   3
ATOM      3  O   UNL A   1      34.766  22.407  26.586  1.00  0.00    -0.376 OA
BRANCH   3   4
ATOM      4  C   UNL A   1      33.665  21.660  27.084  1.00  0.00     0.202 C 
BRANCH   4   5
ATOM      5  C   UNL A   1      32.532  22.330  27.877  1.00  0.00     0.261 C 
BRANCH   5   6
ATOM      6  O   UNL A   1      32.425  23.743  27.663  1.00  0.00    -0.459 OA
BRANCH   6   7
ATOM      7  C   UNL A   1      31.337  24.143  26.971  1.00  0.00     0.354 C 
ATOM      8  O   UNL A   1      30.214  23.681  27.011  1.00  0.00    -0.245 OA
BRANCH   7   9
ATOM      9  C   UNL A   1      31.688  25.365  26.160  1.00  0.00     0.148 C 
ATOM     10  N   UNL A   1      31.515  27.183  25.090  1.00  0.00    -0.254 N 
ATOM     11  N   UNL A   1      30.838  26.316  25.901  1.00  0.00    -0.169 NA
ATOM     12  C   UNL A   1      32.777  26.608  24.584  1.00  0.00     0.180 C 
ATOM     13  C   UNL A   1      33.090  25.589  25.689  1.00  0.00     0.101 C 
BRANCH  10  14
ATOM     14  C   UNL A   1      30.842  28.244  24.493  1.00  0.00     0.060 A 
ATOM     15  C   UNL A   1      29.298  30.359  23.442  1.00  0.00     0.067 A 
ATOM     16  C   UNL A   1      29.030  29.047  23.050  1.00  0.00     0.022 A 
ATOM     17  C   UNL A   1      30.370  30.629  24.293  1.00  0.00     0.022 A 
ATOM     18  C   UNL A   1      29.807  28.001  23.576  1.00  0.00     0.029 A 
ATOM     19  C   UNL A   1      31.141  29.576  24.796  1.00  0.00     0.029 A 
BRANCH  15  20
ATOM     20  S   UNL A   1      28.263  31.716  22.940  1.00  0.00     0.175 S 
ATOM     21  C   UNL A   1      27.997  31.564  21.196  1.00  0.00     0.163 C 
ATOM     22  O   UNL A   1      29.025  32.932  23.160  1.00  0.00    -0.224 OA
ATOM     23  O   UNL A   1      26.994  31.517  23.618  1.00  0.00    -0.224 OA
ENDBRANCH  15  20
ENDBRANCH  10  14
BRANCH  12  24
ATOM     24  C   UNL A   1      32.754  25.940  23.235  1.00  0.00     0.128 A 
ATOM     25  C   UNL A   1      32.434  24.662  22.818  1.00  0.00     0.048 A 
ATOM     26  O   UNL A   1      33.099  26.698  22.150  1.00  0.00    -0.467 OA
ATOM     27  C   UNL A   1      32.628  24.636  21.416  1.00  0.00     0.042 A 
ATOM     28  C   UNL A   1      33.019  25.903  21.057  1.00  0.00     0.195 A 
ENDBRANCH  12  24
ENDBRANCH   7   9
ENDBRANCH   6   7
ENDBRANCH   5   6
ENDBRANCH   4   5
ENDBRANCH   3   4
ENDBRANCH   2   3
ENDBRANCH   1   2
BRANCH   1  29
ATOM     29  O   UNL A   1      37.338  20.978  24.200  1.00  0.00    -0.376 OA
BRANCH  29  30
ATOM     30  C   UNL A   1      37.751  19.885  25.002  1.00  0.00     0.202 C 
BRANCH  30  31
ATOM     31  C   UNL A   1      39.203  19.522  25.386  1.00  0.00     0.261 C 
BRANCH  31  32
ATOM     32  O   UNL A   1      39.703  19.935  26.658  1.00  0.00    -0.460 OA
BRANCH  32  33
ATOM     33  C   UNL A   1      41.055  19.971  26.783  1.00  0.00     0.338 C 
ATOM     34  O   UNL A   1      41.833  19.044  26.635  1.00  0.00    -0.246 OA
BRANCH  33  35
ATOM     35  C   UNL A   1      41.456  21.382  26.948  1.00  0.00     0.060 A 
ATOM     36  C   UNL A   1      41.854  21.839  28.211  1.00  0.00     0.016 A 
ATOM     37  C   UNL A   1      41.460  22.239  25.848  1.00  0.00     0.016 A 
ATOM     38  C   UNL A   1      42.280  23.157  28.375  1.00  0.00     0.010 A 
ATOM     39  C   UNL A   1      41.857  23.567  26.021  1.00  0.00     0.010 A 
ATOM     40  C   UNL A   1      42.262  24.035  27.285  1.00  0.00    -0.014 A 
BRANCH  40  41
ATOM     41  C   UNL A   1      42.540  25.479  27.476  1.00  0.00     0.031 A 
ATOM     42  C   UNL A   1      43.906  25.999  27.133  1.00  0.00     0.074 A 
ATOM     43  C   UNL A   1      41.601  26.309  27.966  1.00  0.00     0.049 A 
ATOM     44  N   UNL A   1      44.421  27.182  27.342  1.00  0.00    -0.248 NA
ATOM     45  C   UNL A   1      44.812  25.052  26.467  1.00  0.00     0.031 C 
ATOM     46  C   UNL A   1      40.220  25.935  28.270  1.00  0.00     0.029 A 
ATOM     47  N   UNL A   1      41.675  27.635  28.313  1.00  0.00    -0.354 N 
ATOM     48  C   UNL A   1      45.719  27.121  26.845  1.00  0.00     0.074 A 
ATOM     49  C   UNL A   1      45.915  25.774  26.348  1.00  0.00     0.031 C 
ATOM     50  C   UNL A   1      39.585  27.003  28.784  1.00  0.00     0.029 A 
ATOM     51  C   UNL A   1      40.524  28.118  28.894  1.00  0.00     0.049 A 
ATOM     52  H   UNL A   1      42.475  28.188  28.162  1.00  0.00     0.167 HD
ATOM     53  C   UNL A   1      46.656  28.099  26.809  1.00  0.00     0.034 A 
ATOM     54  C   UNL A   1      40.276  29.304  29.487  1.00  0.00     0.034 A 
ATOM     55  C   UNL A   1      46.449  29.426  27.332  1.00  0.00     0.049 A 
ATOM     56  C   UNL A   1      41.380  30.337  29.551  1.00  0.00     0.074 A 
ATOM     57  C   UNL A   1      47.326  30.497  27.332  1.00  0.00     0.029 A 
ATOM     58  N   UNL A   1      45.294  29.860  27.970  1.00  0.00    -0.354 N 
ATOM     59  N   UNL A   1      42.602  30.273  29.074  1.00  0.00    -0.248 NA
ATOM     60  C   UNL A   1      41.070  31.598  30.239  1.00  0.00     0.031 C 
ATOM     61  C   UNL A   1      46.734  31.547  28.042  1.00  0.00     0.029 A 
ATOM     62  C   UNL A   1      45.453  31.166  28.407  1.00  0.00     0.049 A 
ATOM     63  H   UNL A   1      44.481  29.319  28.094  1.00  0.00     0.167 HD
ATOM     64  C   UNL A   1      43.194  31.498  29.377  1.00  0.00     0.074 A 
ATOM     65  C   UNL A   1      42.192  32.284  30.066  1.00  0.00     0.031 C 
ATOM     66  C   UNL A   1      44.449  31.936  29.104  1.00  0.00     0.034 A 
BRANCH  53  67
ATOM     67  C   UNL A   1      48.006  27.744  26.236  1.00  0.00     0.023 A 
ATOM     68  C   UNL A   1      48.269  27.832  24.859  1.00  0.00     0.031 A 
ATOM     69  C   UNL A   1      49.037  27.288  27.077  1.00  0.00     0.131 A 
ATOM     70  C   UNL A   1      49.505  27.401  24.354  1.00  0.00     0.055 A 
ATOM     71  C   UNL A   1      50.293  26.940  26.578  1.00  0.00     0.041 A 
ATOM     72  F   UNL A   1      48.835  27.160  28.398  1.00  0.00    -0.206 F 
ATOM     73  C   UNL A   1      50.529  26.981  25.207  1.00  0.00     0.022 A 
BRANCH  70  74
ATOM     74  S   UNL A   1      49.701  27.258  22.558  1.00  0.00     0.124 S 
ATOM     75  O   UNL A   1      51.131  26.987  22.438  1.00  0.00    -0.237 OA
ATOM     76  O   UNL A   1      48.813  26.148  22.232  1.00  0.00    -0.237 OA
ATOM     77  O   UNL A   1      49.279  28.566  22.062  1.00  0.00    -0.744 OA
ENDBRANCH  70  74
ENDBRANCH  53  67
BRANCH  54  78
ATOM     78  C   UNL A   1      38.954  29.571  30.127  1.00  0.00     0.023 A 
ATOM     79  C   UNL A   1      38.033  30.457  29.547  1.00  0.00     0.031 A 
ATOM     80  C   UNL A   1      38.621  28.997  31.368  1.00  0.00     0.131 A 
ATOM     81  C   UNL A   1      36.848  30.781  30.227  1.00  0.00     0.055 A 
ATOM     82  C   UNL A   1      37.413  29.272  32.011  1.00  0.00     0.041 A 
ATOM     83  F   UNL A   1      39.470  28.152  31.976  1.00  0.00    -0.206 F 
ATOM     84  C   UNL A   1      36.524  30.181  31.447  1.00  0.00     0.022 A 
BRANCH  81  85
ATOM     85  S   UNL A   1      35.784  32.083  29.546  1.00  0.00     0.124 S 
ATOM     86  O   UNL A   1      34.711  31.302  28.942  1.00  0.00    -0.237 OA
ATOM     87  O   UNL A   1      35.432  32.843  30.741  1.00  0.00    -0.237 OA
ATOM     88  O   UNL A   1      36.658  32.779  28.603  1.00  0.00    -0.744 OA
ENDBRANCH  81  85
ENDBRANCH  54  78
BRANCH  66  89
ATOM     89  C   UNL A   1      44.797  33.349  29.513  1.00  0.00     0.023 A 
ATOM     90  C   UNL A   1      44.343  34.465  28.789  1.00  0.00     0.031 A 
ATOM     91  C   UNL A   1      45.581  33.579  30.658  1.00  0.00     0.131 A 
ATOM     92  C   UNL A   1      44.710  35.758  29.194  1.00  0.00     0.055 A 
ATOM     93  C   UNL A   1      45.892  34.869  31.091  1.00  0.00     0.041 A 
ATOM     94  F   UNL A   1      46.044  32.551  31.387  1.00  0.00    -0.206 F 
ATOM     95  C   UNL A   1      45.465  35.967  30.351  1.00  0.00     0.022 A 
BRANCH  92  96
ATOM     96  S   UNL A   1      44.250  37.166  28.147  1.00  0.00     0.124 S 
ATOM     97  O   UNL A   1      42.896  37.455  28.607  1.00  0.00    -0.237 OA
ATOM     98  O   UNL A   1      45.265  38.156  28.491  1.00  0.00    -0.237 OA
ATOM     99  O   UNL A   1      44.343  36.630  26.790  1.00  0.00    -0.744 OA
ENDBRANCH  92  96
ENDBRANCH  66  89
ENDBRANCH  40  41
ENDBRANCH  33  35
ENDBRANCH  32  33
ENDBRANCH  31  32
ENDBRANCH  30  31
ENDBRANCH  29  30
ENDBRANCH   1  29
TORSDOF 23
ENDMDL
