MODEL 1
REMARK VINA RESULT:      -8.7      0.000      0.000
REMARK SMILES CCOc1ccc(-c2csc3ncn([C@H](C)C(=O)OCCOCCOCCOC(=O)c4ccc(-c5c6nc(c(-c7cc(S(=O)(=O)[O-])ccc7F)c7ccc([nH]7)c(-c7cc(S(=O)(=O)[O-])ccc7F)c7nc(c(-c8cc(S(=O)(=O)[O-])ccc8F)c8ccc5[nH]8)C=C7)C=C6)cc4)c(=O)c23)cc1
REMARK SMILES IDX 23 1 22 2 21 3 20 4 19 5 17 6 18 7 15 8 16 9 14 10 8 11 9 12
REMARK SMILES IDX 96 13 10 14 11 15 94 16 12 17 95 18 13 19 7 20 4 21 5 22
REMARK SMILES IDX 98 23 6 24 97 25 3 26 2 27 1 28 24 29 25 30 26 31 27 32
REMARK SMILES IDX 28 33 29 34 30 35 31 36 32 37 93 38 33 39 92 40 34 41 35 42
REMARK SMILES IDX 36 43 86 44 37 45 91 46 85 47 87 48 38 49 90 50 84 51 83 52
REMARK SMILES IDX 39 54 71 55 51 56 70 57 52 58 55 59 69 60 88 61 53 62 54 63
REMARK SMILES IDX 68 65 89 66 56 67 40 68 41 69 49 70 42 71 48 72 50 73 47 74
REMARK SMILES IDX 43 75 44 76 45 77 46 78 72 79 73 80 81 81 74 82 80 83 82 84
REMARK SMILES IDX 79 85 75 86 76 87 77 88 78 89 57 90 58 91 66 92 59 93 65 94
REMARK SMILES IDX 67 95 64 96 60 97 61 98 62 99 63 100
REMARK H PARENT 87 53 55 64
REMARK Flexibility Score: inf
ROOT
ATOM      1  C   UNL A   1      45.411  22.837  25.681  1.00  0.00     0.188 C 
ENDROOT
BRANCH   1   2
ATOM      2  O   UNL A   1      45.609  23.712  26.766  1.00  0.00    -0.376 OA
BRANCH   2   3
ATOM      3  C   UNL A   1      46.928  24.118  27.078  1.00  0.00     0.202 C 
BRANCH   3   4
ATOM      4  C   UNL A   1      47.581  25.325  26.373  1.00  0.00     0.261 C 
BRANCH   4   5
ATOM      5  O   UNL A   1      48.971  25.567  26.689  1.00  0.00    -0.462 OA
BRANCH   5   6
ATOM      6  C   UNL A   1      49.636  26.389  25.850  1.00  0.00     0.329 C 
ATOM      7  O   UNL A   1      49.993  26.033  24.728  1.00  0.00    -0.250 OA
BRANCH   6   8
ATOM      8  C   UNL A   1      49.911  27.826  26.378  1.00  0.00     0.198 C 
ATOM      9  C   UNL A   1      50.927  28.751  25.714  1.00  0.00     0.044 C 
BRANCH   8  10
ATOM     10  N   UNL A   1      48.570  28.412  26.428  1.00  0.00    -0.284 N 
ATOM     11  C   UNL A   1      45.660  28.357  28.739  1.00  0.00     0.007 A 
ATOM     12  C   UNL A   1      44.370  28.641  28.322  1.00  0.00     0.076 A 
ATOM     13  C   UNL A   1      46.599  28.696  27.712  1.00  0.00     0.085 A 
ATOM     14  S   UNL A   1      44.297  29.149  26.690  1.00  0.00    -0.123 S 
ATOM     15  C   UNL A   1      45.976  28.948  26.508  1.00  0.00     0.131 A 
ATOM     16  C   UNL A   1      48.042  28.618  27.702  1.00  0.00     0.263 A 
ATOM     17  N   UNL A   1      46.558  28.966  25.283  1.00  0.00    -0.227 NA
ATOM     18  O   UNL A   1      48.735  28.741  28.708  1.00  0.00    -0.268 OA
ATOM     19  C   UNL A   1      47.805  28.616  25.296  1.00  0.00     0.204 A 
BRANCH  11  20
ATOM     20  C   UNL A   1      45.890  27.626  29.986  1.00  0.00    -0.016 A 
ATOM     21  C   UNL A   1      46.351  26.120  32.318  1.00  0.00     0.119 A 
ATOM     22  C   UNL A   1      46.322  27.514  32.373  1.00  0.00     0.047 A 
ATOM     23  C   UNL A   1      46.146  25.476  31.103  1.00  0.00     0.047 A 
ATOM     24  C   UNL A   1      46.092  28.264  31.211  1.00  0.00     0.012 A 
ATOM     25  C   UNL A   1      45.942  26.223  29.943  1.00  0.00     0.012 A 
BRANCH  21  26
ATOM     26  O   UNL A   1      46.435  25.434  33.496  1.00  0.00    -0.494 OA
BRANCH  26  27
ATOM     27  C   UNL A   1      45.216  24.805  33.910  1.00  0.00     0.226 C 
ATOM     28  C   UNL A   1      43.996  25.671  33.634  1.00  0.00     0.049 C 
ENDBRANCH  26  27
ENDBRANCH  21  26
ENDBRANCH  11  20
ENDBRANCH   8  10
ENDBRANCH   6   8
ENDBRANCH   5   6
ENDBRANCH   4   5
ENDBRANCH   3   4
ENDBRANCH   2   3
ENDBRANCH   1   2
BRANCH   1  29
ATOM     29  C   UNL A   1      44.340  23.120  24.619  1.00  0.00     0.188 C 
BRANCH  29  30
ATOM     30  O   UNL A   1      43.029  22.597  24.671  1.00  0.00    -0.376 OA
BRANCH  30  31
ATOM     31  C   UNL A   1      42.131  22.638  25.771  1.00  0.00     0.202 C 
BRANCH  31  32
ATOM     32  C   UNL A   1      41.972  23.791  26.758  1.00  0.00     0.261 C 
BRANCH  32  33
ATOM     33  O   UNL A   1      40.920  24.667  26.467  1.00  0.00    -0.460 OA
BRANCH  33  34
ATOM     34  C   UNL A   1      41.342  25.876  26.042  1.00  0.00     0.338 C 
ATOM     35  O   UNL A   1      42.226  26.108  25.231  1.00  0.00    -0.246 OA
BRANCH  34  36
ATOM     36  C   UNL A   1      40.477  26.876  26.669  1.00  0.00     0.060 A 
ATOM     37  C   UNL A   1      40.750  28.210  26.377  1.00  0.00     0.016 A 
ATOM     38  C   UNL A   1      39.633  26.478  27.717  1.00  0.00     0.016 A 
ATOM     39  C   UNL A   1      40.464  29.130  27.348  1.00  0.00     0.010 A 
ATOM     40  C   UNL A   1      39.381  27.388  28.699  1.00  0.00     0.010 A 
ATOM     41  C   UNL A   1      39.916  28.662  28.544  1.00  0.00    -0.014 A 
BRANCH  41  42
ATOM     42  C   UNL A   1      39.938  29.538  29.683  1.00  0.00     0.031 A 
ATOM     43  C   UNL A   1      38.720  30.350  29.777  1.00  0.00     0.074 A 
ATOM     44  C   UNL A   1      40.948  29.498  30.569  1.00  0.00     0.049 A 
ATOM     45  N   UNL A   1      38.591  31.604  29.507  1.00  0.00    -0.248 NA
ATOM     46  C   UNL A   1      37.446  29.631  29.942  1.00  0.00     0.031 C 
ATOM     47  C   UNL A   1      42.038  28.518  30.650  1.00  0.00     0.029 A 
ATOM     48  N   UNL A   1      41.148  30.270  31.665  1.00  0.00    -0.354 N 
ATOM     49  C   UNL A   1      37.255  31.877  29.762  1.00  0.00     0.074 A 
ATOM     50  C   UNL A   1      36.579  30.615  29.714  1.00  0.00     0.031 C 
ATOM     51  C   UNL A   1      42.638  28.622  31.858  1.00  0.00     0.029 A 
ATOM     52  C   UNL A   1      42.060  29.749  32.574  1.00  0.00     0.049 A 
ATOM     53  H   UNL A   1      40.686  31.128  31.805  1.00  0.00     0.167 HD
ATOM     54  C   UNL A   1      36.898  33.052  30.347  1.00  0.00     0.034 A 
ATOM     55  C   UNL A   1      42.253  30.166  33.854  1.00  0.00     0.034 A 
ATOM     56  C   UNL A   1      37.949  34.041  30.187  1.00  0.00     0.049 A 
ATOM     57  C   UNL A   1      41.708  31.547  33.943  1.00  0.00     0.074 A 
ATOM     58  C   UNL A   1      38.600  34.581  29.094  1.00  0.00     0.029 A 
ATOM     59  N   UNL A   1      38.755  34.318  31.272  1.00  0.00    -0.354 N 
ATOM     60  N   UNL A   1      42.220  32.560  33.298  1.00  0.00    -0.248 NA
ATOM     61  C   UNL A   1      40.315  31.717  34.337  1.00  0.00     0.031 C 
ATOM     62  C   UNL A   1      39.957  34.737  29.502  1.00  0.00     0.029 A 
ATOM     63  C   UNL A   1      40.060  34.359  30.843  1.00  0.00     0.049 A 
ATOM     64  H   UNL A   1      38.447  34.461  32.196  1.00  0.00     0.167 HD
ATOM     65  C   UNL A   1      41.131  33.280  32.826  1.00  0.00     0.074 A 
ATOM     66  C   UNL A   1      39.992  32.781  33.594  1.00  0.00     0.031 C 
ATOM     67  C   UNL A   1      41.206  33.992  31.661  1.00  0.00     0.034 A 
BRANCH  54  68
ATOM     68  C   UNL A   1      35.825  33.154  31.416  1.00  0.00     0.023 A 
ATOM     69  C   UNL A   1      34.751  34.012  31.134  1.00  0.00     0.031 A 
ATOM     70  C   UNL A   1      35.913  32.714  32.762  1.00  0.00     0.131 A 
ATOM     71  C   UNL A   1      33.931  34.506  32.162  1.00  0.00     0.055 A 
ATOM     72  C   UNL A   1      35.055  33.160  33.769  1.00  0.00     0.041 A 
ATOM     73  F   UNL A   1      36.862  31.891  33.215  1.00  0.00    -0.206 F 
ATOM     74  C   UNL A   1      34.080  34.094  33.482  1.00  0.00     0.022 A 
BRANCH  71  75
ATOM     75  S   UNL A   1      32.790  35.846  31.759  1.00  0.00     0.124 S 
ATOM     76  O   UNL A   1      33.496  37.000  32.306  1.00  0.00    -0.237 OA
ATOM     77  O   UNL A   1      32.731  35.756  30.303  1.00  0.00    -0.237 OA
ATOM     78  O   UNL A   1      31.566  35.469  32.461  1.00  0.00    -0.744 OA
ENDBRANCH  71  75
ENDBRANCH  54  68
BRANCH  55  79
ATOM     79  C   UNL A   1      42.533  29.298  35.030  1.00  0.00     0.023 A 
ATOM     80  C   UNL A   1      41.801  28.129  35.321  1.00  0.00     0.031 A 
ATOM     81  C   UNL A   1      43.710  29.512  35.786  1.00  0.00     0.131 A 
ATOM     82  C   UNL A   1      42.248  27.243  36.333  1.00  0.00     0.055 A 
ATOM     83  C   UNL A   1      44.141  28.642  36.789  1.00  0.00     0.041 A 
ATOM     84  F   UNL A   1      44.530  30.541  35.519  1.00  0.00    -0.206 F 
ATOM     85  C   UNL A   1      43.413  27.496  37.062  1.00  0.00     0.022 A 
BRANCH  82  86
ATOM     86  S   UNL A   1      41.350  25.693  36.673  1.00  0.00     0.124 S 
ATOM     87  O   UNL A   1      40.474  26.072  37.775  1.00  0.00    -0.237 OA
ATOM     88  O   UNL A   1      40.705  25.423  35.392  1.00  0.00    -0.237 OA
ATOM     89  O   UNL A   1      42.412  24.753  37.032  1.00  0.00    -0.744 OA
ENDBRANCH  82  86
ENDBRANCH  55  79
BRANCH  67  90
ATOM     90  C   UNL A   1      42.583  34.245  31.070  1.00  0.00     0.023 A 
ATOM     91  C   UNL A   1      43.162  33.500  30.015  1.00  0.00     0.031 A 
ATOM     92  C   UNL A   1      43.288  35.369  31.533  1.00  0.00     0.131 A 
ATOM     93  C   UNL A   1      44.408  33.886  29.479  1.00  0.00     0.055 A 
ATOM     94  C   UNL A   1      44.510  35.760  30.985  1.00  0.00     0.041 A 
ATOM     95  F   UNL A   1      42.779  36.137  32.511  1.00  0.00    -0.206 F 
ATOM     96  C   UNL A   1      45.078  35.015  29.960  1.00  0.00     0.022 A 
BRANCH  93  97
ATOM     97  S   UNL A   1      45.190  32.915  28.148  1.00  0.00     0.124 S 
ATOM     98  O   UNL A   1      44.072  32.551  27.288  1.00  0.00    -0.237 OA
ATOM     99  O   UNL A   1      46.148  33.865  27.586  1.00  0.00    -0.237 OA
ATOM    100  O   UNL A   1      45.801  31.791  28.861  1.00  0.00    -0.744 OA
ENDBRANCH  93  97
ENDBRANCH  67  90
ENDBRANCH  41  42
ENDBRANCH  34  36
ENDBRANCH  33  34
ENDBRANCH  32  33
ENDBRANCH  31  32
ENDBRANCH  30  31
ENDBRANCH  29  30
ENDBRANCH   1  29
TORSDOF 24
ENDMDL
MODEL 2
REMARK VINA RESULT:      -8.0      2.284      2.671
REMARK SMILES CCOc1ccc(-c2csc3ncn([C@H](C)C(=O)OCCOCCOCCOC(=O)c4ccc(-c5c6nc(c(-c7cc(S(=O)(=O)[O-])ccc7F)c7ccc([nH]7)c(-c7cc(S(=O)(=O)[O-])ccc7F)c7nc(c(-c8cc(S(=O)(=O)[O-])ccc8F)c8ccc5[nH]8)C=C7)C=C6)cc4)c(=O)c23)cc1
REMARK SMILES IDX 23 1 22 2 21 3 20 4 19 5 17 6 18 7 15 8 16 9 14 10 8 11 9 12
REMARK SMILES IDX 96 13 10 14 11 15 94 16 12 17 95 18 13 19 7 20 4 21 5 22
REMARK SMILES IDX 98 23 6 24 97 25 3 26 2 27 1 28 24 29 25 30 26 31 27 32
REMARK SMILES IDX 28 33 29 34 30 35 31 36 32 37 93 38 33 39 92 40 34 41 35 42
REMARK SMILES IDX 36 43 86 44 37 45 91 46 85 47 87 48 38 49 90 50 84 51 83 52
REMARK SMILES IDX 39 54 71 55 51 56 70 57 52 58 55 59 69 60 88 61 53 62 54 63
REMARK SMILES IDX 68 65 89 66 56 67 40 68 41 69 49 70 42 71 48 72 50 73 47 74
REMARK SMILES IDX 43 75 44 76 45 77 46 78 72 79 73 80 81 81 74 82 80 83 82 84
REMARK SMILES IDX 79 85 75 86 76 87 77 88 78 89 57 90 58 91 66 92 59 93 65 94
REMARK SMILES IDX 67 95 64 96 60 97 61 98 62 99 63 100
REMARK H PARENT 87 53 55 64
REMARK Flexibility Score: inf
ROOT
ATOM      1  C   UNL A   1      45.197  22.353  25.990  1.00  0.00     0.188 C 
ENDROOT
BRANCH   1   2
ATOM      2  O   UNL A   1      44.945  22.710  27.328  1.00  0.00    -0.376 OA
BRANCH   2   3
ATOM      3  C   UNL A   1      45.684  23.774  27.898  1.00  0.00     0.202 C 
BRANCH   3   4
ATOM      4  C   UNL A   1      46.355  24.844  27.014  1.00  0.00     0.261 C 
BRANCH   4   5
ATOM      5  O   UNL A   1      47.581  24.446  26.357  1.00  0.00    -0.462 OA
BRANCH   5   6
ATOM      6  C   UNL A   1      47.945  25.180  25.285  1.00  0.00     0.329 C 
ATOM      7  O   UNL A   1      47.486  24.974  24.162  1.00  0.00    -0.250 OA
BRANCH   6   8
ATOM      8  C   UNL A   1      48.971  26.319  25.553  1.00  0.00     0.198 C 
ATOM      9  C   UNL A   1      50.105  26.632  24.581  1.00  0.00     0.044 C 
BRANCH   8  10
ATOM     10  N   UNL A   1      48.108  27.476  25.799  1.00  0.00    -0.284 N 
ATOM     11  C   UNL A   1      46.084  28.814  28.614  1.00  0.00     0.007 A 
ATOM     12  C   UNL A   1      45.024  29.685  28.424  1.00  0.00     0.076 A 
ATOM     13  C   UNL A   1      46.829  28.666  27.400  1.00  0.00     0.085 A 
ATOM     14  S   UNL A   1      44.851  30.173  26.794  1.00  0.00    -0.123 S 
ATOM     15  C   UNL A   1      46.155  29.192  26.316  1.00  0.00     0.131 A 
ATOM     16  C   UNL A   1      48.025  27.905  27.124  1.00  0.00     0.263 A 
ATOM     17  N   UNL A   1      46.400  28.934  25.008  1.00  0.00    -0.227 NA
ATOM     18  O   UNL A   1      48.892  27.675  27.962  1.00  0.00    -0.268 OA
ATOM     19  C   UNL A   1      47.306  28.028  24.818  1.00  0.00     0.204 A 
BRANCH  11  20
ATOM     20  C   UNL A   1      46.205  28.057  29.861  1.00  0.00    -0.016 A 
ATOM     21  C   UNL A   1      46.438  26.706  32.318  1.00  0.00     0.119 A 
ATOM     22  C   UNL A   1      46.083  26.010  31.163  1.00  0.00     0.047 A 
ATOM     23  C   UNL A   1      46.681  28.073  32.250  1.00  0.00     0.047 A 
ATOM     24  C   UNL A   1      45.966  26.683  29.938  1.00  0.00     0.012 A 
ATOM     25  C   UNL A   1      46.541  28.747  31.037  1.00  0.00     0.012 A 
BRANCH  21  26
ATOM     26  O   UNL A   1      46.678  25.984  33.453  1.00  0.00    -0.494 OA
BRANCH  26  27
ATOM     27  C   UNL A   1      45.542  25.823  34.312  1.00  0.00     0.226 C 
ATOM     28  C   UNL A   1      45.878  25.045  35.575  1.00  0.00     0.049 C 
ENDBRANCH  26  27
ENDBRANCH  21  26
ENDBRANCH  11  20
ENDBRANCH   8  10
ENDBRANCH   6   8
ENDBRANCH   5   6
ENDBRANCH   4   5
ENDBRANCH   3   4
ENDBRANCH   2   3
ENDBRANCH   1   2
BRANCH   1  29
ATOM     29  C   UNL A   1      44.315  22.878  24.849  1.00  0.00     0.188 C 
BRANCH  29  30
ATOM     30  O   UNL A   1      42.936  22.597  24.733  1.00  0.00    -0.376 OA
BRANCH  30  31
ATOM     31  C   UNL A   1      41.966  22.612  25.770  1.00  0.00     0.202 C 
BRANCH  31  32
ATOM     32  C   UNL A   1      41.679  23.778  26.713  1.00  0.00     0.261 C 
BRANCH  32  33
ATOM     33  O   UNL A   1      40.759  24.713  26.222  1.00  0.00    -0.460 OA
BRANCH  33  34
ATOM     34  C   UNL A   1      41.340  25.863  25.821  1.00  0.00     0.338 C 
ATOM     35  O   UNL A   1      42.235  25.993  25.000  1.00  0.00    -0.246 OA
BRANCH  34  36
ATOM     36  C   UNL A   1      40.633  26.955  26.491  1.00  0.00     0.060 A 
ATOM     37  C   UNL A   1      41.125  28.241  26.278  1.00  0.00     0.016 A 
ATOM     38  C   UNL A   1      39.711  26.644  27.501  1.00  0.00     0.016 A 
ATOM     39  C   UNL A   1      40.967  29.142  27.296  1.00  0.00     0.010 A 
ATOM     40  C   UNL A   1      39.585  27.529  28.529  1.00  0.00     0.010 A 
ATOM     41  C   UNL A   1      40.322  28.705  28.454  1.00  0.00    -0.014 A 
BRANCH  41  42
ATOM     42  C   UNL A   1      40.458  29.505  29.641  1.00  0.00     0.031 A 
ATOM     43  C   UNL A   1      39.359  30.465  29.788  1.00  0.00     0.074 A 
ATOM     44  C   UNL A   1      41.451  29.280  30.518  1.00  0.00     0.049 A 
ATOM     45  N   UNL A   1      39.398  31.739  29.590  1.00  0.00    -0.248 NA
ATOM     46  C   UNL A   1      37.999  29.914  29.917  1.00  0.00     0.031 C 
ATOM     47  C   UNL A   1      42.400  28.160  30.538  1.00  0.00     0.029 A 
ATOM     48  N   UNL A   1      41.749  29.954  31.656  1.00  0.00    -0.354 N 
ATOM     49  C   UNL A   1      38.111  32.172  29.867  1.00  0.00     0.074 A 
ATOM     50  C   UNL A   1      37.272  31.016  29.750  1.00  0.00     0.031 C 
ATOM     51  C   UNL A   1      43.005  28.114  31.747  1.00  0.00     0.029 A 
ATOM     52  C   UNL A   1      42.581  29.265  32.529  1.00  0.00     0.049 A 
ATOM     53  H   UNL A   1      41.405  30.857  31.847  1.00  0.00     0.167 HD
ATOM     54  C   UNL A   1      37.911  33.348  30.520  1.00  0.00     0.034 A 
ATOM     55  C   UNL A   1      42.825  29.580  33.829  1.00  0.00     0.034 A 
ATOM     56  C   UNL A   1      39.085  34.196  30.411  1.00  0.00     0.049 A 
ATOM     57  C   UNL A   1      42.469  31.013  34.000  1.00  0.00     0.074 A 
ATOM     58  C   UNL A   1      39.805  34.707  29.347  1.00  0.00     0.029 A 
ATOM     59  N   UNL A   1      39.918  34.301  31.506  1.00  0.00    -0.354 N 
ATOM     60  N   UNL A   1      43.113  31.984  33.411  1.00  0.00    -0.248 NA
ATOM     61  C   UNL A   1      41.109  31.344  34.410  1.00  0.00     0.031 C 
ATOM     62  C   UNL A   1      41.170  34.656  29.757  1.00  0.00     0.029 A 
ATOM     63  C   UNL A   1      41.219  34.192  31.073  1.00  0.00     0.049 A 
ATOM     64  H   UNL A   1      39.630  34.431  32.438  1.00  0.00     0.167 HD
ATOM     65  C   UNL A   1      42.130  32.869  32.986  1.00  0.00     0.074 A 
ATOM     66  C   UNL A   1      40.933  32.483  33.731  1.00  0.00     0.031 C 
ATOM     67  C   UNL A   1      42.303  33.630  31.864  1.00  0.00     0.034 A 
BRANCH  54  68
ATOM     68  C   UNL A   1      36.859  33.531  31.598  1.00  0.00     0.023 A 
ATOM     69  C   UNL A   1      37.333  33.618  32.917  1.00  0.00     0.031 A 
ATOM     70  C   UNL A   1      35.459  33.344  31.468  1.00  0.00     0.131 A 
ATOM     71  C   UNL A   1      36.482  33.379  34.008  1.00  0.00     0.055 A 
ATOM     72  C   UNL A   1      34.606  33.170  32.560  1.00  0.00     0.041 A 
ATOM     73  F   UNL A   1      34.828  33.245  30.295  1.00  0.00    -0.206 F 
ATOM     74  C   UNL A   1      35.122  33.145  33.840  1.00  0.00     0.022 A 
BRANCH  71  75
ATOM     75  S   UNL A   1      37.235  33.190  35.638  1.00  0.00     0.124 S 
ATOM     76  O   UNL A   1      37.593  31.776  35.628  1.00  0.00    -0.237 OA
ATOM     77  O   UNL A   1      38.343  34.137  35.562  1.00  0.00    -0.237 OA
ATOM     78  O   UNL A   1      36.157  33.558  36.551  1.00  0.00    -0.744 OA
ENDBRANCH  71  75
ENDBRANCH  54  68
BRANCH  55  79
ATOM     79  C   UNL A   1      42.983  28.616  34.953  1.00  0.00     0.023 A 
ATOM     80  C   UNL A   1      43.975  28.742  35.948  1.00  0.00     0.031 A 
ATOM     81  C   UNL A   1      41.982  27.642  35.179  1.00  0.00     0.131 A 
ATOM     82  C   UNL A   1      43.941  27.912  37.095  1.00  0.00     0.055 A 
ATOM     83  C   UNL A   1      41.959  26.819  36.305  1.00  0.00     0.041 A 
ATOM     84  F   UNL A   1      40.939  27.511  34.343  1.00  0.00    -0.206 F 
ATOM     85  C   UNL A   1      42.938  26.956  37.275  1.00  0.00     0.022 A 
BRANCH  82  86
ATOM     86  S   UNL A   1      45.177  28.111  38.421  1.00  0.00     0.124 S 
ATOM     87  O   UNL A   1      45.021  29.513  38.789  1.00  0.00    -0.237 OA
ATOM     88  O   UNL A   1      44.735  27.128  39.405  1.00  0.00    -0.237 OA
ATOM     89  O   UNL A   1      46.443  27.788  37.762  1.00  0.00    -0.744 OA
ENDBRANCH  82  86
ENDBRANCH  55  79
BRANCH  67  90
ATOM     90  C   UNL A   1      43.703  33.730  31.281  1.00  0.00     0.023 A 
ATOM     91  C   UNL A   1      44.721  34.589  31.758  1.00  0.00     0.031 A 
ATOM     92  C   UNL A   1      44.044  32.825  30.261  1.00  0.00     0.131 A 
ATOM     93  C   UNL A   1      46.015  34.528  31.203  1.00  0.00     0.055 A 
ATOM     94  C   UNL A   1      45.331  32.753  29.728  1.00  0.00     0.041 A 
ATOM     95  F   UNL A   1      43.132  31.961  29.783  1.00  0.00    -0.206 F 
ATOM     96  C   UNL A   1      46.320  33.610  30.193  1.00  0.00     0.022 A 
BRANCH  93  97
ATOM     97  S   UNL A   1      47.329  35.655  31.776  1.00  0.00     0.124 S 
ATOM     98  O   UNL A   1      46.844  36.973  31.387  1.00  0.00    -0.237 OA
ATOM     99  O   UNL A   1      47.371  35.386  33.212  1.00  0.00    -0.237 OA
ATOM    100  O   UNL A   1      48.512  35.200  31.042  1.00  0.00    -0.744 OA
ENDBRANCH  93  97
ENDBRANCH  67  90
ENDBRANCH  41  42
ENDBRANCH  34  36
ENDBRANCH  33  34
ENDBRANCH  32  33
ENDBRANCH  31  32
ENDBRANCH  30  31
ENDBRANCH  29  30
ENDBRANCH   1  29
TORSDOF 24
ENDMDL
MODEL 3
REMARK VINA RESULT:      -7.3      5.278     12.848
REMARK SMILES CCOc1ccc(-c2csc3ncn([C@H](C)C(=O)OCCOCCOCCOC(=O)c4ccc(-c5c6nc(c(-c7cc(S(=O)(=O)[O-])ccc7F)c7ccc([nH]7)c(-c7cc(S(=O)(=O)[O-])ccc7F)c7nc(c(-c8cc(S(=O)(=O)[O-])ccc8F)c8ccc5[nH]8)C=C7)C=C6)cc4)c(=O)c23)cc1
REMARK SMILES IDX 23 1 22 2 21 3 20 4 19 5 17 6 18 7 15 8 16 9 14 10 8 11 9 12
REMARK SMILES IDX 96 13 10 14 11 15 94 16 12 17 95 18 13 19 7 20 4 21 5 22
REMARK SMILES IDX 98 23 6 24 97 25 3 26 2 27 1 28 24 29 25 30 26 31 27 32
REMARK SMILES IDX 28 33 29 34 30 35 31 36 32 37 93 38 33 39 92 40 34 41 35 42
REMARK SMILES IDX 36 43 86 44 37 45 91 46 85 47 87 48 38 49 90 50 84 51 83 52
REMARK SMILES IDX 39 54 71 55 51 56 70 57 52 58 55 59 69 60 88 61 53 62 54 63
REMARK SMILES IDX 68 65 89 66 56 67 40 68 41 69 49 70 42 71 48 72 50 73 47 74
REMARK SMILES IDX 43 75 44 76 45 77 46 78 72 79 73 80 81 81 74 82 80 83 82 84
REMARK SMILES IDX 79 85 75 86 76 87 77 88 78 89 57 90 58 91 66 92 59 93 65 94
REMARK SMILES IDX 67 95 64 96 60 97 61 98 62 99 63 100
REMARK H PARENT 87 53 55 64
REMARK Flexibility Score: inf
ROOT
ATOM      1  C   UNL A   1      36.411  32.662  29.921  1.00  0.00     0.188 C 
ENDROOT
BRANCH   1   2
ATOM      2  O   UNL A   1      35.659  32.848  28.746  1.00  0.00    -0.376 OA
BRANCH   2   3
ATOM      3  C   UNL A   1      35.417  31.731  27.912  1.00  0.00     0.202 C 
BRANCH   3   4
ATOM      4  C   UNL A   1      34.074  30.976  27.955  1.00  0.00     0.261 C 
BRANCH   4   5
ATOM      5  O   UNL A   1      33.726  30.233  26.765  1.00  0.00    -0.462 OA
BRANCH   5   6
ATOM      6  C   UNL A   1      34.003  28.912  26.787  1.00  0.00     0.329 C 
ATOM      7  O   UNL A   1      35.157  28.483  26.783  1.00  0.00    -0.250 OA
BRANCH   6   8
ATOM      8  C   UNL A   1      32.776  27.957  26.837  1.00  0.00     0.198 C 
ATOM      9  C   UNL A   1      31.525  28.290  27.645  1.00  0.00     0.044 C 
BRANCH   8  10
ATOM     10  N   UNL A   1      32.484  27.737  25.418  1.00  0.00    -0.284 N 
ATOM     11  C   UNL A   1      32.627  24.903  23.019  1.00  0.00     0.007 A 
ATOM     12  C   UNL A   1      32.714  25.088  21.649  1.00  0.00     0.076 A 
ATOM     13  C   UNL A   1      32.336  26.145  23.670  1.00  0.00     0.085 A 
ATOM     14  S   UNL A   1      32.606  26.733  21.194  1.00  0.00    -0.123 S 
ATOM     15  C   UNL A   1      32.491  27.220  22.819  1.00  0.00     0.131 A 
ATOM     16  C   UNL A   1      32.115  26.438  25.067  1.00  0.00     0.263 A 
ATOM     17  N   UNL A   1      32.624  28.521  23.176  1.00  0.00    -0.227 NA
ATOM     18  O   UNL A   1      31.632  25.636  25.861  1.00  0.00    -0.268 OA
ATOM     19  C   UNL A   1      32.697  28.704  24.455  1.00  0.00     0.204 A 
BRANCH  11  20
ATOM     20  C   UNL A   1      33.000  23.620  23.617  1.00  0.00    -0.016 A 
ATOM     21  C   UNL A   1      33.614  21.108  24.726  1.00  0.00     0.119 A 
ATOM     22  C   UNL A   1      34.602  22.085  24.605  1.00  0.00     0.047 A 
ATOM     23  C   UNL A   1      32.319  21.382  24.300  1.00  0.00     0.047 A 
ATOM     24  C   UNL A   1      34.297  23.336  24.052  1.00  0.00     0.012 A 
ATOM     25  C   UNL A   1      32.021  22.619  23.727  1.00  0.00     0.012 A 
BRANCH  21  26
ATOM     26  O   UNL A   1      33.925  19.961  25.400  1.00  0.00    -0.494 OA
BRANCH  26  27
ATOM     27  C   UNL A   1      33.523  18.753  24.744  1.00  0.00     0.226 C 
ATOM     28  C   UNL A   1      32.784  17.806  25.678  1.00  0.00     0.049 C 
ENDBRANCH  26  27
ENDBRANCH  21  26
ENDBRANCH  11  20
ENDBRANCH   8  10
ENDBRANCH   6   8
ENDBRANCH   5   6
ENDBRANCH   4   5
ENDBRANCH   3   4
ENDBRANCH   2   3
ENDBRANCH   1   2
BRANCH   1  29
ATOM     29  C   UNL A   1      37.886  32.241  29.861  1.00  0.00     0.188 C 
BRANCH  29  30
ATOM     30  O   UNL A   1      38.690  32.040  31.004  1.00  0.00    -0.376 OA
BRANCH  30  31
ATOM     31  C   UNL A   1      40.104  32.144  31.088  1.00  0.00     0.202 C 
BRANCH  31  32
ATOM     32  C   UNL A   1      41.036  32.633  29.982  1.00  0.00     0.261 C 
BRANCH  32  33
ATOM     33  O   UNL A   1      42.061  33.482  30.416  1.00  0.00    -0.460 OA
BRANCH  33  34
ATOM     34  C   UNL A   1      42.642  34.166  29.408  1.00  0.00     0.338 C 
ATOM     35  O   UNL A   1      42.273  35.225  28.924  1.00  0.00    -0.246 OA
BRANCH  34  36
ATOM     36  C   UNL A   1      43.864  33.445  29.051  1.00  0.00     0.060 A 
ATOM     37  C   UNL A   1      43.982  33.035  27.724  1.00  0.00     0.016 A 
ATOM     38  C   UNL A   1      44.692  32.968  30.077  1.00  0.00     0.016 A 
ATOM     39  C   UNL A   1      44.690  31.888  27.489  1.00  0.00     0.010 A 
ATOM     40  C   UNL A   1      45.368  31.806  29.849  1.00  0.00     0.010 A 
ATOM     41  C   UNL A   1      45.243  31.231  28.590  1.00  0.00    -0.014 A 
BRANCH  41  42
ATOM     42  C   UNL A   1      45.675  29.871  28.413  1.00  0.00     0.031 A 
ATOM     43  C   UNL A   1      44.573  28.917  28.574  1.00  0.00     0.074 A 
ATOM     44  C   UNL A   1      46.938  29.587  28.050  1.00  0.00     0.049 A 
ATOM     45  N   UNL A   1      44.352  28.136  29.576  1.00  0.00    -0.248 NA
ATOM     46  C   UNL A   1      43.446  29.028  27.633  1.00  0.00     0.031 C 
ATOM     47  C   UNL A   1      47.984  30.522  27.619  1.00  0.00     0.029 A 
ATOM     48  N   UNL A   1      47.520  28.375  27.878  1.00  0.00    -0.354 N 
ATOM     49  C   UNL A   1      43.200  27.446  29.231  1.00  0.00     0.074 A 
ATOM     50  C   UNL A   1      42.554  28.238  28.225  1.00  0.00     0.031 C 
ATOM     51  C   UNL A   1      48.981  29.828  27.025  1.00  0.00     0.029 A 
ATOM     52  C   UNL A   1      48.701  28.405  27.147  1.00  0.00     0.049 A 
ATOM     53  H   UNL A   1      47.138  27.544  28.241  1.00  0.00     0.167 HD
ATOM     54  C   UNL A   1      43.077  26.127  29.533  1.00  0.00     0.034 A 
ATOM     55  C   UNL A   1      49.344  27.336  26.607  1.00  0.00     0.034 A 
ATOM     56  C   UNL A   1      43.996  25.760  30.595  1.00  0.00     0.049 A 
ATOM     57  C   UNL A   1      48.866  26.132  27.338  1.00  0.00     0.074 A 
ATOM     58  C   UNL A   1      44.206  26.215  31.883  1.00  0.00     0.029 A 
ATOM     59  N   UNL A   1      45.141  25.067  30.257  1.00  0.00    -0.354 N 
ATOM     60  N   UNL A   1      49.107  25.923  28.604  1.00  0.00    -0.248 NA
ATOM     61  C   UNL A   1      47.710  25.416  26.812  1.00  0.00     0.031 C 
ATOM     62  C   UNL A   1      45.619  26.175  32.073  1.00  0.00     0.029 A 
ATOM     63  C   UNL A   1      46.202  25.629  30.927  1.00  0.00     0.049 A 
ATOM     64  H   UNL A   1      45.188  24.301  29.641  1.00  0.00     0.167 HD
ATOM     65  C   UNL A   1      47.920  25.426  29.125  1.00  0.00     0.074 A 
ATOM     66  C   UNL A   1      47.138  25.027  27.956  1.00  0.00     0.031 C 
ATOM     67  C   UNL A   1      47.566  25.660  30.425  1.00  0.00     0.034 A 
BRANCH  54  68
ATOM     68  C   UNL A   1      42.464  25.112  28.585  1.00  0.00     0.023 A 
ATOM     69  C   UNL A   1      43.358  24.443  27.734  1.00  0.00     0.031 A 
ATOM     70  C   UNL A   1      41.092  24.962  28.261  1.00  0.00     0.131 A 
ATOM     71  C   UNL A   1      42.905  23.808  26.565  1.00  0.00     0.055 A 
ATOM     72  C   UNL A   1      40.643  24.276  27.131  1.00  0.00     0.041 A 
ATOM     73  F   UNL A   1      40.098  25.520  28.958  1.00  0.00    -0.206 F 
ATOM     74  C   UNL A   1      41.554  23.728  26.250  1.00  0.00     0.022 A 
BRANCH  71  75
ATOM     75  S   UNL A   1      44.144  23.260  25.371  1.00  0.00     0.124 S 
ATOM     76  O   UNL A   1      43.301  22.726  24.307  1.00  0.00    -0.237 OA
ATOM     77  O   UNL A   1      44.843  24.507  25.077  1.00  0.00    -0.237 OA
ATOM     78  O   UNL A   1      44.915  22.269  26.117  1.00  0.00    -0.744 OA
ENDBRANCH  71  75
ENDBRANCH  54  68
BRANCH  55  79
ATOM     79  C   UNL A   1      50.033  27.296  25.288  1.00  0.00     0.023 A 
ATOM     80  C   UNL A   1      49.349  27.335  24.055  1.00  0.00     0.031 A 
ATOM     81  C   UNL A   1      51.440  27.440  25.235  1.00  0.00     0.131 A 
ATOM     82  C   UNL A   1      50.070  27.501  22.847  1.00  0.00     0.055 A 
ATOM     83  C   UNL A   1      52.146  27.592  24.042  1.00  0.00     0.041 A 
ATOM     84  F   UNL A   1      52.173  27.517  26.357  1.00  0.00    -0.206 F 
ATOM     85  C   UNL A   1      51.461  27.631  22.839  1.00  0.00     0.022 A 
BRANCH  82  86
ATOM     86  S   UNL A   1      49.193  27.621  21.253  1.00  0.00     0.124 S 
ATOM     87  O   UNL A   1      50.270  27.944  20.325  1.00  0.00    -0.237 OA
ATOM     88  O   UNL A   1      48.601  26.294  21.125  1.00  0.00    -0.237 OA
ATOM     89  O   UNL A   1      48.230  28.702  21.472  1.00  0.00    -0.744 OA
ENDBRANCH  82  86
ENDBRANCH  55  79
BRANCH  67  90
ATOM     90  C   UNL A   1      48.635  26.187  31.369  1.00  0.00     0.023 A 
ATOM     91  C   UNL A   1      49.605  25.390  32.021  1.00  0.00     0.031 A 
ATOM     92  C   UNL A   1      48.733  27.581  31.520  1.00  0.00     0.131 A 
ATOM     93  C   UNL A   1      50.612  25.998  32.799  1.00  0.00     0.055 A 
ATOM     94  C   UNL A   1      49.742  28.180  32.273  1.00  0.00     0.041 A 
ATOM     95  F   UNL A   1      47.861  28.396  30.902  1.00  0.00    -0.206 F 
ATOM     96  C   UNL A   1      50.682  27.389  32.921  1.00  0.00     0.022 A 
BRANCH  93  97
ATOM     97  S   UNL A   1      51.846  24.986  33.681  1.00  0.00     0.124 S 
ATOM     98  O   UNL A   1      51.047  24.218  34.626  1.00  0.00    -0.237 OA
ATOM     99  O   UNL A   1      52.463  24.226  32.597  1.00  0.00    -0.237 OA
ATOM    100  O   UNL A   1      52.726  25.983  34.296  1.00  0.00    -0.744 OA
ENDBRANCH  93  97
ENDBRANCH  67  90
ENDBRANCH  41  42
ENDBRANCH  34  36
ENDBRANCH  33  34
ENDBRANCH  32  33
ENDBRANCH  31  32
ENDBRANCH  30  31
ENDBRANCH  29  30
ENDBRANCH   1  29
TORSDOF 24
ENDMDL
