MODEL 1
REMARK VINA RESULT:     -10.4      0.000      0.000
REMARK SMILES O=C(CCC(=O)OCCOCCOCCOC(=O)c1ccc(-c2c3nc(c(-c4cc(S(=O)(=O)[O-])ccc4F)c4ccc([nH]4)c(-c4cc(S(=O)(=O)[O-])ccc4F)c4nc(c(-c5cc(S(=O)(=O)[O-])ccc5F)c5ccc2[nH]5)C=C4)C=C3)cc1)Nc1ccc(Br)c([N+](=O)[O-])c1
REMARK SMILES IDX 11 1 10 2 9 3 8 4 7 5 5 6 6 7 4 8 3 9 2 10 1 11 82 12 83 14
REMARK SMILES IDX 84 15 92 16 85 17 88 18 86 19 87 20 89 21 90 22 91 23 12 24
REMARK SMILES IDX 13 25 14 26 15 27 16 28 17 29 18 30 19 31 20 32 81 33 21 34
REMARK SMILES IDX 80 35 22 36 23 37 24 38 74 39 25 40 79 41 73 42 75 43 26 44
REMARK SMILES IDX 78 45 72 46 71 47 27 49 59 50 39 51 58 52 40 53 43 54 57 55
REMARK SMILES IDX 76 56 41 57 42 58 56 60 77 61 44 62 28 63 29 64 37 65 30 66
REMARK SMILES IDX 36 67 38 68 35 69 31 70 32 71 33 72 34 73 60 74 61 75 69 76
REMARK SMILES IDX 62 77 68 78 70 79 67 80 63 81 64 82 65 83 66 84 45 85 46 86
REMARK SMILES IDX 54 87 47 88 53 89 55 90 52 91 48 92 49 93 50 94 51 95
REMARK H PARENT 82 13 75 48 43 59
REMARK Flexibility Score: inf
ROOT
ATOM      1  C   UNL A   1      33.101  28.223  26.287  1.00  0.00     0.188 C 
ENDROOT
BRANCH   1   2
ATOM      2  O   UNL A   1      33.284  27.740  24.959  1.00  0.00    -0.376 OA
BRANCH   2   3
ATOM      3  C   UNL A   1      33.564  28.718  23.960  1.00  0.00     0.202 C 
BRANCH   3   4
ATOM      4  C   UNL A   1      32.714  28.616  22.685  1.00  0.00     0.261 C 
BRANCH   4   5
ATOM      5  O   UNL A   1      31.884  27.427  22.633  1.00  0.00    -0.463 OA
BRANCH   5   6
ATOM      6  C   UNL A   1      30.539  27.638  22.592  1.00  0.00     0.306 C 
ATOM      7  O   UNL A   1      30.005  28.502  21.906  1.00  0.00    -0.252 OA
BRANCH   6   8
ATOM      8  C   UNL A   1      29.716  26.656  23.412  1.00  0.00     0.132 C 
BRANCH   8   9
ATOM      9  C   UNL A   1      29.863  26.556  24.927  1.00  0.00     0.112 C 
BRANCH   9  10
ATOM     10  C   UNL A   1      30.688  25.388  25.429  1.00  0.00     0.224 C 
ATOM     11  O   UNL A   1      30.544  24.928  26.557  1.00  0.00    -0.275 OA
ATOM     12  N   UNL A   1      31.604  24.943  24.503  1.00  0.00    -0.326 N 
ATOM     13  H   UNL A   1      31.657  25.441  23.655  1.00  0.00     0.169 HD
BRANCH  12  14
ATOM     14  C   UNL A   1      32.466  23.851  24.649  1.00  0.00     0.048 A 
ATOM     15  C   UNL A   1      33.812  24.135  24.871  1.00  0.00     0.028 A 
ATOM     16  C   UNL A   1      32.044  22.529  24.535  1.00  0.00     0.113 A 
ATOM     17  C   UNL A   1      34.731  23.102  25.028  1.00  0.00     0.025 A 
ATOM     18  C   UNL A   1      32.984  21.482  24.623  1.00  0.00     0.285 A 
ATOM     19  C   UNL A   1      34.332  21.766  24.893  1.00  0.00     0.095 A 
ATOM     20  Br  UNL A   1      35.738  20.495  25.060  1.00  0.00    -0.043 Br
BRANCH  18  21
ATOM     21  N   UNL A   1      32.495  20.127  24.360  1.00  0.00     0.064 N 
ATOM     22  O   UNL A   1      32.151  19.419  25.314  1.00  0.00    -0.258 OA
ATOM     23  O   UNL A   1      32.445  19.764  23.176  1.00  0.00    -0.258 OA
ENDBRANCH  18  21
ENDBRANCH  12  14
ENDBRANCH   9  10
ENDBRANCH   8   9
ENDBRANCH   6   8
ENDBRANCH   5   6
ENDBRANCH   4   5
ENDBRANCH   3   4
ENDBRANCH   2   3
ENDBRANCH   1   2
BRANCH   1  24
ATOM     24  C   UNL A   1      31.865  29.099  26.490  1.00  0.00     0.188 C 
BRANCH  24  25
ATOM     25  O   UNL A   1      32.093  30.405  27.009  1.00  0.00    -0.376 OA
BRANCH  25  26
ATOM     26  C   UNL A   1      31.462  31.475  26.287  1.00  0.00     0.202 C 
BRANCH  26  27
ATOM     27  C   UNL A   1      31.751  32.928  26.744  1.00  0.00     0.261 C 
BRANCH  27  28
ATOM     28  O   UNL A   1      32.301  33.099  28.071  1.00  0.00    -0.460 OA
BRANCH  28  29
ATOM     29  C   UNL A   1      33.307  33.999  28.221  1.00  0.00     0.338 C 
ATOM     30  O   UNL A   1      33.168  35.192  28.393  1.00  0.00    -0.246 OA
BRANCH  29  31
ATOM     31  C   UNL A   1      34.588  33.263  28.454  1.00  0.00     0.060 A 
ATOM     32  C   UNL A   1      34.499  31.913  28.827  1.00  0.00     0.016 A 
ATOM     33  C   UNL A   1      35.846  33.840  28.257  1.00  0.00     0.016 A 
ATOM     34  C   UNL A   1      35.654  31.164  29.073  1.00  0.00     0.010 A 
ATOM     35  C   UNL A   1      37.007  33.091  28.518  1.00  0.00     0.010 A 
ATOM     36  C   UNL A   1      36.916  31.764  28.979  1.00  0.00    -0.014 A 
BRANCH  36  37
ATOM     37  C   UNL A   1      38.080  31.099  29.633  1.00  0.00     0.031 A 
ATOM     38  C   UNL A   1      38.370  31.459  31.072  1.00  0.00     0.074 A 
ATOM     39  C   UNL A   1      38.812  30.145  29.027  1.00  0.00     0.049 A 
ATOM     40  N   UNL A   1      39.320  31.037  31.866  1.00  0.00    -0.248 NA
ATOM     41  C   UNL A   1      37.458  32.432  31.694  1.00  0.00     0.031 C 
ATOM     42  C   UNL A   1      38.609  29.655  27.665  1.00  0.00     0.029 A 
ATOM     43  N   UNL A   1      39.880  29.410  29.488  1.00  0.00    -0.354 N 
ATOM     44  C   UNL A   1      39.111  31.682  33.081  1.00  0.00     0.074 A 
ATOM     45  C   UNL A   1      37.984  32.570  32.899  1.00  0.00     0.031 C 
ATOM     46  C   UNL A   1      39.528  28.708  27.399  1.00  0.00     0.029 A 
ATOM     47  C   UNL A   1      40.408  28.543  28.556  1.00  0.00     0.049 A 
ATOM     48  H   UNL A   1      40.235  29.495  30.403  1.00  0.00     0.167 HD
ATOM     49  C   UNL A   1      39.777  31.535  34.254  1.00  0.00     0.034 A 
ATOM     50  C   UNL A   1      41.487  27.732  28.623  1.00  0.00     0.034 A 
ATOM     51  C   UNL A   1      40.910  30.664  34.433  1.00  0.00     0.049 A 
ATOM     52  C   UNL A   1      42.281  27.663  29.913  1.00  0.00     0.074 A 
ATOM     53  C   UNL A   1      41.681  30.474  35.567  1.00  0.00     0.029 A 
ATOM     54  N   UNL A   1      41.439  29.836  33.451  1.00  0.00    -0.354 N 
ATOM     55  N   UNL A   1      42.081  28.295  31.048  1.00  0.00    -0.248 NA
ATOM     56  C   UNL A   1      43.434  26.750  29.935  1.00  0.00     0.031 C 
ATOM     57  C   UNL A   1      42.713  29.583  35.253  1.00  0.00     0.029 A 
ATOM     58  C   UNL A   1      42.532  29.144  33.951  1.00  0.00     0.049 A 
ATOM     59  H   UNL A   1      41.089  29.753  32.535  1.00  0.00     0.167 HD
ATOM     60  C   UNL A   1      43.053  27.815  31.928  1.00  0.00     0.074 A 
ATOM     61  C   UNL A   1      43.822  26.831  31.198  1.00  0.00     0.031 C 
ATOM     62  C   UNL A   1      43.287  28.155  33.223  1.00  0.00     0.034 A 
BRANCH  49  63
ATOM     63  C   UNL A   1      39.307  32.368  35.422  1.00  0.00     0.023 A 
ATOM     64  C   UNL A   1      39.696  33.711  35.572  1.00  0.00     0.031 A 
ATOM     65  C   UNL A   1      38.482  31.808  36.413  1.00  0.00     0.131 A 
ATOM     66  C   UNL A   1      39.315  34.427  36.716  1.00  0.00     0.055 A 
ATOM     67  C   UNL A   1      38.036  32.552  37.507  1.00  0.00     0.041 A 
ATOM     68  F   UNL A   1      38.102  30.521  36.340  1.00  0.00    -0.206 F 
ATOM     69  C   UNL A   1      38.464  33.866  37.670  1.00  0.00     0.022 A 
BRANCH  66  70
ATOM     70  S   UNL A   1      40.066  36.052  37.010  1.00  0.00     0.124 S 
ATOM     71  O   UNL A   1      39.223  36.575  38.083  1.00  0.00    -0.237 OA
ATOM     72  O   UNL A   1      41.433  35.706  37.381  1.00  0.00    -0.237 OA
ATOM     73  O   UNL A   1      39.920  36.732  35.725  1.00  0.00    -0.744 OA
ENDBRANCH  66  70
ENDBRANCH  49  63
BRANCH  50  74
ATOM     74  C   UNL A   1      41.937  26.946  27.431  1.00  0.00     0.023 A 
ATOM     75  C   UNL A   1      41.742  25.556  27.347  1.00  0.00     0.031 A 
ATOM     76  C   UNL A   1      42.679  27.562  26.406  1.00  0.00     0.131 A 
ATOM     77  C   UNL A   1      42.345  24.822  26.311  1.00  0.00     0.055 A 
ATOM     78  C   UNL A   1      43.215  26.837  25.339  1.00  0.00     0.041 A 
ATOM     79  F   UNL A   1      42.908  28.885  26.435  1.00  0.00    -0.206 F 
ATOM     80  C   UNL A   1      43.068  25.456  25.299  1.00  0.00     0.022 A 
BRANCH  77  81
ATOM     81  S   UNL A   1      42.295  23.008  26.385  1.00  0.00     0.124 S 
ATOM     82  O   UNL A   1      43.380  22.721  27.316  1.00  0.00    -0.237 OA
ATOM     83  O   UNL A   1      40.943  22.764  26.878  1.00  0.00    -0.237 OA
ATOM     84  O   UNL A   1      42.534  22.605  25.001  1.00  0.00    -0.744 OA
ENDBRANCH  77  81
ENDBRANCH  50  74
BRANCH  62  85
ATOM     85  C   UNL A   1      44.368  27.391  33.958  1.00  0.00     0.023 A 
ATOM     86  C   UNL A   1      44.086  26.257  34.740  1.00  0.00     0.031 A 
ATOM     87  C   UNL A   1      45.703  27.833  33.901  1.00  0.00     0.131 A 
ATOM     88  C   UNL A   1      45.104  25.658  35.499  1.00  0.00     0.055 A 
ATOM     89  C   UNL A   1      46.726  27.184  34.595  1.00  0.00     0.041 A 
ATOM     90  F   UNL A   1      46.037  28.909  33.172  1.00  0.00    -0.206 F 
ATOM     91  C   UNL A   1      46.425  26.103  35.417  1.00  0.00     0.022 A 
BRANCH  88  92
ATOM     92  S   UNL A   1      44.652  24.380  36.705  1.00  0.00     0.124 S 
ATOM     93  O   UNL A   1      43.397  24.898  37.239  1.00  0.00    -0.237 OA
ATOM     94  O   UNL A   1      44.547  23.188  35.870  1.00  0.00    -0.237 OA
ATOM     95  O   UNL A   1      45.774  24.382  37.643  1.00  0.00    -0.744 OA
ENDBRANCH  88  92
ENDBRANCH  62  85
ENDBRANCH  36  37
ENDBRANCH  29  31
ENDBRANCH  28  29
ENDBRANCH  27  28
ENDBRANCH  26  27
ENDBRANCH  25  26
ENDBRANCH  24  25
ENDBRANCH   1  24
TORSDOF 24
ENDMDL
MODEL 2
REMARK VINA RESULT:      -9.4      1.705      2.224
REMARK SMILES O=C(CCC(=O)OCCOCCOCCOC(=O)c1ccc(-c2c3nc(c(-c4cc(S(=O)(=O)[O-])ccc4F)c4ccc([nH]4)c(-c4cc(S(=O)(=O)[O-])ccc4F)c4nc(c(-c5cc(S(=O)(=O)[O-])ccc5F)c5ccc2[nH]5)C=C4)C=C3)cc1)Nc1ccc(Br)c([N+](=O)[O-])c1
REMARK SMILES IDX 11 1 10 2 9 3 8 4 7 5 5 6 6 7 4 8 3 9 2 10 1 11 82 12 83 14
REMARK SMILES IDX 84 15 92 16 85 17 88 18 86 19 87 20 89 21 90 22 91 23 12 24
REMARK SMILES IDX 13 25 14 26 15 27 16 28 17 29 18 30 19 31 20 32 81 33 21 34
REMARK SMILES IDX 80 35 22 36 23 37 24 38 74 39 25 40 79 41 73 42 75 43 26 44
REMARK SMILES IDX 78 45 72 46 71 47 27 49 59 50 39 51 58 52 40 53 43 54 57 55
REMARK SMILES IDX 76 56 41 57 42 58 56 60 77 61 44 62 28 63 29 64 37 65 30 66
REMARK SMILES IDX 36 67 38 68 35 69 31 70 32 71 33 72 34 73 60 74 61 75 69 76
REMARK SMILES IDX 62 77 68 78 70 79 67 80 63 81 64 82 65 83 66 84 45 85 46 86
REMARK SMILES IDX 54 87 47 88 53 89 55 90 52 91 48 92 49 93 50 94 51 95
REMARK H PARENT 82 13 75 48 43 59
REMARK Flexibility Score: inf
ROOT
ATOM      1  C   UNL A   1      33.159  28.870  25.999  1.00  0.00     0.188 C 
ENDROOT
BRANCH   1   2
ATOM      2  O   UNL A   1      33.287  29.071  24.594  1.00  0.00    -0.376 OA
BRANCH   2   3
ATOM      3  C   UNL A   1      32.080  29.045  23.836  1.00  0.00     0.202 C 
BRANCH   3   4
ATOM      4  C   UNL A   1      31.741  27.694  23.187  1.00  0.00     0.261 C 
BRANCH   4   5
ATOM      5  O   UNL A   1      32.322  27.521  21.869  1.00  0.00    -0.463 OA
BRANCH   5   6
ATOM      6  C   UNL A   1      33.092  26.411  21.697  1.00  0.00     0.306 C 
ATOM      7  O   UNL A   1      33.083  25.724  20.682  1.00  0.00    -0.252 OA
BRANCH   6   8
ATOM      8  C   UNL A   1      34.047  26.115  22.845  1.00  0.00     0.132 C 
BRANCH   8   9
ATOM      9  C   UNL A   1      33.708  25.094  23.926  1.00  0.00     0.112 C 
BRANCH   9  10
ATOM     10  C   UNL A   1      34.060  23.656  23.601  1.00  0.00     0.224 C 
ATOM     11  O   UNL A   1      34.550  23.336  22.523  1.00  0.00    -0.275 OA
ATOM     12  N   UNL A   1      33.747  22.785  24.619  1.00  0.00    -0.326 N 
ATOM     13  H   UNL A   1      33.301  23.168  25.410  1.00  0.00     0.169 HD
BRANCH  12  14
ATOM     14  C   UNL A   1      34.001  21.410  24.641  1.00  0.00     0.048 A 
ATOM     15  C   UNL A   1      35.308  21.014  24.916  1.00  0.00     0.028 A 
ATOM     16  C   UNL A   1      33.029  20.453  24.358  1.00  0.00     0.113 A 
ATOM     17  C   UNL A   1      35.639  19.663  24.958  1.00  0.00     0.025 A 
ATOM     18  C   UNL A   1      33.378  19.087  24.329  1.00  0.00     0.285 A 
ATOM     19  C   UNL A   1      34.683  18.685  24.651  1.00  0.00     0.095 A 
ATOM     20  Br  UNL A   1      35.336  16.899  24.680  1.00  0.00    -0.043 Br
BRANCH  18  21
ATOM     21  N   UNL A   1      32.343  18.147  23.893  1.00  0.00     0.064 N 
ATOM     22  O   UNL A   1      32.191  17.944  22.683  1.00  0.00    -0.258 OA
ATOM     23  O   UNL A   1      31.672  17.594  24.777  1.00  0.00    -0.258 OA
ENDBRANCH  18  21
ENDBRANCH  12  14
ENDBRANCH   9  10
ENDBRANCH   8   9
ENDBRANCH   6   8
ENDBRANCH   5   6
ENDBRANCH   4   5
ENDBRANCH   3   4
ENDBRANCH   2   3
ENDBRANCH   1   2
BRANCH   1  24
ATOM     24  C   UNL A   1      31.845  29.362  26.604  1.00  0.00     0.188 C 
BRANCH  24  25
ATOM     25  O   UNL A   1      31.878  30.639  27.235  1.00  0.00    -0.376 OA
BRANCH  25  26
ATOM     26  C   UNL A   1      31.547  31.753  26.390  1.00  0.00     0.202 C 
BRANCH  26  27
ATOM     27  C   UNL A   1      31.791  33.180  26.945  1.00  0.00     0.261 C 
BRANCH  27  28
ATOM     28  O   UNL A   1      32.467  33.280  28.220  1.00  0.00    -0.460 OA
BRANCH  28  29
ATOM     29  C   UNL A   1      33.526  34.126  28.302  1.00  0.00     0.338 C 
ATOM     30  O   UNL A   1      33.461  35.329  28.433  1.00  0.00    -0.246 OA
BRANCH  29  31
ATOM     31  C   UNL A   1      34.772  33.325  28.521  1.00  0.00     0.060 A 
ATOM     32  C   UNL A   1      34.621  32.008  28.979  1.00  0.00     0.016 A 
ATOM     33  C   UNL A   1      36.051  33.810  28.231  1.00  0.00     0.016 A 
ATOM     34  C   UNL A   1      35.740  31.203  29.217  1.00  0.00     0.010 A 
ATOM     35  C   UNL A   1      37.176  33.007  28.484  1.00  0.00     0.010 A 
ATOM     36  C   UNL A   1      37.029  31.717  29.028  1.00  0.00    -0.014 A 
BRANCH  36  37
ATOM     37  C   UNL A   1      38.183  31.020  29.669  1.00  0.00     0.031 A 
ATOM     38  C   UNL A   1      38.482  31.348  31.113  1.00  0.00     0.074 A 
ATOM     39  C   UNL A   1      38.897  30.065  29.043  1.00  0.00     0.049 A 
ATOM     40  N   UNL A   1      39.425  30.895  31.897  1.00  0.00    -0.248 NA
ATOM     41  C   UNL A   1      37.587  32.325  31.755  1.00  0.00     0.031 C 
ATOM     42  C   UNL A   1      38.683  29.603  27.673  1.00  0.00     0.029 A 
ATOM     43  N   UNL A   1      39.953  29.303  29.489  1.00  0.00    -0.354 N 
ATOM     44  C   UNL A   1      39.229  31.522  33.125  1.00  0.00     0.074 A 
ATOM     45  C   UNL A   1      38.118  32.432  32.960  1.00  0.00     0.031 C 
ATOM     46  C   UNL A   1      39.585  28.646  27.388  1.00  0.00     0.029 A 
ATOM     47  C   UNL A   1      40.464  28.444  28.540  1.00  0.00     0.049 A 
ATOM     48  H   UNL A   1      40.311  29.365  30.404  1.00  0.00     0.167 HD
ATOM     49  C   UNL A   1      39.895  31.341  34.293  1.00  0.00     0.034 A 
ATOM     50  C   UNL A   1      41.528  27.613  28.589  1.00  0.00     0.034 A 
ATOM     51  C   UNL A   1      41.013  30.447  34.453  1.00  0.00     0.049 A 
ATOM     52  C   UNL A   1      42.323  27.506  29.877  1.00  0.00     0.074 A 
ATOM     53  C   UNL A   1      41.782  30.223  35.582  1.00  0.00     0.029 A 
ATOM     54  N   UNL A   1      41.526  29.629  33.456  1.00  0.00    -0.354 N 
ATOM     55  N   UNL A   1      42.136  28.121  31.023  1.00  0.00    -0.248 NA
ATOM     56  C   UNL A   1      43.460  26.574  29.879  1.00  0.00     0.031 C 
ATOM     57  C   UNL A   1      42.798  29.320  35.250  1.00  0.00     0.029 A 
ATOM     58  C   UNL A   1      42.607  28.909  33.941  1.00  0.00     0.049 A 
ATOM     59  H   UNL A   1      41.173  29.568  32.539  1.00  0.00     0.167 HD
ATOM     60  C   UNL A   1      43.102  27.608  31.892  1.00  0.00     0.074 A 
ATOM     61  C   UNL A   1      43.852  26.624  31.143  1.00  0.00     0.031 C 
ATOM     62  C   UNL A   1      43.344  27.920  33.193  1.00  0.00     0.034 A 
BRANCH  49  63
ATOM     63  C   UNL A   1      39.441  32.160  35.477  1.00  0.00     0.023 A 
ATOM     64  C   UNL A   1      39.931  33.459  35.704  1.00  0.00     0.031 A 
ATOM     65  C   UNL A   1      38.529  31.630  36.406  1.00  0.00     0.131 A 
ATOM     66  C   UNL A   1      39.559  34.155  36.863  1.00  0.00     0.055 A 
ATOM     67  C   UNL A   1      38.096  32.362  37.513  1.00  0.00     0.041 A 
ATOM     68  F   UNL A   1      38.050  30.384  36.258  1.00  0.00    -0.206 F 
ATOM     69  C   UNL A   1      38.622  33.627  37.754  1.00  0.00     0.022 A 
BRANCH  66  70
ATOM     70  S   UNL A   1      40.425  35.698  37.262  1.00  0.00     0.124 S 
ATOM     71  O   UNL A   1      41.774  35.410  36.780  1.00  0.00    -0.237 OA
ATOM     72  O   UNL A   1      39.673  36.689  36.501  1.00  0.00    -0.237 OA
ATOM     73  O   UNL A   1      40.297  35.796  38.715  1.00  0.00    -0.744 OA
ENDBRANCH  66  70
ENDBRANCH  49  63
BRANCH  50  74
ATOM     74  C   UNL A   1      41.962  26.841  27.382  1.00  0.00     0.023 A 
ATOM     75  C   UNL A   1      41.742  25.458  27.273  1.00  0.00     0.031 A 
ATOM     76  C   UNL A   1      42.714  27.463  26.368  1.00  0.00     0.131 A 
ATOM     77  C   UNL A   1      42.331  24.732  26.223  1.00  0.00     0.055 A 
ATOM     78  C   UNL A   1      43.235  26.749  25.287  1.00  0.00     0.041 A 
ATOM     79  F   UNL A   1      42.967  28.781  26.421  1.00  0.00    -0.206 F 
ATOM     80  C   UNL A   1      43.063  25.371  25.221  1.00  0.00     0.022 A 
BRANCH  77  81
ATOM     81  S   UNL A   1      42.248  22.918  26.263  1.00  0.00     0.124 S 
ATOM     82  O   UNL A   1      42.829  22.569  24.972  1.00  0.00    -0.237 OA
ATOM     83  O   UNL A   1      43.055  22.605  27.437  1.00  0.00    -0.237 OA
ATOM     84  O   UNL A   1      40.818  22.647  26.400  1.00  0.00    -0.744 OA
ENDBRANCH  77  81
ENDBRANCH  50  74
BRANCH  62  85
ATOM     85  C   UNL A   1      44.412  27.124  33.911  1.00  0.00     0.023 A 
ATOM     86  C   UNL A   1      45.753  27.543  33.963  1.00  0.00     0.031 A 
ATOM     87  C   UNL A   1      44.083  25.902  34.527  1.00  0.00     0.131 A 
ATOM     88  C   UNL A   1      46.726  26.708  34.536  1.00  0.00     0.055 A 
ATOM     89  C   UNL A   1      45.042  25.114  35.166  1.00  0.00     0.041 A 
ATOM     90  F   UNL A   1      42.819  25.447  34.513  1.00  0.00    -0.206 F 
ATOM     91  C   UNL A   1      46.377  25.506  35.154  1.00  0.00     0.022 A 
BRANCH  88  92
ATOM     92  S   UNL A   1      48.476  27.149  34.336  1.00  0.00     0.124 S 
ATOM     93  O   UNL A   1      48.492  28.536  34.785  1.00  0.00    -0.237 OA
ATOM     94  O   UNL A   1      49.140  26.187  35.209  1.00  0.00    -0.237 OA
ATOM     95  O   UNL A   1      48.716  26.956  32.907  1.00  0.00    -0.744 OA
ENDBRANCH  88  92
ENDBRANCH  62  85
ENDBRANCH  36  37
ENDBRANCH  29  31
ENDBRANCH  28  29
ENDBRANCH  27  28
ENDBRANCH  26  27
ENDBRANCH  25  26
ENDBRANCH  24  25
ENDBRANCH   1  24
TORSDOF 24
ENDMDL
MODEL 3
REMARK VINA RESULT:      -9.1      2.195      3.054
REMARK SMILES O=C(CCC(=O)OCCOCCOCCOC(=O)c1ccc(-c2c3nc(c(-c4cc(S(=O)(=O)[O-])ccc4F)c4ccc([nH]4)c(-c4cc(S(=O)(=O)[O-])ccc4F)c4nc(c(-c5cc(S(=O)(=O)[O-])ccc5F)c5ccc2[nH]5)C=C4)C=C3)cc1)Nc1ccc(Br)c([N+](=O)[O-])c1
REMARK SMILES IDX 11 1 10 2 9 3 8 4 7 5 5 6 6 7 4 8 3 9 2 10 1 11 82 12 83 14
REMARK SMILES IDX 84 15 92 16 85 17 88 18 86 19 87 20 89 21 90 22 91 23 12 24
REMARK SMILES IDX 13 25 14 26 15 27 16 28 17 29 18 30 19 31 20 32 81 33 21 34
REMARK SMILES IDX 80 35 22 36 23 37 24 38 74 39 25 40 79 41 73 42 75 43 26 44
REMARK SMILES IDX 78 45 72 46 71 47 27 49 59 50 39 51 58 52 40 53 43 54 57 55
REMARK SMILES IDX 76 56 41 57 42 58 56 60 77 61 44 62 28 63 29 64 37 65 30 66
REMARK SMILES IDX 36 67 38 68 35 69 31 70 32 71 33 72 34 73 60 74 61 75 69 76
REMARK SMILES IDX 62 77 68 78 70 79 67 80 63 81 64 82 65 83 66 84 45 85 46 86
REMARK SMILES IDX 54 87 47 88 53 89 55 90 52 91 48 92 49 93 50 94 51 95
REMARK H PARENT 82 13 75 48 43 59
REMARK Flexibility Score: inf
ROOT
ATOM      1  C   UNL A   1      31.288  28.784  24.101  1.00  0.00     0.188 C 
ENDROOT
BRANCH   1   2
ATOM      2  O   UNL A   1      31.526  27.436  23.702  1.00  0.00    -0.376 OA
BRANCH   2   3
ATOM      3  C   UNL A   1      31.433  26.445  24.723  1.00  0.00     0.202 C 
BRANCH   3   4
ATOM      4  C   UNL A   1      32.028  25.075  24.364  1.00  0.00     0.261 C 
BRANCH   4   5
ATOM      5  O   UNL A   1      33.381  25.148  23.845  1.00  0.00    -0.463 OA
BRANCH   5   6
ATOM      6  C   UNL A   1      33.658  24.340  22.784  1.00  0.00     0.306 C 
ATOM      7  O   UNL A   1      33.287  24.568  21.638  1.00  0.00    -0.252 OA
BRANCH   6   8
ATOM      8  C   UNL A   1      34.547  23.149  23.106  1.00  0.00     0.132 C 
BRANCH   8   9
ATOM      9  C   UNL A   1      35.134  22.940  24.498  1.00  0.00     0.112 C 
BRANCH   9  10
ATOM     10  C   UNL A   1      35.068  21.523  25.031  1.00  0.00     0.224 C 
ATOM     11  O   UNL A   1      35.737  21.159  25.992  1.00  0.00    -0.275 OA
ATOM     12  N   UNL A   1      34.214  20.720  24.311  1.00  0.00    -0.326 N 
ATOM     13  H   UNL A   1      33.782  21.124  23.523  1.00  0.00     0.169 HD
BRANCH  12  14
ATOM     14  C   UNL A   1      33.898  19.386  24.589  1.00  0.00     0.048 A 
ATOM     15  C   UNL A   1      32.556  19.090  24.819  1.00  0.00     0.028 A 
ATOM     16  C   UNL A   1      34.859  18.382  24.689  1.00  0.00     0.113 A 
ATOM     17  C   UNL A   1      32.162  17.785  25.101  1.00  0.00     0.025 A 
ATOM     18  C   UNL A   1      34.472  17.074  25.043  1.00  0.00     0.285 A 
ATOM     19  C   UNL A   1      33.115  16.765  25.230  1.00  0.00     0.095 A 
ATOM     20  Br  UNL A   1      32.401  15.065  25.696  1.00  0.00    -0.043 Br
BRANCH  18  21
ATOM     21  N   UNL A   1      35.544  16.101  25.262  1.00  0.00     0.064 N 
ATOM     22  O   UNL A   1      35.533  15.044  24.621  1.00  0.00    -0.258 OA
ATOM     23  O   UNL A   1      36.421  16.402  26.085  1.00  0.00    -0.258 OA
ENDBRANCH  18  21
ENDBRANCH  12  14
ENDBRANCH   9  10
ENDBRANCH   8   9
ENDBRANCH   6   8
ENDBRANCH   5   6
ENDBRANCH   4   5
ENDBRANCH   3   4
ENDBRANCH   2   3
ENDBRANCH   1   2
BRANCH   1  24
ATOM     24  C   UNL A   1      31.822  29.149  25.485  1.00  0.00     0.188 C 
BRANCH  24  25
ATOM     25  O   UNL A   1      33.212  29.450  25.568  1.00  0.00    -0.376 OA
BRANCH  25  26
ATOM     26  C   UNL A   1      33.624  30.132  26.764  1.00  0.00     0.202 C 
BRANCH  26  27
ATOM     27  C   UNL A   1      32.770  31.333  27.245  1.00  0.00     0.261 C 
BRANCH  27  28
ATOM     28  O   UNL A   1      33.250  32.655  26.906  1.00  0.00    -0.460 OA
BRANCH  28  29
ATOM     29  C   UNL A   1      33.449  33.529  27.927  1.00  0.00     0.338 C 
ATOM     30  O   UNL A   1      32.668  34.383  28.288  1.00  0.00    -0.246 OA
BRANCH  29  31
ATOM     31  C   UNL A   1      34.627  33.077  28.731  1.00  0.00     0.060 A 
ATOM     32  C   UNL A   1      35.902  33.448  28.275  1.00  0.00     0.016 A 
ATOM     33  C   UNL A   1      34.506  32.368  29.930  1.00  0.00     0.016 A 
ATOM     34  C   UNL A   1      37.050  33.054  28.968  1.00  0.00     0.010 A 
ATOM     35  C   UNL A   1      35.660  31.959  30.619  1.00  0.00     0.010 A 
ATOM     36  C   UNL A   1      36.941  32.255  30.113  1.00  0.00    -0.014 A 
BRANCH  36  37
ATOM     37  C   UNL A   1      38.143  31.508  30.588  1.00  0.00     0.031 A 
ATOM     38  C   UNL A   1      38.695  31.867  31.948  1.00  0.00     0.074 A 
ATOM     39  C   UNL A   1      38.687  30.487  29.898  1.00  0.00     0.049 A 
ATOM     40  N   UNL A   1      39.728  31.382  32.587  1.00  0.00    -0.248 NA
ATOM     41  C   UNL A   1      37.977  32.922  32.681  1.00  0.00     0.031 C 
ATOM     42  C   UNL A   1      38.222  29.992  28.604  1.00  0.00     0.029 A 
ATOM     43  N   UNL A   1      39.756  29.675  30.200  1.00  0.00    -0.354 N 
ATOM     44  C   UNL A   1      39.774  32.063  33.800  1.00  0.00     0.074 A 
ATOM     45  C   UNL A   1      38.705  33.037  33.778  1.00  0.00     0.031 C 
ATOM     46  C   UNL A   1      39.008  28.969  28.220  1.00  0.00     0.029 A 
ATOM     47  C   UNL A   1      40.053  28.752  29.221  1.00  0.00     0.049 A 
ATOM     48  H   UNL A   1      40.264  29.746  31.041  1.00  0.00     0.167 HD
ATOM     49  C   UNL A   1      40.612  31.882  34.851  1.00  0.00     0.034 A 
ATOM     50  C   UNL A   1      41.061  27.856  29.134  1.00  0.00     0.034 A 
ATOM     51  C   UNL A   1      41.688  30.925  34.868  1.00  0.00     0.049 A 
ATOM     52  C   UNL A   1      42.051  27.745  30.278  1.00  0.00     0.074 A 
ATOM     53  C   UNL A   1      42.620  30.692  35.865  1.00  0.00     0.029 A 
ATOM     54  N   UNL A   1      41.981  30.040  33.838  1.00  0.00    -0.354 N 
ATOM     55  N   UNL A   1      42.092  28.410  31.410  1.00  0.00    -0.248 NA
ATOM     56  C   UNL A   1      43.117  26.742  30.138  1.00  0.00     0.031 C 
ATOM     57  C   UNL A   1      43.512  29.714  35.413  1.00  0.00     0.029 A 
ATOM     58  C   UNL A   1      43.084  29.269  34.173  1.00  0.00     0.049 A 
ATOM     59  H   UNL A   1      41.478  29.969  32.995  1.00  0.00     0.167 HD
ATOM     60  C   UNL A   1      43.157  27.868  32.133  1.00  0.00     0.074 A 
ATOM     61  C   UNL A   1      43.714  26.812  31.317  1.00  0.00     0.031 C 
ATOM     62  C   UNL A   1      43.628  28.209  33.360  1.00  0.00     0.034 A 
BRANCH  49  63
ATOM     63  C   UNL A   1      40.409  32.771  36.055  1.00  0.00     0.023 A 
ATOM     64  C   UNL A   1      39.571  32.388  37.118  1.00  0.00     0.031 A 
ATOM     65  C   UNL A   1      41.039  34.025  36.132  1.00  0.00     0.131 A 
ATOM     66  C   UNL A   1      39.334  33.276  38.177  1.00  0.00     0.055 A 
ATOM     67  C   UNL A   1      40.865  34.869  37.230  1.00  0.00     0.041 A 
ATOM     68  F   UNL A   1      41.826  34.457  35.134  1.00  0.00    -0.206 F 
ATOM     69  C   UNL A   1      39.998  34.502  38.255  1.00  0.00     0.022 A 
BRANCH  66  70
ATOM     70  S   UNL A   1      38.036  32.867  39.376  1.00  0.00     0.124 S 
ATOM     71  O   UNL A   1      37.873  34.138  40.078  1.00  0.00    -0.237 OA
ATOM     72  O   UNL A   1      36.928  32.463  38.518  1.00  0.00    -0.237 OA
ATOM     73  O   UNL A   1      38.632  31.796  40.172  1.00  0.00    -0.744 OA
ENDBRANCH  66  70
ENDBRANCH  49  63
BRANCH  50  74
ATOM     74  C   UNL A   1      41.244  27.016  27.908  1.00  0.00     0.023 A 
ATOM     75  C   UNL A   1      40.830  25.673  27.867  1.00  0.00     0.031 A 
ATOM     76  C   UNL A   1      41.948  27.516  26.797  1.00  0.00     0.131 A 
ATOM     77  C   UNL A   1      41.190  24.860  26.778  1.00  0.00     0.055 A 
ATOM     78  C   UNL A   1      42.239  26.722  25.685  1.00  0.00     0.041 A 
ATOM     79  F   UNL A   1      42.378  28.788  26.781  1.00  0.00    -0.206 F 
ATOM     80  C   UNL A   1      41.879  25.380  25.681  1.00  0.00     0.022 A 
BRANCH  77  81
ATOM     81  S   UNL A   1      40.872  23.074  26.881  1.00  0.00     0.124 S 
ATOM     82  O   UNL A   1      41.584  22.581  25.709  1.00  0.00    -0.237 OA
ATOM     83  O   UNL A   1      41.455  22.739  28.176  1.00  0.00    -0.237 OA
ATOM     84  O   UNL A   1      39.415  22.985  26.813  1.00  0.00    -0.744 OA
ENDBRANCH  77  81
ENDBRANCH  50  74
BRANCH  62  85
ATOM     85  C   UNL A   1      44.754  27.372  33.931  1.00  0.00     0.023 A 
ATOM     86  C   UNL A   1      44.516  26.231  34.718  1.00  0.00     0.031 A 
ATOM     87  C   UNL A   1      46.091  27.749  33.710  1.00  0.00     0.131 A 
ATOM     88  C   UNL A   1      45.591  25.561  35.323  1.00  0.00     0.055 A 
ATOM     89  C   UNL A   1      47.160  27.031  34.250  1.00  0.00     0.041 A 
ATOM     90  F   UNL A   1      46.385  28.829  32.967  1.00  0.00    -0.206 F 
ATOM     91  C   UNL A   1      46.912  25.943  35.080  1.00  0.00     0.022 A 
BRANCH  88  92
ATOM     92  S   UNL A   1      45.232  24.273  36.550  1.00  0.00     0.124 S 
ATOM     93  O   UNL A   1      46.516  24.133  37.227  1.00  0.00    -0.237 OA
ATOM     94  O   UNL A   1      44.160  24.879  37.333  1.00  0.00    -0.237 OA
ATOM     95  O   UNL A   1      44.832  23.127  35.735  1.00  0.00    -0.744 OA
ENDBRANCH  88  92
ENDBRANCH  62  85
ENDBRANCH  36  37
ENDBRANCH  29  31
ENDBRANCH  28  29
ENDBRANCH  27  28
ENDBRANCH  26  27
ENDBRANCH  25  26
ENDBRANCH  24  25
ENDBRANCH   1  24
TORSDOF 24
ENDMDL
