MODEL 1
REMARK VINA RESULT:      -9.1      0.000      0.000
REMARK SMILES CC1(C)S[C@@H](c2cccc3c2sc2ccccc23)[NH2+][C@@H]1C(=O)OCCOCCOCCOC(=O)c1ccc(-c2c3nc(c(-c4cc(S(=O)(=O)[O-])ccc4F)c4ccc([nH]4)c(-c4cc(S(=O)(=O)[O-])ccc4F)c4nc(c(-c5cc(S(=O)(=O)[O-])ccc5F)c5ccc2[nH]5)C=C4)C=C3)cc1
REMARK SMILES IDX 28 1 27 2 26 3 25 4 24 5 23 6 21 7 22 8 20 9 1 10 2 11 3 12
REMARK SMILES IDX 4 13 5 14 19 15 6 18 7 19 11 20 8 21 10 22 12 23 9 24 18 25
REMARK SMILES IDX 13 26 17 27 14 28 16 29 15 30 29 31 30 32 31 33 32 34 33 35
REMARK SMILES IDX 34 36 35 37 36 38 97 39 37 40 96 41 38 42 39 43 40 44 90 45
REMARK SMILES IDX 41 46 95 47 89 48 91 49 42 50 94 51 88 52 87 53 43 55 75 56
REMARK SMILES IDX 55 57 74 58 56 59 59 60 73 61 92 62 57 63 58 64 72 66 93 67
REMARK SMILES IDX 60 68 44 69 45 70 53 71 46 72 52 73 54 74 51 75 47 76 48 77
REMARK SMILES IDX 49 78 50 79 76 80 77 81 85 82 78 83 84 84 86 85 83 86 79 87
REMARK SMILES IDX 80 88 81 89 82 90 61 91 62 92 70 93 63 94 69 95 71 96 68 97
REMARK SMILES IDX 64 98 65 99 66 100 67 101
REMARK H PARENT 19 16 19 17 91 54 59 65
REMARK Flexibility Score: inf
ROOT
ATOM      1  C   UNL A   1      36.541  31.656  28.947  1.00  0.00     0.188 C 
ENDROOT
BRANCH   1   2
ATOM      2  C   UNL A   1      36.011  30.472  28.102  1.00  0.00     0.188 C 
BRANCH   2   3
ATOM      3  O   UNL A   1      37.026  29.772  27.403  1.00  0.00    -0.376 OA
BRANCH   3   4
ATOM      4  C   UNL A   1      38.233  29.503  28.101  1.00  0.00     0.202 C 
BRANCH   4   5
ATOM      5  C   UNL A   1      38.625  28.031  28.290  1.00  0.00     0.261 C 
BRANCH   5   6
ATOM      6  O   UNL A   1      40.030  27.816  28.476  1.00  0.00    -0.459 OA
BRANCH   6   7
ATOM      7  C   UNL A   1      40.669  26.950  27.636  1.00  0.00     0.366 C 
ATOM      8  O   UNL A   1      40.102  26.089  26.982  1.00  0.00    -0.245 OA
BRANCH   7   9
ATOM      9  C   UNL A   1      42.191  27.271  27.665  1.00  0.00     0.310 C 
ATOM     10  C   UNL A   1      44.140  28.802  27.095  1.00  0.00     0.030 C 
ATOM     11  C   UNL A   1      42.745  28.299  26.658  1.00  0.00     0.079 C 
ATOM     12  C   UNL A   1      41.854  29.522  26.445  1.00  0.00     0.030 C 
ATOM     13  S   UNL A   1      42.985  27.292  25.157  1.00  0.00    -0.081 SA
ATOM     14  C   UNL A   1      42.863  25.711  26.056  1.00  0.00     0.276 C 
ATOM     15  N   UNL A   1      42.938  25.999  27.492  1.00  0.00    -0.319 N 
ATOM     16  H   UNL A   1      43.909  26.110  27.786  1.00  0.00     0.348 HD
ATOM     17  H   UNL A   1      42.547  25.245  28.057  1.00  0.00     0.348 HD
BRANCH  14  18
ATOM     18  C   UNL A   1      43.881  24.664  25.667  1.00  0.00     0.038 A 
ATOM     19  C   UNL A   1      45.171  25.024  25.221  1.00  0.00     0.012 A 
ATOM     20  C   UNL A   1      43.608  23.271  25.789  1.00  0.00     0.046 A 
ATOM     21  C   UNL A   1      46.102  24.072  24.835  1.00  0.00     0.001 A 
ATOM     22  C   UNL A   1      44.513  22.293  25.371  1.00  0.00     0.001 A 
ATOM     23  S   UNL A   1      42.195  22.541  26.459  1.00  0.00    -0.135 S 
ATOM     24  C   UNL A   1      45.773  22.720  24.880  1.00  0.00     0.010 A 
ATOM     25  C   UNL A   1      43.963  20.953  25.488  1.00  0.00     0.000 A 
ATOM     26  C   UNL A   1      42.711  20.954  26.099  1.00  0.00     0.036 A 
ATOM     27  C   UNL A   1      44.496  19.700  25.088  1.00  0.00     0.010 A 
ATOM     28  C   UNL A   1      42.001  19.764  26.352  1.00  0.00     0.019 A 
ATOM     29  C   UNL A   1      43.783  18.517  25.305  1.00  0.00     0.001 A 
ATOM     30  C   UNL A   1      42.551  18.550  25.940  1.00  0.00     0.002 A 
ENDBRANCH  14  18
ENDBRANCH   7   9
ENDBRANCH   6   7
ENDBRANCH   5   6
ENDBRANCH   4   5
ENDBRANCH   3   4
ENDBRANCH   2   3
ENDBRANCH   1   2
BRANCH   1  31
ATOM     31  O   UNL A   1      35.839  32.890  28.962  1.00  0.00    -0.376 OA
BRANCH  31  32
ATOM     32  C   UNL A   1      35.556  33.501  30.210  1.00  0.00     0.202 C 
BRANCH  32  33
ATOM     33  C   UNL A   1      34.607  32.799  31.195  1.00  0.00     0.261 C 
BRANCH  33  34
ATOM     34  O   UNL A   1      35.186  31.750  31.995  1.00  0.00    -0.460 OA
BRANCH  34  35
ATOM     35  C   UNL A   1      35.976  32.154  33.022  1.00  0.00     0.338 C 
ATOM     36  O   UNL A   1      35.632  32.819  33.989  1.00  0.00    -0.246 OA
BRANCH  35  37
ATOM     37  C   UNL A   1      37.310  31.520  32.924  1.00  0.00     0.060 A 
ATOM     38  C   UNL A   1      38.342  31.984  33.755  1.00  0.00     0.016 A 
ATOM     39  C   UNL A   1      37.565  30.522  31.984  1.00  0.00     0.016 A 
ATOM     40  C   UNL A   1      39.636  31.468  33.633  1.00  0.00     0.010 A 
ATOM     41  C   UNL A   1      38.868  30.026  31.844  1.00  0.00     0.010 A 
ATOM     42  C   UNL A   1      39.916  30.514  32.648  1.00  0.00    -0.014 A 
BRANCH  42  43
ATOM     43  C   UNL A   1      41.326  30.163  32.322  1.00  0.00     0.031 A 
ATOM     44  C   UNL A   1      42.067  31.025  31.334  1.00  0.00     0.074 A 
ATOM     45  C   UNL A   1      41.938  29.104  32.880  1.00  0.00     0.049 A 
ATOM     46  N   UNL A   1      43.253  30.859  30.808  1.00  0.00    -0.248 NA
ATOM     47  C   UNL A   1      41.367  32.235  30.876  1.00  0.00     0.031 C 
ATOM     48  C   UNL A   1      41.354  28.225  33.892  1.00  0.00     0.029 A 
ATOM     49  N   UNL A   1      43.188  28.576  32.658  1.00  0.00    -0.354 N 
ATOM     50  C   UNL A   1      43.439  31.937  29.946  1.00  0.00     0.074 A 
ATOM     51  C   UNL A   1      42.228  32.729  30.001  1.00  0.00     0.031 C 
ATOM     52  C   UNL A   1      42.237  27.255  34.186  1.00  0.00     0.029 A 
ATOM     53  C   UNL A   1      43.429  27.413  33.353  1.00  0.00     0.049 A 
ATOM     54  H   UNL A   1      43.849  28.992  32.058  1.00  0.00     0.167 HD
ATOM     55  C   UNL A   1      44.519  32.238  29.183  1.00  0.00     0.034 A 
ATOM     56  C   UNL A   1      44.472  26.558  33.294  1.00  0.00     0.034 A 
ATOM     57  C   UNL A   1      45.712  31.429  29.124  1.00  0.00     0.049 A 
ATOM     58  C   UNL A   1      45.621  26.855  32.355  1.00  0.00     0.074 A 
ATOM     59  C   UNL A   1      46.866  31.651  28.392  1.00  0.00     0.029 A 
ATOM     60  N   UNL A   1      45.901  30.236  29.807  1.00  0.00    -0.354 N 
ATOM     61  N   UNL A   1      45.787  27.878  31.546  1.00  0.00    -0.248 NA
ATOM     62  C   UNL A   1      46.723  25.885  32.324  1.00  0.00     0.031 C 
ATOM     63  C   UNL A   1      47.716  30.554  28.570  1.00  0.00     0.029 A 
ATOM     64  C   UNL A   1      47.134  29.691  29.484  1.00  0.00     0.049 A 
ATOM     65  H   UNL A   1      45.253  29.833  30.430  1.00  0.00     0.167 HD
ATOM     66  C   UNL A   1      47.029  27.688  30.942  1.00  0.00     0.074 A 
ATOM     67  C   UNL A   1      47.572  26.461  31.486  1.00  0.00     0.031 C 
ATOM     68  C   UNL A   1      47.668  28.463  30.027  1.00  0.00     0.034 A 
BRANCH  55  69
ATOM     69  C   UNL A   1      44.427  33.464  28.307  1.00  0.00     0.023 A 
ATOM     70  C   UNL A   1      44.612  34.759  28.822  1.00  0.00     0.031 A 
ATOM     71  C   UNL A   1      44.119  33.338  26.940  1.00  0.00     0.131 A 
ATOM     72  C   UNL A   1      44.417  35.876  27.994  1.00  0.00     0.055 A 
ATOM     73  C   UNL A   1      44.008  34.449  26.104  1.00  0.00     0.041 A 
ATOM     74  F   UNL A   1      43.906  32.128  26.397  1.00  0.00    -0.206 F 
ATOM     75  C   UNL A   1      44.143  35.729  26.633  1.00  0.00     0.022 A 
BRANCH  72  76
ATOM     76  S   UNL A   1      44.381  37.521  28.755  1.00  0.00     0.124 S 
ATOM     77  O   UNL A   1      45.615  38.112  28.242  1.00  0.00    -0.237 OA
ATOM     78  O   UNL A   1      43.140  38.082  28.235  1.00  0.00    -0.237 OA
ATOM     79  O   UNL A   1      44.385  37.235  30.189  1.00  0.00    -0.744 OA
ENDBRANCH  72  76
ENDBRANCH  55  69
BRANCH  56  80
ATOM     80  C   UNL A   1      44.470  25.302  34.103  1.00  0.00     0.023 A 
ATOM     81  C   UNL A   1      44.829  25.311  35.460  1.00  0.00     0.031 A 
ATOM     82  C   UNL A   1      44.178  24.061  33.509  1.00  0.00     0.131 A 
ATOM     83  C   UNL A   1      44.935  24.102  36.165  1.00  0.00     0.055 A 
ATOM     84  C   UNL A   1      44.228  22.866  34.230  1.00  0.00     0.041 A 
ATOM     85  F   UNL A   1      43.838  23.992  32.212  1.00  0.00    -0.206 F 
ATOM     86  C   UNL A   1      44.622  22.881  35.563  1.00  0.00     0.022 A 
BRANCH  83  87
ATOM     87  S   UNL A   1      45.585  24.137  37.859  1.00  0.00     0.124 S 
ATOM     88  O   UNL A   1      45.662  22.716  38.176  1.00  0.00    -0.237 OA
ATOM     89  O   UNL A   1      46.860  24.824  37.679  1.00  0.00    -0.237 OA
ATOM     90  O   UNL A   1      44.573  24.889  38.597  1.00  0.00    -0.744 OA
ENDBRANCH  83  87
ENDBRANCH  56  80
BRANCH  68  91
ATOM     91  C   UNL A   1      49.054  28.037  29.600  1.00  0.00     0.023 A 
ATOM     92  C   UNL A   1      49.267  27.132  28.545  1.00  0.00     0.031 A 
ATOM     93  C   UNL A   1      50.183  28.553  30.262  1.00  0.00     0.131 A 
ATOM     94  C   UNL A   1      50.572  26.733  28.218  1.00  0.00     0.055 A 
ATOM     95  C   UNL A   1      51.481  28.201  29.891  1.00  0.00     0.041 A 
ATOM     96  F   UNL A   1      50.042  29.420  31.279  1.00  0.00    -0.206 F 
ATOM     97  C   UNL A   1      51.681  27.276  28.872  1.00  0.00     0.022 A 
BRANCH  94  98
ATOM     98  S   UNL A   1      50.803  25.424  26.982  1.00  0.00     0.124 S 
ATOM     99  O   UNL A   1      52.257  25.372  26.863  1.00  0.00    -0.237 OA
ATOM    100  O   UNL A   1      50.174  24.274  27.623  1.00  0.00    -0.237 OA
ATOM    101  O   UNL A   1      50.103  25.935  25.805  1.00  0.00    -0.744 OA
ENDBRANCH  94  98
ENDBRANCH  68  91
ENDBRANCH  42  43
ENDBRANCH  35  37
ENDBRANCH  34  35
ENDBRANCH  33  34
ENDBRANCH  32  33
ENDBRANCH  31  32
ENDBRANCH   1  31
TORSDOF 21
ENDMDL
MODEL 2
REMARK VINA RESULT:      -8.9      8.137     11.471
REMARK SMILES CC1(C)S[C@@H](c2cccc3c2sc2ccccc23)[NH2+][C@@H]1C(=O)OCCOCCOCCOC(=O)c1ccc(-c2c3nc(c(-c4cc(S(=O)(=O)[O-])ccc4F)c4ccc([nH]4)c(-c4cc(S(=O)(=O)[O-])ccc4F)c4nc(c(-c5cc(S(=O)(=O)[O-])ccc5F)c5ccc2[nH]5)C=C4)C=C3)cc1
REMARK SMILES IDX 28 1 27 2 26 3 25 4 24 5 23 6 21 7 22 8 20 9 1 10 2 11 3 12
REMARK SMILES IDX 4 13 5 14 19 15 6 18 7 19 11 20 8 21 10 22 12 23 9 24 18 25
REMARK SMILES IDX 13 26 17 27 14 28 16 29 15 30 29 31 30 32 31 33 32 34 33 35
REMARK SMILES IDX 34 36 35 37 36 38 97 39 37 40 96 41 38 42 39 43 40 44 90 45
REMARK SMILES IDX 41 46 95 47 89 48 91 49 42 50 94 51 88 52 87 53 43 55 75 56
REMARK SMILES IDX 55 57 74 58 56 59 59 60 73 61 92 62 57 63 58 64 72 66 93 67
REMARK SMILES IDX 60 68 44 69 45 70 53 71 46 72 52 73 54 74 51 75 47 76 48 77
REMARK SMILES IDX 49 78 50 79 76 80 77 81 85 82 78 83 84 84 86 85 83 86 79 87
REMARK SMILES IDX 80 88 81 89 82 90 61 91 62 92 70 93 63 94 69 95 71 96 68 97
REMARK SMILES IDX 64 98 65 99 66 100 67 101
REMARK H PARENT 19 16 19 17 91 54 59 65
REMARK Flexibility Score: inf
ROOT
ATOM      1  C   UNL A   1      34.394  31.885  27.627  1.00  0.00     0.188 C 
ENDROOT
BRANCH   1   2
ATOM      2  C   UNL A   1      33.684  30.530  27.386  1.00  0.00     0.188 C 
BRANCH   2   3
ATOM      3  O   UNL A   1      32.412  30.655  26.774  1.00  0.00    -0.376 OA
BRANCH   3   4
ATOM      4  C   UNL A   1      31.776  29.461  26.340  1.00  0.00     0.202 C 
BRANCH   4   5
ATOM      5  C   UNL A   1      32.226  28.147  26.993  1.00  0.00     0.261 C 
BRANCH   5   6
ATOM      6  O   UNL A   1      31.221  27.124  27.008  1.00  0.00    -0.459 OA
BRANCH   6   7
ATOM      7  C   UNL A   1      31.538  25.898  26.496  1.00  0.00     0.366 C 
ATOM      8  O   UNL A   1      30.947  24.868  26.775  1.00  0.00    -0.245 OA
BRANCH   7   9
ATOM      9  C   UNL A   1      32.739  26.070  25.520  1.00  0.00     0.310 C 
ATOM     10  C   UNL A   1      33.650  26.608  23.208  1.00  0.00     0.030 C 
ATOM     11  C   UNL A   1      32.467  26.010  24.003  1.00  0.00     0.079 C 
ATOM     12  C   UNL A   1      31.194  26.728  23.558  1.00  0.00     0.030 C 
ATOM     13  S   UNL A   1      32.453  24.216  23.674  1.00  0.00    -0.081 SA
ATOM     14  C   UNL A   1      33.248  23.801  25.262  1.00  0.00     0.276 C 
ATOM     15  N   UNL A   1      33.757  25.042  25.853  1.00  0.00    -0.319 N 
ATOM     16  H   UNL A   1      34.661  25.288  25.446  1.00  0.00     0.348 HD
ATOM     17  H   UNL A   1      33.904  24.958  26.858  1.00  0.00     0.348 HD
BRANCH  14  18
ATOM     18  C   UNL A   1      34.337  22.756  25.188  1.00  0.00     0.038 A 
ATOM     19  C   UNL A   1      35.698  23.104  25.331  1.00  0.00     0.012 A 
ATOM     20  C   UNL A   1      34.040  21.372  25.030  1.00  0.00     0.046 A 
ATOM     21  C   UNL A   1      36.707  22.158  25.237  1.00  0.00     0.001 A 
ATOM     22  C   UNL A   1      35.038  20.404  24.893  1.00  0.00     0.001 A 
ATOM     23  S   UNL A   1      32.479  20.639  25.000  1.00  0.00    -0.135 S 
ATOM     24  C   UNL A   1      36.389  20.825  24.992  1.00  0.00     0.010 A 
ATOM     25  C   UNL A   1      34.489  19.086  24.628  1.00  0.00     0.000 A 
ATOM     26  C   UNL A   1      33.097  19.078  24.692  1.00  0.00     0.036 A 
ATOM     27  C   UNL A   1      35.138  17.860  24.330  1.00  0.00     0.010 A 
ATOM     28  C   UNL A   1      32.347  17.901  24.505  1.00  0.00     0.019 A 
ATOM     29  C   UNL A   1      34.399  16.694  24.110  1.00  0.00     0.001 A 
ATOM     30  C   UNL A   1      33.017  16.714  24.207  1.00  0.00     0.002 A 
ENDBRANCH  14  18
ENDBRANCH   7   9
ENDBRANCH   6   7
ENDBRANCH   5   6
ENDBRANCH   4   5
ENDBRANCH   3   4
ENDBRANCH   2   3
ENDBRANCH   1   2
BRANCH   1  31
ATOM     31  O   UNL A   1      35.033  32.141  28.869  1.00  0.00    -0.376 OA
BRANCH  31  32
ATOM     32  C   UNL A   1      35.762  31.096  29.493  1.00  0.00     0.202 C 
BRANCH  32  33
ATOM     33  C   UNL A   1      37.297  31.099  29.416  1.00  0.00     0.261 C 
BRANCH  33  34
ATOM     34  O   UNL A   1      37.973  30.097  30.199  1.00  0.00    -0.460 OA
BRANCH  34  35
ATOM     35  C   UNL A   1      37.485  29.891  31.449  1.00  0.00     0.338 C 
ATOM     36  O   UNL A   1      36.794  28.952  31.817  1.00  0.00    -0.246 OA
BRANCH  35  37
ATOM     37  C   UNL A   1      38.058  30.879  32.392  1.00  0.00     0.060 A 
ATOM     38  C   UNL A   1      39.184  30.517  33.148  1.00  0.00     0.016 A 
ATOM     39  C   UNL A   1      37.460  32.125  32.579  1.00  0.00     0.016 A 
ATOM     40  C   UNL A   1      39.703  31.391  34.108  1.00  0.00     0.010 A 
ATOM     41  C   UNL A   1      37.965  32.988  33.562  1.00  0.00     0.010 A 
ATOM     42  C   UNL A   1      39.071  32.617  34.350  1.00  0.00    -0.014 A 
BRANCH  42  43
ATOM     43  C   UNL A   1      39.436  33.426  35.544  1.00  0.00     0.031 A 
ATOM     44  C   UNL A   1      40.506  34.475  35.397  1.00  0.00     0.074 A 
ATOM     45  C   UNL A   1      38.841  33.237  36.736  1.00  0.00     0.049 A 
ATOM     46  N   UNL A   1      41.072  35.222  36.310  1.00  0.00    -0.248 NA
ATOM     47  C   UNL A   1      41.007  34.704  34.034  1.00  0.00     0.031 C 
ATOM     48  C   UNL A   1      37.752  32.297  36.998  1.00  0.00     0.029 A 
ATOM     49  N   UNL A   1      39.084  33.818  37.957  1.00  0.00    -0.354 N 
ATOM     50  C   UNL A   1      42.006  36.003  35.634  1.00  0.00     0.074 A 
ATOM     51  C   UNL A   1      41.947  35.612  34.241  1.00  0.00     0.031 C 
ATOM     52  C   UNL A   1      37.437  32.350  38.304  1.00  0.00     0.029 A 
ATOM     53  C   UNL A   1      38.329  33.291  38.981  1.00  0.00     0.049 A 
ATOM     54  H   UNL A   1      39.737  34.544  38.088  1.00  0.00     0.167 HD
ATOM     55  C   UNL A   1      42.833  36.957  36.129  1.00  0.00     0.034 A 
ATOM     56  C   UNL A   1      38.382  33.515  40.311  1.00  0.00     0.034 A 
ATOM     57  C   UNL A   1      42.894  37.324  37.522  1.00  0.00     0.049 A 
ATOM     58  C   UNL A   1      39.386  34.506  40.857  1.00  0.00     0.074 A 
ATOM     59  C   UNL A   1      43.688  38.285  38.125  1.00  0.00     0.029 A 
ATOM     60  N   UNL A   1      42.148  36.737  38.535  1.00  0.00    -0.354 N 
ATOM     61  N   UNL A   1      40.263  35.239  40.209  1.00  0.00    -0.248 NA
ATOM     62  C   UNL A   1      39.405  34.701  42.313  1.00  0.00     0.031 C 
ATOM     63  C   UNL A   1      43.481  38.223  39.507  1.00  0.00     0.029 A 
ATOM     64  C   UNL A   1      42.490  37.287  39.761  1.00  0.00     0.049 A 
ATOM     65  H   UNL A   1      41.474  36.032  38.402  1.00  0.00     0.167 HD
ATOM     66  C   UNL A   1      40.908  36.007  41.177  1.00  0.00     0.074 A 
ATOM     67  C   UNL A   1      40.314  35.655  42.450  1.00  0.00     0.031 C 
ATOM     68  C   UNL A   1      41.897  36.927  41.028  1.00  0.00     0.034 A 
BRANCH  55  69
ATOM     69  C   UNL A   1      43.778  37.625  35.158  1.00  0.00     0.023 A 
ATOM     70  C   UNL A   1      43.387  38.730  34.383  1.00  0.00     0.031 A 
ATOM     71  C   UNL A   1      45.082  37.128  34.984  1.00  0.00     0.131 A 
ATOM     72  C   UNL A   1      44.263  39.255  33.421  1.00  0.00     0.055 A 
ATOM     73  C   UNL A   1      45.977  37.707  34.084  1.00  0.00     0.041 A 
ATOM     74  F   UNL A   1      45.504  36.059  35.678  1.00  0.00    -0.206 F 
ATOM     75  C   UNL A   1      45.565  38.768  33.285  1.00  0.00     0.022 A 
BRANCH  72  76
ATOM     76  S   UNL A   1      43.626  40.484  32.249  1.00  0.00     0.124 S 
ATOM     77  O   UNL A   1      44.754  41.406  32.144  1.00  0.00    -0.237 OA
ATOM     78  O   UNL A   1      43.347  39.677  31.067  1.00  0.00    -0.237 OA
ATOM     79  O   UNL A   1      42.449  41.025  32.926  1.00  0.00    -0.744 OA
ENDBRANCH  72  76
ENDBRANCH  55  69
BRANCH  56  80
ATOM     80  C   UNL A   1      37.498  32.752  41.243  1.00  0.00     0.023 A 
ATOM     81  C   UNL A   1      36.190  33.182  41.520  1.00  0.00     0.031 A 
ATOM     82  C   UNL A   1      37.975  31.621  41.928  1.00  0.00     0.131 A 
ATOM     83  C   UNL A   1      35.424  32.517  42.490  1.00  0.00     0.055 A 
ATOM     84  C   UNL A   1      37.188  30.926  42.849  1.00  0.00     0.041 A 
ATOM     85  F   UNL A   1      39.221  31.170  41.710  1.00  0.00    -0.206 F 
ATOM     86  C   UNL A   1      35.908  31.382  43.145  1.00  0.00     0.022 A 
BRANCH  83  87
ATOM     87  S   UNL A   1      33.816  33.215  42.957  1.00  0.00     0.124 S 
ATOM     88  O   UNL A   1      33.080  33.129  41.700  1.00  0.00    -0.237 OA
ATOM     89  O   UNL A   1      33.387  32.307  44.015  1.00  0.00    -0.237 OA
ATOM     90  O   UNL A   1      34.147  34.570  43.396  1.00  0.00    -0.744 OA
ENDBRANCH  83  87
ENDBRANCH  56  80
BRANCH  68  91
ATOM     91  C   UNL A   1      42.357  37.663  42.266  1.00  0.00     0.023 A 
ATOM     92  C   UNL A   1      43.317  37.126  43.141  1.00  0.00     0.031 A 
ATOM     93  C   UNL A   1      41.824  38.929  42.570  1.00  0.00     0.131 A 
ATOM     94  C   UNL A   1      43.677  37.828  44.302  1.00  0.00     0.055 A 
ATOM     95  C   UNL A   1      42.231  39.651  43.692  1.00  0.00     0.041 A 
ATOM     96  F   UNL A   1      40.901  39.492  41.772  1.00  0.00    -0.206 F 
ATOM     97  C   UNL A   1      43.154  39.096  44.573  1.00  0.00     0.022 A 
BRANCH  94  98
ATOM     98  S   UNL A   1      44.773  37.027  45.505  1.00  0.00     0.124 S 
ATOM     99  O   UNL A   1      43.990  35.859  45.898  1.00  0.00    -0.237 OA
ATOM    100  O   UNL A   1      45.966  36.756  44.710  1.00  0.00    -0.237 OA
ATOM    101  O   UNL A   1      44.940  38.040  46.546  1.00  0.00    -0.744 OA
ENDBRANCH  94  98
ENDBRANCH  68  91
ENDBRANCH  42  43
ENDBRANCH  35  37
ENDBRANCH  34  35
ENDBRANCH  33  34
ENDBRANCH  32  33
ENDBRANCH  31  32
ENDBRANCH   1  31
TORSDOF 21
ENDMDL
MODEL 3
REMARK VINA RESULT:      -8.6      5.688     10.638
REMARK SMILES CC1(C)S[C@@H](c2cccc3c2sc2ccccc23)[NH2+][C@@H]1C(=O)OCCOCCOCCOC(=O)c1ccc(-c2c3nc(c(-c4cc(S(=O)(=O)[O-])ccc4F)c4ccc([nH]4)c(-c4cc(S(=O)(=O)[O-])ccc4F)c4nc(c(-c5cc(S(=O)(=O)[O-])ccc5F)c5ccc2[nH]5)C=C4)C=C3)cc1
REMARK SMILES IDX 28 1 27 2 26 3 25 4 24 5 23 6 21 7 22 8 20 9 1 10 2 11 3 12
REMARK SMILES IDX 4 13 5 14 19 15 6 18 7 19 11 20 8 21 10 22 12 23 9 24 18 25
REMARK SMILES IDX 13 26 17 27 14 28 16 29 15 30 29 31 30 32 31 33 32 34 33 35
REMARK SMILES IDX 34 36 35 37 36 38 97 39 37 40 96 41 38 42 39 43 40 44 90 45
REMARK SMILES IDX 41 46 95 47 89 48 91 49 42 50 94 51 88 52 87 53 43 55 75 56
REMARK SMILES IDX 55 57 74 58 56 59 59 60 73 61 92 62 57 63 58 64 72 66 93 67
REMARK SMILES IDX 60 68 44 69 45 70 53 71 46 72 52 73 54 74 51 75 47 76 48 77
REMARK SMILES IDX 49 78 50 79 76 80 77 81 85 82 78 83 84 84 86 85 83 86 79 87
REMARK SMILES IDX 80 88 81 89 82 90 61 91 62 92 70 93 63 94 69 95 71 96 68 97
REMARK SMILES IDX 64 98 65 99 66 100 67 101
REMARK H PARENT 19 16 19 17 91 54 59 65
REMARK Flexibility Score: inf
ROOT
ATOM      1  C   UNL A   1      35.460  31.481  27.748  1.00  0.00     0.188 C 
ENDROOT
BRANCH   1   2
ATOM      2  C   UNL A   1      34.209  30.588  27.936  1.00  0.00     0.188 C 
BRANCH   2   3
ATOM      3  O   UNL A   1      33.056  31.075  27.272  1.00  0.00    -0.376 OA
BRANCH   3   4
ATOM      4  C   UNL A   1      32.037  30.136  26.962  1.00  0.00     0.202 C 
BRANCH   4   5
ATOM      5  C   UNL A   1      32.480  28.730  26.534  1.00  0.00     0.261 C 
BRANCH   5   6
ATOM      6  O   UNL A   1      31.482  27.718  26.717  1.00  0.00    -0.459 OA
BRANCH   6   7
ATOM      7  C   UNL A   1      31.787  26.436  26.358  1.00  0.00     0.366 C 
ATOM      8  O   UNL A   1      31.270  25.447  26.850  1.00  0.00    -0.245 OA
BRANCH   7   9
ATOM      9  C   UNL A   1      32.864  26.485  25.235  1.00  0.00     0.310 C 
ATOM     10  C   UNL A   1      33.497  26.742  22.786  1.00  0.00     0.030 C 
ATOM     11  C   UNL A   1      32.419  26.248  23.777  1.00  0.00     0.079 C 
ATOM     12  C   UNL A   1      31.097  26.916  23.402  1.00  0.00     0.030 C 
ATOM     13  S   UNL A   1      32.383  24.428  23.666  1.00  0.00    -0.081 SA
ATOM     14  C   UNL A   1      33.359  24.199  25.188  1.00  0.00     0.276 C 
ATOM     15  N   UNL A   1      33.924  25.498  25.566  1.00  0.00    -0.319 N 
ATOM     16  H   UNL A   1      34.772  25.690  25.031  1.00  0.00     0.348 HD
ATOM     17  H   UNL A   1      34.186  25.533  26.550  1.00  0.00     0.348 HD
BRANCH  14  18
ATOM     18  C   UNL A   1      34.442  23.147  25.112  1.00  0.00     0.038 A 
ATOM     19  C   UNL A   1      35.809  23.496  25.170  1.00  0.00     0.012 A 
ATOM     20  C   UNL A   1      34.135  21.758  25.037  1.00  0.00     0.046 A 
ATOM     21  C   UNL A   1      36.810  22.542  25.072  1.00  0.00     0.001 A 
ATOM     22  C   UNL A   1      35.123  20.781  24.898  1.00  0.00     0.001 A 
ATOM     23  S   UNL A   1      32.573  21.031  25.121  1.00  0.00    -0.135 S 
ATOM     24  C   UNL A   1      36.478  21.199  24.909  1.00  0.00     0.010 A 
ATOM     25  C   UNL A   1      34.559  19.453  24.727  1.00  0.00     0.000 A 
ATOM     26  C   UNL A   1      33.172  19.455  24.860  1.00  0.00     0.036 A 
ATOM     27  C   UNL A   1      35.190  18.212  24.457  1.00  0.00     0.010 A 
ATOM     28  C   UNL A   1      32.411  18.272  24.770  1.00  0.00     0.019 A 
ATOM     29  C   UNL A   1      34.439  17.039  24.332  1.00  0.00     0.001 A 
ATOM     30  C   UNL A   1      33.063  17.069  24.497  1.00  0.00     0.002 A 
ENDBRANCH  14  18
ENDBRANCH   7   9
ENDBRANCH   6   7
ENDBRANCH   5   6
ENDBRANCH   4   5
ENDBRANCH   3   4
ENDBRANCH   2   3
ENDBRANCH   1   2
BRANCH   1  31
ATOM     31  O   UNL A   1      36.483  31.489  28.732  1.00  0.00    -0.376 OA
BRANCH  31  32
ATOM     32  C   UNL A   1      36.116  31.567  30.100  1.00  0.00     0.202 C 
BRANCH  32  33
ATOM     33  C   UNL A   1      36.156  32.929  30.813  1.00  0.00     0.261 C 
BRANCH  33  34
ATOM     34  O   UNL A   1      37.215  33.112  31.772  1.00  0.00    -0.460 OA
BRANCH  34  35
ATOM     35  C   UNL A   1      37.818  34.328  31.765  1.00  0.00     0.338 C 
ATOM     36  O   UNL A   1      37.479  35.315  32.403  1.00  0.00    -0.246 OA
BRANCH  35  37
ATOM     37  C   UNL A   1      39.088  34.267  31.006  1.00  0.00     0.060 A 
ATOM     38  C   UNL A   1      40.290  34.102  31.712  1.00  0.00     0.016 A 
ATOM     39  C   UNL A   1      39.108  34.432  29.622  1.00  0.00     0.016 A 
ATOM     40  C   UNL A   1      41.516  34.123  31.039  1.00  0.00     0.010 A 
ATOM     41  C   UNL A   1      40.338  34.480  28.953  1.00  0.00     0.010 A 
ATOM     42  C   UNL A   1      41.549  34.353  29.659  1.00  0.00    -0.014 A 
BRANCH  42  43
ATOM     43  C   UNL A   1      42.839  34.654  28.980  1.00  0.00     0.031 A 
ATOM     44  C   UNL A   1      43.789  33.516  28.712  1.00  0.00     0.074 A 
ATOM     45  C   UNL A   1      43.170  35.905  28.612  1.00  0.00     0.049 A 
ATOM     46  N   UNL A   1      45.009  33.542  28.240  1.00  0.00    -0.248 NA
ATOM     47  C   UNL A   1      43.291  32.169  29.026  1.00  0.00     0.031 C 
ATOM     48  C   UNL A   1      42.317  37.084  28.760  1.00  0.00     0.029 A 
ATOM     49  N   UNL A   1      44.326  36.395  28.052  1.00  0.00    -0.354 N 
ATOM     50  C   UNL A   1      45.432  32.216  28.212  1.00  0.00     0.074 A 
ATOM     51  C   UNL A   1      44.345  31.420  28.744  1.00  0.00     0.031 C 
ATOM     52  C   UNL A   1      42.989  38.163  28.322  1.00  0.00     0.029 A 
ATOM     53  C   UNL A   1      44.333  37.763  27.906  1.00  0.00     0.049 A 
ATOM     54  H   UNL A   1      45.078  35.819  27.780  1.00  0.00     0.167 HD
ATOM     55  C   UNL A   1      46.614  31.710  27.781  1.00  0.00     0.034 A 
ATOM     56  C   UNL A   1      45.323  38.597  27.521  1.00  0.00     0.034 A 
ATOM     57  C   UNL A   1      47.695  32.517  27.271  1.00  0.00     0.049 A 
ATOM     58  C   UNL A   1      46.671  38.022  27.146  1.00  0.00     0.074 A 
ATOM     59  C   UNL A   1      48.929  32.102  26.798  1.00  0.00     0.029 A 
ATOM     60  N   UNL A   1      47.683  33.902  27.182  1.00  0.00    -0.354 N 
ATOM     61  N   UNL A   1      47.060  36.766  27.122  1.00  0.00    -0.248 NA
ATOM     62  C   UNL A   1      47.714  38.977  26.744  1.00  0.00     0.031 C 
ATOM     63  C   UNL A   1      49.689  33.239  26.501  1.00  0.00     0.029 A 
ATOM     64  C   UNL A   1      48.899  34.360  26.699  1.00  0.00     0.049 A 
ATOM     65  H   UNL A   1      46.921  34.476  27.426  1.00  0.00     0.167 HD
ATOM     66  C   UNL A   1      48.377  36.784  26.666  1.00  0.00     0.074 A 
ATOM     67  C   UNL A   1      48.713  38.170  26.419  1.00  0.00     0.031 C 
ATOM     68  C   UNL A   1      49.230  35.746  26.461  1.00  0.00     0.034 A 
BRANCH  55  69
ATOM     69  C   UNL A   1      46.814  30.218  27.904  1.00  0.00     0.023 A 
ATOM     70  C   UNL A   1      46.512  29.341  26.848  1.00  0.00     0.031 A 
ATOM     71  C   UNL A   1      47.285  29.663  29.107  1.00  0.00     0.131 A 
ATOM     72  C   UNL A   1      46.617  27.954  27.039  1.00  0.00     0.055 A 
ATOM     73  C   UNL A   1      47.465  28.288  29.263  1.00  0.00     0.041 A 
ATOM     74  F   UNL A   1      47.566  30.449  30.158  1.00  0.00    -0.206 F 
ATOM     75  C   UNL A   1      47.116  27.423  28.230  1.00  0.00     0.022 A 
BRANCH  72  76
ATOM     76  S   UNL A   1      45.949  26.852  25.763  1.00  0.00     0.124 S 
ATOM     77  O   UNL A   1      47.125  26.620  24.928  1.00  0.00    -0.237 OA
ATOM     78  O   UNL A   1      45.484  25.711  26.543  1.00  0.00    -0.237 OA
ATOM     79  O   UNL A   1      44.897  27.651  25.137  1.00  0.00    -0.744 OA
ENDBRANCH  72  76
ENDBRANCH  55  69
BRANCH  56  80
ATOM     80  C   UNL A   1      45.110  40.075  27.516  1.00  0.00     0.023 A 
ATOM     81  C   UNL A   1      44.989  40.789  26.313  1.00  0.00     0.031 A 
ATOM     82  C   UNL A   1      45.099  40.807  28.717  1.00  0.00     0.131 A 
ATOM     83  C   UNL A   1      44.911  42.190  26.334  1.00  0.00     0.055 A 
ATOM     84  C   UNL A   1      44.962  42.196  28.736  1.00  0.00     0.041 A 
ATOM     85  F   UNL A   1      45.220  40.178  29.897  1.00  0.00    -0.206 F 
ATOM     86  C   UNL A   1      44.880  42.898  27.538  1.00  0.00     0.022 A 
BRANCH  83  87
ATOM     87  S   UNL A   1      44.948  43.087  24.757  1.00  0.00     0.124 S 
ATOM     88  O   UNL A   1      44.429  42.084  23.834  1.00  0.00    -0.237 OA
ATOM     89  O   UNL A   1      44.071  44.220  25.033  1.00  0.00    -0.237 OA
ATOM     90  O   UNL A   1      46.361  43.420  24.588  1.00  0.00    -0.744 OA
ENDBRANCH  83  87
ENDBRANCH  56  80
BRANCH  68  91
ATOM     91  C   UNL A   1      50.591  36.066  25.887  1.00  0.00     0.023 A 
ATOM     92  C   UNL A   1      51.755  36.065  26.676  1.00  0.00     0.031 A 
ATOM     93  C   UNL A   1      50.723  36.374  24.520  1.00  0.00     0.131 A 
ATOM     94  C   UNL A   1      52.989  36.415  26.104  1.00  0.00     0.055 A 
ATOM     95  C   UNL A   1      51.961  36.660  23.944  1.00  0.00     0.041 A 
ATOM     96  F   UNL A   1      49.646  36.393  23.717  1.00  0.00    -0.206 F 
ATOM     97  C   UNL A   1      53.102  36.693  24.739  1.00  0.00     0.022 A 
BRANCH  94  98
ATOM     98  S   UNL A   1      54.436  36.588  27.185  1.00  0.00     0.124 S 
ATOM     99  O   UNL A   1      55.355  37.346  26.342  1.00  0.00    -0.237 OA
ATOM    100  O   UNL A   1      53.886  37.303  28.332  1.00  0.00    -0.237 OA
ATOM    101  O   UNL A   1      54.834  35.207  27.450  1.00  0.00    -0.744 OA
ENDBRANCH  94  98
ENDBRANCH  68  91
ENDBRANCH  42  43
ENDBRANCH  35  37
ENDBRANCH  34  35
ENDBRANCH  33  34
ENDBRANCH  32  33
ENDBRANCH  31  32
ENDBRANCH   1  31
TORSDOF 21
ENDMDL
