MODEL 1
REMARK VINA RESULT:      -9.5      0.000      0.000
REMARK SMILES C[C@@H]1C[N@H+]2CCCC[C@@H]2CN1C(=O)NC(=O)CCC(=O)OCCOCCOCCOC(=O)c1ccc(-c2c3nc(c(-c4cc(S(=O)(=O)[O-])ccc4F)c4ccc([nH]4)c(-c4cc(S(=O)(=O)[O-])ccc4F)c4nc(c(-c5cc(S(=O)(=O)[O-])ccc5F)c5ccc2[nH]5)C=C4)C=C3)cc1
REMARK SMILES IDX 25 1 24 2 23 3 22 4 21 5 19 6 20 7 18 8 17 9 15 10 12 11
REMARK SMILES IDX 13 12 14 13 16 15 11 16 1 17 2 18 3 19 4 20 10 21 5 22 9 23
REMARK SMILES IDX 6 25 8 26 7 27 26 28 27 29 28 30 29 31 30 32 31 33 32 34
REMARK SMILES IDX 33 35 34 36 95 37 35 38 94 39 36 40 37 41 38 42 88 43 39 44
REMARK SMILES IDX 93 45 87 46 89 47 40 48 92 49 86 50 85 51 41 53 73 54 53 55
REMARK SMILES IDX 72 56 54 57 57 58 71 59 90 60 55 61 56 62 70 64 91 65 58 66
REMARK SMILES IDX 42 67 43 68 51 69 44 70 50 71 52 72 49 73 45 74 46 75 47 76
REMARK SMILES IDX 48 77 74 78 75 79 83 80 76 81 82 82 84 83 81 84 77 85 78 86
REMARK SMILES IDX 79 87 80 88 59 89 60 90 68 91 61 92 67 93 69 94 66 95 62 96
REMARK SMILES IDX 63 97 64 98 65 99
REMARK H PARENT 14 14 4 24 89 52 57 63
REMARK Flexibility Score: inf
ROOT
ATOM      1  C   UNL A   1      39.613  21.577  26.168  1.00  0.00     0.188 C 
ENDROOT
BRANCH   1   2
ATOM      2  O   UNL A   1      38.277  21.265  25.281  1.00  0.00    -0.376 OA
BRANCH   2   3
ATOM      3  C   UNL A   1      37.077  22.082  25.307  1.00  0.00     0.202 C 
BRANCH   3   4
ATOM      4  C   UNL A   1      36.315  22.266  23.970  1.00  0.00     0.261 C 
BRANCH   4   5
ATOM      5  O   UNL A   1      34.969  22.648  24.169  1.00  0.00    -0.463 OA
BRANCH   5   6
ATOM      6  C   UNL A   1      34.506  23.334  23.112  1.00  0.00     0.306 C 
ATOM      7  O   UNL A   1      34.923  24.429  22.751  1.00  0.00    -0.252 OA
BRANCH   6   8
ATOM      8  C   UNL A   1      33.450  22.579  22.381  1.00  0.00     0.132 C 
BRANCH   8   9
ATOM      9  C   UNL A   1      32.090  22.263  23.018  1.00  0.00     0.112 C 
BRANCH   9  10
ATOM     10  C   UNL A   1      31.777  21.741  24.442  1.00  0.00     0.228 C 
ATOM     11  C   UNL A   1      30.709  23.510  26.269  1.00  0.00     0.324 C 
ATOM     12  O   UNL A   1      29.990  23.325  27.252  1.00  0.00    -0.248 OA
ATOM     13  N   UNL A   1      31.238  22.382  25.575  1.00  0.00    -0.278 N 
ATOM     14  H   UNL A   1      31.214  21.667  26.251  1.00  0.00     0.174 HD
ATOM     15  O   UNL A   1      32.124  20.563  24.665  1.00  0.00    -0.275 OA
BRANCH  11  16
ATOM     16  N   UNL A   1      31.011  24.772  25.824  1.00  0.00    -0.310 N 
ATOM     17  C   UNL A   1      34.031  25.551  26.126  1.00  0.00     0.037 C 
ATOM     18  C   UNL A   1      32.764  25.345  25.252  1.00  0.00     0.139 C 
ATOM     19  C   UNL A   1      32.787  26.965  24.109  1.00  0.00     0.287 C 
ATOM     20  N   UNL A   1      31.268  27.928  23.877  1.00  0.00    -0.329 N 
ATOM     21  C   UNL A   1      29.459  25.789  25.523  1.00  0.00     0.186 C 
ATOM     22  C   UNL A   1      31.377  29.111  22.490  1.00  0.00     0.262 C 
ATOM     23  C   UNL A   1      29.539  27.206  24.275  1.00  0.00     0.203 C 
ATOM     24  H   UNL A   1      31.278  28.460  24.747  1.00  0.00     0.348 HD
ATOM     25  C   UNL A   1      29.519  29.914  21.621  1.00  0.00     0.062 C 
ATOM     26  C   UNL A   1      27.943  28.008  23.804  1.00  0.00     0.067 C 
ATOM     27  C   UNL A   1      27.869  29.188  22.375  1.00  0.00     0.012 C 
ENDBRANCH  11  16
ENDBRANCH   9  10
ENDBRANCH   8   9
ENDBRANCH   6   8
ENDBRANCH   5   6
ENDBRANCH   4   5
ENDBRANCH   3   4
ENDBRANCH   2   3
ENDBRANCH   1   2
BRANCH   1  28
ATOM     28  C   UNL A   1      40.082  23.253  27.387  1.00  0.00     0.188 C 
BRANCH  28  29
ATOM     29  O   UNL A   1      41.197  24.287  27.267  1.00  0.00    -0.376 OA
BRANCH  29  30
ATOM     30  C   UNL A   1      42.195  24.168  28.293  1.00  0.00     0.202 C 
BRANCH  30  31
ATOM     31  C   UNL A   1      43.062  22.890  28.300  1.00  0.00     0.261 C 
BRANCH  31  32
ATOM     32  O   UNL A   1      44.414  23.069  28.725  1.00  0.00    -0.460 OA
BRANCH  32  33
ATOM     33  C   UNL A   1      45.336  23.448  27.788  1.00  0.00     0.338 C 
ATOM     34  O   UNL A   1      45.726  22.772  26.858  1.00  0.00    -0.246 OA
BRANCH  33  35
ATOM     35  C   UNL A   1      45.623  24.928  28.126  1.00  0.00     0.060 A 
ATOM     36  C   UNL A   1      46.220  26.083  29.581  1.00  0.00     0.016 A 
ATOM     37  C   UNL A   1      45.059  25.728  26.641  1.00  0.00     0.016 A 
ATOM     38  C   UNL A   1      46.136  27.816  29.409  1.00  0.00     0.010 A 
ATOM     39  C   UNL A   1      45.078  27.433  26.578  1.00  0.00     0.010 A 
ATOM     40  C   UNL A   1      45.538  28.435  27.905  1.00  0.00    -0.014 A 
BRANCH  40  41
ATOM     41  C   UNL A   1      45.131  29.848  27.925  1.00  0.00     0.031 A 
ATOM     42  C   UNL A   1      43.836  30.199  28.607  1.00  0.00     0.074 A 
ATOM     43  C   UNL A   1      46.053  30.746  27.534  1.00  0.00     0.049 A 
ATOM     44  N   UNL A   1      43.320  31.371  28.846  1.00  0.00    -0.248 NA
ATOM     45  C   UNL A   1      42.987  29.093  29.080  1.00  0.00     0.031 C 
ATOM     46  C   UNL A   1      47.351  30.417  26.926  1.00  0.00     0.029 A 
ATOM     47  N   UNL A   1      46.096  32.101  27.665  1.00  0.00    -0.354 N 
ATOM     48  C   UNL A   1      42.092  31.124  29.462  1.00  0.00     0.074 A 
ATOM     49  C   UNL A   1      41.903  29.705  29.505  1.00  0.00     0.031 C 
ATOM     50  C   UNL A   1      48.108  31.519  26.872  1.00  0.00     0.029 A 
ATOM     51  C   UNL A   1      47.306  32.652  27.304  1.00  0.00     0.049 A 
ATOM     52  H   UNL A   1      45.335  32.638  27.987  1.00  0.00     0.167 HD
ATOM     53  C   UNL A   1      41.210  32.014  29.963  1.00  0.00     0.034 A 
ATOM     54  C   UNL A   1      47.696  33.940  27.306  1.00  0.00     0.034 A 
ATOM     55  C   UNL A   1      41.463  33.423  29.875  1.00  0.00     0.049 A 
ATOM     56  C   UNL A   1      46.661  34.923  27.788  1.00  0.00     0.074 A 
ATOM     57  C   UNL A   1      40.641  34.482  30.190  1.00  0.00     0.029 A 
ATOM     58  N   UNL A   1      42.665  33.959  29.411  1.00  0.00    -0.354 N 
ATOM     59  N   UNL A   1      45.463  34.679  28.282  1.00  0.00    -0.248 NA
ATOM     60  C   UNL A   1      47.002  36.340  27.695  1.00  0.00     0.031 C 
ATOM     61  C   UNL A   1      41.318  35.657  29.843  1.00  0.00     0.029 A 
ATOM     62  C   UNL A   1      42.598  35.334  29.402  1.00  0.00     0.049 A 
ATOM     63  H   UNL A   1      43.447  33.429  29.133  1.00  0.00     0.167 HD
ATOM     64  C   UNL A   1      44.902  35.915  28.559  1.00  0.00     0.074 A 
ATOM     65  C   UNL A   1      45.917  36.899  28.212  1.00  0.00     0.031 C 
ATOM     66  C   UNL A   1      43.668  36.233  29.032  1.00  0.00     0.034 A 
BRANCH  53  67
ATOM     67  C   UNL A   1      39.904  31.459  30.486  1.00  0.00     0.023 A 
ATOM     68  C   UNL A   1      38.746  31.373  29.686  1.00  0.00     0.031 A 
ATOM     69  C   UNL A   1      39.769  31.183  31.858  1.00  0.00     0.131 A 
ATOM     70  C   UNL A   1      37.496  31.124  30.282  1.00  0.00     0.055 A 
ATOM     71  C   UNL A   1      38.539  30.847  32.428  1.00  0.00     0.041 A 
ATOM     72  F   UNL A   1      40.822  31.298  32.683  1.00  0.00    -0.206 F 
ATOM     73  C   UNL A   1      37.390  30.833  31.643  1.00  0.00     0.022 A 
BRANCH  70  74
ATOM     74  S   UNL A   1      35.987  31.375  29.300  1.00  0.00     0.124 S 
ATOM     75  O   UNL A   1      36.461  32.294  28.268  1.00  0.00    -0.237 OA
ATOM     76  O   UNL A   1      35.668  30.023  28.855  1.00  0.00    -0.237 OA
ATOM     77  O   UNL A   1      35.046  31.954  30.257  1.00  0.00    -0.744 OA
ENDBRANCH  70  74
ENDBRANCH  53  67
BRANCH  54  78
ATOM     78  C   UNL A   1      49.038  34.350  26.784  1.00  0.00     0.023 A 
ATOM     79  C   UNL A   1      50.200  34.281  27.571  1.00  0.00     0.031 A 
ATOM     80  C   UNL A   1      49.180  34.841  25.469  1.00  0.00     0.131 A 
ATOM     81  C   UNL A   1      51.432  34.718  27.049  1.00  0.00     0.055 A 
ATOM     82  C   UNL A   1      50.416  35.211  24.934  1.00  0.00     0.041 A 
ATOM     83  F   UNL A   1      48.110  34.952  24.664  1.00  0.00    -0.206 F 
ATOM     84  C   UNL A   1      51.551  35.162  25.730  1.00  0.00     0.022 A 
BRANCH  81  85
ATOM     85  S   UNL A   1      52.877  34.792  28.148  1.00  0.00     0.124 S 
ATOM     86  O   UNL A   1      53.913  34.184  27.321  1.00  0.00    -0.237 OA
ATOM     87  O   UNL A   1      53.003  36.226  28.385  1.00  0.00    -0.237 OA
ATOM     88  O   UNL A   1      52.463  34.003  29.307  1.00  0.00    -0.744 OA
ENDBRANCH  81  85
ENDBRANCH  54  78
BRANCH  66  89
ATOM     89  C   UNL A   1      43.398  37.694  29.221  1.00  0.00     0.023 A 
ATOM     90  C   UNL A   1      43.726  38.340  30.422  1.00  0.00     0.031 A 
ATOM     91  C   UNL A   1      42.819  38.440  28.183  1.00  0.00     0.131 A 
ATOM     92  C   UNL A   1      43.401  39.689  30.583  1.00  0.00     0.055 A 
ATOM     93  C   UNL A   1      42.572  39.802  28.321  1.00  0.00     0.041 A 
ATOM     94  F   UNL A   1      42.497  37.855  27.018  1.00  0.00    -0.206 F 
ATOM     95  C   UNL A   1      42.849  40.430  29.533  1.00  0.00     0.022 A 
BRANCH  92  96
ATOM     96  S   UNL A   1      43.598  40.422  32.225  1.00  0.00     0.124 S 
ATOM     97  O   UNL A   1      43.961  39.261  33.031  1.00  0.00    -0.237 OA
ATOM     98  O   UNL A   1      44.658  41.401  32.004  1.00  0.00    -0.237 OA
ATOM     99  O   UNL A   1      42.279  40.986  32.505  1.00  0.00    -0.744 OA
ENDBRANCH  92  96
ENDBRANCH  66  89
ENDBRANCH  40  41
ENDBRANCH  33  35
ENDBRANCH  32  33
ENDBRANCH  31  32
ENDBRANCH  30  31
ENDBRANCH  29  30
ENDBRANCH  28  29
ENDBRANCH   1  28
TORSDOF 23
ENDMDL
MODEL 2
REMARK VINA RESULT:      -9.1      1.719      7.560
REMARK SMILES C[C@@H]1C[N@H+]2CCCC[C@@H]2CN1C(=O)NC(=O)CCC(=O)OCCOCCOCCOC(=O)c1ccc(-c2c3nc(c(-c4cc(S(=O)(=O)[O-])ccc4F)c4ccc([nH]4)c(-c4cc(S(=O)(=O)[O-])ccc4F)c4nc(c(-c5cc(S(=O)(=O)[O-])ccc5F)c5ccc2[nH]5)C=C4)C=C3)cc1
REMARK SMILES IDX 25 1 24 2 23 3 22 4 21 5 19 6 20 7 18 8 17 9 15 10 12 11
REMARK SMILES IDX 13 12 14 13 16 15 11 16 1 17 2 18 3 19 4 20 10 21 5 22 9 23
REMARK SMILES IDX 6 25 8 26 7 27 26 28 27 29 28 30 29 31 30 32 31 33 32 34
REMARK SMILES IDX 33 35 34 36 95 37 35 38 94 39 36 40 37 41 38 42 88 43 39 44
REMARK SMILES IDX 93 45 87 46 89 47 40 48 92 49 86 50 85 51 41 53 73 54 53 55
REMARK SMILES IDX 72 56 54 57 57 58 71 59 90 60 55 61 56 62 70 64 91 65 58 66
REMARK SMILES IDX 42 67 43 68 51 69 44 70 50 71 52 72 49 73 45 74 46 75 47 76
REMARK SMILES IDX 48 77 74 78 75 79 83 80 76 81 82 82 84 83 81 84 77 85 78 86
REMARK SMILES IDX 79 87 80 88 59 89 60 90 68 91 61 92 67 93 69 94 66 95 62 96
REMARK SMILES IDX 63 97 64 98 65 99
REMARK H PARENT 14 14 4 24 89 52 57 63
REMARK Flexibility Score: inf
ROOT
ATOM      1  C   UNL A   1      39.769  21.603  26.334  1.00  0.00     0.188 C 
ENDROOT
BRANCH   1   2
ATOM      2  O   UNL A   1      38.474  21.289  25.388  1.00  0.00    -0.376 OA
BRANCH   2   3
ATOM      3  C   UNL A   1      37.224  22.023  25.456  1.00  0.00     0.202 C 
BRANCH   3   4
ATOM      4  C   UNL A   1      36.031  21.467  24.638  1.00  0.00     0.261 C 
BRANCH   4   5
ATOM      5  O   UNL A   1      34.905  22.321  24.684  1.00  0.00    -0.463 OA
BRANCH   5   6
ATOM      6  C   UNL A   1      34.655  22.848  23.475  1.00  0.00     0.306 C 
ATOM      7  O   UNL A   1      35.271  23.786  22.980  1.00  0.00    -0.252 OA
BRANCH   6   8
ATOM      8  C   UNL A   1      33.565  22.120  22.767  1.00  0.00     0.132 C 
BRANCH   8   9
ATOM      9  C   UNL A   1      32.160  21.980  23.367  1.00  0.00     0.112 C 
BRANCH   9  10
ATOM     10  C   UNL A   1      31.746  21.535  24.792  1.00  0.00     0.228 C 
ATOM     11  C   UNL A   1      30.629  23.419  26.469  1.00  0.00     0.324 C 
ATOM     12  O   UNL A   1      29.848  23.301  27.414  1.00  0.00    -0.248 OA
ATOM     13  N   UNL A   1      31.162  22.244  25.860  1.00  0.00    -0.278 N 
ATOM     14  H   UNL A   1      31.075  21.563  26.565  1.00  0.00     0.174 HD
ATOM     15  O   UNL A   1      32.042  20.360  25.089  1.00  0.00    -0.275 OA
BRANCH  11  16
ATOM     16  N   UNL A   1      30.997  24.649  25.986  1.00  0.00    -0.310 N 
ATOM     17  C   UNL A   1      34.050  25.285  26.288  1.00  0.00     0.037 C 
ATOM     18  C   UNL A   1      32.781  25.115  25.410  1.00  0.00     0.139 C 
ATOM     19  C   UNL A   1      32.892  26.694  24.217  1.00  0.00     0.287 C 
ATOM     20  N   UNL A   1      31.425  27.724  23.942  1.00  0.00    -0.329 N 
ATOM     21  C   UNL A   1      29.500  25.733  25.641  1.00  0.00     0.186 C 
ATOM     22  C   UNL A   1      31.602  28.855  22.519  1.00  0.00     0.262 C 
ATOM     23  C   UNL A   1      29.659  27.103  24.349  1.00  0.00     0.203 C 
ATOM     24  H   UNL A   1      31.456  28.282  24.795  1.00  0.00     0.348 HD
ATOM     25  C   UNL A   1      29.793  29.721  21.610  1.00  0.00     0.062 C 
ATOM     26  C   UNL A   1      28.108  27.968  23.840  1.00  0.00     0.067 C 
ATOM     27  C   UNL A   1      28.104  29.103  22.373  1.00  0.00     0.012 C 
ENDBRANCH  11  16
ENDBRANCH   9  10
ENDBRANCH   8   9
ENDBRANCH   6   8
ENDBRANCH   5   6
ENDBRANCH   4   5
ENDBRANCH   3   4
ENDBRANCH   2   3
ENDBRANCH   1   2
BRANCH   1  28
ATOM     28  C   UNL A   1      40.297  23.375  27.382  1.00  0.00     0.188 C 
BRANCH  28  29
ATOM     29  O   UNL A   1      41.226  24.520  26.994  1.00  0.00    -0.376 OA
BRANCH  29  30
ATOM     30  C   UNL A   1      42.545  24.395  27.550  1.00  0.00     0.202 C 
BRANCH  30  31
ATOM     31  C   UNL A   1      43.518  23.410  26.865  1.00  0.00     0.261 C 
BRANCH  31  32
ATOM     32  O   UNL A   1      44.739  23.169  27.565  1.00  0.00    -0.460 OA
BRANCH  32  33
ATOM     33  C   UNL A   1      45.912  23.489  26.938  1.00  0.00     0.338 C 
ATOM     34  O   UNL A   1      46.404  22.894  26.001  1.00  0.00    -0.246 OA
BRANCH  33  35
ATOM     35  C   UNL A   1      46.343  24.813  27.607  1.00  0.00     0.060 A 
ATOM     36  C   UNL A   1      47.132  25.521  29.245  1.00  0.00     0.016 A 
ATOM     37  C   UNL A   1      45.746  25.998  26.423  1.00  0.00     0.016 A 
ATOM     38  C   UNL A   1      47.180  27.242  29.517  1.00  0.00     0.010 A 
ATOM     39  C   UNL A   1      45.901  27.658  26.784  1.00  0.00     0.010 A 
ATOM     40  C   UNL A   1      46.532  28.259  28.273  1.00  0.00    -0.014 A 
BRANCH  40  41
ATOM     41  C   UNL A   1      46.246  29.643  28.679  1.00  0.00     0.031 A 
ATOM     42  C   UNL A   1      47.108  30.737  28.110  1.00  0.00     0.074 A 
ATOM     43  C   UNL A   1      45.098  29.850  29.349  1.00  0.00     0.049 A 
ATOM     44  N   UNL A   1      46.991  32.029  28.231  1.00  0.00    -0.248 NA
ATOM     45  C   UNL A   1      48.273  30.343  27.300  1.00  0.00     0.031 C 
ATOM     46  C   UNL A   1      44.211  28.791  29.854  1.00  0.00     0.029 A 
ATOM     47  N   UNL A   1      44.426  30.998  29.642  1.00  0.00    -0.354 N 
ATOM     48  C   UNL A   1      48.075  32.573  27.542  1.00  0.00     0.074 A 
ATOM     49  C   UNL A   1      48.876  31.488  27.059  1.00  0.00     0.031 C 
ATOM     50  C   UNL A   1      43.059  29.336  30.262  1.00  0.00     0.029 A 
ATOM     51  C   UNL A   1      43.177  30.782  30.182  1.00  0.00     0.049 A 
ATOM     52  H   UNL A   1      44.796  31.896  29.483  1.00  0.00     0.167 HD
ATOM     53  C   UNL A   1      48.363  33.873  27.320  1.00  0.00     0.034 A 
ATOM     54  C   UNL A   1      42.252  31.673  30.585  1.00  0.00     0.034 A 
ATOM     55  C   UNL A   1      47.518  34.908  27.843  1.00  0.00     0.049 A 
ATOM     56  C   UNL A   1      42.635  33.120  30.406  1.00  0.00     0.074 A 
ATOM     57  C   UNL A   1      47.707  36.272  27.851  1.00  0.00     0.029 A 
ATOM     58  N   UNL A   1      46.301  34.658  28.475  1.00  0.00    -0.354 N 
ATOM     59  N   UNL A   1      43.712  33.620  29.834  1.00  0.00    -0.248 NA
ATOM     60  C   UNL A   1      41.711  34.118  30.938  1.00  0.00     0.031 C 
ATOM     61  C   UNL A   1      46.640  36.839  28.557  1.00  0.00     0.029 A 
ATOM     62  C   UNL A   1      45.739  35.839  28.906  1.00  0.00     0.049 A 
ATOM     63  H   UNL A   1      45.901  33.766  28.595  1.00  0.00     0.167 HD
ATOM     64  C   UNL A   1      43.598  34.997  29.939  1.00  0.00     0.074 A 
ATOM     65  C   UNL A   1      42.322  35.242  30.595  1.00  0.00     0.031 C 
ATOM     66  C   UNL A   1      44.457  35.980  29.559  1.00  0.00     0.034 A 
BRANCH  53  67
ATOM     67  C   UNL A   1      49.670  34.173  26.621  1.00  0.00     0.023 A 
ATOM     68  C   UNL A   1      50.915  34.080  27.278  1.00  0.00     0.031 A 
ATOM     69  C   UNL A   1      49.654  34.736  25.334  1.00  0.00     0.131 A 
ATOM     70  C   UNL A   1      52.065  34.636  26.688  1.00  0.00     0.055 A 
ATOM     71  C   UNL A   1      50.816  35.203  24.716  1.00  0.00     0.041 A 
ATOM     72  F   UNL A   1      48.496  34.901  24.676  1.00  0.00    -0.206 F 
ATOM     73  C   UNL A   1      52.028  35.173  25.400  1.00  0.00     0.022 A 
BRANCH  70  74
ATOM     74  S   UNL A   1      53.566  34.828  27.696  1.00  0.00     0.124 S 
ATOM     75  O   UNL A   1      53.355  33.816  28.727  1.00  0.00    -0.237 OA
ATOM     76  O   UNL A   1      54.630  34.554  26.737  1.00  0.00    -0.237 OA
ATOM     77  O   UNL A   1      53.490  36.211  28.164  1.00  0.00    -0.744 OA
ENDBRANCH  70  74
ENDBRANCH  53  67
BRANCH  54  78
ATOM     78  C   UNL A   1      40.979  31.234  31.238  1.00  0.00     0.023 A 
ATOM     79  C   UNL A   1      40.832  31.184  32.634  1.00  0.00     0.031 A 
ATOM     80  C   UNL A   1      39.871  30.835  30.460  1.00  0.00     0.131 A 
ATOM     81  C   UNL A   1      39.628  30.723  33.201  1.00  0.00     0.055 A 
ATOM     82  C   UNL A   1      38.657  30.442  31.027  1.00  0.00     0.041 A 
ATOM     83  F   UNL A   1      39.943  30.840  29.118  1.00  0.00    -0.206 F 
ATOM     84  C   UNL A   1      38.534  30.372  32.407  1.00  0.00     0.022 A 
BRANCH  81  85
ATOM     85  S   UNL A   1      39.534  30.493  35.000  1.00  0.00     0.124 S 
ATOM     86  O   UNL A   1      38.153  30.058  35.174  1.00  0.00    -0.237 OA
ATOM     87  O   UNL A   1      40.561  29.482  35.230  1.00  0.00    -0.237 OA
ATOM     88  O   UNL A   1      39.839  31.821  35.530  1.00  0.00    -0.744 OA
ENDBRANCH  81  85
ENDBRANCH  54  78
BRANCH  66  89
ATOM     89  C   UNL A   1      44.001  37.382  29.823  1.00  0.00     0.023 A 
ATOM     90  C   UNL A   1      44.329  38.036  31.019  1.00  0.00     0.031 A 
ATOM     91  C   UNL A   1      43.242  38.065  28.860  1.00  0.00     0.131 A 
ATOM     92  C   UNL A   1      43.832  39.319  31.255  1.00  0.00     0.055 A 
ATOM     93  C   UNL A   1      42.819  39.374  29.068  1.00  0.00     0.041 A 
ATOM     94  F   UNL A   1      42.913  37.472  27.701  1.00  0.00    -0.206 F 
ATOM     95  C   UNL A   1      43.100  40.003  30.279  1.00  0.00     0.022 A 
BRANCH  92  96
ATOM     96  S   UNL A   1      44.056  40.029  32.904  1.00  0.00     0.124 S 
ATOM     97  O   UNL A   1      42.867  39.550  33.601  1.00  0.00    -0.237 OA
ATOM     98  O   UNL A   1      45.322  39.442  33.328  1.00  0.00    -0.237 OA
ATOM     99  O   UNL A   1      44.091  41.468  32.652  1.00  0.00    -0.744 OA
ENDBRANCH  92  96
ENDBRANCH  66  89
ENDBRANCH  40  41
ENDBRANCH  33  35
ENDBRANCH  32  33
ENDBRANCH  31  32
ENDBRANCH  30  31
ENDBRANCH  29  30
ENDBRANCH  28  29
ENDBRANCH   1  28
TORSDOF 23
ENDMDL
MODEL 3
REMARK VINA RESULT:      -9.0      2.821      8.704
REMARK SMILES C[C@@H]1C[N@H+]2CCCC[C@@H]2CN1C(=O)NC(=O)CCC(=O)OCCOCCOCCOC(=O)c1ccc(-c2c3nc(c(-c4cc(S(=O)(=O)[O-])ccc4F)c4ccc([nH]4)c(-c4cc(S(=O)(=O)[O-])ccc4F)c4nc(c(-c5cc(S(=O)(=O)[O-])ccc5F)c5ccc2[nH]5)C=C4)C=C3)cc1
REMARK SMILES IDX 25 1 24 2 23 3 22 4 21 5 19 6 20 7 18 8 17 9 15 10 12 11
REMARK SMILES IDX 13 12 14 13 16 15 11 16 1 17 2 18 3 19 4 20 10 21 5 22 9 23
REMARK SMILES IDX 6 25 8 26 7 27 26 28 27 29 28 30 29 31 30 32 31 33 32 34
REMARK SMILES IDX 33 35 34 36 95 37 35 38 94 39 36 40 37 41 38 42 88 43 39 44
REMARK SMILES IDX 93 45 87 46 89 47 40 48 92 49 86 50 85 51 41 53 73 54 53 55
REMARK SMILES IDX 72 56 54 57 57 58 71 59 90 60 55 61 56 62 70 64 91 65 58 66
REMARK SMILES IDX 42 67 43 68 51 69 44 70 50 71 52 72 49 73 45 74 46 75 47 76
REMARK SMILES IDX 48 77 74 78 75 79 83 80 76 81 82 82 84 83 81 84 77 85 78 86
REMARK SMILES IDX 79 87 80 88 59 89 60 90 68 91 61 92 67 93 69 94 66 95 62 96
REMARK SMILES IDX 63 97 64 98 65 99
REMARK H PARENT 14 14 4 24 89 52 57 63
REMARK Flexibility Score: inf
ROOT
ATOM      1  C   UNL A   1      37.979  28.841  28.642  1.00  0.00     0.188 C 
ENDROOT
BRANCH   1   2
ATOM      2  O   UNL A   1      37.089  29.671  27.552  1.00  0.00    -0.376 OA
BRANCH   2   3
ATOM      3  C   UNL A   1      35.648  29.829  27.633  1.00  0.00     0.202 C 
BRANCH   3   4
ATOM      4  C   UNL A   1      34.783  28.886  26.760  1.00  0.00     0.261 C 
BRANCH   4   5
ATOM      5  O   UNL A   1      33.449  29.339  26.642  1.00  0.00    -0.463 OA
BRANCH   5   6
ATOM      6  C   UNL A   1      32.942  29.025  25.440  1.00  0.00     0.306 C 
ATOM      7  O   UNL A   1      32.090  29.678  24.847  1.00  0.00    -0.252 OA
BRANCH   6   8
ATOM      8  C   UNL A   1      33.580  27.805  24.870  1.00  0.00     0.132 C 
BRANCH   8   9
ATOM      9  C   UNL A   1      32.820  26.478  24.738  1.00  0.00     0.112 C 
BRANCH   9  10
ATOM     10  C   UNL A   1      31.538  26.011  25.471  1.00  0.00     0.228 C 
ATOM     11  C   UNL A   1      31.546  23.510  26.635  1.00  0.00     0.324 C 
ATOM     12  O   UNL A   1      30.913  23.059  27.591  1.00  0.00    -0.248 OA
ATOM     13  N   UNL A   1      31.234  24.816  26.152  1.00  0.00    -0.278 N 
ATOM     14  H   UNL A   1      30.309  24.957  26.459  1.00  0.00     0.174 HD
ATOM     15  O   UNL A   1      30.566  26.790  25.392  1.00  0.00    -0.275 OA
BRANCH  11  16
ATOM     16  N   UNL A   1      32.542  22.790  26.025  1.00  0.00    -0.310 N 
ATOM     17  C   UNL A   1      35.310  24.255  25.933  1.00  0.00     0.037 C 
ATOM     18  C   UNL A   1      34.430  23.043  26.342  1.00  0.00     0.139 C 
ATOM     19  C   UNL A   1      35.579  21.510  25.830  1.00  0.00     0.287 C 
ATOM     20  N   UNL A   1      34.872  20.120  24.905  1.00  0.00    -0.329 N 
ATOM     21  C   UNL A   1      31.854  21.309  25.094  1.00  0.00     0.186 C 
ATOM     22  C   UNL A   1      35.951  18.647  24.893  1.00  0.00     0.262 C 
ATOM     23  C   UNL A   1      32.983  19.819  24.814  1.00  0.00     0.203 C 
ATOM     24  H   UNL A   1      34.881  20.526  23.969  1.00  0.00     0.348 HD
ATOM     25  C   UNL A   1      35.078  16.685  24.405  1.00  0.00     0.062 C 
ATOM     26  C   UNL A   1      32.204  18.285  24.140  1.00  0.00     0.067 C 
ATOM     27  C   UNL A   1      33.145  16.687  24.116  1.00  0.00     0.012 C 
ENDBRANCH  11  16
ENDBRANCH   9  10
ENDBRANCH   8   9
ENDBRANCH   6   8
ENDBRANCH   5   6
ENDBRANCH   4   5
ENDBRANCH   3   4
ENDBRANCH   2   3
ENDBRANCH   1   2
BRANCH   1  28
ATOM     28  C   UNL A   1      39.052  27.019  28.425  1.00  0.00     0.188 C 
BRANCH  28  29
ATOM     29  O   UNL A   1      39.906  26.500  27.273  1.00  0.00    -0.376 OA
BRANCH  29  30
ATOM     30  C   UNL A   1      40.024  25.069  27.254  1.00  0.00     0.202 C 
BRANCH  30  31
ATOM     31  C   UNL A   1      41.408  24.472  26.917  1.00  0.00     0.261 C 
BRANCH  31  32
ATOM     32  O   UNL A   1      41.941  24.840  25.645  1.00  0.00    -0.460 OA
BRANCH  32  33
ATOM     33  C   UNL A   1      43.286  24.690  25.444  1.00  0.00     0.338 C 
ATOM     34  O   UNL A   1      43.806  24.071  24.539  1.00  0.00    -0.246 OA
BRANCH  33  35
ATOM     35  C   UNL A   1      43.927  25.584  26.529  1.00  0.00     0.060 A 
ATOM     36  C   UNL A   1      44.728  25.507  28.306  1.00  0.00     0.016 A 
ATOM     37  C   UNL A   1      43.661  27.199  25.834  1.00  0.00     0.016 A 
ATOM     38  C   UNL A   1      45.102  26.981  29.159  1.00  0.00     0.010 A 
ATOM     39  C   UNL A   1      44.121  28.564  26.749  1.00  0.00     0.010 A 
ATOM     40  C   UNL A   1      44.757  28.474  28.350  1.00  0.00    -0.014 A 
BRANCH  40  41
ATOM     41  C   UNL A   1      44.727  29.664  29.213  1.00  0.00     0.031 A 
ATOM     42  C   UNL A   1      45.916  30.586  29.183  1.00  0.00     0.074 A 
ATOM     43  C   UNL A   1      43.550  29.958  29.793  1.00  0.00     0.049 A 
ATOM     44  N   UNL A   1      46.081  31.740  29.766  1.00  0.00    -0.248 NA
ATOM     45  C   UNL A   1      47.093  30.165  28.406  1.00  0.00     0.031 C 
ATOM     46  C   UNL A   1      42.359  29.096  29.775  1.00  0.00     0.029 A 
ATOM     47  N   UNL A   1      43.120  31.085  30.426  1.00  0.00    -0.354 N 
ATOM     48  C   UNL A   1      47.377  32.144  29.443  1.00  0.00     0.074 A 
ATOM     49  C   UNL A   1      47.981  31.099  28.672  1.00  0.00     0.031 C 
ATOM     50  C   UNL A   1      41.308  29.782  30.239  1.00  0.00     0.029 A 
ATOM     51  C   UNL A   1      41.773  31.073  30.718  1.00  0.00     0.049 A 
ATOM     52  H   UNL A   1      43.713  31.838  30.652  1.00  0.00     0.167 HD
ATOM     53  C   UNL A   1      47.998  33.302  29.753  1.00  0.00     0.034 A 
ATOM     54  C   UNL A   1      41.021  32.006  31.331  1.00  0.00     0.034 A 
ATOM     55  C   UNL A   1      47.332  34.301  30.538  1.00  0.00     0.049 A 
ATOM     56  C   UNL A   1      41.758  33.254  31.744  1.00  0.00     0.074 A 
ATOM     57  C   UNL A   1      47.828  35.468  31.073  1.00  0.00     0.029 A 
ATOM     58  N   UNL A   1      45.989  34.217  30.905  1.00  0.00    -0.354 N 
ATOM     59  N   UNL A   1      43.014  33.582  31.512  1.00  0.00    -0.248 NA
ATOM     60  C   UNL A   1      41.006  34.240  32.516  1.00  0.00     0.031 C 
ATOM     61  C   UNL A   1      46.805  36.050  31.831  1.00  0.00     0.029 A 
ATOM     62  C   UNL A   1      45.644  35.297  31.688  1.00  0.00     0.049 A 
ATOM     63  H   UNL A   1      45.377  33.492  30.642  1.00  0.00     0.167 HD
ATOM     64  C   UNL A   1      43.205  34.816  32.112  1.00  0.00     0.074 A 
ATOM     65  C   UNL A   1      41.918  35.187  32.681  1.00  0.00     0.031 C 
ATOM     66  C   UNL A   1      44.328  35.577  32.214  1.00  0.00     0.034 A 
BRANCH  53  67
ATOM     67  C   UNL A   1      49.451  33.425  29.351  1.00  0.00     0.023 A 
ATOM     68  C   UNL A   1      49.845  33.869  28.072  1.00  0.00     0.031 A 
ATOM     69  C   UNL A   1      50.449  32.917  30.201  1.00  0.00     0.131 A 
ATOM     70  C   UNL A   1      51.175  33.699  27.647  1.00  0.00     0.055 A 
ATOM     71  C   UNL A   1      51.786  32.836  29.804  1.00  0.00     0.041 A 
ATOM     72  F   UNL A   1      50.132  32.431  31.411  1.00  0.00    -0.206 F 
ATOM     73  C   UNL A   1      52.153  33.210  28.515  1.00  0.00     0.022 A 
BRANCH  70  74
ATOM     74  S   UNL A   1      51.576  33.938  25.890  1.00  0.00     0.124 S 
ATOM     75  O   UNL A   1      50.377  33.410  25.244  1.00  0.00    -0.237 OA
ATOM     76  O   UNL A   1      51.768  35.380  25.801  1.00  0.00    -0.237 OA
ATOM     77  O   UNL A   1      52.783  33.135  25.701  1.00  0.00    -0.744 OA
ENDBRANCH  70  74
ENDBRANCH  53  67
BRANCH  54  78
ATOM     78  C   UNL A   1      39.577  31.763  31.641  1.00  0.00     0.023 A 
ATOM     79  C   UNL A   1      38.542  32.372  30.912  1.00  0.00     0.031 A 
ATOM     80  C   UNL A   1      39.202  30.914  32.704  1.00  0.00     0.131 A 
ATOM     81  C   UNL A   1      37.199  32.145  31.270  1.00  0.00     0.055 A 
ATOM     82  C   UNL A   1      37.868  30.640  33.013  1.00  0.00     0.041 A 
ATOM     83  F   UNL A   1      40.137  30.311  33.457  1.00  0.00    -0.206 F 
ATOM     84  C   UNL A   1      36.856  31.268  32.301  1.00  0.00     0.022 A 
BRANCH  81  85
ATOM     85  S   UNL A   1      35.894  33.090  30.431  1.00  0.00     0.124 S 
ATOM     86  O   UNL A   1      34.813  32.113  30.366  1.00  0.00    -0.237 OA
ATOM     87  O   UNL A   1      35.695  34.209  31.345  1.00  0.00    -0.237 OA
ATOM     88  O   UNL A   1      36.497  33.435  29.145  1.00  0.00    -0.744 OA
ENDBRANCH  81  85
ENDBRANCH  54  78
BRANCH  66  89
ATOM     89  C   UNL A   1      44.168  36.879  32.936  1.00  0.00     0.023 A 
ATOM     90  C   UNL A   1      43.872  38.060  32.241  1.00  0.00     0.031 A 
ATOM     91  C   UNL A   1      44.306  36.928  34.333  1.00  0.00     0.131 A 
ATOM     92  C   UNL A   1      43.794  39.265  32.942  1.00  0.00     0.055 A 
ATOM     93  C   UNL A   1      44.146  38.119  35.034  1.00  0.00     0.041 A 
ATOM     94  F   UNL A   1      44.585  35.816  35.032  1.00  0.00    -0.206 F 
ATOM     95  C   UNL A   1      43.904  39.300  34.336  1.00  0.00     0.022 A 
BRANCH  92  96
ATOM     96  S   UNL A   1      43.668  40.798  31.989  1.00  0.00     0.124 S 
ATOM     97  O   UNL A   1      42.637  40.461  31.013  1.00  0.00    -0.237 OA
ATOM     98  O   UNL A   1      43.287  41.770  33.008  1.00  0.00    -0.237 OA
ATOM     99  O   UNL A   1      45.012  40.968  31.441  1.00  0.00    -0.744 OA
ENDBRANCH  92  96
ENDBRANCH  66  89
ENDBRANCH  40  41
ENDBRANCH  33  35
ENDBRANCH  32  33
ENDBRANCH  31  32
ENDBRANCH  30  31
ENDBRANCH  29  30
ENDBRANCH  28  29
ENDBRANCH   1  28
TORSDOF 23
ENDMDL
