MODEL 1
REMARK VINA RESULT:     -11.7      0.000      0.000
REMARK SMILES O=C(Nc1ccc(N2CCCCC2)cc1C(=O)OCCOCCOCCOC(=O)c1ccc(-c2c3nc(c(-c4cc(S(=O)(=O)[O-])ccc4F)c4ccc([nH]4)c(-c4cc(S(=O)(=O)[O-])ccc4F)c4nc(c(-c5cc(S(=O)(=O)[O-])ccc5F)c5ccc2[nH]5)C=C4)C=C3)cc1)c1ccccc1
REMARK SMILES IDX 23 1 22 2 21 3 20 4 19 5 18 6 16 7 17 8 15 9 4 10 5 11 6 12
REMARK SMILES IDX 14 13 7 14 3 15 1 16 2 17 93 19 94 20 98 21 95 22 97 23
REMARK SMILES IDX 96 24 8 25 9 26 13 27 10 28 12 29 11 30 24 31 25 32 26 33
REMARK SMILES IDX 27 34 28 35 29 36 30 37 31 38 92 39 32 40 91 41 33 42 34 43
REMARK SMILES IDX 35 44 85 45 36 46 90 47 84 48 86 49 37 50 89 51 83 52 82 53
REMARK SMILES IDX 38 55 70 56 50 57 69 58 51 59 54 60 68 61 87 62 52 63 53 64
REMARK SMILES IDX 67 66 88 67 55 68 39 69 40 70 48 71 41 72 47 73 49 74 46 75
REMARK SMILES IDX 42 76 43 77 44 78 45 79 71 80 72 81 80 82 73 83 79 84 81 85
REMARK SMILES IDX 78 86 74 87 75 88 76 89 77 90 56 91 57 92 65 93 58 94 64 95
REMARK SMILES IDX 66 96 63 97 59 98 60 99 61 100 62 101
REMARK H PARENT 3 18 86 54 54 65
REMARK Flexibility Score: inf
ROOT
ATOM      1  C   UNL A   1      42.138  19.516  26.237  1.00  0.00     0.188 C 
ENDROOT
BRANCH   1   2
ATOM      2  C   UNL A   1      40.673  19.990  26.102  1.00  0.00     0.188 C 
BRANCH   2   3
ATOM      3  O   UNL A   1      40.394  21.241  26.685  1.00  0.00    -0.376 OA
BRANCH   3   4
ATOM      4  C   UNL A   1      39.494  22.123  26.050  1.00  0.00     0.202 C 
BRANCH   4   5
ATOM      5  C   UNL A   1      38.015  21.825  25.765  1.00  0.00     0.261 C 
BRANCH   5   6
ATOM      6  O   UNL A   1      37.384  22.399  24.617  1.00  0.00    -0.460 OA
BRANCH   6   7
ATOM      7  C   UNL A   1      36.234  23.085  24.851  1.00  0.00     0.340 C 
ATOM      8  O   UNL A   1      36.165  24.206  25.332  1.00  0.00    -0.246 OA
BRANCH   7   9
ATOM      9  C   UNL A   1      35.055  22.364  24.300  1.00  0.00     0.085 A 
ATOM     10  C   UNL A   1      34.075  22.922  23.453  1.00  0.00     0.056 A 
ATOM     11  C   UNL A   1      32.930  22.163  23.178  1.00  0.00     0.029 A 
ATOM     12  C   UNL A   1      32.824  20.841  23.608  1.00  0.00     0.028 A 
ATOM     13  C   UNL A   1      34.917  21.028  24.747  1.00  0.00     0.043 A 
ATOM     14  C   UNL A   1      33.823  20.245  24.378  1.00  0.00     0.038 A 
BRANCH  10  15
ATOM     15  N   UNL A   1      34.110  24.165  22.779  1.00  0.00    -0.321 N 
ATOM     16  O   UNL A   1      33.563  26.280  22.201  1.00  0.00    -0.269 OA
ATOM     17  C   UNL A   1      33.485  25.369  23.025  1.00  0.00     0.255 C 
ATOM     18  H   UNL A   1      34.690  24.172  21.984  1.00  0.00     0.170 HD
BRANCH  17  19
ATOM     19  C   UNL A   1      32.768  25.618  24.298  1.00  0.00     0.040 A 
ATOM     20  C   UNL A   1      31.395  25.384  24.431  1.00  0.00     0.014 A 
ATOM     21  C   UNL A   1      33.487  26.202  25.346  1.00  0.00     0.014 A 
ATOM     22  C   UNL A   1      30.716  25.899  25.534  1.00  0.00     0.001 A 
ATOM     23  C   UNL A   1      32.804  26.712  26.449  1.00  0.00     0.001 A 
ATOM     24  C   UNL A   1      31.416  26.592  26.523  1.00  0.00     0.000 A 
ENDBRANCH  17  19
ENDBRANCH  10  15
BRANCH  14  25
ATOM     25  N   UNL A   1      33.700  18.917  24.714  1.00  0.00    -0.372 N 
ATOM     26  C   UNL A   1      34.792  18.008  24.374  1.00  0.00     0.116 C 
ATOM     27  C   UNL A   1      32.774  18.461  25.746  1.00  0.00     0.116 C 
ATOM     28  C   UNL A   1      34.196  16.699  23.862  1.00  0.00     0.021 C 
ATOM     29  C   UNL A   1      32.138  17.151  25.267  1.00  0.00     0.021 C 
ATOM     30  C   UNL A   1      33.191  16.117  24.858  1.00  0.00     0.004 C 
ENDBRANCH  14  25
ENDBRANCH   7   9
ENDBRANCH   6   7
ENDBRANCH   5   6
ENDBRANCH   4   5
ENDBRANCH   3   4
ENDBRANCH   2   3
ENDBRANCH   1   2
BRANCH   1  31
ATOM     31  O   UNL A   1      42.993  19.480  25.106  1.00  0.00    -0.376 OA
BRANCH  31  32
ATOM     32  C   UNL A   1      44.371  19.790  25.261  1.00  0.00     0.202 C 
BRANCH  32  33
ATOM     33  C   UNL A   1      44.935  21.174  24.886  1.00  0.00     0.261 C 
BRANCH  33  34
ATOM     34  O   UNL A   1      44.672  22.239  25.812  1.00  0.00    -0.460 OA
BRANCH  34  35
ATOM     35  C   UNL A   1      43.627  23.048  25.499  1.00  0.00     0.338 C 
ATOM     36  O   UNL A   1      42.836  22.896  24.584  1.00  0.00    -0.246 OA
BRANCH  35  37
ATOM     37  C   UNL A   1      43.433  24.033  26.589  1.00  0.00     0.060 A 
ATOM     38  C   UNL A   1      42.745  23.620  27.741  1.00  0.00     0.016 A 
ATOM     39  C   UNL A   1      43.941  25.330  26.503  1.00  0.00     0.016 A 
ATOM     40  C   UNL A   1      42.546  24.505  28.801  1.00  0.00     0.010 A 
ATOM     41  C   UNL A   1      43.709  26.230  27.551  1.00  0.00     0.010 A 
ATOM     42  C   UNL A   1      42.986  25.830  28.691  1.00  0.00    -0.014 A 
BRANCH  42  43
ATOM     43  C   UNL A   1      42.457  26.847  29.635  1.00  0.00     0.031 A 
ATOM     44  C   UNL A   1      43.156  26.992  30.961  1.00  0.00     0.074 A 
ATOM     45  C   UNL A   1      41.419  27.646  29.327  1.00  0.00     0.049 A 
ATOM     46  N   UNL A   1      42.858  27.749  31.984  1.00  0.00    -0.248 NA
ATOM     47  C   UNL A   1      44.358  26.163  31.151  1.00  0.00     0.031 C 
ATOM     48  C   UNL A   1      40.702  27.651  28.054  1.00  0.00     0.029 A 
ATOM     49  N   UNL A   1      40.781  28.605  30.077  1.00  0.00    -0.354 N 
ATOM     50  C   UNL A   1      43.835  27.488  32.939  1.00  0.00     0.074 A 
ATOM     51  C   UNL A   1      44.710  26.478  32.386  1.00  0.00     0.031 C 
ATOM     52  C   UNL A   1      39.704  28.553  28.122  1.00  0.00     0.029 A 
ATOM     53  C   UNL A   1      39.688  29.160  29.452  1.00  0.00     0.049 A 
ATOM     54  H   UNL A   1      41.081  28.870  30.976  1.00  0.00     0.167 HD
ATOM     55  C   UNL A   1      43.995  28.046  34.163  1.00  0.00     0.034 A 
ATOM     56  C   UNL A   1      38.763  30.028  29.919  1.00  0.00     0.034 A 
ATOM     57  C   UNL A   1      43.101  29.031  34.718  1.00  0.00     0.049 A 
ATOM     58  C   UNL A   1      38.892  30.550  31.334  1.00  0.00     0.074 A 
ATOM     59  C   UNL A   1      43.157  29.648  35.954  1.00  0.00     0.029 A 
ATOM     60  N   UNL A   1      41.976  29.531  34.075  1.00  0.00    -0.354 N 
ATOM     61  N   UNL A   1      39.815  30.293  32.233  1.00  0.00    -0.248 NA
ATOM     62  C   UNL A   1      37.856  31.485  31.796  1.00  0.00     0.031 C 
ATOM     63  C   UNL A   1      42.030  30.465  36.088  1.00  0.00     0.029 A 
ATOM     64  C   UNL A   1      41.315  30.425  34.902  1.00  0.00     0.049 A 
ATOM     65  H   UNL A   1      41.688  29.286  33.166  1.00  0.00     0.167 HD
ATOM     66  C   UNL A   1      39.488  31.063  33.350  1.00  0.00     0.074 A 
ATOM     67  C   UNL A   1      38.292  31.803  33.005  1.00  0.00     0.031 C 
ATOM     68  C   UNL A   1      40.121  31.156  34.548  1.00  0.00     0.034 A 
BRANCH  55  69
ATOM     69  C   UNL A   1      45.150  27.552  34.998  1.00  0.00     0.023 A 
ATOM     70  C   UNL A   1      45.029  26.424  35.830  1.00  0.00     0.031 A 
ATOM     71  C   UNL A   1      46.375  28.242  34.994  1.00  0.00     0.131 A 
ATOM     72  C   UNL A   1      46.090  26.061  36.673  1.00  0.00     0.055 A 
ATOM     73  C   UNL A   1      47.454  27.827  35.776  1.00  0.00     0.041 A 
ATOM     74  F   UNL A   1      46.538  29.341  34.242  1.00  0.00    -0.206 F 
ATOM     75  C   UNL A   1      47.311  26.739  36.633  1.00  0.00     0.022 A 
BRANCH  72  76
ATOM     76  S   UNL A   1      45.802  24.781  37.925  1.00  0.00     0.124 S 
ATOM     77  O   UNL A   1      46.752  25.168  38.966  1.00  0.00    -0.237 OA
ATOM     78  O   UNL A   1      44.392  24.968  38.247  1.00  0.00    -0.237 OA
ATOM     79  O   UNL A   1      46.125  23.540  37.226  1.00  0.00    -0.744 OA
ENDBRANCH  72  76
ENDBRANCH  55  69
BRANCH  56  80
ATOM     80  C   UNL A   1      37.592  30.420  29.079  1.00  0.00     0.023 A 
ATOM     81  C   UNL A   1      37.106  31.737  29.070  1.00  0.00     0.031 A 
ATOM     82  C   UNL A   1      36.887  29.456  28.336  1.00  0.00     0.131 A 
ATOM     83  C   UNL A   1      35.921  32.043  28.379  1.00  0.00     0.055 A 
ATOM     84  C   UNL A   1      35.742  29.776  27.603  1.00  0.00     0.041 A 
ATOM     85  F   UNL A   1      37.300  28.178  28.315  1.00  0.00    -0.206 F 
ATOM     86  C   UNL A   1      35.244  31.075  27.635  1.00  0.00     0.022 A 
BRANCH  83  87
ATOM     87  S   UNL A   1      35.218  33.707  28.553  1.00  0.00     0.124 S 
ATOM     88  O   UNL A   1      33.951  33.426  29.217  1.00  0.00    -0.237 OA
ATOM     89  O   UNL A   1      36.231  34.379  29.360  1.00  0.00    -0.237 OA
ATOM     90  O   UNL A   1      35.110  34.177  27.173  1.00  0.00    -0.744 OA
ENDBRANCH  83  87
ENDBRANCH  56  80
BRANCH  68  91
ATOM     91  C   UNL A   1      39.565  32.137  35.553  1.00  0.00     0.023 A 
ATOM     92  C   UNL A   1      39.989  33.476  35.605  1.00  0.00     0.031 A 
ATOM     93  C   UNL A   1      38.585  31.720  36.475  1.00  0.00     0.131 A 
ATOM     94  C   UNL A   1      39.476  34.336  36.589  1.00  0.00     0.055 A 
ATOM     95  C   UNL A   1      38.032  32.596  37.410  1.00  0.00     0.041 A 
ATOM     96  F   UNL A   1      38.142  30.452  36.474  1.00  0.00    -0.206 F 
ATOM     97  C   UNL A   1      38.487  33.908  37.480  1.00  0.00     0.022 A 
BRANCH  94  98
ATOM     98  S   UNL A   1      40.184  35.998  36.752  1.00  0.00     0.124 S 
ATOM     99  O   UNL A   1      41.602  35.707  36.935  1.00  0.00    -0.237 OA
ATOM    100  O   UNL A   1      39.818  36.619  35.484  1.00  0.00    -0.237 OA
ATOM    101  O   UNL A   1      39.507  36.545  37.928  1.00  0.00    -0.744 OA
ENDBRANCH  94  98
ENDBRANCH  68  91
ENDBRANCH  42  43
ENDBRANCH  35  37
ENDBRANCH  34  35
ENDBRANCH  33  34
ENDBRANCH  32  33
ENDBRANCH  31  32
ENDBRANCH   1  31
TORSDOF 23
ENDMDL
MODEL 2
REMARK VINA RESULT:     -11.4      4.395     10.500
REMARK SMILES O=C(Nc1ccc(N2CCCCC2)cc1C(=O)OCCOCCOCCOC(=O)c1ccc(-c2c3nc(c(-c4cc(S(=O)(=O)[O-])ccc4F)c4ccc([nH]4)c(-c4cc(S(=O)(=O)[O-])ccc4F)c4nc(c(-c5cc(S(=O)(=O)[O-])ccc5F)c5ccc2[nH]5)C=C4)C=C3)cc1)c1ccccc1
REMARK SMILES IDX 23 1 22 2 21 3 20 4 19 5 18 6 16 7 17 8 15 9 4 10 5 11 6 12
REMARK SMILES IDX 14 13 7 14 3 15 1 16 2 17 93 19 94 20 98 21 95 22 97 23
REMARK SMILES IDX 96 24 8 25 9 26 13 27 10 28 12 29 11 30 24 31 25 32 26 33
REMARK SMILES IDX 27 34 28 35 29 36 30 37 31 38 92 39 32 40 91 41 33 42 34 43
REMARK SMILES IDX 35 44 85 45 36 46 90 47 84 48 86 49 37 50 89 51 83 52 82 53
REMARK SMILES IDX 38 55 70 56 50 57 69 58 51 59 54 60 68 61 87 62 52 63 53 64
REMARK SMILES IDX 67 66 88 67 55 68 39 69 40 70 48 71 41 72 47 73 49 74 46 75
REMARK SMILES IDX 42 76 43 77 44 78 45 79 71 80 72 81 80 82 73 83 79 84 81 85
REMARK SMILES IDX 78 86 74 87 75 88 76 89 77 90 56 91 57 92 65 93 58 94 64 95
REMARK SMILES IDX 66 96 63 97 59 98 60 99 61 100 62 101
REMARK H PARENT 3 18 86 54 54 65
REMARK Flexibility Score: inf
ROOT
ATOM      1  C   UNL A   1      34.177  34.241  29.911  1.00  0.00     0.188 C 
ENDROOT
BRANCH   1   2
ATOM      2  C   UNL A   1      34.543  33.719  28.504  1.00  0.00     0.188 C 
BRANCH   2   3
ATOM      3  O   UNL A   1      33.665  32.753  27.978  1.00  0.00    -0.376 OA
BRANCH   3   4
ATOM      4  C   UNL A   1      33.958  31.382  28.137  1.00  0.00     0.202 C 
BRANCH   4   5
ATOM      5  C   UNL A   1      34.286  30.408  26.996  1.00  0.00     0.261 C 
BRANCH   5   6
ATOM      6  O   UNL A   1      33.231  29.894  26.178  1.00  0.00    -0.460 OA
BRANCH   6   7
ATOM      7  C   UNL A   1      32.771  28.658  26.508  1.00  0.00     0.340 C 
ATOM      8  O   UNL A   1      33.173  27.981  27.442  1.00  0.00    -0.246 OA
BRANCH   7   9
ATOM      9  C   UNL A   1      31.591  28.283  25.681  1.00  0.00     0.085 A 
ATOM     10  C   UNL A   1      30.974  27.016  25.662  1.00  0.00     0.056 A 
ATOM     11  C   UNL A   1      29.995  26.773  24.690  1.00  0.00     0.029 A 
ATOM     12  C   UNL A   1      29.540  27.796  23.858  1.00  0.00     0.028 A 
ATOM     13  C   UNL A   1      31.133  29.301  24.811  1.00  0.00     0.043 A 
ATOM     14  C   UNL A   1      30.083  29.079  23.920  1.00  0.00     0.038 A 
BRANCH  10  15
ATOM     15  N   UNL A   1      31.175  25.934  26.549  1.00  0.00    -0.321 N 
ATOM     16  O   UNL A   1      31.717  23.867  27.284  1.00  0.00    -0.269 OA
ATOM     17  C   UNL A   1      31.796  24.712  26.393  1.00  0.00     0.255 C 
ATOM     18  H   UNL A   1      30.803  26.079  27.449  1.00  0.00     0.170 HD
BRANCH  17  19
ATOM     19  C   UNL A   1      32.615  24.413  25.196  1.00  0.00     0.040 A 
ATOM     20  C   UNL A   1      32.147  23.589  24.166  1.00  0.00     0.014 A 
ATOM     21  C   UNL A   1      33.928  24.895  25.169  1.00  0.00     0.014 A 
ATOM     22  C   UNL A   1      33.044  23.104  23.216  1.00  0.00     0.001 A 
ATOM     23  C   UNL A   1      34.820  24.410  24.213  1.00  0.00     0.001 A 
ATOM     24  C   UNL A   1      34.385  23.488  23.261  1.00  0.00     0.000 A 
ENDBRANCH  17  19
ENDBRANCH  10  15
BRANCH  14  25
ATOM     25  N   UNL A   1      29.547  30.067  23.126  1.00  0.00    -0.372 N 
ATOM     26  C   UNL A   1      29.262  31.367  23.728  1.00  0.00     0.116 C 
ATOM     27  C   UNL A   1      29.656  30.037  21.671  1.00  0.00     0.116 C 
ATOM     28  C   UNL A   1      27.924  31.871  23.191  1.00  0.00     0.021 C 
ATOM     29  C   UNL A   1      28.326  30.522  21.086  1.00  0.00     0.021 C 
ATOM     30  C   UNL A   1      27.905  31.878  21.661  1.00  0.00     0.004 C 
ENDBRANCH  14  25
ENDBRANCH   7   9
ENDBRANCH   6   7
ENDBRANCH   5   6
ENDBRANCH   4   5
ENDBRANCH   3   4
ENDBRANCH   2   3
ENDBRANCH   1   2
BRANCH   1  31
ATOM     31  O   UNL A   1      34.032  33.344  31.001  1.00  0.00    -0.376 OA
BRANCH  31  32
ATOM     32  C   UNL A   1      35.150  33.069  31.833  1.00  0.00     0.202 C 
BRANCH  32  33
ATOM     33  C   UNL A   1      36.372  32.288  31.313  1.00  0.00     0.261 C 
BRANCH  33  34
ATOM     34  O   UNL A   1      36.971  31.361  32.231  1.00  0.00    -0.460 OA
BRANCH  34  35
ATOM     35  C   UNL A   1      37.016  30.067  31.818  1.00  0.00     0.338 C 
ATOM     36  O   UNL A   1      36.194  29.495  31.122  1.00  0.00    -0.246 OA
BRANCH  35  37
ATOM     37  C   UNL A   1      38.347  29.502  32.139  1.00  0.00     0.060 A 
ATOM     38  C   UNL A   1      39.454  30.366  32.130  1.00  0.00     0.016 A 
ATOM     39  C   UNL A   1      38.510  28.156  32.474  1.00  0.00     0.016 A 
ATOM     40  C   UNL A   1      40.727  29.885  32.437  1.00  0.00     0.010 A 
ATOM     41  C   UNL A   1      39.794  27.667  32.745  1.00  0.00     0.010 A 
ATOM     42  C   UNL A   1      40.911  28.523  32.699  1.00  0.00    -0.014 A 
BRANCH  42  43
ATOM     43  C   UNL A   1      42.283  27.957  32.655  1.00  0.00     0.031 A 
ATOM     44  C   UNL A   1      42.995  27.762  33.968  1.00  0.00     0.074 A 
ATOM     45  C   UNL A   1      42.877  27.591  31.504  1.00  0.00     0.049 A 
ATOM     46  N   UNL A   1      44.214  27.354  34.206  1.00  0.00    -0.248 NA
ATOM     47  C   UNL A   1      42.214  28.072  35.178  1.00  0.00     0.031 C 
ATOM     48  C   UNL A   1      42.270  27.665  30.177  1.00  0.00     0.029 A 
ATOM     49  N   UNL A   1      44.135  27.090  31.272  1.00  0.00    -0.354 N 
ATOM     50  C   UNL A   1      44.347  27.359  35.590  1.00  0.00     0.074 A 
ATOM     51  C   UNL A   1      43.098  27.844  36.135  1.00  0.00     0.031 C 
ATOM     52  C   UNL A   1      43.169  27.250  29.265  1.00  0.00     0.029 A 
ATOM     53  C   UNL A   1      44.424  26.917  29.938  1.00  0.00     0.049 A 
ATOM     54  H   UNL A   1      44.769  26.874  31.993  1.00  0.00     0.167 HD
ATOM     55  C   UNL A   1      45.410  26.984  36.342  1.00  0.00     0.034 A 
ATOM     56  C   UNL A   1      45.581  26.567  29.334  1.00  0.00     0.034 A 
ATOM     57  C   UNL A   1      46.661  26.530  35.789  1.00  0.00     0.049 A 
ATOM     58  C   UNL A   1      46.796  26.267  30.187  1.00  0.00     0.074 A 
ATOM     59  C   UNL A   1      47.809  26.144  36.456  1.00  0.00     0.029 A 
ATOM     60  N   UNL A   1      46.933  26.416  34.432  1.00  0.00    -0.354 N 
ATOM     61  N   UNL A   1      46.915  26.280  31.496  1.00  0.00    -0.248 NA
ATOM     62  C   UNL A   1      48.031  25.898  29.480  1.00  0.00     0.031 C 
ATOM     63  C   UNL A   1      48.796  25.866  35.506  1.00  0.00     0.029 A 
ATOM     64  C   UNL A   1      48.240  25.995  34.243  1.00  0.00     0.049 A 
ATOM     65  H   UNL A   1      46.293  26.606  33.709  1.00  0.00     0.167 HD
ATOM     66  C   UNL A   1      48.226  25.887  31.765  1.00  0.00     0.074 A 
ATOM     67  C   UNL A   1      48.852  25.631  30.485  1.00  0.00     0.031 C 
ATOM     68  C   UNL A   1      48.854  25.744  32.961  1.00  0.00     0.034 A 
BRANCH  55  69
ATOM     69  C   UNL A   1      45.273  27.111  37.838  1.00  0.00     0.023 A 
ATOM     70  C   UNL A   1      45.632  28.291  38.513  1.00  0.00     0.031 A 
ATOM     71  C   UNL A   1      44.817  26.025  38.604  1.00  0.00     0.131 A 
ATOM     72  C   UNL A   1      45.594  28.333  39.915  1.00  0.00     0.055 A 
ATOM     73  C   UNL A   1      44.705  26.101  39.994  1.00  0.00     0.041 A 
ATOM     74  F   UNL A   1      44.487  24.864  38.017  1.00  0.00    -0.206 F 
ATOM     75  C   UNL A   1      45.109  27.255  40.659  1.00  0.00     0.022 A 
BRANCH  72  76
ATOM     76  S   UNL A   1      46.324  29.764  40.759  1.00  0.00     0.124 S 
ATOM     77  O   UNL A   1      46.809  30.555  39.630  1.00  0.00    -0.237 OA
ATOM     78  O   UNL A   1      45.186  30.316  41.484  1.00  0.00    -0.237 OA
ATOM     79  O   UNL A   1      47.369  29.174  41.591  1.00  0.00    -0.744 OA
ENDBRANCH  72  76
ENDBRANCH  55  69
BRANCH  56  80
ATOM     80  C   UNL A   1      45.686  26.537  27.844  1.00  0.00     0.023 A 
ATOM     81  C   UNL A   1      45.574  25.336  27.126  1.00  0.00     0.031 A 
ATOM     82  C   UNL A   1      45.987  27.706  27.122  1.00  0.00     0.131 A 
ATOM     83  C   UNL A   1      45.815  25.320  25.742  1.00  0.00     0.055 A 
ATOM     84  C   UNL A   1      46.169  27.696  25.738  1.00  0.00     0.041 A 
ATOM     85  F   UNL A   1      46.116  28.882  27.758  1.00  0.00    -0.206 F 
ATOM     86  C   UNL A   1      46.098  26.493  25.041  1.00  0.00     0.022 A 
BRANCH  83  87
ATOM     87  S   UNL A   1      45.856  23.721  24.884  1.00  0.00     0.124 S 
ATOM     88  O   UNL A   1      46.289  22.825  25.949  1.00  0.00    -0.237 OA
ATOM     89  O   UNL A   1      44.471  23.578  24.447  1.00  0.00    -0.237 OA
ATOM     90  O   UNL A   1      46.827  23.934  23.812  1.00  0.00    -0.744 OA
ENDBRANCH  83  87
ENDBRANCH  56  80
BRANCH  68  91
ATOM     91  C   UNL A   1      50.276  25.232  32.942  1.00  0.00     0.023 A 
ATOM     92  C   UNL A   1      50.577  23.860  33.013  1.00  0.00     0.031 A 
ATOM     93  C   UNL A   1      51.349  26.138  32.846  1.00  0.00     0.131 A 
ATOM     94  C   UNL A   1      51.916  23.439  33.040  1.00  0.00     0.055 A 
ATOM     95  C   UNL A   1      52.676  25.710  32.809  1.00  0.00     0.041 A 
ATOM     96  F   UNL A   1      51.121  27.460  32.777  1.00  0.00    -0.206 F 
ATOM     97  C   UNL A   1      52.966  24.354  32.920  1.00  0.00     0.022 A 
BRANCH  94  98
ATOM     98  S   UNL A   1      52.273  21.684  33.327  1.00  0.00     0.124 S 
ATOM     99  O   UNL A   1      51.153  21.280  34.170  1.00  0.00    -0.237 OA
ATOM    100  O   UNL A   1      52.279  21.141  31.972  1.00  0.00    -0.237 OA
ATOM    101  O   UNL A   1      53.575  21.702  33.993  1.00  0.00    -0.744 OA
ENDBRANCH  94  98
ENDBRANCH  68  91
ENDBRANCH  42  43
ENDBRANCH  35  37
ENDBRANCH  34  35
ENDBRANCH  33  34
ENDBRANCH  32  33
ENDBRANCH  31  32
ENDBRANCH   1  31
TORSDOF 23
ENDMDL
MODEL 3
REMARK VINA RESULT:     -10.8      6.864     13.977
REMARK SMILES O=C(Nc1ccc(N2CCCCC2)cc1C(=O)OCCOCCOCCOC(=O)c1ccc(-c2c3nc(c(-c4cc(S(=O)(=O)[O-])ccc4F)c4ccc([nH]4)c(-c4cc(S(=O)(=O)[O-])ccc4F)c4nc(c(-c5cc(S(=O)(=O)[O-])ccc5F)c5ccc2[nH]5)C=C4)C=C3)cc1)c1ccccc1
REMARK SMILES IDX 23 1 22 2 21 3 20 4 19 5 18 6 16 7 17 8 15 9 4 10 5 11 6 12
REMARK SMILES IDX 14 13 7 14 3 15 1 16 2 17 93 19 94 20 98 21 95 22 97 23
REMARK SMILES IDX 96 24 8 25 9 26 13 27 10 28 12 29 11 30 24 31 25 32 26 33
REMARK SMILES IDX 27 34 28 35 29 36 30 37 31 38 92 39 32 40 91 41 33 42 34 43
REMARK SMILES IDX 35 44 85 45 36 46 90 47 84 48 86 49 37 50 89 51 83 52 82 53
REMARK SMILES IDX 38 55 70 56 50 57 69 58 51 59 54 60 68 61 87 62 52 63 53 64
REMARK SMILES IDX 67 66 88 67 55 68 39 69 40 70 48 71 41 72 47 73 49 74 46 75
REMARK SMILES IDX 42 76 43 77 44 78 45 79 71 80 72 81 80 82 73 83 79 84 81 85
REMARK SMILES IDX 78 86 74 87 75 88 76 89 77 90 56 91 57 92 65 93 58 94 64 95
REMARK SMILES IDX 66 96 63 97 59 98 60 99 61 100 62 101
REMARK H PARENT 3 18 86 54 54 65
REMARK Flexibility Score: inf
ROOT
ATOM      1  C   UNL A   1      36.913  31.074  39.505  1.00  0.00     0.188 C 
ENDROOT
BRANCH   1   2
ATOM      2  C   UNL A   1      37.415  31.674  38.173  1.00  0.00     0.188 C 
BRANCH   2   3
ATOM      3  O   UNL A   1      37.840  30.733  37.216  1.00  0.00    -0.376 OA
BRANCH   3   4
ATOM      4  C   UNL A   1      38.035  31.136  35.878  1.00  0.00     0.202 C 
BRANCH   4   5
ATOM      5  C   UNL A   1      39.249  30.773  35.011  1.00  0.00     0.261 C 
BRANCH   5   6
ATOM      6  O   UNL A   1      40.079  29.668  35.380  1.00  0.00    -0.460 OA
BRANCH   6   7
ATOM      7  C   UNL A   1      41.419  29.885  35.322  1.00  0.00     0.340 C 
ATOM      8  O   UNL A   1      42.114  30.266  36.252  1.00  0.00    -0.246 OA
BRANCH   7   9
ATOM      9  C   UNL A   1      41.981  29.448  34.015  1.00  0.00     0.085 A 
ATOM     10  C   UNL A   1      41.441  28.444  33.186  1.00  0.00     0.056 A 
ATOM     11  C   UNL A   1      42.194  28.023  32.082  1.00  0.00     0.029 A 
ATOM     12  C   UNL A   1      43.376  28.674  31.729  1.00  0.00     0.028 A 
ATOM     13  C   UNL A   1      43.195  30.080  33.653  1.00  0.00     0.043 A 
ATOM     14  C   UNL A   1      43.882  29.726  32.492  1.00  0.00     0.038 A 
BRANCH  10  15
ATOM     15  N   UNL A   1      40.178  27.814  33.287  1.00  0.00    -0.321 N 
ATOM     16  O   UNL A   1      38.003  27.351  32.893  1.00  0.00    -0.269 OA
ATOM     17  C   UNL A   1      39.039  27.897  32.516  1.00  0.00     0.255 C 
ATOM     18  H   UNL A   1      40.099  27.201  34.052  1.00  0.00     0.170 HD
BRANCH  17  19
ATOM     19  C   UNL A   1      39.047  28.578  31.201  1.00  0.00     0.040 A 
ATOM     20  C   UNL A   1      38.815  29.953  31.079  1.00  0.00     0.014 A 
ATOM     21  C   UNL A   1      39.188  27.786  30.057  1.00  0.00     0.014 A 
ATOM     22  C   UNL A   1      38.544  30.493  29.823  1.00  0.00     0.001 A 
ATOM     23  C   UNL A   1      38.921  28.332  28.803  1.00  0.00     0.001 A 
ATOM     24  C   UNL A   1      38.564  29.675  28.692  1.00  0.00     0.000 A 
ENDBRANCH  17  19
ENDBRANCH  10  15
BRANCH  14  25
ATOM     25  N   UNL A   1      45.013  30.378  32.057  1.00  0.00    -0.372 N 
ATOM     26  C   UNL A   1      46.130  30.529  32.986  1.00  0.00     0.116 C 
ATOM     27  C   UNL A   1      45.323  30.532  30.640  1.00  0.00     0.116 C 
ATOM     28  C   UNL A   1      46.711  31.932  32.829  1.00  0.00     0.021 C 
ATOM     29  C   UNL A   1      45.898  31.937  30.430  1.00  0.00     0.021 C 
ATOM     30  C   UNL A   1      47.071  32.225  31.371  1.00  0.00     0.004 C 
ENDBRANCH  14  25
ENDBRANCH   7   9
ENDBRANCH   6   7
ENDBRANCH   5   6
ENDBRANCH   4   5
ENDBRANCH   3   4
ENDBRANCH   2   3
ENDBRANCH   1   2
BRANCH   1  31
ATOM     31  O   UNL A   1      36.114  31.843  40.390  1.00  0.00    -0.376 OA
BRANCH  31  32
ATOM     32  C   UNL A   1      36.215  31.627  41.790  1.00  0.00     0.202 C 
BRANCH  32  33
ATOM     33  C   UNL A   1      36.780  32.703  42.736  1.00  0.00     0.261 C 
BRANCH  33  34
ATOM     34  O   UNL A   1      38.086  33.206  42.418  1.00  0.00    -0.460 OA
BRANCH  34  35
ATOM     35  C   UNL A   1      38.143  34.514  42.058  1.00  0.00     0.338 C 
ATOM     36  O   UNL A   1      37.812  35.473  42.736  1.00  0.00    -0.246 OA
BRANCH  35  37
ATOM     37  C   UNL A   1      38.902  34.636  40.791  1.00  0.00     0.060 A 
ATOM     38  C   UNL A   1      38.912  35.880  40.141  1.00  0.00     0.016 A 
ATOM     39  C   UNL A   1      39.619  33.562  40.261  1.00  0.00     0.016 A 
ATOM     40  C   UNL A   1      39.620  36.050  38.951  1.00  0.00     0.010 A 
ATOM     41  C   UNL A   1      40.300  33.723  39.048  1.00  0.00     0.010 A 
ATOM     42  C   UNL A   1      40.279  34.958  38.374  1.00  0.00    -0.014 A 
BRANCH  42  43
ATOM     43  C   UNL A   1      40.707  35.042  36.954  1.00  0.00     0.031 A 
ATOM     44  C   UNL A   1      39.658  34.806  35.900  1.00  0.00     0.074 A 
ATOM     45  C   UNL A   1      41.967  35.351  36.597  1.00  0.00     0.049 A 
ATOM     46  N   UNL A   1      39.777  34.753  34.599  1.00  0.00    -0.248 NA
ATOM     47  C   UNL A   1      38.284  34.603  36.389  1.00  0.00     0.031 C 
ATOM     48  C   UNL A   1      43.055  35.667  37.519  1.00  0.00     0.029 A 
ATOM     49  N   UNL A   1      42.543  35.438  35.352  1.00  0.00    -0.354 N 
ATOM     50  C   UNL A   1      38.496  34.510  34.114  1.00  0.00     0.074 A 
ATOM     51  C   UNL A   1      37.625  34.390  35.263  1.00  0.00     0.031 C 
ATOM     52  C   UNL A   1      44.176  35.889  36.806  1.00  0.00     0.029 A 
ATOM     53  C   UNL A   1      43.894  35.693  35.384  1.00  0.00     0.049 A 
ATOM     54  H   UNL A   1      42.034  35.330  34.517  1.00  0.00     0.167 HD
ATOM     55  C   UNL A   1      38.080  34.405  32.830  1.00  0.00     0.034 A 
ATOM     56  C   UNL A   1      44.801  35.725  34.382  1.00  0.00     0.034 A 
ATOM     57  C   UNL A   1      38.962  34.496  31.693  1.00  0.00     0.049 A 
ATOM     58  C   UNL A   1      44.336  35.486  32.961  1.00  0.00     0.074 A 
ATOM     59  C   UNL A   1      38.651  34.386  30.350  1.00  0.00     0.029 A 
ATOM     60  N   UNL A   1      40.333  34.704  31.768  1.00  0.00    -0.354 N 
ATOM     61  N   UNL A   1      43.123  35.250  32.513  1.00  0.00    -0.248 NA
ATOM     62  C   UNL A   1      45.363  35.524  31.910  1.00  0.00     0.031 C 
ATOM     63  C   UNL A   1      39.840  34.454  29.618  1.00  0.00     0.029 A 
ATOM     64  C   UNL A   1      40.885  34.695  30.496  1.00  0.00     0.049 A 
ATOM     65  H   UNL A   1      40.840  34.838  32.601  1.00  0.00     0.167 HD
ATOM     66  C   UNL A   1      43.241  35.149  31.127  1.00  0.00     0.074 A 
ATOM     67  C   UNL A   1      44.637  35.363  30.813  1.00  0.00     0.031 C 
ATOM     68  C   UNL A   1      42.281  34.908  30.196  1.00  0.00     0.034 A 
BRANCH  55  69
ATOM     69  C   UNL A   1      36.617  34.120  32.602  1.00  0.00     0.023 A 
ATOM     70  C   UNL A   1      35.686  35.156  32.408  1.00  0.00     0.031 A 
ATOM     71  C   UNL A   1      36.140  32.798  32.618  1.00  0.00     0.131 A 
ATOM     72  C   UNL A   1      34.319  34.856  32.309  1.00  0.00     0.055 A 
ATOM     73  C   UNL A   1      34.788  32.502  32.438  1.00  0.00     0.041 A 
ATOM     74  F   UNL A   1      36.980  31.771  32.826  1.00  0.00    -0.206 F 
ATOM     75  C   UNL A   1      33.866  33.535  32.296  1.00  0.00     0.022 A 
BRANCH  72  76
ATOM     76  S   UNL A   1      33.128  36.225  32.341  1.00  0.00     0.124 S 
ATOM     77  O   UNL A   1      31.869  35.514  32.554  1.00  0.00    -0.237 OA
ATOM     78  O   UNL A   1      33.603  37.029  33.461  1.00  0.00    -0.237 OA
ATOM     79  O   UNL A   1      33.274  36.837  31.024  1.00  0.00    -0.744 OA
ENDBRANCH  72  76
ENDBRANCH  55  69
BRANCH  56  80
ATOM     80  C   UNL A   1      46.252  35.928  34.672  1.00  0.00     0.023 A 
ATOM     81  C   UNL A   1      47.092  34.850  34.992  1.00  0.00     0.031 A 
ATOM     82  C   UNL A   1      46.800  37.223  34.718  1.00  0.00     0.131 A 
ATOM     83  C   UNL A   1      48.417  35.089  35.396  1.00  0.00     0.055 A 
ATOM     84  C   UNL A   1      48.134  37.451  35.063  1.00  0.00     0.041 A 
ATOM     85  F   UNL A   1      46.040  38.293  34.431  1.00  0.00    -0.206 F 
ATOM     86  C   UNL A   1      48.947  36.380  35.420  1.00  0.00     0.022 A 
BRANCH  83  87
ATOM     87  S   UNL A   1      49.411  33.691  35.991  1.00  0.00     0.124 S 
ATOM     88  O   UNL A   1      48.543  33.126  37.017  1.00  0.00    -0.237 OA
ATOM     89  O   UNL A   1      49.572  32.898  34.777  1.00  0.00    -0.237 OA
ATOM     90  O   UNL A   1      50.631  34.327  36.484  1.00  0.00    -0.744 OA
ENDBRANCH  83  87
ENDBRANCH  56  80
BRANCH  68  91
ATOM     91  C   UNL A   1      42.701  34.922  28.745  1.00  0.00     0.023 A 
ATOM     92  C   UNL A   1      43.350  33.829  28.144  1.00  0.00     0.031 A 
ATOM     93  C   UNL A   1      42.439  36.053  27.948  1.00  0.00     0.131 A 
ATOM     94  C   UNL A   1      43.762  33.910  26.804  1.00  0.00     0.055 A 
ATOM     95  C   UNL A   1      42.794  36.103  26.599  1.00  0.00     0.041 A 
ATOM     96  F   UNL A   1      41.823  37.127  28.468  1.00  0.00    -0.206 F 
ATOM     97  C   UNL A   1      43.472  35.033  26.024  1.00  0.00     0.022 A 
BRANCH  94  98
ATOM     98  S   UNL A   1      44.765  32.565  26.117  1.00  0.00     0.124 S 
ATOM     99  O   UNL A   1      46.041  32.758  26.797  1.00  0.00    -0.237 OA
ATOM    100  O   UNL A   1      44.007  31.380  26.506  1.00  0.00    -0.237 OA
ATOM    101  O   UNL A   1      44.779  32.846  24.681  1.00  0.00    -0.744 OA
ENDBRANCH  94  98
ENDBRANCH  68  91
ENDBRANCH  42  43
ENDBRANCH  35  37
ENDBRANCH  34  35
ENDBRANCH  33  34
ENDBRANCH  32  33
ENDBRANCH  31  32
ENDBRANCH   1  31
TORSDOF 23
ENDMDL
