MODEL 1
REMARK VINA RESULT:     -10.9      0.000      0.000
REMARK SMILES O=C(C[C@@H]1CN(c2ccc([N+](=O)[O-])cc2Cl)CCO1)OCCOCCOCCOC(=O)c1ccc(-c2c3nc(c(-c4cc(S(=O)(=O)[O-])ccc4F)c4ccc([nH]4)c(-c4cc(S(=O)(=O)[O-])ccc4F)c4nc(c(-c5cc(S(=O)(=O)[O-])ccc5F)c5ccc2[nH]5)C=C4)C=C3)cc1
REMARK SMILES IDX 24 1 23 2 22 3 21 4 20 5 2 6 1 7 3 8 4 9 5 10 19 11 6 12
REMARK SMILES IDX 18 13 17 14 7 15 8 16 15 17 9 18 14 19 16 20 10 21 11 22
REMARK SMILES IDX 12 23 13 24 25 25 26 26 27 27 28 28 29 29 30 30 31 31 32 32
REMARK SMILES IDX 33 33 94 34 34 35 93 36 35 37 36 38 37 39 87 40 38 41 92 42
REMARK SMILES IDX 86 43 88 44 39 45 91 46 85 47 84 48 40 50 72 51 52 52 71 53
REMARK SMILES IDX 53 54 56 55 70 56 89 57 54 58 55 59 69 61 90 62 57 63 41 64
REMARK SMILES IDX 42 65 50 66 43 67 49 68 51 69 48 70 44 71 45 72 46 73 47 74
REMARK SMILES IDX 73 75 74 76 82 77 75 78 81 79 83 80 80 81 76 82 77 83 78 84
REMARK SMILES IDX 79 85 58 86 59 87 67 88 60 89 66 90 68 91 65 92 61 93 62 94
REMARK SMILES IDX 63 95 64 96
REMARK H PARENT 88 49 56 60
REMARK Flexibility Score: inf
ROOT
ATOM      1  C   UNL A   1      32.879  29.664  25.225  1.00  0.00     0.188 C 
ENDROOT
BRANCH   1   2
ATOM      2  O   UNL A   1      31.898  28.969  24.476  1.00  0.00    -0.376 OA
BRANCH   2   3
ATOM      3  C   UNL A   1      32.384  28.060  23.515  1.00  0.00     0.202 C 
BRANCH   3   4
ATOM      4  C   UNL A   1      31.335  27.045  23.073  1.00  0.00     0.261 C 
BRANCH   4   5
ATOM      5  O   UNL A   1      31.800  25.951  22.247  1.00  0.00    -0.463 OA
BRANCH   5   6
ATOM      6  C   UNL A   1      33.029  25.427  22.094  1.00  0.00     0.308 C 
ATOM      7  O   UNL A   1      33.405  25.116  20.965  1.00  0.00    -0.252 OA
BRANCH   6   8
ATOM      8  C   UNL A   1      33.900  25.129  23.284  1.00  0.00     0.156 C 
BRANCH   8   9
ATOM      9  C   UNL A   1      33.392  24.067  24.232  1.00  0.00     0.148 C 
ATOM     10  C   UNL A   1      32.977  22.772  23.525  1.00  0.00     0.149 C 
ATOM     11  O   UNL A   1      32.277  24.612  24.975  1.00  0.00    -0.374 OA
ATOM     12  N   UNL A   1      32.579  21.845  24.582  1.00  0.00    -0.365 N 
ATOM     13  C   UNL A   1      31.844  23.693  25.998  1.00  0.00     0.182 C 
ATOM     14  C   UNL A   1      31.475  22.310  25.422  1.00  0.00     0.145 C 
BRANCH  12  15
ATOM     15  C   UNL A   1      32.965  20.531  24.484  1.00  0.00     0.056 A 
ATOM     16  C   UNL A   1      32.119  19.604  23.865  1.00  0.00     0.034 A 
ATOM     17  C   UNL A   1      34.250  20.104  24.886  1.00  0.00     0.071 A 
ATOM     18  C   UNL A   1      32.543  18.296  23.622  1.00  0.00     0.088 A 
ATOM     19  C   UNL A   1      34.691  18.803  24.642  1.00  0.00     0.108 A 
ATOM     20  Cl  UNL A   1      35.350  21.185  25.676  1.00  0.00    -0.082 Cl
ATOM     21  C   UNL A   1      33.833  17.907  24.000  1.00  0.00     0.271 A 
BRANCH  21  22
ATOM     22  N   UNL A   1      34.296  16.547  23.710  1.00  0.00     0.062 N 
ATOM     23  O   UNL A   1      34.651  15.843  24.666  1.00  0.00    -0.258 OA
ATOM     24  O   UNL A   1      34.304  16.181  22.526  1.00  0.00    -0.258 OA
ENDBRANCH  21  22
ENDBRANCH  12  15
ENDBRANCH   8   9
ENDBRANCH   6   8
ENDBRANCH   5   6
ENDBRANCH   4   5
ENDBRANCH   3   4
ENDBRANCH   2   3
ENDBRANCH   1   2
BRANCH   1  25
ATOM     25  C   UNL A   1      33.356  28.895  26.465  1.00  0.00     0.188 C 
BRANCH  25  26
ATOM     26  O   UNL A   1      34.050  29.572  27.507  1.00  0.00    -0.376 OA
BRANCH  26  27
ATOM     27  C   UNL A   1      34.382  30.944  27.368  1.00  0.00     0.202 C 
BRANCH  27  28
ATOM     28  C   UNL A   1      33.318  31.991  27.725  1.00  0.00     0.261 C 
BRANCH  28  29
ATOM     29  O   UNL A   1      33.658  33.354  27.403  1.00  0.00    -0.460 OA
BRANCH  29  30
ATOM     30  C   UNL A   1      33.555  34.235  28.432  1.00  0.00     0.338 C 
ATOM     31  O   UNL A   1      32.666  35.053  28.595  1.00  0.00    -0.246 OA
BRANCH  30  32
ATOM     32  C   UNL A   1      34.588  33.978  29.467  1.00  0.00     0.060 A 
ATOM     33  C   UNL A   1      35.930  34.141  29.094  1.00  0.00     0.016 A 
ATOM     34  C   UNL A   1      34.274  33.508  30.745  1.00  0.00     0.016 A 
ATOM     35  C   UNL A   1      36.956  33.775  29.968  1.00  0.00     0.010 A 
ATOM     36  C   UNL A   1      35.309  33.123  31.616  1.00  0.00     0.010 A 
ATOM     37  C   UNL A   1      36.656  33.213  31.215  1.00  0.00    -0.014 A 
BRANCH  37  38
ATOM     38  C   UNL A   1      37.747  32.539  31.977  1.00  0.00     0.031 A 
ATOM     39  C   UNL A   1      38.502  31.412  31.315  1.00  0.00     0.074 A 
ATOM     40  C   UNL A   1      38.129  32.969  33.195  1.00  0.00     0.049 A 
ATOM     41  N   UNL A   1      39.516  30.714  31.758  1.00  0.00    -0.248 NA
ATOM     42  C   UNL A   1      38.047  31.025  29.970  1.00  0.00     0.031 C 
ATOM     43  C   UNL A   1      37.517  34.070  33.934  1.00  0.00     0.029 A 
ATOM     44  N   UNL A   1      39.134  32.528  34.024  1.00  0.00    -0.354 N 
ATOM     45  C   UNL A   1      39.835  29.819  30.741  1.00  0.00     0.074 A 
ATOM     46  C   UNL A   1      38.869  30.027  29.684  1.00  0.00     0.031 C 
ATOM     47  C   UNL A   1      38.153  34.215  35.110  1.00  0.00     0.029 A 
ATOM     48  C   UNL A   1      39.205  33.203  35.221  1.00  0.00     0.049 A 
ATOM     49  H   UNL A   1      39.748  31.797  33.784  1.00  0.00     0.167 HD
ATOM     50  C   UNL A   1      40.849  28.919  30.679  1.00  0.00     0.034 A 
ATOM     51  C   UNL A   1      40.012  33.020  36.288  1.00  0.00     0.034 A 
ATOM     52  C   UNL A   1      41.798  28.694  31.744  1.00  0.00     0.049 A 
ATOM     53  C   UNL A   1      41.082  31.954  36.232  1.00  0.00     0.074 A 
ATOM     54  C   UNL A   1      42.852  27.796  31.785  1.00  0.00     0.029 A 
ATOM     55  N   UNL A   1      41.806  29.365  32.960  1.00  0.00    -0.354 N 
ATOM     56  N   UNL A   1      41.375  31.122  35.258  1.00  0.00    -0.248 NA
ATOM     57  C   UNL A   1      41.943  31.817  37.414  1.00  0.00     0.031 C 
ATOM     58  C   UNL A   1      43.452  27.877  33.047  1.00  0.00     0.029 A 
ATOM     59  C   UNL A   1      42.826  28.881  33.766  1.00  0.00     0.049 A 
ATOM     60  H   UNL A   1      41.179  30.080  33.213  1.00  0.00     0.167 HD
ATOM     61  C   UNL A   1      42.470  30.382  35.704  1.00  0.00     0.074 A 
ATOM     62  C   UNL A   1      42.802  30.890  37.019  1.00  0.00     0.031 C 
ATOM     63  C   UNL A   1      43.140  29.376  35.087  1.00  0.00     0.034 A 
BRANCH  50  64
ATOM     64  C   UNL A   1      40.954  28.082  29.426  1.00  0.00     0.023 A 
ATOM     65  C   UNL A   1      41.942  28.328  28.456  1.00  0.00     0.031 A 
ATOM     66  C   UNL A   1      40.042  27.040  29.187  1.00  0.00     0.131 A 
ATOM     67  C   UNL A   1      41.957  27.584  27.267  1.00  0.00     0.055 A 
ATOM     68  C   UNL A   1      40.108  26.254  28.035  1.00  0.00     0.041 A 
ATOM     69  F   UNL A   1      39.062  26.773  30.065  1.00  0.00    -0.206 F 
ATOM     70  C   UNL A   1      41.061  26.532  27.059  1.00  0.00     0.022 A 
BRANCH  67  71
ATOM     71  S   UNL A   1      43.077  28.096  25.935  1.00  0.00     0.124 S 
ATOM     72  O   UNL A   1      43.448  29.443  26.363  1.00  0.00    -0.237 OA
ATOM     73  O   UNL A   1      44.130  27.089  26.004  1.00  0.00    -0.237 OA
ATOM     74  O   UNL A   1      42.238  28.040  24.740  1.00  0.00    -0.744 OA
ENDBRANCH  67  71
ENDBRANCH  50  64
BRANCH  51  75
ATOM     75  C   UNL A   1      39.821  33.825  37.532  1.00  0.00     0.023 A 
ATOM     76  C   UNL A   1      39.065  33.342  38.614  1.00  0.00     0.031 A 
ATOM     77  C   UNL A   1      40.324  35.136  37.616  1.00  0.00     0.131 A 
ATOM     78  C   UNL A   1      38.787  34.183  39.705  1.00  0.00     0.055 A 
ATOM     79  C   UNL A   1      40.094  35.947  38.728  1.00  0.00     0.041 A 
ATOM     80  F   UNL A   1      41.048  35.652  36.610  1.00  0.00    -0.206 F 
ATOM     81  C   UNL A   1      39.308  35.477  39.775  1.00  0.00     0.022 A 
BRANCH  78  82
ATOM     82  S   UNL A   1      37.646  33.598  40.989  1.00  0.00     0.124 S 
ATOM     83  O   UNL A   1      36.603  32.961  40.193  1.00  0.00    -0.237 OA
ATOM     84  O   UNL A   1      38.498  32.704  41.766  1.00  0.00    -0.237 OA
ATOM     85  O   UNL A   1      37.247  34.827  41.675  1.00  0.00    -0.744 OA
ENDBRANCH  78  82
ENDBRANCH  51  75
BRANCH  63  86
ATOM     86  C   UNL A   1      44.322  28.783  35.823  1.00  0.00     0.023 A 
ATOM     87  C   UNL A   1      44.174  27.696  36.703  1.00  0.00     0.031 A 
ATOM     88  C   UNL A   1      45.606  29.337  35.672  1.00  0.00     0.131 A 
ATOM     89  C   UNL A   1      45.272  27.249  37.457  1.00  0.00     0.055 A 
ATOM     90  C   UNL A   1      46.709  28.843  36.372  1.00  0.00     0.041 A 
ATOM     91  F   UNL A   1      45.811  30.376  34.846  1.00  0.00    -0.206 F 
ATOM     92  C   UNL A   1      46.541  27.807  37.286  1.00  0.00     0.022 A 
BRANCH  89  93
ATOM     93  S   UNL A   1      44.991  26.017  38.758  1.00  0.00     0.124 S 
ATOM     94  O   UNL A   1      44.095  26.730  39.663  1.00  0.00    -0.237 OA
ATOM     95  O   UNL A   1      44.397  24.910  38.015  1.00  0.00    -0.237 OA
ATOM     96  O   UNL A   1      46.330  25.762  39.285  1.00  0.00    -0.744 OA
ENDBRANCH  89  93
ENDBRANCH  63  86
ENDBRANCH  37  38
ENDBRANCH  30  32
ENDBRANCH  29  30
ENDBRANCH  28  29
ENDBRANCH  27  28
ENDBRANCH  26  27
ENDBRANCH  25  26
ENDBRANCH   1  25
TORSDOF 23
ENDMDL
MODEL 2
REMARK VINA RESULT:     -10.5      4.807      8.044
REMARK SMILES O=C(C[C@@H]1CN(c2ccc([N+](=O)[O-])cc2Cl)CCO1)OCCOCCOCCOC(=O)c1ccc(-c2c3nc(c(-c4cc(S(=O)(=O)[O-])ccc4F)c4ccc([nH]4)c(-c4cc(S(=O)(=O)[O-])ccc4F)c4nc(c(-c5cc(S(=O)(=O)[O-])ccc5F)c5ccc2[nH]5)C=C4)C=C3)cc1
REMARK SMILES IDX 24 1 23 2 22 3 21 4 20 5 2 6 1 7 3 8 4 9 5 10 19 11 6 12
REMARK SMILES IDX 18 13 17 14 7 15 8 16 15 17 9 18 14 19 16 20 10 21 11 22
REMARK SMILES IDX 12 23 13 24 25 25 26 26 27 27 28 28 29 29 30 30 31 31 32 32
REMARK SMILES IDX 33 33 94 34 34 35 93 36 35 37 36 38 37 39 87 40 38 41 92 42
REMARK SMILES IDX 86 43 88 44 39 45 91 46 85 47 84 48 40 50 72 51 52 52 71 53
REMARK SMILES IDX 53 54 56 55 70 56 89 57 54 58 55 59 69 61 90 62 57 63 41 64
REMARK SMILES IDX 42 65 50 66 43 67 49 68 51 69 48 70 44 71 45 72 46 73 47 74
REMARK SMILES IDX 73 75 74 76 82 77 75 78 81 79 83 80 80 81 76 82 77 83 78 84
REMARK SMILES IDX 79 85 58 86 59 87 67 88 60 89 66 90 68 91 65 92 61 93 62 94
REMARK SMILES IDX 63 95 64 96
REMARK H PARENT 88 49 56 60
REMARK Flexibility Score: inf
ROOT
ATOM      1  C   UNL A   1      34.350  25.795  25.530  1.00  0.00     0.188 C 
ENDROOT
BRANCH   1   2
ATOM      2  O   UNL A   1      34.224  27.044  24.874  1.00  0.00    -0.376 OA
BRANCH   2   3
ATOM      3  C   UNL A   1      33.058  27.781  25.166  1.00  0.00     0.202 C 
BRANCH   3   4
ATOM      4  C   UNL A   1      32.561  28.600  23.980  1.00  0.00     0.261 C 
BRANCH   4   5
ATOM      5  O   UNL A   1      32.120  27.857  22.819  1.00  0.00    -0.463 OA
BRANCH   5   6
ATOM      6  C   UNL A   1      30.972  27.197  22.582  1.00  0.00     0.308 C 
ATOM      7  O   UNL A   1      29.917  27.830  22.564  1.00  0.00    -0.252 OA
BRANCH   6   8
ATOM      8  C   UNL A   1      30.951  25.700  22.440  1.00  0.00     0.156 C 
BRANCH   8   9
ATOM      9  C   UNL A   1      31.276  24.907  23.686  1.00  0.00     0.148 C 
ATOM     10  C   UNL A   1      31.035  23.401  23.525  1.00  0.00     0.149 C 
ATOM     11  O   UNL A   1      30.483  25.427  24.778  1.00  0.00    -0.374 OA
ATOM     12  N   UNL A   1      31.456  22.789  24.782  1.00  0.00    -0.365 N 
ATOM     13  C   UNL A   1      30.857  24.804  26.024  1.00  0.00     0.182 C 
ATOM     14  C   UNL A   1      30.741  23.267  25.966  1.00  0.00     0.145 C 
BRANCH  12  15
ATOM     15  C   UNL A   1      32.161  21.612  24.738  1.00  0.00     0.056 A 
ATOM     16  C   UNL A   1      31.989  20.742  23.656  1.00  0.00     0.034 A 
ATOM     17  C   UNL A   1      33.150  21.303  25.698  1.00  0.00     0.071 A 
ATOM     18  C   UNL A   1      32.795  19.611  23.509  1.00  0.00     0.088 A 
ATOM     19  C   UNL A   1      33.969  20.182  25.561  1.00  0.00     0.108 A 
ATOM     20  Cl  UNL A   1      33.412  22.319  27.077  1.00  0.00    -0.082 Cl
ATOM     21  C   UNL A   1      33.790  19.345  24.457  1.00  0.00     0.271 A 
BRANCH  21  22
ATOM     22  N   UNL A   1      34.665  18.181  24.285  1.00  0.00     0.062 N 
ATOM     23  O   UNL A   1      34.307  17.304  23.487  1.00  0.00    -0.258 OA
ATOM     24  O   UNL A   1      35.711  18.143  24.949  1.00  0.00    -0.258 OA
ENDBRANCH  21  22
ENDBRANCH  12  15
ENDBRANCH   8   9
ENDBRANCH   6   8
ENDBRANCH   5   6
ENDBRANCH   4   5
ENDBRANCH   3   4
ENDBRANCH   2   3
ENDBRANCH   1   2
BRANCH   1  25
ATOM     25  C   UNL A   1      34.735  24.648  24.584  1.00  0.00     0.188 C 
BRANCH  25  26
ATOM     26  O   UNL A   1      35.703  23.683  24.983  1.00  0.00    -0.376 OA
BRANCH  26  27
ATOM     27  C   UNL A   1      36.133  22.687  24.068  1.00  0.00     0.202 C 
BRANCH  27  28
ATOM     28  C   UNL A   1      37.388  21.874  24.413  1.00  0.00     0.261 C 
BRANCH  28  29
ATOM     29  O   UNL A   1      37.686  21.761  25.819  1.00  0.00    -0.460 OA
BRANCH  29  30
ATOM     30  C   UNL A   1      39.003  21.619  26.122  1.00  0.00     0.338 C 
ATOM     31  O   UNL A   1      39.735  20.718  25.752  1.00  0.00    -0.246 OA
BRANCH  30  32
ATOM     32  C   UNL A   1      39.521  22.810  26.843  1.00  0.00     0.060 A 
ATOM     33  C   UNL A   1      38.940  24.050  26.541  1.00  0.00     0.016 A 
ATOM     34  C   UNL A   1      40.599  22.744  27.729  1.00  0.00     0.016 A 
ATOM     35  C   UNL A   1      39.474  25.228  27.068  1.00  0.00     0.010 A 
ATOM     36  C   UNL A   1      41.146  23.934  28.244  1.00  0.00     0.010 A 
ATOM     37  C   UNL A   1      40.614  25.186  27.881  1.00  0.00    -0.014 A 
BRANCH  37  38
ATOM     38  C   UNL A   1      41.344  26.457  28.155  1.00  0.00     0.031 A 
ATOM     39  C   UNL A   1      42.768  26.591  27.672  1.00  0.00     0.074 A 
ATOM     40  C   UNL A   1      40.739  27.510  28.737  1.00  0.00     0.049 A 
ATOM     41  N   UNL A   1      43.583  27.612  27.748  1.00  0.00    -0.248 NA
ATOM     42  C   UNL A   1      43.347  25.409  27.013  1.00  0.00     0.031 C 
ATOM     43  C   UNL A   1      39.359  27.533  29.215  1.00  0.00     0.029 A 
ATOM     44  N   UNL A   1      41.213  28.769  29.021  1.00  0.00    -0.354 N 
ATOM     45  C   UNL A   1      44.763  27.206  27.130  1.00  0.00     0.074 A 
ATOM     46  C   UNL A   1      44.573  25.826  26.738  1.00  0.00     0.031 C 
ATOM     47  C   UNL A   1      39.099  28.744  29.740  1.00  0.00     0.029 A 
ATOM     48  C   UNL A   1      40.299  29.578  29.657  1.00  0.00     0.049 A 
ATOM     49  H   UNL A   1      42.123  29.066  28.790  1.00  0.00     0.167 HD
ATOM     50  C   UNL A   1      45.893  27.918  26.892  1.00  0.00     0.034 A 
ATOM     51  C   UNL A   1      40.418  30.836  30.130  1.00  0.00     0.034 A 
ATOM     52  C   UNL A   1      46.091  29.287  27.306  1.00  0.00     0.049 A 
ATOM     53  C   UNL A   1      41.718  31.583  29.929  1.00  0.00     0.074 A 
ATOM     54  C   UNL A   1      47.205  30.089  27.127  1.00  0.00     0.029 A 
ATOM     55  N   UNL A   1      45.159  30.055  27.991  1.00  0.00    -0.354 N 
ATOM     56  N   UNL A   1      42.820  31.186  29.335  1.00  0.00    -0.248 NA
ATOM     57  C   UNL A   1      41.779  32.957  30.447  1.00  0.00     0.031 C 
ATOM     58  C   UNL A   1      46.972  31.316  27.760  1.00  0.00     0.029 A 
ATOM     59  C   UNL A   1      45.682  31.310  28.266  1.00  0.00     0.049 A 
ATOM     60  H   UNL A   1      44.257  29.753  28.246  1.00  0.00     0.167 HD
ATOM     61  C   UNL A   1      43.694  32.271  29.388  1.00  0.00     0.074 A 
ATOM     62  C   UNL A   1      42.978  33.346  30.042  1.00  0.00     0.031 C 
ATOM     63  C   UNL A   1      44.972  32.372  28.938  1.00  0.00     0.034 A 
BRANCH  50  64
ATOM     64  C   UNL A   1      47.020  27.205  26.182  1.00  0.00     0.023 A 
ATOM     65  C   UNL A   1      47.997  26.484  26.889  1.00  0.00     0.031 A 
ATOM     66  C   UNL A   1      47.132  27.267  24.782  1.00  0.00     0.131 A 
ATOM     67  C   UNL A   1      49.075  25.905  26.203  1.00  0.00     0.055 A 
ATOM     68  C   UNL A   1      48.166  26.626  24.097  1.00  0.00     0.041 A 
ATOM     69  F   UNL A   1      46.242  27.960  24.054  1.00  0.00    -0.206 F 
ATOM     70  C   UNL A   1      49.154  25.951  24.809  1.00  0.00     0.022 A 
BRANCH  67  71
ATOM     71  S   UNL A   1      50.445  25.207  27.165  1.00  0.00     0.124 S 
ATOM     72  O   UNL A   1      49.793  24.086  27.837  1.00  0.00    -0.237 OA
ATOM     73  O   UNL A   1      51.413  24.859  26.131  1.00  0.00    -0.237 OA
ATOM     74  O   UNL A   1      50.841  26.305  28.045  1.00  0.00    -0.744 OA
ENDBRANCH  67  71
ENDBRANCH  50  64
BRANCH  51  75
ATOM     75  C   UNL A   1      39.299  31.471  30.891  1.00  0.00     0.023 A 
ATOM     76  C   UNL A   1      39.292  31.512  32.295  1.00  0.00     0.031 A 
ATOM     77  C   UNL A   1      38.172  31.969  30.213  1.00  0.00     0.131 A 
ATOM     78  C   UNL A   1      38.158  31.986  32.976  1.00  0.00     0.055 A 
ATOM     79  C   UNL A   1      37.071  32.493  30.893  1.00  0.00     0.041 A 
ATOM     80  F   UNL A   1      38.121  31.950  28.872  1.00  0.00    -0.206 F 
ATOM     81  C   UNL A   1      37.053  32.489  32.285  1.00  0.00     0.022 A 
BRANCH  78  82
ATOM     82  S   UNL A   1      38.102  31.841  34.784  1.00  0.00     0.124 S 
ATOM     83  O   UNL A   1      38.151  30.395  34.969  1.00  0.00    -0.237 OA
ATOM     84  O   UNL A   1      39.293  32.581  35.184  1.00  0.00    -0.237 OA
ATOM     85  O   UNL A   1      36.831  32.473  35.136  1.00  0.00    -0.744 OA
ENDBRANCH  78  82
ENDBRANCH  51  75
BRANCH  63  86
ATOM     86  C   UNL A   1      45.659  33.709  29.115  1.00  0.00     0.023 A 
ATOM     87  C   UNL A   1      45.479  34.759  28.197  1.00  0.00     0.031 A 
ATOM     88  C   UNL A   1      46.537  33.921  30.192  1.00  0.00     0.131 A 
ATOM     89  C   UNL A   1      46.224  35.942  28.329  1.00  0.00     0.055 A 
ATOM     90  C   UNL A   1      47.224  35.126  30.358  1.00  0.00     0.041 A 
ATOM     91  F   UNL A   1      46.752  32.957  31.102  1.00  0.00    -0.206 F 
ATOM     92  C   UNL A   1      47.085  36.138  29.412  1.00  0.00     0.022 A 
BRANCH  89  93
ATOM     93  S   UNL A   1      46.152  37.170  26.995  1.00  0.00     0.124 S 
ATOM     94  O   UNL A   1      46.775  36.453  25.888  1.00  0.00    -0.237 OA
ATOM     95  O   UNL A   1      44.718  37.411  26.871  1.00  0.00    -0.237 OA
ATOM     96  O   UNL A   1      46.926  38.294  27.520  1.00  0.00    -0.744 OA
ENDBRANCH  89  93
ENDBRANCH  63  86
ENDBRANCH  37  38
ENDBRANCH  30  32
ENDBRANCH  29  30
ENDBRANCH  28  29
ENDBRANCH  27  28
ENDBRANCH  26  27
ENDBRANCH  25  26
ENDBRANCH   1  25
TORSDOF 23
ENDMDL
MODEL 3
REMARK VINA RESULT:     -10.5      2.446      7.728
REMARK SMILES O=C(C[C@@H]1CN(c2ccc([N+](=O)[O-])cc2Cl)CCO1)OCCOCCOCCOC(=O)c1ccc(-c2c3nc(c(-c4cc(S(=O)(=O)[O-])ccc4F)c4ccc([nH]4)c(-c4cc(S(=O)(=O)[O-])ccc4F)c4nc(c(-c5cc(S(=O)(=O)[O-])ccc5F)c5ccc2[nH]5)C=C4)C=C3)cc1
REMARK SMILES IDX 24 1 23 2 22 3 21 4 20 5 2 6 1 7 3 8 4 9 5 10 19 11 6 12
REMARK SMILES IDX 18 13 17 14 7 15 8 16 15 17 9 18 14 19 16 20 10 21 11 22
REMARK SMILES IDX 12 23 13 24 25 25 26 26 27 27 28 28 29 29 30 30 31 31 32 32
REMARK SMILES IDX 33 33 94 34 34 35 93 36 35 37 36 38 37 39 87 40 38 41 92 42
REMARK SMILES IDX 86 43 88 44 39 45 91 46 85 47 84 48 40 50 72 51 52 52 71 53
REMARK SMILES IDX 53 54 56 55 70 56 89 57 54 58 55 59 69 61 90 62 57 63 41 64
REMARK SMILES IDX 42 65 50 66 43 67 49 68 51 69 48 70 44 71 45 72 46 73 47 74
REMARK SMILES IDX 73 75 74 76 82 77 75 78 81 79 83 80 80 81 76 82 77 83 78 84
REMARK SMILES IDX 79 85 58 86 59 87 67 88 60 89 66 90 68 91 65 92 61 93 62 94
REMARK SMILES IDX 63 95 64 96
REMARK H PARENT 88 49 56 60
REMARK Flexibility Score: inf
ROOT
ATOM      1  C   UNL A   1      30.936  28.755  24.264  1.00  0.00     0.188 C 
ENDROOT
BRANCH   1   2
ATOM      2  O   UNL A   1      29.906  28.272  23.422  1.00  0.00    -0.376 OA
BRANCH   2   3
ATOM      3  C   UNL A   1      29.650  26.887  23.488  1.00  0.00     0.202 C 
BRANCH   3   4
ATOM      4  C   UNL A   1      30.544  26.072  22.560  1.00  0.00     0.261 C 
BRANCH   4   5
ATOM      5  O   UNL A   1      31.897  26.552  22.377  1.00  0.00    -0.463 OA
BRANCH   5   6
ATOM      6  C   UNL A   1      33.008  25.913  21.972  1.00  0.00     0.308 C 
ATOM      7  O   UNL A   1      33.954  26.576  21.550  1.00  0.00    -0.252 OA
BRANCH   6   8
ATOM      8  C   UNL A   1      33.071  24.410  21.937  1.00  0.00     0.156 C 
BRANCH   8   9
ATOM      9  C   UNL A   1      33.481  23.730  23.223  1.00  0.00     0.148 C 
ATOM     10  C   UNL A   1      32.692  22.446  23.507  1.00  0.00     0.149 C 
ATOM     11  O   UNL A   1      33.317  24.670  24.310  1.00  0.00    -0.374 OA
ATOM     12  N   UNL A   1      33.254  21.891  24.736  1.00  0.00    -0.365 N 
ATOM     13  C   UNL A   1      33.831  24.123  25.542  1.00  0.00     0.182 C 
ATOM     14  C   UNL A   1      33.173  22.774  25.900  1.00  0.00     0.145 C 
BRANCH  12  15
ATOM     15  C   UNL A   1      33.449  20.535  24.817  1.00  0.00     0.056 A 
ATOM     16  C   UNL A   1      32.344  19.677  24.866  1.00  0.00     0.034 A 
ATOM     17  C   UNL A   1      34.739  19.965  24.733  1.00  0.00     0.071 A 
ATOM     18  C   UNL A   1      32.507  18.292  24.802  1.00  0.00     0.088 A 
ATOM     19  C   UNL A   1      34.917  18.583  24.659  1.00  0.00     0.108 A 
ATOM     20  Cl  UNL A   1      36.158  20.957  24.688  1.00  0.00    -0.082 Cl
ATOM     21  C   UNL A   1      33.794  17.753  24.685  1.00  0.00     0.271 A 
BRANCH  21  22
ATOM     22  N   UNL A   1      33.966  16.302  24.577  1.00  0.00     0.062 N 
ATOM     23  O   UNL A   1      33.646  15.609  25.553  1.00  0.00    -0.258 OA
ATOM     24  O   UNL A   1      34.422  15.853  23.516  1.00  0.00    -0.258 OA
ENDBRANCH  21  22
ENDBRANCH  12  15
ENDBRANCH   8   9
ENDBRANCH   6   8
ENDBRANCH   5   6
ENDBRANCH   4   5
ENDBRANCH   3   4
ENDBRANCH   2   3
ENDBRANCH   1   2
BRANCH   1  25
ATOM     25  C   UNL A   1      31.153  27.893  25.516  1.00  0.00     0.188 C 
BRANCH  25  26
ATOM     26  O   UNL A   1      32.214  28.190  26.418  1.00  0.00    -0.376 OA
BRANCH  26  27
ATOM     27  C   UNL A   1      32.011  29.113  27.476  1.00  0.00     0.202 C 
BRANCH  27  28
ATOM     28  C   UNL A   1      31.820  30.595  27.124  1.00  0.00     0.261 C 
BRANCH  28  29
ATOM     29  O   UNL A   1      32.980  31.258  26.585  1.00  0.00    -0.460 OA
BRANCH  29  30
ATOM     30  C   UNL A   1      33.553  32.180  27.402  1.00  0.00     0.338 C 
ATOM     31  O   UNL A   1      32.987  33.111  27.947  1.00  0.00    -0.246 OA
BRANCH  30  32
ATOM     32  C   UNL A   1      34.962  31.825  27.710  1.00  0.00     0.060 A 
ATOM     33  C   UNL A   1      35.300  30.464  27.706  1.00  0.00     0.016 A 
ATOM     34  C   UNL A   1      35.916  32.778  28.075  1.00  0.00     0.016 A 
ATOM     35  C   UNL A   1      36.564  30.048  28.129  1.00  0.00     0.010 A 
ATOM     36  C   UNL A   1      37.183  32.355  28.518  1.00  0.00     0.010 A 
ATOM     37  C   UNL A   1      37.498  30.985  28.589  1.00  0.00    -0.014 A 
BRANCH  37  38
ATOM     38  C   UNL A   1      38.696  30.495  29.330  1.00  0.00     0.031 A 
ATOM     39  C   UNL A   1      38.880  30.918  30.768  1.00  0.00     0.074 A 
ATOM     40  C   UNL A   1      39.561  29.620  28.781  1.00  0.00     0.049 A 
ATOM     41  N   UNL A   1      39.810  30.581  31.625  1.00  0.00    -0.248 NA
ATOM     42  C   UNL A   1      37.875  31.846  31.307  1.00  0.00     0.031 C 
ATOM     43  C   UNL A   1      39.481  29.096  27.419  1.00  0.00     0.029 A 
ATOM     44  N   UNL A   1      40.676  29.013  29.309  1.00  0.00    -0.354 N 
ATOM     45  C   UNL A   1      39.493  31.239  32.810  1.00  0.00     0.074 A 
ATOM     46  C   UNL A   1      38.317  32.038  32.540  1.00  0.00     0.031 C 
ATOM     47  C   UNL A   1      40.508  28.253  27.215  1.00  0.00     0.029 A 
ATOM     48  C   UNL A   1      41.333  28.190  28.423  1.00  0.00     0.049 A 
ATOM     49  H   UNL A   1      40.977  29.153  30.235  1.00  0.00     0.167 HD
ATOM     50  C   UNL A   1      40.108  31.171  34.017  1.00  0.00     0.034 A 
ATOM     51  C   UNL A   1      42.473  27.481  28.562  1.00  0.00     0.034 A 
ATOM     52  C   UNL A   1      41.296  30.394  34.279  1.00  0.00     0.049 A 
ATOM     53  C   UNL A   1      43.192  27.487  29.893  1.00  0.00     0.074 A 
ATOM     54  C   UNL A   1      42.004  30.272  35.463  1.00  0.00     0.029 A 
ATOM     55  N   UNL A   1      41.960  29.612  33.342  1.00  0.00    -0.354 N 
ATOM     56  N   UNL A   1      42.872  28.108  31.005  1.00  0.00    -0.248 NA
ATOM     57  C   UNL A   1      44.414  26.678  29.989  1.00  0.00     0.031 C 
ATOM     58  C   UNL A   1      43.129  29.473  35.225  1.00  0.00     0.029 A 
ATOM     59  C   UNL A   1      43.081  29.030  33.914  1.00  0.00     0.049 A 
ATOM     60  H   UNL A   1      41.675  29.489  32.408  1.00  0.00     0.167 HD
ATOM     61  C   UNL A   1      43.843  27.743  31.938  1.00  0.00     0.074 A 
ATOM     62  C   UNL A   1      44.736  26.824  31.265  1.00  0.00     0.031 C 
ATOM     63  C   UNL A   1      43.984  28.131  33.232  1.00  0.00     0.034 A 
BRANCH  50  64
ATOM     64  C   UNL A   1      39.523  31.998  35.137  1.00  0.00     0.023 A 
ATOM     65  C   UNL A   1      39.915  33.331  35.352  1.00  0.00     0.031 A 
ATOM     66  C   UNL A   1      38.576  31.441  36.015  1.00  0.00     0.131 A 
ATOM     67  C   UNL A   1      39.412  34.042  36.452  1.00  0.00     0.055 A 
ATOM     68  C   UNL A   1      38.023  32.178  37.064  1.00  0.00     0.041 A 
ATOM     69  F   UNL A   1      38.180  30.166  35.875  1.00  0.00    -0.206 F 
ATOM     70  C   UNL A   1      38.450  33.482  37.297  1.00  0.00     0.022 A 
BRANCH  67  71
ATOM     71  S   UNL A   1      40.131  35.660  36.845  1.00  0.00     0.124 S 
ATOM     72  O   UNL A   1      39.557  35.927  38.161  1.00  0.00    -0.237 OA
ATOM     73  O   UNL A   1      41.563  35.385  36.813  1.00  0.00    -0.237 OA
ATOM     74  O   UNL A   1      39.638  36.523  35.773  1.00  0.00    -0.744 OA
ENDBRANCH  67  71
ENDBRANCH  50  64
BRANCH  51  75
ATOM     75  C   UNL A   1      43.052  26.737  27.402  1.00  0.00     0.023 A 
ATOM     76  C   UNL A   1      42.674  25.415  27.111  1.00  0.00     0.031 A 
ATOM     77  C   UNL A   1      44.065  27.317  26.619  1.00  0.00     0.131 A 
ATOM     78  C   UNL A   1      43.343  24.701  26.104  1.00  0.00     0.055 A 
ATOM     79  C   UNL A   1      44.688  26.623  25.580  1.00  0.00     0.041 A 
ATOM     80  F   UNL A   1      44.471  28.575  26.855  1.00  0.00    -0.206 F 
ATOM     81  C   UNL A   1      44.339  25.300  25.327  1.00  0.00     0.022 A 
BRANCH  78  82
ATOM     82  S   UNL A   1      42.969  22.938  25.887  1.00  0.00     0.124 S 
ATOM     83  O   UNL A   1      41.582  22.871  26.333  1.00  0.00    -0.237 OA
ATOM     84  O   UNL A   1      43.194  22.755  24.457  1.00  0.00    -0.237 OA
ATOM     85  O   UNL A   1      43.939  22.275  26.758  1.00  0.00    -0.744 OA
ENDBRANCH  78  82
ENDBRANCH  51  75
BRANCH  63  86
ATOM     86  C   UNL A   1      45.136  27.530  34.008  1.00  0.00     0.023 A 
ATOM     87  C   UNL A   1      44.989  26.340  34.744  1.00  0.00     0.031 A 
ATOM     88  C   UNL A   1      46.384  28.176  34.046  1.00  0.00     0.131 A 
ATOM     89  C   UNL A   1      46.045  25.877  35.546  1.00  0.00     0.055 A 
ATOM     90  C   UNL A   1      47.453  27.673  34.790  1.00  0.00     0.041 A 
ATOM     91  F   UNL A   1      46.585  29.316  33.365  1.00  0.00    -0.206 F 
ATOM     92  C   UNL A   1      47.280  26.528  35.562  1.00  0.00     0.022 A 
BRANCH  89  93
ATOM     93  S   UNL A   1      45.739  24.484  36.669  1.00  0.00     0.124 S 
ATOM     94  O   UNL A   1      46.612  24.805  37.794  1.00  0.00    -0.237 OA
ATOM     95  O   UNL A   1      44.306  24.597  36.921  1.00  0.00    -0.237 OA
ATOM     96  O   UNL A   1      46.141  23.317  35.886  1.00  0.00    -0.744 OA
ENDBRANCH  89  93
ENDBRANCH  63  86
ENDBRANCH  37  38
ENDBRANCH  30  32
ENDBRANCH  29  30
ENDBRANCH  28  29
ENDBRANCH  27  28
ENDBRANCH  26  27
ENDBRANCH  25  26
ENDBRANCH   1  25
TORSDOF 23
ENDMDL
