MODEL 1
REMARK VINA RESULT:      -9.3      0.000      0.000
REMARK SMILES COc1ccc(-c2nc(SCC(=O)OCCOCCOCCOC(=O)c3ccc(-c4c5nc(c(-c6cc(S(=O)(=O)[O-])ccc6F)c6ccc([nH]6)c(-c6cc(S(=O)(=O)[O-])ccc6F)c6nc(c(-c7cc(S(=O)(=O)[O-])ccc7F)c7ccc4[nH]7)C=C6)C=C5)cc3)[nH]c2C)cc1
REMARK SMILES IDX 18 1 17 2 16 3 15 4 14 5 12 6 13 7 11 8 10 9 9 10 7 11 8 12
REMARK SMILES IDX 90 13 89 14 91 15 6 17 3 18 4 19 93 20 5 21 92 22 2 23 1 24
REMARK SMILES IDX 19 25 20 26 21 27 22 28 23 29 24 30 25 31 26 32 27 33 88 34
REMARK SMILES IDX 28 35 87 36 29 37 30 38 31 39 81 40 32 41 86 42 80 43 82 44
REMARK SMILES IDX 33 45 85 46 79 47 78 48 34 50 66 51 46 52 65 53 47 54 50 55
REMARK SMILES IDX 64 56 83 57 48 58 49 59 63 61 84 62 51 63 35 64 36 65 44 66
REMARK SMILES IDX 37 67 43 68 45 69 42 70 38 71 39 72 40 73 41 74 67 75 68 76
REMARK SMILES IDX 76 77 69 78 75 79 77 80 74 81 70 82 71 83 72 84 73 85 52 86
REMARK SMILES IDX 53 87 61 88 54 89 60 90 62 91 59 92 55 93 56 94 57 95 58 96
REMARK H PARENT 89 16 82 49 50 60
REMARK Flexibility Score: inf
ROOT
ATOM      1  C   UNL A   1      32.068  28.436  25.076  1.00  0.00     0.188 C 
ENDROOT
BRANCH   1   2
ATOM      2  O   UNL A   1      31.845  27.581  26.202  1.00  0.00    -0.376 OA
BRANCH   2   3
ATOM      3  C   UNL A   1      32.533  26.331  26.166  1.00  0.00     0.202 C 
BRANCH   3   4
ATOM      4  C   UNL A   1      33.261  26.044  24.838  1.00  0.00     0.261 C 
BRANCH   4   5
ATOM      5  O   UNL A   1      34.430  25.200  25.035  1.00  0.00    -0.463 OA
BRANCH   5   6
ATOM      6  C   UNL A   1      34.240  23.968  25.589  1.00  0.00     0.316 C 
ATOM      7  O   UNL A   1      33.177  23.361  25.509  1.00  0.00    -0.251 OA
BRANCH   6   8
ATOM      8  C   UNL A   1      35.520  23.325  26.153  1.00  0.00     0.200 C 
BRANCH   8   9
ATOM      9  S   UNL A   1      36.965  23.373  25.058  1.00  0.00    -0.076 SA
BRANCH   9  10
ATOM     10  C   UNL A   1      38.314  22.689  25.940  1.00  0.00     0.166 A 
ATOM     11  C   UNL A   1      40.220  21.745  26.406  1.00  0.00     0.092 A 
ATOM     12  N   UNL A   1      39.000  21.591  25.729  1.00  0.00    -0.222 NA
ATOM     13  C   UNL A   1      40.185  22.910  27.142  1.00  0.00     0.040 A 
ATOM     14  N   UNL A   1      38.956  23.470  26.864  1.00  0.00    -0.337 N 
ATOM     15  C   UNL A   1      41.191  23.567  28.002  1.00  0.00     0.067 C 
ATOM     16  H   UNL A   1      38.599  24.296  27.264  1.00  0.00     0.168 HD
BRANCH  11  17
ATOM     17  C   UNL A   1      41.404  20.882  26.249  1.00  0.00     0.002 A 
ATOM     18  C   UNL A   1      43.558  19.187  25.485  1.00  0.00     0.118 A 
ATOM     19  C   UNL A   1      43.689  20.568  25.410  1.00  0.00     0.047 A 
ATOM     20  C   UNL A   1      42.440  18.673  26.129  1.00  0.00     0.047 A 
ATOM     21  C   UNL A   1      42.635  21.403  25.824  1.00  0.00     0.014 A 
ATOM     22  C   UNL A   1      41.371  19.516  26.510  1.00  0.00     0.014 A 
BRANCH  18  23
ATOM     23  O   UNL A   1      44.594  18.423  25.023  1.00  0.00    -0.497 OA
ATOM     24  C   UNL A   1      45.898  18.905  25.367  1.00  0.00     0.278 C 
ENDBRANCH  18  23
ENDBRANCH  11  17
ENDBRANCH   9  10
ENDBRANCH   8   9
ENDBRANCH   6   8
ENDBRANCH   5   6
ENDBRANCH   4   5
ENDBRANCH   3   4
ENDBRANCH   2   3
ENDBRANCH   1   2
BRANCH   1  25
ATOM     25  C   UNL A   1      31.593  29.882  25.261  1.00  0.00     0.188 C 
BRANCH  25  26
ATOM     26  O   UNL A   1      31.718  30.261  26.630  1.00  0.00    -0.376 OA
BRANCH  26  27
ATOM     27  C   UNL A   1      32.178  31.597  26.804  1.00  0.00     0.202 C 
BRANCH  27  28
ATOM     28  C   UNL A   1      33.385  31.693  27.777  1.00  0.00     0.261 C 
BRANCH  28  29
ATOM     29  O   UNL A   1      34.762  31.521  27.314  1.00  0.00    -0.460 OA
BRANCH  29  30
ATOM     30  C   UNL A   1      35.313  30.330  27.552  1.00  0.00     0.338 C 
ATOM     31  O   UNL A   1      34.680  29.274  27.375  1.00  0.00    -0.246 OA
BRANCH  30  32
ATOM     32  C   UNL A   1      36.692  30.224  28.049  1.00  0.00     0.060 A 
ATOM     33  C   UNL A   1      37.120  28.954  28.462  1.00  0.00     0.016 A 
ATOM     34  C   UNL A   1      37.445  31.337  28.407  1.00  0.00     0.016 A 
ATOM     35  C   UNL A   1      38.196  28.790  29.333  1.00  0.00     0.010 A 
ATOM     36  C   UNL A   1      38.563  31.167  29.248  1.00  0.00     0.010 A 
ATOM     37  C   UNL A   1      38.914  29.906  29.765  1.00  0.00    -0.014 A 
BRANCH  37  38
ATOM     38  C   UNL A   1      40.089  29.751  30.661  1.00  0.00     0.031 A 
ATOM     39  C   UNL A   1      41.231  28.825  30.368  1.00  0.00     0.074 A 
ATOM     40  C   UNL A   1      40.143  30.483  31.779  1.00  0.00     0.049 A 
ATOM     41  N   UNL A   1      42.048  28.181  31.159  1.00  0.00    -0.248 NA
ATOM     42  C   UNL A   1      41.482  28.593  28.956  1.00  0.00     0.031 C 
ATOM     43  C   UNL A   1      39.199  31.533  32.147  1.00  0.00     0.029 A 
ATOM     44  N   UNL A   1      41.033  30.429  32.812  1.00  0.00    -0.354 N 
ATOM     45  C   UNL A   1      42.806  27.346  30.331  1.00  0.00     0.074 A 
ATOM     46  C   UNL A   1      42.355  27.594  28.979  1.00  0.00     0.031 C 
ATOM     47  C   UNL A   1      39.544  32.011  33.349  1.00  0.00     0.029 A 
ATOM     48  C   UNL A   1      40.681  31.246  33.852  1.00  0.00     0.049 A 
ATOM     49  H   UNL A   1      41.841  29.866  32.809  1.00  0.00     0.167 HD
ATOM     50  C   UNL A   1      43.797  26.482  30.685  1.00  0.00     0.034 A 
ATOM     51  C   UNL A   1      41.190  31.320  35.090  1.00  0.00     0.034 A 
ATOM     52  C   UNL A   1      44.406  26.504  32.001  1.00  0.00     0.049 A 
ATOM     53  C   UNL A   1      42.353  30.444  35.458  1.00  0.00     0.074 A 
ATOM     54  C   UNL A   1      45.473  25.764  32.480  1.00  0.00     0.029 A 
ATOM     55  N   UNL A   1      44.053  27.385  33.017  1.00  0.00    -0.354 N 
ATOM     56  N   UNL A   1      42.921  29.485  34.763  1.00  0.00    -0.248 NA
ATOM     57  C   UNL A   1      42.957  30.685  36.771  1.00  0.00     0.031 C 
ATOM     58  C   UNL A   1      45.753  26.184  33.787  1.00  0.00     0.029 A 
ATOM     59  C   UNL A   1      44.899  27.227  34.103  1.00  0.00     0.049 A 
ATOM     60  H   UNL A   1      43.310  28.029  32.971  1.00  0.00     0.167 HD
ATOM     61  C   UNL A   1      43.978  29.028  35.546  1.00  0.00     0.074 A 
ATOM     62  C   UNL A   1      43.971  29.833  36.753  1.00  0.00     0.031 C 
ATOM     63  C   UNL A   1      44.874  28.039  35.295  1.00  0.00     0.034 A 
BRANCH  50  64
ATOM     64  C   UNL A   1      44.278  25.440  29.688  1.00  0.00     0.023 A 
ATOM     65  C   UNL A   1      44.955  25.746  28.497  1.00  0.00     0.031 A 
ATOM     66  C   UNL A   1      44.058  24.072  29.965  1.00  0.00     0.131 A 
ATOM     67  C   UNL A   1      45.315  24.721  27.601  1.00  0.00     0.055 A 
ATOM     68  C   UNL A   1      44.507  23.052  29.120  1.00  0.00     0.041 A 
ATOM     69  F   UNL A   1      43.403  23.696  31.077  1.00  0.00    -0.206 F 
ATOM     70  C   UNL A   1      45.125  23.375  27.920  1.00  0.00     0.022 A 
BRANCH  67  71
ATOM     71  S   UNL A   1      45.909  25.179  25.948  1.00  0.00     0.124 S 
ATOM     72  O   UNL A   1      46.256  26.584  26.139  1.00  0.00    -0.237 OA
ATOM     73  O   UNL A   1      47.030  24.266  25.752  1.00  0.00    -0.237 OA
ATOM     74  O   UNL A   1      44.752  24.940  25.087  1.00  0.00    -0.744 OA
ENDBRANCH  67  71
ENDBRANCH  50  64
BRANCH  51  75
ATOM     75  C   UNL A   1      40.588  32.274  36.049  1.00  0.00     0.023 A 
ATOM     76  C   UNL A   1      39.425  31.932  36.744  1.00  0.00     0.031 A 
ATOM     77  C   UNL A   1      41.203  33.508  36.327  1.00  0.00     0.131 A 
ATOM     78  C   UNL A   1      38.886  32.830  37.672  1.00  0.00     0.055 A 
ATOM     79  C   UNL A   1      40.691  34.376  37.288  1.00  0.00     0.041 A 
ATOM     80  F   UNL A   1      42.338  33.860  35.701  1.00  0.00    -0.206 F 
ATOM     81  C   UNL A   1      39.518  34.043  37.961  1.00  0.00     0.022 A 
BRANCH  78  82
ATOM     82  S   UNL A   1      37.314  32.401  38.459  1.00  0.00     0.124 S 
ATOM     83  O   UNL A   1      37.488  32.960  39.795  1.00  0.00    -0.237 OA
ATOM     84  O   UNL A   1      36.351  33.083  37.601  1.00  0.00    -0.237 OA
ATOM     85  O   UNL A   1      37.288  30.942  38.390  1.00  0.00    -0.744 OA
ENDBRANCH  78  82
ENDBRANCH  51  75
BRANCH  63  86
ATOM     86  C   UNL A   1      45.951  27.833  36.328  1.00  0.00     0.023 A 
ATOM     87  C   UNL A   1      45.748  27.003  37.444  1.00  0.00     0.031 A 
ATOM     88  C   UNL A   1      47.170  28.524  36.227  1.00  0.00     0.131 A 
ATOM     89  C   UNL A   1      46.712  26.954  38.460  1.00  0.00     0.055 A 
ATOM     90  C   UNL A   1      48.156  28.419  37.210  1.00  0.00     0.041 A 
ATOM     91  F   UNL A   1      47.417  29.327  35.180  1.00  0.00    -0.206 F 
ATOM     92  C   UNL A   1      47.921  27.648  38.345  1.00  0.00     0.022 A 
BRANCH  89  93
ATOM     93  S   UNL A   1      46.307  26.079  39.995  1.00  0.00     0.124 S 
ATOM     94  O   UNL A   1      47.013  26.876  40.993  1.00  0.00    -0.237 OA
ATOM     95  O   UNL A   1      44.851  26.164  40.026  1.00  0.00    -0.237 OA
ATOM     96  O   UNL A   1      46.847  24.738  39.778  1.00  0.00    -0.744 OA
ENDBRANCH  89  93
ENDBRANCH  63  86
ENDBRANCH  37  38
ENDBRANCH  30  32
ENDBRANCH  29  30
ENDBRANCH  28  29
ENDBRANCH  27  28
ENDBRANCH  26  27
ENDBRANCH  25  26
ENDBRANCH   1  25
TORSDOF 24
ENDMDL
MODEL 2
REMARK VINA RESULT:      -8.5      3.094      7.982
REMARK SMILES COc1ccc(-c2nc(SCC(=O)OCCOCCOCCOC(=O)c3ccc(-c4c5nc(c(-c6cc(S(=O)(=O)[O-])ccc6F)c6ccc([nH]6)c(-c6cc(S(=O)(=O)[O-])ccc6F)c6nc(c(-c7cc(S(=O)(=O)[O-])ccc7F)c7ccc4[nH]7)C=C6)C=C5)cc3)[nH]c2C)cc1
REMARK SMILES IDX 18 1 17 2 16 3 15 4 14 5 12 6 13 7 11 8 10 9 9 10 7 11 8 12
REMARK SMILES IDX 90 13 89 14 91 15 6 17 3 18 4 19 93 20 5 21 92 22 2 23 1 24
REMARK SMILES IDX 19 25 20 26 21 27 22 28 23 29 24 30 25 31 26 32 27 33 88 34
REMARK SMILES IDX 28 35 87 36 29 37 30 38 31 39 81 40 32 41 86 42 80 43 82 44
REMARK SMILES IDX 33 45 85 46 79 47 78 48 34 50 66 51 46 52 65 53 47 54 50 55
REMARK SMILES IDX 64 56 83 57 48 58 49 59 63 61 84 62 51 63 35 64 36 65 44 66
REMARK SMILES IDX 37 67 43 68 45 69 42 70 38 71 39 72 40 73 41 74 67 75 68 76
REMARK SMILES IDX 76 77 69 78 75 79 77 80 74 81 70 82 71 83 72 84 73 85 52 86
REMARK SMILES IDX 53 87 61 88 54 89 60 90 62 91 59 92 55 93 56 94 57 95 58 96
REMARK H PARENT 89 16 82 49 50 60
REMARK Flexibility Score: inf
ROOT
ATOM      1  C   UNL A   1      32.050  27.932  24.528  1.00  0.00     0.188 C 
ENDROOT
BRANCH   1   2
ATOM      2  O   UNL A   1      31.719  27.173  25.696  1.00  0.00    -0.376 OA
BRANCH   2   3
ATOM      3  C   UNL A   1      32.518  26.010  25.916  1.00  0.00     0.202 C 
BRANCH   3   4
ATOM      4  C   UNL A   1      33.640  25.805  24.878  1.00  0.00     0.261 C 
BRANCH   4   5
ATOM      5  O   UNL A   1      34.714  24.977  25.404  1.00  0.00    -0.463 OA
BRANCH   5   6
ATOM      6  C   UNL A   1      34.453  23.655  25.619  1.00  0.00     0.316 C 
ATOM      7  O   UNL A   1      33.394  23.127  25.297  1.00  0.00    -0.251 OA
BRANCH   6   8
ATOM      8  C   UNL A   1      35.662  22.845  26.120  1.00  0.00     0.200 C 
BRANCH   8   9
ATOM      9  S   UNL A   1      37.083  22.785  24.993  1.00  0.00    -0.076 SA
BRANCH   9  10
ATOM     10  C   UNL A   1      38.445  22.164  25.901  1.00  0.00     0.166 A 
ATOM     11  C   UNL A   1      40.388  21.318  26.403  1.00  0.00     0.092 A 
ATOM     12  N   UNL A   1      39.194  21.106  25.695  1.00  0.00    -0.222 NA
ATOM     13  C   UNL A   1      40.273  22.471  27.150  1.00  0.00     0.040 A 
ATOM     14  N   UNL A   1      39.022  22.967  26.848  1.00  0.00    -0.337 N 
ATOM     15  C   UNL A   1      41.221  23.170  28.041  1.00  0.00     0.067 C 
ATOM     16  H   UNL A   1      38.612  23.767  27.248  1.00  0.00     0.168 HD
BRANCH  11  17
ATOM     17  C   UNL A   1      41.620  20.522  26.265  1.00  0.00     0.002 A 
ATOM     18  C   UNL A   1      43.867  18.932  25.541  1.00  0.00     0.118 A 
ATOM     19  C   UNL A   1      43.915  20.315  25.420  1.00  0.00     0.047 A 
ATOM     20  C   UNL A   1      42.784  18.375  26.210  1.00  0.00     0.047 A 
ATOM     21  C   UNL A   1      42.816  21.100  25.815  1.00  0.00     0.014 A 
ATOM     22  C   UNL A   1      41.669  19.165  26.570  1.00  0.00     0.014 A 
BRANCH  18  23
ATOM     23  O   UNL A   1      44.944  18.216  25.096  1.00  0.00    -0.497 OA
ATOM     24  C   UNL A   1      46.218  18.765  25.448  1.00  0.00     0.278 C 
ENDBRANCH  18  23
ENDBRANCH  11  17
ENDBRANCH   9  10
ENDBRANCH   8   9
ENDBRANCH   6   8
ENDBRANCH   5   6
ENDBRANCH   4   5
ENDBRANCH   3   4
ENDBRANCH   2   3
ENDBRANCH   1   2
BRANCH   1  25
ATOM     25  C   UNL A   1      31.406  29.322  24.460  1.00  0.00     0.188 C 
BRANCH  25  26
ATOM     26  O   UNL A   1      31.189  29.821  25.779  1.00  0.00    -0.376 OA
BRANCH  26  27
ATOM     27  C   UNL A   1      31.692  31.137  25.973  1.00  0.00     0.202 C 
BRANCH  27  28
ATOM     28  C   UNL A   1      32.525  31.275  27.277  1.00  0.00     0.261 C 
BRANCH  28  29
ATOM     29  O   UNL A   1      33.983  31.378  27.251  1.00  0.00    -0.460 OA
BRANCH  29  30
ATOM     30  C   UNL A   1      34.652  30.232  27.390  1.00  0.00     0.338 C 
ATOM     31  O   UNL A   1      34.091  29.131  27.252  1.00  0.00    -0.246 OA
BRANCH  30  32
ATOM     32  C   UNL A   1      36.082  30.232  27.729  1.00  0.00     0.060 A 
ATOM     33  C   UNL A   1      36.703  28.979  27.848  1.00  0.00     0.016 A 
ATOM     34  C   UNL A   1      36.734  31.356  28.223  1.00  0.00     0.016 A 
ATOM     35  C   UNL A   1      37.885  28.813  28.569  1.00  0.00     0.010 A 
ATOM     36  C   UNL A   1      37.954  31.194  28.909  1.00  0.00     0.010 A 
ATOM     37  C   UNL A   1      38.510  29.922  29.139  1.00  0.00    -0.014 A 
BRANCH  37  38
ATOM     38  C   UNL A   1      39.791  29.774  29.877  1.00  0.00     0.031 A 
ATOM     39  C   UNL A   1      39.996  30.271  31.277  1.00  0.00     0.074 A 
ATOM     40  C   UNL A   1      40.812  29.156  29.274  1.00  0.00     0.049 A 
ATOM     41  N   UNL A   1      41.067  30.689  31.899  1.00  0.00    -0.248 NA
ATOM     42  C   UNL A   1      38.797  30.297  32.097  1.00  0.00     0.031 C 
ATOM     43  C   UNL A   1      40.746  28.486  27.979  1.00  0.00     0.029 A 
ATOM     44  N   UNL A   1      42.106  29.013  29.681  1.00  0.00    -0.354 N 
ATOM     45  C   UNL A   1      40.627  31.176  33.136  1.00  0.00     0.074 A 
ATOM     46  C   UNL A   1      39.195  30.973  33.167  1.00  0.00     0.031 C 
ATOM     47  C   UNL A   1      41.966  28.024  27.678  1.00  0.00     0.029 A 
ATOM     48  C   UNL A   1      42.896  28.434  28.726  1.00  0.00     0.049 A 
ATOM     49  H   UNL A   1      42.436  29.294  30.566  1.00  0.00     0.167 HD
ATOM     50  C   UNL A   1      41.368  31.713  34.142  1.00  0.00     0.034 A 
ATOM     51  C   UNL A   1      44.231  28.306  28.683  1.00  0.00     0.034 A 
ATOM     52  C   UNL A   1      42.814  31.610  34.175  1.00  0.00     0.049 A 
ATOM     53  C   UNL A   1      45.052  28.801  29.838  1.00  0.00     0.074 A 
ATOM     54  C   UNL A   1      43.696  32.016  35.162  1.00  0.00     0.029 A 
ATOM     55  N   UNL A   1      43.580  30.969  33.207  1.00  0.00    -0.354 N 
ATOM     56  N   UNL A   1      44.669  29.476  30.899  1.00  0.00    -0.248 NA
ATOM     57  C   UNL A   1      46.483  28.491  29.798  1.00  0.00     0.031 C 
ATOM     58  C   UNL A   1      44.991  31.637  34.784  1.00  0.00     0.029 A 
ATOM     59  C   UNL A   1      44.912  30.943  33.589  1.00  0.00     0.049 A 
ATOM     60  H   UNL A   1      43.226  30.587  32.372  1.00  0.00     0.167 HD
ATOM     61  C   UNL A   1      45.813  29.642  31.673  1.00  0.00     0.074 A 
ATOM     62  C   UNL A   1      46.890  28.980  30.960  1.00  0.00     0.031 C 
ATOM     63  C   UNL A   1      45.966  30.279  32.863  1.00  0.00     0.034 A 
BRANCH  50  64
ATOM     64  C   UNL A   1      40.677  32.469  35.266  1.00  0.00     0.023 A 
ATOM     65  C   UNL A   1      40.715  33.864  35.414  1.00  0.00     0.031 A 
ATOM     66  C   UNL A   1      39.927  31.745  36.220  1.00  0.00     0.131 A 
ATOM     67  C   UNL A   1      40.093  34.479  36.518  1.00  0.00     0.055 A 
ATOM     68  C   UNL A   1      39.228  32.370  37.257  1.00  0.00     0.041 A 
ATOM     69  F   UNL A   1      39.854  30.405  36.158  1.00  0.00    -0.206 F 
ATOM     70  C   UNL A   1      39.322  33.745  37.422  1.00  0.00     0.022 A 
BRANCH  67  71
ATOM     71  S   UNL A   1      40.422  36.235  36.836  1.00  0.00     0.124 S 
ATOM     72  O   UNL A   1      41.881  36.258  36.882  1.00  0.00    -0.237 OA
ATOM     73  O   UNL A   1      39.812  36.884  35.680  1.00  0.00    -0.237 OA
ATOM     74  O   UNL A   1      39.759  36.485  38.114  1.00  0.00    -0.744 OA
ENDBRANCH  67  71
ENDBRANCH  50  64
BRANCH  51  75
ATOM     75  C   UNL A   1      44.845  27.668  27.497  1.00  0.00     0.023 A 
ATOM     76  C   UNL A   1      44.969  26.277  27.432  1.00  0.00     0.031 A 
ATOM     77  C   UNL A   1      45.254  28.434  26.390  1.00  0.00     0.131 A 
ATOM     78  C   UNL A   1      45.520  25.685  26.290  1.00  0.00     0.055 A 
ATOM     79  C   UNL A   1      45.755  27.838  25.236  1.00  0.00     0.041 A 
ATOM     80  F   UNL A   1      45.124  29.771  26.404  1.00  0.00    -0.206 F 
ATOM     81  C   UNL A   1      45.900  26.453  25.186  1.00  0.00     0.022 A 
BRANCH  78  82
ATOM     82  S   UNL A   1      45.775  23.894  26.297  1.00  0.00     0.124 S 
ATOM     83  O   UNL A   1      44.912  23.475  27.395  1.00  0.00    -0.237 OA
ATOM     84  O   UNL A   1      45.333  23.521  24.957  1.00  0.00    -0.237 OA
ATOM     85  O   UNL A   1      47.209  23.758  26.541  1.00  0.00    -0.744 OA
ENDBRANCH  78  82
ENDBRANCH  51  75
BRANCH  63  86
ATOM     86  C   UNL A   1      47.339  30.221  33.481  1.00  0.00     0.023 A 
ATOM     87  C   UNL A   1      48.341  31.142  33.130  1.00  0.00     0.031 A 
ATOM     88  C   UNL A   1      47.667  29.195  34.385  1.00  0.00     0.131 A 
ATOM     89  C   UNL A   1      49.646  30.967  33.610  1.00  0.00     0.055 A 
ATOM     90  C   UNL A   1      48.953  29.066  34.912  1.00  0.00     0.041 A 
ATOM     91  F   UNL A   1      46.746  28.292  34.757  1.00  0.00    -0.206 F 
ATOM     92  C   UNL A   1      49.956  29.942  34.509  1.00  0.00     0.022 A 
BRANCH  89  93
ATOM     93  S   UNL A   1      50.962  32.017  32.937  1.00  0.00     0.124 S 
ATOM     94  O   UNL A   1      52.155  31.224  33.217  1.00  0.00    -0.237 OA
ATOM     95  O   UNL A   1      50.584  32.126  31.532  1.00  0.00    -0.237 OA
ATOM     96  O   UNL A   1      50.844  33.252  33.710  1.00  0.00    -0.744 OA
ENDBRANCH  89  93
ENDBRANCH  63  86
ENDBRANCH  37  38
ENDBRANCH  30  32
ENDBRANCH  29  30
ENDBRANCH  28  29
ENDBRANCH  27  28
ENDBRANCH  26  27
ENDBRANCH  25  26
ENDBRANCH   1  25
TORSDOF 24
ENDMDL
MODEL 3
REMARK VINA RESULT:      -8.5      2.741      7.934
REMARK SMILES COc1ccc(-c2nc(SCC(=O)OCCOCCOCCOC(=O)c3ccc(-c4c5nc(c(-c6cc(S(=O)(=O)[O-])ccc6F)c6ccc([nH]6)c(-c6cc(S(=O)(=O)[O-])ccc6F)c6nc(c(-c7cc(S(=O)(=O)[O-])ccc7F)c7ccc4[nH]7)C=C6)C=C5)cc3)[nH]c2C)cc1
REMARK SMILES IDX 18 1 17 2 16 3 15 4 14 5 12 6 13 7 11 8 10 9 9 10 7 11 8 12
REMARK SMILES IDX 90 13 89 14 91 15 6 17 3 18 4 19 93 20 5 21 92 22 2 23 1 24
REMARK SMILES IDX 19 25 20 26 21 27 22 28 23 29 24 30 25 31 26 32 27 33 88 34
REMARK SMILES IDX 28 35 87 36 29 37 30 38 31 39 81 40 32 41 86 42 80 43 82 44
REMARK SMILES IDX 33 45 85 46 79 47 78 48 34 50 66 51 46 52 65 53 47 54 50 55
REMARK SMILES IDX 64 56 83 57 48 58 49 59 63 61 84 62 51 63 35 64 36 65 44 66
REMARK SMILES IDX 37 67 43 68 45 69 42 70 38 71 39 72 40 73 41 74 67 75 68 76
REMARK SMILES IDX 76 77 69 78 75 79 77 80 74 81 70 82 71 83 72 84 73 85 52 86
REMARK SMILES IDX 53 87 61 88 54 89 60 90 62 91 59 92 55 93 56 94 57 95 58 96
REMARK H PARENT 89 16 82 49 50 60
REMARK Flexibility Score: inf
ROOT
ATOM      1  C   UNL A   1      32.152  28.053  24.068  1.00  0.00     0.188 C 
ENDROOT
BRANCH   1   2
ATOM      2  O   UNL A   1      31.768  27.249  25.189  1.00  0.00    -0.376 OA
BRANCH   2   3
ATOM      3  C   UNL A   1      32.696  26.229  25.557  1.00  0.00     0.202 C 
BRANCH   3   4
ATOM      4  C   UNL A   1      33.304  25.464  24.365  1.00  0.00     0.261 C 
BRANCH   4   5
ATOM      5  O   UNL A   1      34.390  24.590  24.783  1.00  0.00    -0.463 OA
BRANCH   5   6
ATOM      6  C   UNL A   1      34.070  23.469  25.492  1.00  0.00     0.316 C 
ATOM      7  O   UNL A   1      32.925  23.036  25.567  1.00  0.00    -0.251 OA
BRANCH   6   8
ATOM      8  C   UNL A   1      35.286  22.692  26.028  1.00  0.00     0.200 C 
BRANCH   8   9
ATOM      9  S   UNL A   1      36.646  22.463  24.849  1.00  0.00    -0.076 SA
BRANCH   9  10
ATOM     10  C   UNL A   1      38.078  22.064  25.774  1.00  0.00     0.166 A 
ATOM     11  C   UNL A   1      40.118  21.511  26.300  1.00  0.00     0.092 A 
ATOM     12  N   UNL A   1      38.968  21.115  25.599  1.00  0.00    -0.222 NA
ATOM     13  C   UNL A   1      39.841  22.658  27.013  1.00  0.00     0.040 A 
ATOM     14  N   UNL A   1      38.534  22.966  26.697  1.00  0.00    -0.337 N 
ATOM     15  C   UNL A   1      40.679  23.508  27.883  1.00  0.00     0.067 C 
ATOM     16  H   UNL A   1      38.015  23.713  27.074  1.00  0.00     0.168 HD
BRANCH  11  17
ATOM     17  C   UNL A   1      41.449  20.891  26.186  1.00  0.00     0.002 A 
ATOM     18  C   UNL A   1      43.920  19.659  25.496  1.00  0.00     0.118 A 
ATOM     19  C   UNL A   1      43.794  21.042  25.473  1.00  0.00     0.047 A 
ATOM     20  C   UNL A   1      42.886  18.919  26.056  1.00  0.00     0.047 A 
ATOM     21  C   UNL A   1      42.581  21.648  25.851  1.00  0.00     0.014 A 
ATOM     22  C   UNL A   1      41.659  19.532  26.399  1.00  0.00     0.014 A 
BRANCH  18  23
ATOM     23  O   UNL A   1      45.104  19.121  25.071  1.00  0.00    -0.497 OA
ATOM     24  C   UNL A   1      45.251  19.039  23.649  1.00  0.00     0.278 C 
ENDBRANCH  18  23
ENDBRANCH  11  17
ENDBRANCH   9  10
ENDBRANCH   8   9
ENDBRANCH   6   8
ENDBRANCH   5   6
ENDBRANCH   4   5
ENDBRANCH   3   4
ENDBRANCH   2   3
ENDBRANCH   1   2
BRANCH   1  25
ATOM     25  C   UNL A   1      31.208  29.221  23.760  1.00  0.00     0.188 C 
BRANCH  25  26
ATOM     26  O   UNL A   1      30.719  29.783  24.976  1.00  0.00    -0.376 OA
BRANCH  26  27
ATOM     27  C   UNL A   1      31.073  31.150  25.147  1.00  0.00     0.202 C 
BRANCH  27  28
ATOM     28  C   UNL A   1      31.526  31.476  26.597  1.00  0.00     0.261 C 
BRANCH  28  29
ATOM     29  O   UNL A   1      32.940  31.587  26.955  1.00  0.00    -0.460 OA
BRANCH  29  30
ATOM     30  C   UNL A   1      33.543  30.451  27.309  1.00  0.00     0.338 C 
ATOM     31  O   UNL A   1      32.937  29.366  27.310  1.00  0.00    -0.246 OA
BRANCH  30  32
ATOM     32  C   UNL A   1      34.952  30.446  27.727  1.00  0.00     0.060 A 
ATOM     33  C   UNL A   1      35.552  29.192  27.915  1.00  0.00     0.016 A 
ATOM     34  C   UNL A   1      35.588  31.577  28.226  1.00  0.00     0.016 A 
ATOM     35  C   UNL A   1      36.689  29.035  28.706  1.00  0.00     0.010 A 
ATOM     36  C   UNL A   1      36.766  31.423  28.984  1.00  0.00     0.010 A 
ATOM     37  C   UNL A   1      37.294  30.153  29.279  1.00  0.00    -0.014 A 
BRANCH  37  38
ATOM     38  C   UNL A   1      38.530  30.013  30.092  1.00  0.00     0.031 A 
ATOM     39  C   UNL A   1      38.607  30.386  31.543  1.00  0.00     0.074 A 
ATOM     40  C   UNL A   1      39.628  29.519  29.510  1.00  0.00     0.049 A 
ATOM     41  N   UNL A   1      39.603  30.807  32.276  1.00  0.00    -0.248 NA
ATOM     42  C   UNL A   1      37.357  30.260  32.272  1.00  0.00     0.031 C 
ATOM     43  C   UNL A   1      39.694  28.973  28.159  1.00  0.00     0.029 A 
ATOM     44  N   UNL A   1      40.899  29.416  29.996  1.00  0.00    -0.354 N 
ATOM     45  C   UNL A   1      39.050  31.146  33.517  1.00  0.00     0.074 A 
ATOM     46  C   UNL A   1      37.636  30.853  33.426  1.00  0.00     0.031 C 
ATOM     47  C   UNL A   1      40.959  28.616  27.906  1.00  0.00     0.029 A 
ATOM     48  C   UNL A   1      41.788  28.981  29.052  1.00  0.00     0.049 A 
ATOM     49  H   UNL A   1      41.149  29.631  30.925  1.00  0.00     0.167 HD
ATOM     50  C   UNL A   1      39.685  31.628  34.619  1.00  0.00     0.034 A 
ATOM     51  C   UNL A   1      43.128  28.938  29.095  1.00  0.00     0.034 A 
ATOM     52  C   UNL A   1      41.130  31.610  34.747  1.00  0.00     0.049 A 
ATOM     53  C   UNL A   1      43.835  29.370  30.347  1.00  0.00     0.074 A 
ATOM     54  C   UNL A   1      41.914  31.973  35.829  1.00  0.00     0.029 A 
ATOM     55  N   UNL A   1      41.999  31.112  33.783  1.00  0.00    -0.354 N 
ATOM     56  N   UNL A   1      43.338  29.915  31.434  1.00  0.00    -0.248 NA
ATOM     57  C   UNL A   1      45.283  29.153  30.383  1.00  0.00     0.031 C 
ATOM     58  C   UNL A   1      43.254  31.711  35.513  1.00  0.00     0.029 A 
ATOM     59  C   UNL A   1      43.301  31.131  34.257  1.00  0.00     0.049 A 
ATOM     60  H   UNL A   1      41.729  30.791  32.893  1.00  0.00     0.167 HD
ATOM     61  C   UNL A   1      44.414  30.076  32.301  1.00  0.00     0.074 A 
ATOM     62  C   UNL A   1      45.578  29.552  31.611  1.00  0.00     0.031 C 
ATOM     63  C   UNL A   1      44.444  30.604  33.552  1.00  0.00     0.034 A 
BRANCH  50  64
ATOM     64  C   UNL A   1      38.871  32.229  35.754  1.00  0.00     0.023 A 
ATOM     65  C   UNL A   1      38.443  31.510  36.880  1.00  0.00     0.031 A 
ATOM     66  C   UNL A   1      38.530  33.599  35.703  1.00  0.00     0.131 A 
ATOM     67  C   UNL A   1      37.643  32.132  37.859  1.00  0.00     0.055 A 
ATOM     68  C   UNL A   1      37.821  34.236  36.726  1.00  0.00     0.041 A 
ATOM     69  F   UNL A   1      38.889  34.355  34.651  1.00  0.00    -0.206 F 
ATOM     70  C   UNL A   1      37.357  33.497  37.805  1.00  0.00     0.022 A 
BRANCH  67  71
ATOM     71  S   UNL A   1      36.862  31.098  39.130  1.00  0.00     0.124 S 
ATOM     72  O   UNL A   1      35.567  31.754  39.288  1.00  0.00    -0.237 OA
ATOM     73  O   UNL A   1      36.837  29.784  38.496  1.00  0.00    -0.237 OA
ATOM     74  O   UNL A   1      37.761  31.221  40.276  1.00  0.00    -0.744 OA
ENDBRANCH  67  71
ENDBRANCH  50  64
BRANCH  51  75
ATOM     75  C   UNL A   1      43.861  28.455  27.903  1.00  0.00     0.023 A 
ATOM     76  C   UNL A   1      44.070  27.086  27.714  1.00  0.00     0.031 A 
ATOM     77  C   UNL A   1      44.303  29.349  26.911  1.00  0.00     0.131 A 
ATOM     78  C   UNL A   1      44.735  26.641  26.566  1.00  0.00     0.055 A 
ATOM     79  C   UNL A   1      44.919  28.897  25.746  1.00  0.00     0.041 A 
ATOM     80  F   UNL A   1      44.095  30.669  27.043  1.00  0.00    -0.206 F 
ATOM     81  C   UNL A   1      45.148  27.535  25.574  1.00  0.00     0.022 A 
BRANCH  78  82
ATOM     82  S   UNL A   1      45.093  24.874  26.420  1.00  0.00     0.124 S 
ATOM     83  O   UNL A   1      46.519  24.833  26.723  1.00  0.00    -0.237 OA
ATOM     84  O   UNL A   1      44.208  24.301  27.429  1.00  0.00    -0.237 OA
ATOM     85  O   UNL A   1      44.739  24.570  25.035  1.00  0.00    -0.744 OA
ENDBRANCH  78  82
ENDBRANCH  51  75
BRANCH  63  86
ATOM     86  C   UNL A   1      45.774  30.572  34.261  1.00  0.00     0.023 A 
ATOM     87  C   UNL A   1      46.705  31.616  34.123  1.00  0.00     0.031 A 
ATOM     88  C   UNL A   1      46.138  29.454  35.032  1.00  0.00     0.131 A 
ATOM     89  C   UNL A   1      47.987  31.482  34.673  1.00  0.00     0.055 A 
ATOM     90  C   UNL A   1      47.394  29.357  35.634  1.00  0.00     0.041 A 
ATOM     91  F   UNL A   1      45.285  28.431  35.199  1.00  0.00    -0.206 F 
ATOM     92  C   UNL A   1      48.334  30.364  35.438  1.00  0.00     0.022 A 
BRANCH  89  93
ATOM     93  S   UNL A   1      49.238  32.727  34.260  1.00  0.00     0.124 S 
ATOM     94  O   UNL A   1      49.713  33.128  35.581  1.00  0.00    -0.237 OA
ATOM     95  O   UNL A   1      50.180  31.964  33.448  1.00  0.00    -0.237 OA
ATOM     96  O   UNL A   1      48.480  33.748  33.539  1.00  0.00    -0.744 OA
ENDBRANCH  89  93
ENDBRANCH  63  86
ENDBRANCH  37  38
ENDBRANCH  30  32
ENDBRANCH  29  30
ENDBRANCH  28  29
ENDBRANCH  27  28
ENDBRANCH  26  27
ENDBRANCH  25  26
ENDBRANCH   1  25
TORSDOF 24
ENDMDL
