MODEL 1
REMARK VINA RESULT:     -10.3      0.000      0.000
REMARK SMILES C/C=C(\C)[C@H]1C(C)=C[C@H]2CC[C@@H](OS(=O)(=O)[O-])[C@@H](C)[C@H]2[C@H]1/C=C/C=C/C(=O)OCCOCCOCCOC(=O)c1ccc(-c2c3nc(c(-c4cc(S(=O)(=O)[O-])ccc4F)c4ccc([nH]4)c(-c4cc(S(=O)(=O)[O-])ccc4F)c4nc(c(-c5cc(S(=O)(=O)[O-])ccc5F)c5ccc2[nH]5)C=C4)C=C3)cc1
REMARK SMILES IDX 32 1 31 2 30 3 29 4 28 5 26 6 27 7 25 8 24 9 23 10 22 11
REMARK SMILES IDX 21 12 5 13 6 14 7 15 8 16 20 17 9 18 18 19 10 20 12 21 19 22
REMARK SMILES IDX 11 23 3 24 1 25 2 26 4 27 13 28 14 29 15 30 16 31 17 32
REMARK SMILES IDX 33 33 34 34 35 35 36 36 37 37 38 38 39 39 40 40 41 41 102 42
REMARK SMILES IDX 42 43 101 44 43 45 44 46 45 47 95 48 46 49 100 50 94 51
REMARK SMILES IDX 96 52 47 53 99 54 93 55 92 56 48 58 80 59 60 60 79 61 61 62
REMARK SMILES IDX 64 63 78 64 97 65 62 66 63 67 77 69 98 70 65 71 49 72 50 73
REMARK SMILES IDX 58 74 51 75 57 76 59 77 56 78 52 79 53 80 54 81 55 82 81 83
REMARK SMILES IDX 82 84 90 85 83 86 89 87 91 88 88 89 84 90 85 91 86 92 87 93
REMARK SMILES IDX 66 94 67 95 75 96 68 97 74 98 76 99 73 100 69 101 70 102
REMARK SMILES IDX 71 103 72 104
REMARK H PARENT 96 57 64 68
REMARK Flexibility Score: inf
ROOT
ATOM      1  C   UNL A   1      34.088  34.150  30.234  1.00  0.00     0.188 C 
ENDROOT
BRANCH   1   2
ATOM      2  O   UNL A   1      34.261  32.782  30.590  1.00  0.00    -0.376 OA
BRANCH   2   3
ATOM      3  C   UNL A   1      35.559  32.266  30.856  1.00  0.00     0.202 C 
BRANCH   3   4
ATOM      4  C   UNL A   1      36.029  30.946  30.225  1.00  0.00     0.261 C 
BRANCH   4   5
ATOM      5  O   UNL A   1      36.673  31.083  28.954  1.00  0.00    -0.460 OA
BRANCH   5   6
ATOM      6  C   UNL A   1      36.604  30.002  28.141  1.00  0.00     0.330 C 
ATOM      7  O   UNL A   1      37.543  29.430  27.609  1.00  0.00    -0.247 OA
BRANCH   6   8
ATOM      8  C   UNL A   1      35.228  29.475  28.065  1.00  0.00     0.093 C 
ATOM      9  C   UNL A   1      34.572  29.239  26.920  1.00  0.00     0.007 C 
BRANCH   9  10
ATOM     10  C   UNL A   1      33.262  28.632  26.921  1.00  0.00    -0.004 C 
ATOM     11  C   UNL A   1      32.993  27.711  25.983  1.00  0.00    -0.022 C 
BRANCH  11  12
ATOM     12  C   UNL A   1      31.978  26.579  26.123  1.00  0.00     0.027 C 
ATOM     13  C   UNL A   1      30.909  26.460  24.930  1.00  0.00     0.047 C 
ATOM     14  C   UNL A   1      30.663  25.038  24.410  1.00  0.00    -0.069 C 
ATOM     15  C   UNL A   1      29.902  24.832  23.127  1.00  0.00     0.040 C 
ATOM     16  C   UNL A   1      31.020  23.956  25.126  1.00  0.00    -0.024 C 
ATOM     17  C   UNL A   1      32.700  25.226  26.501  1.00  0.00     0.009 C 
ATOM     18  C   UNL A   1      31.719  24.039  26.451  1.00  0.00     0.016 C 
ATOM     19  C   UNL A   1      34.063  24.933  25.778  1.00  0.00     0.021 C 
ATOM     20  C   UNL A   1      32.410  22.719  26.829  1.00  0.00     0.011 C 
ATOM     21  C   UNL A   1      34.686  23.583  26.202  1.00  0.00     0.141 C 
ATOM     22  C   UNL A   1      34.052  25.097  24.254  1.00  0.00     0.011 C 
ATOM     23  C   UNL A   1      33.686  22.445  26.039  1.00  0.00     0.034 C 
BRANCH  13  24
ATOM     24  C   UNL A   1      31.052  27.555  23.843  1.00  0.00    -0.070 C 
ATOM     25  C   UNL A   1      32.564  28.942  22.295  1.00  0.00     0.035 C 
ATOM     26  C   UNL A   1      32.218  27.813  23.210  1.00  0.00    -0.031 C 
ATOM     27  C   UNL A   1      29.791  28.364  23.632  1.00  0.00     0.040 C 
ENDBRANCH  13  24
BRANCH  21  28
ATOM     28  O   UNL A   1      35.862  23.425  25.416  1.00  0.00    -0.276 OA
BRANCH  28  29
ATOM     29  S   UNL A   1      36.155  22.078  24.578  1.00  0.00     0.217 S 
ATOM     30  O   UNL A   1      37.228  21.341  25.207  1.00  0.00    -0.213 OA
ATOM     31  O   UNL A   1      34.895  21.455  24.250  1.00  0.00    -0.213 OA
ATOM     32  O   UNL A   1      36.746  22.650  23.193  1.00  0.00    -0.726 OA
ENDBRANCH  28  29
ENDBRANCH  21  28
ENDBRANCH  11  12
ENDBRANCH   9  10
ENDBRANCH   6   8
ENDBRANCH   5   6
ENDBRANCH   4   5
ENDBRANCH   3   4
ENDBRANCH   2   3
ENDBRANCH   1   2
BRANCH   1  33
ATOM     33  C   UNL A   1      33.442  35.133  31.232  1.00  0.00     0.188 C 
BRANCH  33  34
ATOM     34  O   UNL A   1      34.349  35.676  32.166  1.00  0.00    -0.376 OA
BRANCH  34  35
ATOM     35  C   UNL A   1      34.632  34.898  33.317  1.00  0.00     0.202 C 
BRANCH  35  36
ATOM     36  C   UNL A   1      36.083  34.582  33.748  1.00  0.00     0.261 C 
BRANCH  36  37
ATOM     37  O   UNL A   1      36.412  33.225  34.088  1.00  0.00    -0.460 OA
BRANCH  37  38
ATOM     38  C   UNL A   1      37.674  32.988  34.518  1.00  0.00     0.338 C 
ATOM     39  O   UNL A   1      38.090  33.136  35.653  1.00  0.00    -0.246 OA
BRANCH  38  40
ATOM     40  C   UNL A   1      38.431  32.320  33.433  1.00  0.00     0.060 A 
ATOM     41  C   UNL A   1      39.163  31.164  33.737  1.00  0.00     0.016 A 
ATOM     42  C   UNL A   1      38.454  32.841  32.136  1.00  0.00     0.016 A 
ATOM     43  C   UNL A   1      39.950  30.553  32.760  1.00  0.00     0.010 A 
ATOM     44  C   UNL A   1      39.258  32.233  31.159  1.00  0.00     0.010 A 
ATOM     45  C   UNL A   1      40.039  31.105  31.475  1.00  0.00    -0.014 A 
BRANCH  45  46
ATOM     46  C   UNL A   1      41.070  30.586  30.534  1.00  0.00     0.031 A 
ATOM     47  C   UNL A   1      42.312  31.402  30.285  1.00  0.00     0.074 A 
ATOM     48  C   UNL A   1      40.941  29.372  29.965  1.00  0.00     0.049 A 
ATOM     49  N   UNL A   1      43.359  31.126  29.550  1.00  0.00    -0.248 NA
ATOM     50  C   UNL A   1      42.379  32.709  30.956  1.00  0.00     0.031 C 
ATOM     51  C   UNL A   1      39.803  28.473  30.152  1.00  0.00     0.029 A 
ATOM     52  N   UNL A   1      41.779  28.683  29.123  1.00  0.00    -0.354 N 
ATOM     53  C   UNL A   1      44.209  32.221  29.669  1.00  0.00     0.074 A 
ATOM     54  C   UNL A   1      43.531  33.184  30.511  1.00  0.00     0.031 C 
ATOM     55  C   UNL A   1      40.018  27.347  29.450  1.00  0.00     0.029 A 
ATOM     56  C   UNL A   1      41.289  27.456  28.735  1.00  0.00     0.049 A 
ATOM     57  H   UNL A   1      42.649  29.033  28.824  1.00  0.00     0.167 HD
ATOM     58  C   UNL A   1      45.444  32.402  29.136  1.00  0.00     0.034 A 
ATOM     59  C   UNL A   1      41.799  26.536  27.890  1.00  0.00     0.034 A 
ATOM     60  C   UNL A   1      46.102  31.438  28.285  1.00  0.00     0.049 A 
ATOM     61  C   UNL A   1      43.145  26.790  27.253  1.00  0.00     0.074 A 
ATOM     62  C   UNL A   1      47.358  31.515  27.707  1.00  0.00     0.029 A 
ATOM     63  N   UNL A   1      45.554  30.230  27.871  1.00  0.00    -0.354 N 
ATOM     64  N   UNL A   1      43.949  27.820  27.395  1.00  0.00    -0.248 NA
ATOM     65  C   UNL A   1      43.658  25.746  26.358  1.00  0.00     0.031 C 
ATOM     66  C   UNL A   1      47.532  30.401  26.878  1.00  0.00     0.029 A 
ATOM     67  C   UNL A   1      46.429  29.573  27.017  1.00  0.00     0.049 A 
ATOM     68  H   UNL A   1      44.672  29.889  28.145  1.00  0.00     0.167 HD
ATOM     69  C   UNL A   1      45.079  27.528  26.632  1.00  0.00     0.074 A 
ATOM     70  C   UNL A   1      44.859  26.217  26.057  1.00  0.00     0.031 C 
ATOM     71  C   UNL A   1      46.198  28.273  26.429  1.00  0.00     0.034 A 
BRANCH  58  72
ATOM     72  C   UNL A   1      46.136  33.718  29.414  1.00  0.00     0.023 A 
ATOM     73  C   UNL A   1      46.011  34.824  28.555  1.00  0.00     0.031 A 
ATOM     74  C   UNL A   1      46.957  33.860  30.549  1.00  0.00     0.131 A 
ATOM     75  C   UNL A   1      46.749  35.993  28.803  1.00  0.00     0.055 A 
ATOM     76  C   UNL A   1      47.620  35.055  30.836  1.00  0.00     0.041 A 
ATOM     77  F   UNL A   1      47.138  32.834  31.395  1.00  0.00    -0.206 F 
ATOM     78  C   UNL A   1      47.530  36.126  29.952  1.00  0.00     0.022 A 
BRANCH  75  79
ATOM     79  S   UNL A   1      46.796  37.279  27.523  1.00  0.00     0.124 S 
ATOM     80  O   UNL A   1      45.713  38.160  27.950  1.00  0.00    -0.237 OA
ATOM     81  O   UNL A   1      48.146  37.812  27.661  1.00  0.00    -0.237 OA
ATOM     82  O   UNL A   1      46.538  36.541  26.288  1.00  0.00    -0.744 OA
ENDBRANCH  75  79
ENDBRANCH  58  72
BRANCH  59  83
ATOM     83  C   UNL A   1      41.028  25.298  27.565  1.00  0.00     0.023 A 
ATOM     84  C   UNL A   1      41.595  24.021  27.707  1.00  0.00     0.031 A 
ATOM     85  C   UNL A   1      39.724  25.383  27.044  1.00  0.00     0.131 A 
ATOM     86  C   UNL A   1      40.881  22.886  27.287  1.00  0.00     0.055 A 
ATOM     87  C   UNL A   1      38.994  24.248  26.688  1.00  0.00     0.041 A 
ATOM     88  F   UNL A   1      39.136  26.578  26.878  1.00  0.00    -0.206 F 
ATOM     89  C   UNL A   1      39.578  22.990  26.795  1.00  0.00     0.022 A 
BRANCH  86  90
ATOM     90  S   UNL A   1      41.717  21.276  27.300  1.00  0.00     0.124 S 
ATOM     91  O   UNL A   1      41.861  21.006  25.874  1.00  0.00    -0.237 OA
ATOM     92  O   UNL A   1      42.949  21.580  28.021  1.00  0.00    -0.237 OA
ATOM     93  O   UNL A   1      40.779  20.410  28.009  1.00  0.00    -0.744 OA
ENDBRANCH  86  90
ENDBRANCH  59  83
BRANCH  71  94
ATOM     94  C   UNL A   1      47.292  27.655  25.584  1.00  0.00     0.023 A 
ATOM     95  C   UNL A   1      47.495  28.024  24.242  1.00  0.00     0.031 A 
ATOM     96  C   UNL A   1      48.110  26.641  26.114  1.00  0.00     0.131 A 
ATOM     97  C   UNL A   1      48.422  27.323  23.454  1.00  0.00     0.055 A 
ATOM     98  C   UNL A   1      49.090  26.006  25.349  1.00  0.00     0.041 A 
ATOM     99  F   UNL A   1      47.965  26.239  27.388  1.00  0.00    -0.206 F 
ATOM    100  C   UNL A   1      49.234  26.330  24.004  1.00  0.00     0.022 A 
BRANCH  97 101
ATOM    101  S   UNL A   1      48.436  27.618  21.663  1.00  0.00     0.124 S 
ATOM    102  O   UNL A   1      48.642  26.273  21.137  1.00  0.00    -0.237 OA
ATOM    103  O   UNL A   1      47.118  28.200  21.432  1.00  0.00    -0.237 OA
ATOM    104  O   UNL A   1      49.560  28.536  21.477  1.00  0.00    -0.744 OA
ENDBRANCH  97 101
ENDBRANCH  71  94
ENDBRANCH  45  46
ENDBRANCH  38  40
ENDBRANCH  37  38
ENDBRANCH  36  37
ENDBRANCH  35  36
ENDBRANCH  34  35
ENDBRANCH  33  34
ENDBRANCH   1  33
TORSDOF 25
ENDMDL
MODEL 2
REMARK VINA RESULT:     -10.1      8.815     16.134
REMARK SMILES C/C=C(\C)[C@H]1C(C)=C[C@H]2CC[C@@H](OS(=O)(=O)[O-])[C@@H](C)[C@H]2[C@H]1/C=C/C=C/C(=O)OCCOCCOCCOC(=O)c1ccc(-c2c3nc(c(-c4cc(S(=O)(=O)[O-])ccc4F)c4ccc([nH]4)c(-c4cc(S(=O)(=O)[O-])ccc4F)c4nc(c(-c5cc(S(=O)(=O)[O-])ccc5F)c5ccc2[nH]5)C=C4)C=C3)cc1
REMARK SMILES IDX 32 1 31 2 30 3 29 4 28 5 26 6 27 7 25 8 24 9 23 10 22 11
REMARK SMILES IDX 21 12 5 13 6 14 7 15 8 16 20 17 9 18 18 19 10 20 12 21 19 22
REMARK SMILES IDX 11 23 3 24 1 25 2 26 4 27 13 28 14 29 15 30 16 31 17 32
REMARK SMILES IDX 33 33 34 34 35 35 36 36 37 37 38 38 39 39 40 40 41 41 102 42
REMARK SMILES IDX 42 43 101 44 43 45 44 46 45 47 95 48 46 49 100 50 94 51
REMARK SMILES IDX 96 52 47 53 99 54 93 55 92 56 48 58 80 59 60 60 79 61 61 62
REMARK SMILES IDX 64 63 78 64 97 65 62 66 63 67 77 69 98 70 65 71 49 72 50 73
REMARK SMILES IDX 58 74 51 75 57 76 59 77 56 78 52 79 53 80 54 81 55 82 81 83
REMARK SMILES IDX 82 84 90 85 83 86 89 87 91 88 88 89 84 90 85 91 86 92 87 93
REMARK SMILES IDX 66 94 67 95 75 96 68 97 74 98 76 99 73 100 69 101 70 102
REMARK SMILES IDX 71 103 72 104
REMARK H PARENT 96 57 64 68
REMARK Flexibility Score: inf
ROOT
ATOM      1  C   UNL A   1      43.951  42.940  23.615  1.00  0.00     0.188 C 
ENDROOT
BRANCH   1   2
ATOM      2  O   UNL A   1      43.991  43.619  22.363  1.00  0.00    -0.376 OA
BRANCH   2   3
ATOM      3  C   UNL A   1      43.892  42.891  21.146  1.00  0.00     0.202 C 
BRANCH   3   4
ATOM      4  C   UNL A   1      43.198  43.499  19.916  1.00  0.00     0.261 C 
BRANCH   4   5
ATOM      5  O   UNL A   1      41.768  43.439  19.943  1.00  0.00    -0.460 OA
BRANCH   5   6
ATOM      6  C   UNL A   1      41.131  44.191  19.014  1.00  0.00     0.330 C 
ATOM      7  O   UNL A   1      39.926  44.360  18.914  1.00  0.00    -0.247 OA
BRANCH   6   8
ATOM      8  C   UNL A   1      42.092  44.932  18.173  1.00  0.00     0.093 C 
ATOM      9  C   UNL A   1      41.791  46.038  17.479  1.00  0.00     0.007 C 
BRANCH   9  10
ATOM     10  C   UNL A   1      42.808  46.764  16.755  1.00  0.00    -0.004 C 
ATOM     11  C   UNL A   1      43.961  47.031  17.385  1.00  0.00    -0.022 C 
BRANCH  11  12
ATOM     12  C   UNL A   1      45.311  47.240  16.703  1.00  0.00     0.027 C 
ATOM     13  C   UNL A   1      45.891  48.736  16.764  1.00  0.00     0.047 C 
ATOM     14  C   UNL A   1      47.379  48.848  17.123  1.00  0.00    -0.069 C 
ATOM     15  C   UNL A   1      47.963  50.190  17.479  1.00  0.00     0.040 C 
ATOM     16  C   UNL A   1      48.207  47.792  17.028  1.00  0.00    -0.024 C 
ATOM     17  C   UNL A   1      46.334  46.117  17.135  1.00  0.00     0.009 C 
ATOM     18  C   UNL A   1      47.751  46.423  16.615  1.00  0.00     0.016 C 
ATOM     19  C   UNL A   1      46.309  45.690  18.647  1.00  0.00     0.021 C 
ATOM     20  C   UNL A   1      48.752  45.329  17.022  1.00  0.00     0.011 C 
ATOM     21  C   UNL A   1      47.351  44.597  18.977  1.00  0.00     0.141 C 
ATOM     22  C   UNL A   1      46.356  46.840  19.659  1.00  0.00     0.011 C 
ATOM     23  C   UNL A   1      48.743  45.012  18.513  1.00  0.00     0.034 C 
BRANCH  13  24
ATOM     24  C   UNL A   1      44.954  49.748  17.471  1.00  0.00    -0.070 C 
ATOM     25  C   UNL A   1      43.522  50.374  19.511  1.00  0.00     0.035 C 
ATOM     26  C   UNL A   1      44.557  49.607  18.755  1.00  0.00    -0.031 C 
ATOM     27  C   UNL A   1      44.454  50.847  16.558  1.00  0.00     0.040 C 
ENDBRANCH  13  24
BRANCH  21  28
ATOM     28  O   UNL A   1      47.262  44.373  20.379  1.00  0.00    -0.276 OA
BRANCH  28  29
ATOM     29  S   UNL A   1      48.226  43.328  21.141  1.00  0.00     0.217 S 
ATOM     30  O   UNL A   1      48.592  42.262  20.236  1.00  0.00    -0.213 OA
ATOM     31  O   UNL A   1      49.217  44.070  21.883  1.00  0.00    -0.213 OA
ATOM     32  O   UNL A   1      47.240  42.677  22.236  1.00  0.00    -0.726 OA
ENDBRANCH  28  29
ENDBRANCH  21  28
ENDBRANCH  11  12
ENDBRANCH   9  10
ENDBRANCH   6   8
ENDBRANCH   5   6
ENDBRANCH   4   5
ENDBRANCH   3   4
ENDBRANCH   2   3
ENDBRANCH   1   2
BRANCH   1  33
ATOM     33  C   UNL A   1      44.323  43.687  24.912  1.00  0.00     0.188 C 
BRANCH  33  34
ATOM     34  O   UNL A   1      45.485  43.193  25.542  1.00  0.00    -0.376 OA
BRANCH  34  35
ATOM     35  C   UNL A   1      45.846  41.850  25.267  1.00  0.00     0.202 C 
BRANCH  35  36
ATOM     36  C   UNL A   1      45.301  40.674  26.107  1.00  0.00     0.261 C 
BRANCH  36  37
ATOM     37  O   UNL A   1      44.005  40.144  25.779  1.00  0.00    -0.460 OA
BRANCH  37  38
ATOM     38  C   UNL A   1      43.066  40.171  26.754  1.00  0.00     0.338 C 
ATOM     39  O   UNL A   1      42.314  41.094  27.007  1.00  0.00    -0.246 OA
BRANCH  38  40
ATOM     40  C   UNL A   1      42.949  38.815  27.343  1.00  0.00     0.060 A 
ATOM     41  C   UNL A   1      43.395  38.612  28.656  1.00  0.00     0.016 A 
ATOM     42  C   UNL A   1      42.440  37.744  26.603  1.00  0.00     0.016 A 
ATOM     43  C   UNL A   1      43.374  37.332  29.215  1.00  0.00     0.010 A 
ATOM     44  C   UNL A   1      42.433  36.456  27.163  1.00  0.00     0.010 A 
ATOM     45  C   UNL A   1      42.933  36.237  28.460  1.00  0.00    -0.014 A 
BRANCH  45  46
ATOM     46  C   UNL A   1      43.153  34.862  28.986  1.00  0.00     0.031 A 
ATOM     47  C   UNL A   1      41.990  34.109  29.578  1.00  0.00     0.074 A 
ATOM     48  C   UNL A   1      44.352  34.259  28.873  1.00  0.00     0.049 A 
ATOM     49  N   UNL A   1      41.937  32.888  30.047  1.00  0.00    -0.248 NA
ATOM     50  C   UNL A   1      40.712  34.835  29.651  1.00  0.00     0.031 C 
ATOM     51  C   UNL A   1      45.547  34.869  28.291  1.00  0.00     0.029 A 
ATOM     52  N   UNL A   1      44.761  32.999  29.233  1.00  0.00    -0.354 N 
ATOM     53  C   UNL A   1      40.625  32.698  30.471  1.00  0.00     0.074 A 
ATOM     54  C   UNL A   1      39.929  33.947  30.244  1.00  0.00     0.031 C 
ATOM     55  C   UNL A   1      46.553  33.977  28.328  1.00  0.00     0.029 A 
ATOM     56  C   UNL A   1      46.087  32.748  28.968  1.00  0.00     0.049 A 
ATOM     57  H   UNL A   1      44.160  32.335  29.645  1.00  0.00     0.167 HD
ATOM     58  C   UNL A   1      40.051  31.583  30.990  1.00  0.00     0.034 A 
ATOM     59  C   UNL A   1      46.843  31.659  29.223  1.00  0.00     0.034 A 
ATOM     60  C   UNL A   1      40.762  30.348  31.226  1.00  0.00     0.049 A 
ATOM     61  C   UNL A   1      46.198  30.454  29.866  1.00  0.00     0.074 A 
ATOM     62  C   UNL A   1      40.272  29.155  31.731  1.00  0.00     0.029 A 
ATOM     63  N   UNL A   1      42.118  30.147  30.992  1.00  0.00    -0.354 N 
ATOM     64  N   UNL A   1      44.950  30.279  30.238  1.00  0.00    -0.248 NA
ATOM     65  C   UNL A   1      47.063  29.292  30.103  1.00  0.00     0.031 C 
ATOM     66  C   UNL A   1      41.343  28.268  31.885  1.00  0.00     0.029 A 
ATOM     67  C   UNL A   1      42.486  28.866  31.379  1.00  0.00     0.049 A 
ATOM     68  H   UNL A   1      42.727  30.818  30.608  1.00  0.00     0.167 HD
ATOM     69  C   UNL A   1      44.876  28.974  30.722  1.00  0.00     0.074 A 
ATOM     70  C   UNL A   1      46.199  28.403  30.569  1.00  0.00     0.031 C 
ATOM     71  C   UNL A   1      43.812  28.306  31.242  1.00  0.00     0.034 A 
BRANCH  58  72
ATOM     72  C   UNL A   1      38.595  31.672  31.391  1.00  0.00     0.023 A 
ATOM     73  C   UNL A   1      38.156  32.512  32.430  1.00  0.00     0.031 A 
ATOM     74  C   UNL A   1      37.632  30.882  30.736  1.00  0.00     0.131 A 
ATOM     75  C   UNL A   1      36.811  32.488  32.831  1.00  0.00     0.055 A 
ATOM     76  C   UNL A   1      36.279  30.929  31.083  1.00  0.00     0.041 A 
ATOM     77  F   UNL A   1      37.990  30.042  29.753  1.00  0.00    -0.206 F 
ATOM     78  C   UNL A   1      35.864  31.724  32.146  1.00  0.00     0.022 A 
BRANCH  75  79
ATOM     79  S   UNL A   1      36.343  33.351  34.358  1.00  0.00     0.124 S 
ATOM     80  O   UNL A   1      36.936  32.490  35.377  1.00  0.00    -0.237 OA
ATOM     81  O   UNL A   1      36.966  34.658  34.184  1.00  0.00    -0.237 OA
ATOM     82  O   UNL A   1      34.882  33.345  34.321  1.00  0.00    -0.744 OA
ENDBRANCH  75  79
ENDBRANCH  58  72
BRANCH  59  83
ATOM     83  C   UNL A   1      48.302  31.659  28.904  1.00  0.00     0.023 A 
ATOM     84  C   UNL A   1      49.248  32.201  29.789  1.00  0.00     0.031 A 
ATOM     85  C   UNL A   1      48.765  31.166  27.670  1.00  0.00     0.131 A 
ATOM     86  C   UNL A   1      50.598  32.285  29.408  1.00  0.00     0.055 A 
ATOM     87  C   UNL A   1      50.116  31.194  27.322  1.00  0.00     0.041 A 
ATOM     88  F   UNL A   1      47.904  30.645  26.781  1.00  0.00    -0.206 F 
ATOM     89  C   UNL A   1      51.040  31.768  28.188  1.00  0.00     0.022 A 
BRANCH  86  90
ATOM     90  S   UNL A   1      51.756  33.169  30.490  1.00  0.00     0.124 S 
ATOM     91  O   UNL A   1      52.575  33.887  29.520  1.00  0.00    -0.237 OA
ATOM     92  O   UNL A   1      50.854  33.985  31.295  1.00  0.00    -0.237 OA
ATOM     93  O   UNL A   1      52.436  32.096  31.210  1.00  0.00    -0.744 OA
ENDBRANCH  86  90
ENDBRANCH  59  83
BRANCH  71  94
ATOM     94  C   UNL A   1      44.032  26.860  31.634  1.00  0.00     0.023 A 
ATOM     95  C   UNL A   1      44.312  26.482  32.960  1.00  0.00     0.031 A 
ATOM     96  C   UNL A   1      44.013  25.849  30.656  1.00  0.00     0.131 A 
ATOM     97  C   UNL A   1      44.654  25.152  33.253  1.00  0.00     0.055 A 
ATOM     98  C   UNL A   1      44.270  24.513  30.969  1.00  0.00     0.041 A 
ATOM     99  F   UNL A   1      43.757  26.144  29.371  1.00  0.00    -0.206 F 
ATOM    100  C   UNL A   1      44.616  24.162  32.270  1.00  0.00     0.022 A 
BRANCH  97 101
ATOM    101  S   UNL A   1      45.305  24.767  34.903  1.00  0.00     0.124 S 
ATOM    102  O   UNL A   1      44.964  25.972  35.651  1.00  0.00    -0.237 OA
ATOM    103  O   UNL A   1      44.561  23.563  35.259  1.00  0.00    -0.237 OA
ATOM    104  O   UNL A   1      46.735  24.566  34.668  1.00  0.00    -0.744 OA
ENDBRANCH  97 101
ENDBRANCH  71  94
ENDBRANCH  45  46
ENDBRANCH  38  40
ENDBRANCH  37  38
ENDBRANCH  36  37
ENDBRANCH  35  36
ENDBRANCH  34  35
ENDBRANCH  33  34
ENDBRANCH   1  33
TORSDOF 25
ENDMDL
MODEL 3
REMARK VINA RESULT:      -9.9      6.603      9.872
REMARK SMILES C/C=C(\C)[C@H]1C(C)=C[C@H]2CC[C@@H](OS(=O)(=O)[O-])[C@@H](C)[C@H]2[C@H]1/C=C/C=C/C(=O)OCCOCCOCCOC(=O)c1ccc(-c2c3nc(c(-c4cc(S(=O)(=O)[O-])ccc4F)c4ccc([nH]4)c(-c4cc(S(=O)(=O)[O-])ccc4F)c4nc(c(-c5cc(S(=O)(=O)[O-])ccc5F)c5ccc2[nH]5)C=C4)C=C3)cc1
REMARK SMILES IDX 32 1 31 2 30 3 29 4 28 5 26 6 27 7 25 8 24 9 23 10 22 11
REMARK SMILES IDX 21 12 5 13 6 14 7 15 8 16 20 17 9 18 18 19 10 20 12 21 19 22
REMARK SMILES IDX 11 23 3 24 1 25 2 26 4 27 13 28 14 29 15 30 16 31 17 32
REMARK SMILES IDX 33 33 34 34 35 35 36 36 37 37 38 38 39 39 40 40 41 41 102 42
REMARK SMILES IDX 42 43 101 44 43 45 44 46 45 47 95 48 46 49 100 50 94 51
REMARK SMILES IDX 96 52 47 53 99 54 93 55 92 56 48 58 80 59 60 60 79 61 61 62
REMARK SMILES IDX 64 63 78 64 97 65 62 66 63 67 77 69 98 70 65 71 49 72 50 73
REMARK SMILES IDX 58 74 51 75 57 76 59 77 56 78 52 79 53 80 54 81 55 82 81 83
REMARK SMILES IDX 82 84 90 85 83 86 89 87 91 88 88 89 84 90 85 91 86 92 87 93
REMARK SMILES IDX 66 94 67 95 75 96 68 97 74 98 76 99 73 100 69 101 70 102
REMARK SMILES IDX 71 103 72 104
REMARK H PARENT 96 57 64 68
REMARK Flexibility Score: inf
ROOT
ATOM      1  C   UNL A   1      34.186  34.795  28.993  1.00  0.00     0.188 C 
ENDROOT
BRANCH   1   2
ATOM      2  O   UNL A   1      34.350  33.656  29.832  1.00  0.00    -0.376 OA
BRANCH   2   3
ATOM      3  C   UNL A   1      35.646  33.128  30.084  1.00  0.00     0.202 C 
BRANCH   3   4
ATOM      4  C   UNL A   1      35.981  31.665  29.753  1.00  0.00     0.261 C 
BRANCH   4   5
ATOM      5  O   UNL A   1      36.941  31.490  28.706  1.00  0.00    -0.460 OA
BRANCH   5   6
ATOM      6  C   UNL A   1      36.830  30.345  27.993  1.00  0.00     0.330 C 
ATOM      7  O   UNL A   1      37.744  29.706  27.494  1.00  0.00    -0.247 OA
BRANCH   6   8
ATOM      8  C   UNL A   1      35.441  29.845  27.992  1.00  0.00     0.093 C 
ATOM      9  C   UNL A   1      34.910  29.093  27.018  1.00  0.00     0.007 C 
BRANCH   9  10
ATOM     10  C   UNL A   1      33.573  28.560  27.131  1.00  0.00    -0.004 C 
ATOM     11  C   UNL A   1      33.112  27.796  26.130  1.00  0.00    -0.022 C 
BRANCH  11  12
ATOM     12  C   UNL A   1      32.048  26.711  26.266  1.00  0.00     0.027 C 
ATOM     13  C   UNL A   1      30.882  26.743  25.162  1.00  0.00     0.047 C 
ATOM     14  C   UNL A   1      30.514  25.383  24.556  1.00  0.00    -0.069 C 
ATOM     15  C   UNL A   1      29.643  25.321  23.329  1.00  0.00     0.040 C 
ATOM     16  C   UNL A   1      30.863  24.229  25.154  1.00  0.00    -0.024 C 
ATOM     17  C   UNL A   1      32.717  25.296  26.478  1.00  0.00     0.009 C 
ATOM     18  C   UNL A   1      31.669  24.169  26.419  1.00  0.00     0.016 C 
ATOM     19  C   UNL A   1      34.000  24.992  25.623  1.00  0.00     0.021 C 
ATOM     20  C   UNL A   1      32.310  22.788  26.635  1.00  0.00     0.011 C 
ATOM     21  C   UNL A   1      34.576  23.583  25.888  1.00  0.00     0.141 C 
ATOM     22  C   UNL A   1      33.877  25.280  24.122  1.00  0.00     0.011 C 
ATOM     23  C   UNL A   1      33.501  22.514  25.723  1.00  0.00     0.034 C 
BRANCH  13  24
ATOM     24  C   UNL A   1      31.002  27.915  24.153  1.00  0.00    -0.070 C 
ATOM     25  C   UNL A   1      30.043  30.088  23.174  1.00  0.00     0.035 C 
ATOM     26  C   UNL A   1      30.181  28.988  24.174  1.00  0.00    -0.031 C 
ATOM     27  C   UNL A   1      32.058  27.691  23.093  1.00  0.00     0.040 C 
ENDBRANCH  13  24
BRANCH  21  28
ATOM     28  O   UNL A   1      35.674  23.428  24.997  1.00  0.00    -0.276 OA
BRANCH  28  29
ATOM     29  S   UNL A   1      36.372  21.997  24.740  1.00  0.00     0.217 S 
ATOM     30  O   UNL A   1      35.376  20.953  24.828  1.00  0.00    -0.213 OA
ATOM     31  O   UNL A   1      37.257  22.110  23.606  1.00  0.00    -0.213 OA
ATOM     32  O   UNL A   1      37.318  21.833  26.034  1.00  0.00    -0.726 OA
ENDBRANCH  28  29
ENDBRANCH  21  28
ENDBRANCH  11  12
ENDBRANCH   9  10
ENDBRANCH   6   8
ENDBRANCH   5   6
ENDBRANCH   4   5
ENDBRANCH   3   4
ENDBRANCH   2   3
ENDBRANCH   1   2
BRANCH   1  33
ATOM     33  C   UNL A   1      32.900  35.643  29.081  1.00  0.00     0.188 C 
BRANCH  33  34
ATOM     34  O   UNL A   1      32.911  36.589  30.126  1.00  0.00    -0.376 OA
BRANCH  34  35
ATOM     35  C   UNL A   1      32.452  36.153  31.395  1.00  0.00     0.202 C 
BRANCH  35  36
ATOM     36  C   UNL A   1      33.376  36.146  32.635  1.00  0.00     0.261 C 
BRANCH  36  37
ATOM     37  O   UNL A   1      34.583  35.368  32.580  1.00  0.00    -0.460 OA
BRANCH  37  38
ATOM     38  C   UNL A   1      34.611  34.227  33.309  1.00  0.00     0.338 C 
ATOM     39  O   UNL A   1      33.833  33.295  33.221  1.00  0.00    -0.246 OA
BRANCH  38  40
ATOM     40  C   UNL A   1      35.867  34.193  34.097  1.00  0.00     0.060 A 
ATOM     41  C   UNL A   1      37.062  34.572  33.472  1.00  0.00     0.016 A 
ATOM     42  C   UNL A   1      35.879  33.758  35.425  1.00  0.00     0.016 A 
ATOM     43  C   UNL A   1      38.275  34.478  34.158  1.00  0.00     0.010 A 
ATOM     44  C   UNL A   1      37.101  33.652  36.108  1.00  0.00     0.010 A 
ATOM     45  C   UNL A   1      38.311  33.977  35.466  1.00  0.00    -0.014 A 
BRANCH  45  46
ATOM     46  C   UNL A   1      39.628  33.654  36.080  1.00  0.00     0.031 A 
ATOM     47  C   UNL A   1      40.238  34.624  37.059  1.00  0.00     0.074 A 
ATOM     48  C   UNL A   1      40.241  32.482  35.830  1.00  0.00     0.049 A 
ATOM     49  N   UNL A   1      41.345  34.527  37.752  1.00  0.00    -0.248 NA
ATOM     50  C   UNL A   1      39.496  35.873  37.287  1.00  0.00     0.031 C 
ATOM     51  C   UNL A   1      39.738  31.446  34.928  1.00  0.00     0.029 A 
ATOM     52  N   UNL A   1      41.414  31.960  36.318  1.00  0.00    -0.354 N 
ATOM     53  C   UNL A   1      41.434  35.699  38.495  1.00  0.00     0.074 A 
ATOM     54  C   UNL A   1      40.291  36.510  38.133  1.00  0.00     0.031 C 
ATOM     55  C   UNL A   1      40.595  30.410  34.933  1.00  0.00     0.029 A 
ATOM     56  C   UNL A   1      41.725  30.720  35.809  1.00  0.00     0.049 A 
ATOM     57  H   UNL A   1      41.981  32.430  36.972  1.00  0.00     0.167 HD
ATOM     58  C   UNL A   1      42.374  36.062  39.404  1.00  0.00     0.034 A 
ATOM     59  C   UNL A   1      42.801  29.932  36.013  1.00  0.00     0.034 A 
ATOM     60  C   UNL A   1      43.519  35.248  39.745  1.00  0.00     0.049 A 
ATOM     61  C   UNL A   1      43.871  30.387  36.977  1.00  0.00     0.074 A 
ATOM     62  C   UNL A   1      44.521  35.513  40.663  1.00  0.00     0.029 A 
ATOM     63  N   UNL A   1      43.828  34.021  39.170  1.00  0.00    -0.354 N 
ATOM     64  N   UNL A   1      43.929  31.488  37.693  1.00  0.00    -0.248 NA
ATOM     65  C   UNL A   1      45.009  29.482  37.174  1.00  0.00     0.031 C 
ATOM     66  C   UNL A   1      45.476  34.494  40.580  1.00  0.00     0.029 A 
ATOM     67  C   UNL A   1      45.023  33.537  39.686  1.00  0.00     0.049 A 
ATOM     68  H   UNL A   1      43.278  33.561  38.495  1.00  0.00     0.167 HD
ATOM     69  C   UNL A   1      45.096  31.388  38.450  1.00  0.00     0.074 A 
ATOM     70  C   UNL A   1      45.691  30.108  38.120  1.00  0.00     0.031 C 
ATOM     71  C   UNL A   1      45.624  32.269  39.340  1.00  0.00     0.034 A 
BRANCH  58  72
ATOM     72  C   UNL A   1      42.232  37.422  40.049  1.00  0.00     0.023 A 
ATOM     73  C   UNL A   1      41.560  37.603  41.271  1.00  0.00     0.031 A 
ATOM     74  C   UNL A   1      42.758  38.564  39.415  1.00  0.00     0.131 A 
ATOM     75  C   UNL A   1      41.369  38.898  41.781  1.00  0.00     0.055 A 
ATOM     76  C   UNL A   1      42.640  39.839  39.974  1.00  0.00     0.041 A 
ATOM     77  F   UNL A   1      43.388  38.462  38.235  1.00  0.00    -0.206 F 
ATOM     78  C   UNL A   1      41.928  40.013  41.156  1.00  0.00     0.022 A 
BRANCH  75  79
ATOM     79  S   UNL A   1      40.247  39.118  43.192  1.00  0.00     0.124 S 
ATOM     80  O   UNL A   1      41.163  39.592  44.226  1.00  0.00    -0.237 OA
ATOM     81  O   UNL A   1      39.294  40.097  42.686  1.00  0.00    -0.237 OA
ATOM     82  O   UNL A   1      39.710  37.777  43.414  1.00  0.00    -0.744 OA
ENDBRANCH  75  79
ENDBRANCH  58  72
BRANCH  59  83
ATOM     83  C   UNL A   1      42.947  28.643  35.271  1.00  0.00     0.023 A 
ATOM     84  C   UNL A   1      42.527  27.424  35.827  1.00  0.00     0.031 A 
ATOM     85  C   UNL A   1      43.572  28.609  34.012  1.00  0.00     0.131 A 
ATOM     86  C   UNL A   1      42.781  26.220  35.149  1.00  0.00     0.055 A 
ATOM     87  C   UNL A   1      43.766  27.416  33.313  1.00  0.00     0.041 A 
ATOM     88  F   UNL A   1      44.003  29.743  33.436  1.00  0.00    -0.206 F 
ATOM     89  C   UNL A   1      43.381  26.210  33.888  1.00  0.00     0.022 A 
BRANCH  86  90
ATOM     90  S   UNL A   1      42.404  24.653  35.984  1.00  0.00     0.124 S 
ATOM     91  O   UNL A   1      43.446  24.603  37.003  1.00  0.00    -0.237 OA
ATOM     92  O   UNL A   1      41.047  24.886  36.467  1.00  0.00    -0.237 OA
ATOM     93  O   UNL A   1      42.524  23.661  34.918  1.00  0.00    -0.744 OA
ENDBRANCH  86  90
ENDBRANCH  59  83
BRANCH  71  94
ATOM     94  C   UNL A   1      46.890  31.847  40.056  1.00  0.00     0.023 A 
ATOM     95  C   UNL A   1      46.857  31.123  41.262  1.00  0.00     0.031 A 
ATOM     96  C   UNL A   1      48.149  32.221  39.552  1.00  0.00     0.131 A 
ATOM     97  C   UNL A   1      48.048  30.881  41.967  1.00  0.00     0.055 A 
ATOM     98  C   UNL A   1      49.336  31.902  40.214  1.00  0.00     0.041 A 
ATOM     99  F   UNL A   1      48.249  32.917  38.407  1.00  0.00    -0.206 F 
ATOM    100  C   UNL A   1      49.288  31.248  41.441  1.00  0.00     0.022 A 
BRANCH  97 101
ATOM    101  S   UNL A   1      47.937  30.222  43.655  1.00  0.00     0.124 S 
ATOM    102  O   UNL A   1      49.311  30.360  44.123  1.00  0.00    -0.237 OA
ATOM    103  O   UNL A   1      46.959  31.112  44.273  1.00  0.00    -0.237 OA
ATOM    104  O   UNL A   1      47.484  28.846  43.455  1.00  0.00    -0.744 OA
ENDBRANCH  97 101
ENDBRANCH  71  94
ENDBRANCH  45  46
ENDBRANCH  38  40
ENDBRANCH  37  38
ENDBRANCH  36  37
ENDBRANCH  35  36
ENDBRANCH  34  35
ENDBRANCH  33  34
ENDBRANCH   1  33
TORSDOF 25
ENDMDL
