MODEL 1
REMARK VINA RESULT:     -11.2      0.000      0.000
REMARK SMILES C[C@@H](C(=O)OCCOCCOCCOC(=O)c1ccc(-c2c3nc(c(-c4cc(S(=O)(=O)[O-])ccc4F)c4ccc([nH]4)c(-c4cc(S(=O)(=O)[O-])ccc4F)c4nc(c(-c5cc(S(=O)(=O)[O-])ccc5F)c5ccc2[nH]5)C=C4)C=C3)cc1)c1ccc(-c2ccn(C(F)F)c(=O)c2)cc1
REMARK SMILES IDX 9 1 8 2 7 3 6 4 5 5 3 6 4 7 2 8 1 9 80 10 81 11 95 12 82 13
REMARK SMILES IDX 94 14 83 15 84 16 85 17 93 18 86 19 91 20 87 21 92 22 88 23
REMARK SMILES IDX 89 24 90 25 10 26 11 27 12 28 13 29 14 30 15 31 16 32 17 33
REMARK SMILES IDX 18 34 79 35 19 36 78 37 20 38 21 39 22 40 72 41 23 42 77 43
REMARK SMILES IDX 71 44 73 45 24 46 76 47 70 48 69 49 25 51 57 52 37 53 56 54
REMARK SMILES IDX 38 55 41 56 55 57 74 58 39 59 40 60 54 62 75 63 42 64 26 65
REMARK SMILES IDX 27 66 35 67 28 68 34 69 36 70 33 71 29 72 30 73 31 74 32 75
REMARK SMILES IDX 58 76 59 77 67 78 60 79 66 80 68 81 65 82 61 83 62 84 63 85
REMARK SMILES IDX 64 86 43 87 44 88 52 89 45 90 51 91 53 92 50 93 46 94 47 95
REMARK SMILES IDX 48 96 49 97
REMARK H PARENT 73 50 41 61
REMARK Flexibility Score: inf
ROOT
ATOM      1  C   UNL A   1      36.610  21.790  24.614  1.00  0.00     0.188 C 
ENDROOT
BRANCH   1   2
ATOM      2  O   UNL A   1      37.075  22.610  25.683  1.00  0.00    -0.376 OA
BRANCH   2   3
ATOM      3  C   UNL A   1      36.244  23.668  26.146  1.00  0.00     0.202 C 
BRANCH   3   4
ATOM      4  C   UNL A   1      34.827  23.809  25.563  1.00  0.00     0.261 C 
BRANCH   4   5
ATOM      5  O   UNL A   1      33.755  23.629  26.512  1.00  0.00    -0.463 OA
BRANCH   5   6
ATOM      6  C   UNL A   1      33.218  22.381  26.576  1.00  0.00     0.313 C 
ATOM      7  O   UNL A   1      33.627  21.502  27.331  1.00  0.00    -0.252 OA
BRANCH   6   8
ATOM      8  C   UNL A   1      32.025  22.152  25.634  1.00  0.00     0.126 C 
ATOM      9  C   UNL A   1      32.208  21.117  24.514  1.00  0.00     0.025 C 
BRANCH   8  10
ATOM     10  C   UNL A   1      31.377  23.472  25.223  1.00  0.00    -0.034 A 
ATOM     11  C   UNL A   1      30.838  24.403  26.121  1.00  0.00     0.005 A 
ATOM     12  C   UNL A   1      31.277  23.762  23.853  1.00  0.00     0.005 A 
ATOM     13  C   UNL A   1      30.240  25.587  25.659  1.00  0.00     0.009 A 
ATOM     14  C   UNL A   1      30.690  24.947  23.395  1.00  0.00     0.009 A 
ATOM     15  C   UNL A   1      30.170  25.884  24.291  1.00  0.00    -0.018 A 
BRANCH  15  16
ATOM     16  C   UNL A   1      29.612  27.166  23.786  1.00  0.00    -0.011 A 
ATOM     17  C   UNL A   1      30.428  28.342  23.523  1.00  0.00     0.027 A 
ATOM     18  C   UNL A   1      28.279  27.282  23.647  1.00  0.00     0.080 A 
ATOM     19  C   UNL A   1      29.864  29.517  23.224  1.00  0.00     0.095 A 
ATOM     20  C   UNL A   1      27.636  28.575  23.279  1.00  0.00     0.255 A 
ATOM     21  N   UNL A   1      28.493  29.644  23.105  1.00  0.00    -0.258 N 
ATOM     22  O   UNL A   1      26.410  28.608  23.216  1.00  0.00    -0.269 OA
BRANCH  21  23
ATOM     23  C   UNL A   1      27.899  30.926  22.810  1.00  0.00     0.451 C 
ATOM     24  F   UNL A   1      27.255  31.418  23.895  1.00  0.00    -0.185 F 
ATOM     25  F   UNL A   1      28.857  31.821  22.456  1.00  0.00    -0.185 F 
ENDBRANCH  21  23
ENDBRANCH  15  16
ENDBRANCH   8  10
ENDBRANCH   6   8
ENDBRANCH   5   6
ENDBRANCH   4   5
ENDBRANCH   3   4
ENDBRANCH   2   3
ENDBRANCH   1   2
BRANCH   1  26
ATOM     26  C   UNL A   1      36.153  20.354  24.928  1.00  0.00     0.188 C 
BRANCH  26  27
ATOM     27  O   UNL A   1      37.193  19.397  24.914  1.00  0.00    -0.376 OA
BRANCH  27  28
ATOM     28  C   UNL A   1      38.524  19.878  24.889  1.00  0.00     0.202 C 
BRANCH  28  29
ATOM     29  C   UNL A   1      39.561  19.183  25.788  1.00  0.00     0.261 C 
BRANCH  29  30
ATOM     30  O   UNL A   1      40.944  19.439  25.493  1.00  0.00    -0.460 OA
BRANCH  30  31
ATOM     31  C   UNL A   1      41.779  19.587  26.553  1.00  0.00     0.338 C 
ATOM     32  O   UNL A   1      42.482  18.725  27.041  1.00  0.00    -0.246 OA
BRANCH  31  33
ATOM     33  C   UNL A   1      41.870  21.036  26.861  1.00  0.00     0.060 A 
ATOM     34  C   UNL A   1      41.729  21.956  25.814  1.00  0.00     0.016 A 
ATOM     35  C   UNL A   1      42.080  21.491  28.166  1.00  0.00     0.016 A 
ATOM     36  C   UNL A   1      41.806  23.329  26.069  1.00  0.00     0.010 A 
ATOM     37  C   UNL A   1      42.175  22.868  28.415  1.00  0.00     0.010 A 
ATOM     38  C   UNL A   1      42.047  23.796  27.367  1.00  0.00    -0.014 A 
BRANCH  38  39
ATOM     39  C   UNL A   1      42.355  25.236  27.589  1.00  0.00     0.031 A 
ATOM     40  C   UNL A   1      43.699  25.748  27.148  1.00  0.00     0.074 A 
ATOM     41  C   UNL A   1      41.470  26.073  28.161  1.00  0.00     0.049 A 
ATOM     42  N   UNL A   1      44.224  26.937  27.286  1.00  0.00    -0.248 NA
ATOM     43  C   UNL A   1      44.565  24.779  26.462  1.00  0.00     0.031 C 
ATOM     44  C   UNL A   1      40.116  25.713  28.576  1.00  0.00     0.029 A 
ATOM     45  N   UNL A   1      41.579  27.402  28.498  1.00  0.00    -0.354 N 
ATOM     46  C   UNL A   1      45.486  26.861  26.705  1.00  0.00     0.074 A 
ATOM     47  C   UNL A   1      45.652  25.500  26.239  1.00  0.00     0.031 C 
ATOM     48  C   UNL A   1      39.530  26.789  29.130  1.00  0.00     0.029 A 
ATOM     49  C   UNL A   1      40.473  27.908  29.145  1.00  0.00     0.049 A 
ATOM     50  H   UNL A   1      42.377  27.943  28.297  1.00  0.00     0.167 HD
ATOM     51  C   UNL A   1      46.423  27.833  26.579  1.00  0.00     0.034 A 
ATOM     52  C   UNL A   1      40.259  29.124  29.698  1.00  0.00     0.034 A 
ATOM     53  C   UNL A   1      46.263  29.175  27.081  1.00  0.00     0.049 A 
ATOM     54  C   UNL A   1      41.353  30.172  29.604  1.00  0.00     0.074 A 
ATOM     55  C   UNL A   1      47.165  30.224  27.041  1.00  0.00     0.029 A 
ATOM     56  N   UNL A   1      45.127  29.654  27.723  1.00  0.00    -0.354 N 
ATOM     57  N   UNL A   1      42.536  30.090  29.037  1.00  0.00    -0.248 NA
ATOM     58  C   UNL A   1      41.077  31.481  30.213  1.00  0.00     0.031 C 
ATOM     59  C   UNL A   1      46.613  31.305  27.736  1.00  0.00     0.029 A 
ATOM     60  C   UNL A   1      45.328  30.965  28.128  1.00  0.00     0.049 A 
ATOM     61  H   UNL A   1      44.303  29.137  27.871  1.00  0.00     0.167 HD
ATOM     62  C   UNL A   1      43.118  31.349  29.185  1.00  0.00     0.074 A 
ATOM     63  C   UNL A   1      42.148  32.177  29.868  1.00  0.00     0.031 C 
ATOM     64  C   UNL A   1      44.350  31.782  28.807  1.00  0.00     0.034 A 
BRANCH  51  65
ATOM     65  C   UNL A   1      47.736  27.439  25.948  1.00  0.00     0.023 A 
ATOM     66  C   UNL A   1      48.003  27.662  24.586  1.00  0.00     0.031 A 
ATOM     67  C   UNL A   1      48.717  26.783  26.714  1.00  0.00     0.131 A 
ATOM     68  C   UNL A   1      49.184  27.161  24.015  1.00  0.00     0.055 A 
ATOM     69  C   UNL A   1      49.928  26.368  26.159  1.00  0.00     0.041 A 
ATOM     70  F   UNL A   1      48.507  26.515  28.013  1.00  0.00    -0.206 F 
ATOM     71  C   UNL A   1      50.160  26.541  24.798  1.00  0.00     0.022 A 
BRANCH  68  72
ATOM     72  S   UNL A   1      49.351  27.183  22.210  1.00  0.00     0.124 S 
ATOM     73  O   UNL A   1      48.555  26.019  21.825  1.00  0.00    -0.237 OA
ATOM     74  O   UNL A   1      48.796  28.484  21.855  1.00  0.00    -0.237 OA
ATOM     75  O   UNL A   1      50.790  27.041  21.997  1.00  0.00    -0.744 OA
ENDBRANCH  68  72
ENDBRANCH  51  65
BRANCH  52  76
ATOM     76  C   UNL A   1      38.965  29.443  30.381  1.00  0.00     0.023 A 
ATOM     77  C   UNL A   1      38.026  30.287  29.770  1.00  0.00     0.031 A 
ATOM     78  C   UNL A   1      38.649  28.956  31.659  1.00  0.00     0.131 A 
ATOM     79  C   UNL A   1      36.828  30.621  30.419  1.00  0.00     0.055 A 
ATOM     80  C   UNL A   1      37.438  29.262  32.293  1.00  0.00     0.041 A 
ATOM     81  F   UNL A   1      39.506  28.159  32.315  1.00  0.00    -0.206 F 
ATOM     82  C   UNL A   1      36.519  30.104  31.674  1.00  0.00     0.022 A 
BRANCH  79  83
ATOM     83  S   UNL A   1      35.691  31.746  29.570  1.00  0.00     0.124 S 
ATOM     84  O   UNL A   1      35.093  30.867  28.574  1.00  0.00    -0.237 OA
ATOM     85  O   UNL A   1      34.819  32.146  30.673  1.00  0.00    -0.237 OA
ATOM     86  O   UNL A   1      36.569  32.791  29.051  1.00  0.00    -0.744 OA
ENDBRANCH  79  83
ENDBRANCH  52  76
BRANCH  64  87
ATOM     87  C   UNL A   1      44.703  33.225  29.097  1.00  0.00     0.023 A 
ATOM     88  C   UNL A   1      44.256  34.276  28.276  1.00  0.00     0.031 A 
ATOM     89  C   UNL A   1      45.494  33.553  30.213  1.00  0.00     0.131 A 
ATOM     90  C   UNL A   1      44.654  35.595  28.545  1.00  0.00     0.055 A 
ATOM     91  C   UNL A   1      45.828  34.875  30.515  1.00  0.00     0.041 A 
ATOM     92  F   UNL A   1      45.950  32.596  31.035  1.00  0.00    -0.206 F 
ATOM     93  C   UNL A   1      45.420  35.903  29.671  1.00  0.00     0.022 A 
BRANCH  90  94
ATOM     94  S   UNL A   1      44.240  36.892  27.346  1.00  0.00     0.124 S 
ATOM     95  O   UNL A   1      45.555  37.267  26.839  1.00  0.00    -0.237 OA
ATOM     96  O   UNL A   1      43.372  36.187  26.408  1.00  0.00    -0.237 OA
ATOM     97  O   UNL A   1      43.574  37.910  28.157  1.00  0.00    -0.744 OA
ENDBRANCH  90  94
ENDBRANCH  64  87
ENDBRANCH  38  39
ENDBRANCH  31  33
ENDBRANCH  30  31
ENDBRANCH  29  30
ENDBRANCH  28  29
ENDBRANCH  27  28
ENDBRANCH  26  27
ENDBRANCH   1  26
TORSDOF 23
ENDMDL
MODEL 2
REMARK VINA RESULT:     -11.1      3.055      4.615
REMARK SMILES C[C@@H](C(=O)OCCOCCOCCOC(=O)c1ccc(-c2c3nc(c(-c4cc(S(=O)(=O)[O-])ccc4F)c4ccc([nH]4)c(-c4cc(S(=O)(=O)[O-])ccc4F)c4nc(c(-c5cc(S(=O)(=O)[O-])ccc5F)c5ccc2[nH]5)C=C4)C=C3)cc1)c1ccc(-c2ccn(C(F)F)c(=O)c2)cc1
REMARK SMILES IDX 9 1 8 2 7 3 6 4 5 5 3 6 4 7 2 8 1 9 80 10 81 11 95 12 82 13
REMARK SMILES IDX 94 14 83 15 84 16 85 17 93 18 86 19 91 20 87 21 92 22 88 23
REMARK SMILES IDX 89 24 90 25 10 26 11 27 12 28 13 29 14 30 15 31 16 32 17 33
REMARK SMILES IDX 18 34 79 35 19 36 78 37 20 38 21 39 22 40 72 41 23 42 77 43
REMARK SMILES IDX 71 44 73 45 24 46 76 47 70 48 69 49 25 51 57 52 37 53 56 54
REMARK SMILES IDX 38 55 41 56 55 57 74 58 39 59 40 60 54 62 75 63 42 64 26 65
REMARK SMILES IDX 27 66 35 67 28 68 34 69 36 70 33 71 29 72 30 73 31 74 32 75
REMARK SMILES IDX 58 76 59 77 67 78 60 79 66 80 68 81 65 82 61 83 62 84 63 85
REMARK SMILES IDX 64 86 43 87 44 88 52 89 45 90 51 91 53 92 50 93 46 94 47 95
REMARK SMILES IDX 48 96 49 97
REMARK H PARENT 73 50 41 61
REMARK Flexibility Score: inf
ROOT
ATOM      1  C   UNL A   1      35.687  23.088  25.813  1.00  0.00     0.188 C 
ENDROOT
BRANCH   1   2
ATOM      2  O   UNL A   1      34.555  23.813  25.342  1.00  0.00    -0.376 OA
BRANCH   2   3
ATOM      3  C   UNL A   1      34.072  24.906  26.114  1.00  0.00     0.202 C 
BRANCH   3   4
ATOM      4  C   UNL A   1      33.874  26.270  25.430  1.00  0.00     0.261 C 
BRANCH   4   5
ATOM      5  O   UNL A   1      33.635  26.210  24.008  1.00  0.00    -0.463 OA
BRANCH   5   6
ATOM      6  C   UNL A   1      32.565  26.918  23.553  1.00  0.00     0.313 C 
ATOM      7  O   UNL A   1      32.531  28.145  23.511  1.00  0.00    -0.252 OA
BRANCH   6   8
ATOM      8  C   UNL A   1      31.391  26.054  23.064  1.00  0.00     0.126 C 
ATOM      9  C   UNL A   1      29.978  26.524  23.437  1.00  0.00     0.025 C 
BRANCH   8  10
ATOM     10  C   UNL A   1      31.674  24.566  23.261  1.00  0.00    -0.034 A 
ATOM     11  C   UNL A   1      32.492  23.799  22.421  1.00  0.00     0.005 A 
ATOM     12  C   UNL A   1      31.044  23.908  24.329  1.00  0.00     0.005 A 
ATOM     13  C   UNL A   1      32.684  22.428  22.660  1.00  0.00     0.009 A 
ATOM     14  C   UNL A   1      31.245  22.544  24.570  1.00  0.00     0.009 A 
ATOM     15  C   UNL A   1      32.076  21.783  23.745  1.00  0.00    -0.018 A 
BRANCH  15  16
ATOM     16  C   UNL A   1      32.328  20.352  24.060  1.00  0.00    -0.011 A 
ATOM     17  C   UNL A   1      32.519  19.857  25.415  1.00  0.00     0.027 A 
ATOM     18  C   UNL A   1      32.478  19.482  23.045  1.00  0.00     0.080 A 
ATOM     19  C   UNL A   1      32.900  18.594  25.637  1.00  0.00     0.095 A 
ATOM     20  C   UNL A   1      32.868  18.063  23.277  1.00  0.00     0.255 A 
ATOM     21  N   UNL A   1      33.078  17.705  24.595  1.00  0.00    -0.258 N 
ATOM     22  O   UNL A   1      33.026  17.344  22.294  1.00  0.00    -0.269 OA
BRANCH  21  23
ATOM     23  C   UNL A   1      33.519  16.355  24.851  1.00  0.00     0.451 C 
ATOM     24  F   UNL A   1      33.945  16.223  26.130  1.00  0.00    -0.185 F 
ATOM     25  F   UNL A   1      32.498  15.480  24.662  1.00  0.00    -0.185 F 
ENDBRANCH  21  23
ENDBRANCH  15  16
ENDBRANCH   8  10
ENDBRANCH   6   8
ENDBRANCH   5   6
ENDBRANCH   4   5
ENDBRANCH   3   4
ENDBRANCH   2   3
ENDBRANCH   1   2
BRANCH   1  26
ATOM     26  C   UNL A   1      35.527  21.590  26.130  1.00  0.00     0.188 C 
BRANCH  26  27
ATOM     27  O   UNL A   1      35.886  20.730  25.068  1.00  0.00    -0.376 OA
BRANCH  27  28
ATOM     28  C   UNL A   1      37.163  20.910  24.483  1.00  0.00     0.202 C 
BRANCH  28  29
ATOM     29  C   UNL A   1      38.337  20.089  25.044  1.00  0.00     0.261 C 
BRANCH  29  30
ATOM     30  O   UNL A   1      38.815  20.458  26.349  1.00  0.00    -0.460 OA
BRANCH  30  31
ATOM     31  C   UNL A   1      40.160  20.562  26.500  1.00  0.00     0.338 C 
ATOM     32  O   UNL A   1      40.988  19.742  26.160  1.00  0.00    -0.246 OA
BRANCH  31  33
ATOM     33  C   UNL A   1      40.463  21.950  26.931  1.00  0.00     0.060 A 
ATOM     34  C   UNL A   1      39.833  23.011  26.267  1.00  0.00     0.016 A 
ATOM     35  C   UNL A   1      41.347  22.209  27.981  1.00  0.00     0.016 A 
ATOM     36  C   UNL A   1      40.093  24.332  26.649  1.00  0.00     0.010 A 
ATOM     37  C   UNL A   1      41.619  23.535  28.349  1.00  0.00     0.010 A 
ATOM     38  C   UNL A   1      41.001  24.606  27.680  1.00  0.00    -0.014 A 
BRANCH  38  39
ATOM     39  C   UNL A   1      41.443  26.007  27.922  1.00  0.00     0.031 A 
ATOM     40  C   UNL A   1      42.821  26.403  27.469  1.00  0.00     0.074 A 
ATOM     41  C   UNL A   1      40.645  26.911  28.522  1.00  0.00     0.049 A 
ATOM     42  N   UNL A   1      43.455  27.536  27.619  1.00  0.00    -0.248 NA
ATOM     43  C   UNL A   1      43.585  25.371  26.752  1.00  0.00     0.031 C 
ATOM     44  C   UNL A   1      39.271  26.668  28.951  1.00  0.00     0.029 A 
ATOM     45  N   UNL A   1      40.881  28.218  28.880  1.00  0.00    -0.354 N 
ATOM     46  C   UNL A   1      44.696  27.356  27.017  1.00  0.00     0.074 A 
ATOM     47  C   UNL A   1      44.730  25.995  26.525  1.00  0.00     0.031 C 
ATOM     48  C   UNL A   1      38.793  27.783  29.534  1.00  0.00     0.029 A 
ATOM     49  C   UNL A   1      39.835  28.810  29.553  1.00  0.00     0.049 A 
ATOM     50  H   UNL A   1      41.722  28.688  28.676  1.00  0.00     0.167 HD
ATOM     51  C   UNL A   1      45.716  28.241  26.894  1.00  0.00     0.034 A 
ATOM     52  C   UNL A   1      39.741  30.030  30.130  1.00  0.00     0.034 A 
ATOM     53  C   UNL A   1      45.686  29.582  27.421  1.00  0.00     0.049 A 
ATOM     54  C   UNL A   1      40.924  30.976  30.037  1.00  0.00     0.074 A 
ATOM     55  C   UNL A   1      46.680  30.545  27.385  1.00  0.00     0.029 A 
ATOM     56  N   UNL A   1      44.609  30.151  28.089  1.00  0.00    -0.354 N 
ATOM     57  N   UNL A   1      42.086  30.797  29.450  1.00  0.00    -0.248 NA
ATOM     58  C   UNL A   1      40.777  32.293  30.673  1.00  0.00     0.031 C 
ATOM     59  C   UNL A   1      46.239  31.659  28.107  1.00  0.00     0.029 A 
ATOM     60  C   UNL A   1      44.934  31.431  28.513  1.00  0.00     0.049 A 
ATOM     61  H   UNL A   1      43.743  29.709  28.240  1.00  0.00     0.167 HD
ATOM     62  C   UNL A   1      42.784  31.994  29.611  1.00  0.00     0.074 A 
ATOM     63  C   UNL A   1      41.903  32.894  30.323  1.00  0.00     0.031 C 
ATOM     64  C   UNL A   1      44.044  32.320  29.222  1.00  0.00     0.034 A 
BRANCH  51  65
ATOM     65  C   UNL A   1      46.979  27.741  26.236  1.00  0.00     0.023 A 
ATOM     66  C   UNL A   1      47.273  28.013  24.888  1.00  0.00     0.031 A 
ATOM     67  C   UNL A   1      47.878  26.935  26.957  1.00  0.00     0.131 A 
ATOM     68  C   UNL A   1      48.392  27.418  24.284  1.00  0.00     0.055 A 
ATOM     69  C   UNL A   1      49.037  26.420  26.374  1.00  0.00     0.041 A 
ATOM     70  F   UNL A   1      47.635  26.615  28.238  1.00  0.00    -0.206 F 
ATOM     71  C   UNL A   1      49.290  26.647  25.025  1.00  0.00     0.022 A 
BRANCH  68  72
ATOM     72  S   UNL A   1      48.566  27.528  22.482  1.00  0.00     0.124 S 
ATOM     73  O   UNL A   1      49.822  28.263  22.351  1.00  0.00    -0.237 OA
ATOM     74  O   UNL A   1      48.601  26.126  22.082  1.00  0.00    -0.237 OA
ATOM     75  O   UNL A   1      47.376  28.265  22.066  1.00  0.00    -0.744 OA
ENDBRANCH  68  72
ENDBRANCH  51  65
BRANCH  52  76
ATOM     76  C   UNL A   1      38.491  30.454  30.838  1.00  0.00     0.023 A 
ATOM     77  C   UNL A   1      37.528  31.234  30.182  1.00  0.00     0.031 A 
ATOM     78  C   UNL A   1      38.241  30.130  32.182  1.00  0.00     0.131 A 
ATOM     79  C   UNL A   1      36.373  31.666  30.850  1.00  0.00     0.055 A 
ATOM     80  C   UNL A   1      37.072  30.532  32.839  1.00  0.00     0.041 A 
ATOM     81  F   UNL A   1      39.124  29.402  32.882  1.00  0.00    -0.206 F 
ATOM     82  C   UNL A   1      36.129  31.310  32.173  1.00  0.00     0.022 A 
BRANCH  79  83
ATOM     83  S   UNL A   1      35.203  32.702  29.934  1.00  0.00     0.124 S 
ATOM     84  O   UNL A   1      34.548  31.722  29.078  1.00  0.00    -0.237 OA
ATOM     85  O   UNL A   1      34.393  33.239  31.024  1.00  0.00    -0.237 OA
ATOM     86  O   UNL A   1      36.062  33.667  29.253  1.00  0.00    -0.744 OA
ENDBRANCH  79  83
ENDBRANCH  52  76
BRANCH  64  87
ATOM     87  C   UNL A   1      44.532  33.719  29.531  1.00  0.00     0.023 A 
ATOM     88  C   UNL A   1      44.401  34.771  28.605  1.00  0.00     0.031 A 
ATOM     89  C   UNL A   1      45.132  34.006  30.771  1.00  0.00     0.131 A 
ATOM     90  C   UNL A   1      44.919  36.040  28.907  1.00  0.00     0.055 A 
ATOM     91  C   UNL A   1      45.582  35.288  31.092  1.00  0.00     0.041 A 
ATOM     92  F   UNL A   1      45.283  33.047  31.696  1.00  0.00    -0.206 F 
ATOM     93  C   UNL A   1      45.490  36.311  30.153  1.00  0.00     0.022 A 
BRANCH  90  94
ATOM     94  S   UNL A   1      44.928  37.308  27.610  1.00  0.00     0.124 S 
ATOM     95  O   UNL A   1      45.970  36.819  26.715  1.00  0.00    -0.237 OA
ATOM     96  O   UNL A   1      43.563  37.241  27.097  1.00  0.00    -0.237 OA
ATOM     97  O   UNL A   1      45.256  38.536  28.332  1.00  0.00    -0.744 OA
ENDBRANCH  90  94
ENDBRANCH  64  87
ENDBRANCH  38  39
ENDBRANCH  31  33
ENDBRANCH  30  31
ENDBRANCH  29  30
ENDBRANCH  28  29
ENDBRANCH  27  28
ENDBRANCH  26  27
ENDBRANCH   1  26
TORSDOF 23
ENDMDL
MODEL 3
REMARK VINA RESULT:     -11.1      3.875      5.478
REMARK SMILES C[C@@H](C(=O)OCCOCCOCCOC(=O)c1ccc(-c2c3nc(c(-c4cc(S(=O)(=O)[O-])ccc4F)c4ccc([nH]4)c(-c4cc(S(=O)(=O)[O-])ccc4F)c4nc(c(-c5cc(S(=O)(=O)[O-])ccc5F)c5ccc2[nH]5)C=C4)C=C3)cc1)c1ccc(-c2ccn(C(F)F)c(=O)c2)cc1
REMARK SMILES IDX 9 1 8 2 7 3 6 4 5 5 3 6 4 7 2 8 1 9 80 10 81 11 95 12 82 13
REMARK SMILES IDX 94 14 83 15 84 16 85 17 93 18 86 19 91 20 87 21 92 22 88 23
REMARK SMILES IDX 89 24 90 25 10 26 11 27 12 28 13 29 14 30 15 31 16 32 17 33
REMARK SMILES IDX 18 34 79 35 19 36 78 37 20 38 21 39 22 40 72 41 23 42 77 43
REMARK SMILES IDX 71 44 73 45 24 46 76 47 70 48 69 49 25 51 57 52 37 53 56 54
REMARK SMILES IDX 38 55 41 56 55 57 74 58 39 59 40 60 54 62 75 63 42 64 26 65
REMARK SMILES IDX 27 66 35 67 28 68 34 69 36 70 33 71 29 72 30 73 31 74 32 75
REMARK SMILES IDX 58 76 59 77 67 78 60 79 66 80 68 81 65 82 61 83 62 84 63 85
REMARK SMILES IDX 64 86 43 87 44 88 52 89 45 90 51 91 53 92 50 93 46 94 47 95
REMARK SMILES IDX 48 96 49 97
REMARK H PARENT 73 50 41 61
REMARK Flexibility Score: inf
ROOT
ATOM      1  C   UNL A   1      34.973  23.648  25.716  1.00  0.00     0.188 C 
ENDROOT
BRANCH   1   2
ATOM      2  O   UNL A   1      34.114  24.736  26.046  1.00  0.00    -0.376 OA
BRANCH   2   3
ATOM      3  C   UNL A   1      34.198  25.932  25.278  1.00  0.00     0.202 C 
BRANCH   3   4
ATOM      4  C   UNL A   1      33.503  27.200  25.801  1.00  0.00     0.261 C 
BRANCH   4   5
ATOM      5  O   UNL A   1      32.271  27.542  25.132  1.00  0.00    -0.463 OA
BRANCH   5   6
ATOM      6  C   UNL A   1      31.171  26.833  25.507  1.00  0.00     0.313 C 
ATOM      7  O   UNL A   1      30.704  26.855  26.642  1.00  0.00    -0.252 OA
BRANCH   6   8
ATOM      8  C   UNL A   1      30.531  26.007  24.380  1.00  0.00     0.126 C 
ATOM      9  C   UNL A   1      29.035  26.228  24.116  1.00  0.00     0.025 C 
BRANCH   8  10
ATOM     10  C   UNL A   1      30.992  24.551  24.424  1.00  0.00    -0.034 A 
ATOM     11  C   UNL A   1      30.929  23.735  25.562  1.00  0.00     0.005 A 
ATOM     12  C   UNL A   1      31.553  23.999  23.262  1.00  0.00     0.005 A 
ATOM     13  C   UNL A   1      31.394  22.410  25.525  1.00  0.00     0.009 A 
ATOM     14  C   UNL A   1      32.007  22.675  23.224  1.00  0.00     0.009 A 
ATOM     15  C   UNL A   1      31.926  21.856  24.353  1.00  0.00    -0.018 A 
BRANCH  15  16
ATOM     16  C   UNL A   1      32.351  20.434  24.271  1.00  0.00    -0.011 A 
ATOM     17  C   UNL A   1      33.115  19.769  25.316  1.00  0.00     0.027 A 
ATOM     18  C   UNL A   1      32.102  19.748  23.141  1.00  0.00     0.080 A 
ATOM     19  C   UNL A   1      33.612  18.541  25.129  1.00  0.00     0.095 A 
ATOM     20  C   UNL A   1      32.618  18.366  22.930  1.00  0.00     0.255 A 
ATOM     21  N   UNL A   1      33.377  17.844  23.959  1.00  0.00    -0.258 N 
ATOM     22  O   UNL A   1      32.383  17.825  21.853  1.00  0.00    -0.269 OA
BRANCH  21  23
ATOM     23  C   UNL A   1      33.946  16.532  23.762  1.00  0.00     0.451 C 
ATOM     24  F   UNL A   1      35.034  16.357  24.549  1.00  0.00    -0.185 F 
ATOM     25  F   UNL A   1      33.043  15.571  24.085  1.00  0.00    -0.185 F 
ENDBRANCH  21  23
ENDBRANCH  15  16
ENDBRANCH   8  10
ENDBRANCH   6   8
ENDBRANCH   5   6
ENDBRANCH   4   5
ENDBRANCH   3   4
ENDBRANCH   2   3
ENDBRANCH   1   2
BRANCH   1  26
ATOM     26  C   UNL A   1      35.507  23.538  24.276  1.00  0.00     0.188 C 
BRANCH  26  27
ATOM     27  O   UNL A   1      35.915  22.237  23.905  1.00  0.00    -0.376 OA
BRANCH  27  28
ATOM     28  C   UNL A   1      36.410  21.391  24.927  1.00  0.00     0.202 C 
BRANCH  28  29
ATOM     29  C   UNL A   1      37.917  21.431  25.232  1.00  0.00     0.261 C 
BRANCH  29  30
ATOM     30  O   UNL A   1      38.360  22.433  26.163  1.00  0.00    -0.460 OA
BRANCH  30  31
ATOM     31  C   UNL A   1      39.632  22.322  26.622  1.00  0.00     0.338 C 
ATOM     32  O   UNL A   1      40.327  21.326  26.583  1.00  0.00    -0.246 OA
BRANCH  31  33
ATOM     33  C   UNL A   1      40.115  23.685  26.960  1.00  0.00     0.060 A 
ATOM     34  C   UNL A   1      40.793  23.876  28.171  1.00  0.00     0.016 A 
ATOM     35  C   UNL A   1      39.915  24.763  26.093  1.00  0.00     0.016 A 
ATOM     36  C   UNL A   1      41.264  25.145  28.519  1.00  0.00     0.010 A 
ATOM     37  C   UNL A   1      40.373  26.038  26.455  1.00  0.00     0.010 A 
ATOM     38  C   UNL A   1      41.044  26.240  27.674  1.00  0.00    -0.014 A 
BRANCH  38  39
ATOM     39  C   UNL A   1      41.342  27.617  28.155  1.00  0.00     0.031 A 
ATOM     40  C   UNL A   1      42.776  28.067  28.172  1.00  0.00     0.074 A 
ATOM     41  C   UNL A   1      40.369  28.454  28.564  1.00  0.00     0.049 A 
ATOM     42  N   UNL A   1      43.295  29.187  28.601  1.00  0.00    -0.248 NA
ATOM     43  C   UNL A   1      43.757  27.113  27.632  1.00  0.00     0.031 C 
ATOM     44  C   UNL A   1      38.939  28.158  28.540  1.00  0.00     0.029 A 
ATOM     45  N   UNL A   1      40.438  29.725  29.086  1.00  0.00    -0.354 N 
ATOM     46  C   UNL A   1      44.664  29.076  28.385  1.00  0.00     0.074 A 
ATOM     47  C   UNL A   1      44.894  27.767  27.812  1.00  0.00     0.031 C 
ATOM     48  C   UNL A   1      38.268  29.210  29.045  1.00  0.00     0.029 A 
ATOM     49  C   UNL A   1      39.219  30.242  29.463  1.00  0.00     0.049 A 
ATOM     50  H   UNL A   1      41.284  30.219  29.184  1.00  0.00     0.167 HD
ATOM     51  C   UNL A   1      45.642  29.979  28.648  1.00  0.00     0.034 A 
ATOM     52  C   UNL A   1      38.912  31.403  30.086  1.00  0.00     0.034 A 
ATOM     53  C   UNL A   1      45.406  31.266  29.254  1.00  0.00     0.049 A 
ATOM     54  C   UNL A   1      40.033  32.365  30.433  1.00  0.00     0.074 A 
ATOM     55  C   UNL A   1      46.329  32.237  29.600  1.00  0.00     0.029 A 
ATOM     56  N   UNL A   1      44.159  31.759  29.615  1.00  0.00    -0.354 N 
ATOM     57  N   UNL A   1      41.324  32.252  30.208  1.00  0.00    -0.248 NA
ATOM     58  C   UNL A   1      39.655  33.615  31.105  1.00  0.00     0.031 C 
ATOM     59  C   UNL A   1      45.653  33.276  30.248  1.00  0.00     0.029 A 
ATOM     60  C   UNL A   1      44.296  32.998  30.224  1.00  0.00     0.049 A 
ATOM     61  H   UNL A   1      43.304  31.296  29.462  1.00  0.00     0.167 HD
ATOM     62  C   UNL A   1      41.897  33.436  30.672  1.00  0.00     0.074 A 
ATOM     63  C   UNL A   1      40.811  34.258  31.161  1.00  0.00     0.031 C 
ATOM     64  C   UNL A   1      43.203  33.809  30.706  1.00  0.00     0.034 A 
BRANCH  51  65
ATOM     65  C   UNL A   1      47.061  29.555  28.358  1.00  0.00     0.023 A 
ATOM     66  C   UNL A   1      47.840  28.869  29.306  1.00  0.00     0.031 A 
ATOM     67  C   UNL A   1      47.659  29.890  27.130  1.00  0.00     0.131 A 
ATOM     68  C   UNL A   1      49.194  28.611  29.042  1.00  0.00     0.055 A 
ATOM     69  C   UNL A   1      48.982  29.551  26.839  1.00  0.00     0.041 A 
ATOM     70  F   UNL A   1      46.975  30.572  26.198  1.00  0.00    -0.206 F 
ATOM     71  C   UNL A   1      49.762  28.923  27.804  1.00  0.00     0.022 A 
BRANCH  68  72
ATOM     72  S   UNL A   1      50.245  28.018  30.396  1.00  0.00     0.124 S 
ATOM     73  O   UNL A   1      50.891  29.254  30.832  1.00  0.00    -0.237 OA
ATOM     74  O   UNL A   1      49.275  27.442  31.320  1.00  0.00    -0.237 OA
ATOM     75  O   UNL A   1      51.133  27.057  29.745  1.00  0.00    -0.744 OA
ENDBRANCH  68  72
ENDBRANCH  51  65
BRANCH  52  76
ATOM     76  C   UNL A   1      37.493  31.746  30.421  1.00  0.00     0.023 A 
ATOM     77  C   UNL A   1      36.623  32.225  29.432  1.00  0.00     0.031 A 
ATOM     78  C   UNL A   1      36.982  31.645  31.726  1.00  0.00     0.131 A 
ATOM     79  C   UNL A   1      35.303  32.585  29.745  1.00  0.00     0.055 A 
ATOM     80  C   UNL A   1      35.656  31.971  32.032  1.00  0.00     0.041 A 
ATOM     81  F   UNL A   1      37.760  31.213  32.730  1.00  0.00    -0.206 F 
ATOM     82  C   UNL A   1      34.807  32.450  31.038  1.00  0.00     0.022 A 
BRANCH  79  83
ATOM     83  S   UNL A   1      34.262  33.229  28.410  1.00  0.00     0.124 S 
ATOM     84  O   UNL A   1      33.323  34.066  29.144  1.00  0.00    -0.237 OA
ATOM     85  O   UNL A   1      35.252  33.939  27.603  1.00  0.00    -0.237 OA
ATOM     86  O   UNL A   1      33.702  32.025  27.803  1.00  0.00    -0.744 OA
ENDBRANCH  79  83
ENDBRANCH  52  76
BRANCH  64  87
ATOM     87  C   UNL A   1      43.524  35.179  31.265  1.00  0.00     0.023 A 
ATOM     88  C   UNL A   1      43.641  36.309  30.435  1.00  0.00     0.031 A 
ATOM     89  C   UNL A   1      43.712  35.357  32.648  1.00  0.00     0.131 A 
ATOM     90  C   UNL A   1      43.998  37.550  30.985  1.00  0.00     0.055 A 
ATOM     91  C   UNL A   1      43.998  36.609  33.197  1.00  0.00     0.041 A 
ATOM     92  F   UNL A   1      43.611  34.319  33.492  1.00  0.00    -0.206 F 
ATOM     93  C   UNL A   1      44.157  37.711  32.363  1.00  0.00     0.022 A 
BRANCH  90  94
ATOM     94  S   UNL A   1      44.352  38.930  29.863  1.00  0.00     0.124 S 
ATOM     95  O   UNL A   1      45.205  38.297  28.863  1.00  0.00    -0.237 OA
ATOM     96  O   UNL A   1      43.019  39.317  29.412  1.00  0.00    -0.237 OA
ATOM     97  O   UNL A   1      45.021  39.907  30.720  1.00  0.00    -0.744 OA
ENDBRANCH  90  94
ENDBRANCH  64  87
ENDBRANCH  38  39
ENDBRANCH  31  33
ENDBRANCH  30  31
ENDBRANCH  29  30
ENDBRANCH  28  29
ENDBRANCH  27  28
ENDBRANCH  26  27
ENDBRANCH   1  26
TORSDOF 23
ENDMDL
