MODEL 1
REMARK VINA RESULT:     -10.6      0.000      0.000
REMARK SMILES Cc1ccccc1/[NH+]=C1\S[C@@H](CC(=O)Nc2ccc(C(=O)OCCOCCOCCOC(=O)c3ccc(-c4c5nc(c(-c6cc(S(=O)(=O)[O-])ccc6F)c6ccc([nH]6)c(-c6cc(S(=O)(=O)[O-])ccc6F)c6nc(c(-c7cc(S(=O)(=O)[O-])ccc7F)c7ccc4[nH]7)C=C6)C=C5)cc3)cc2)C(=O)N1C
REMARK SMILES IDX 26 1 25 2 24 3 23 4 22 5 20 6 21 7 19 8 16 9 17 10 98 11
REMARK SMILES IDX 18 12 97 13 15 14 13 15 14 16 12 18 11 19 8 20 9 21 10 23
REMARK SMILES IDX 101 24 99 25 102 26 100 27 7 28 1 29 2 30 3 31 4 32 6 33
REMARK SMILES IDX 5 34 27 35 28 36 29 37 30 38 31 39 32 40 33 41 34 42 35 43
REMARK SMILES IDX 96 44 36 45 95 46 37 47 38 48 39 49 89 50 40 51 94 52 88 53
REMARK SMILES IDX 90 54 41 55 93 56 87 57 86 58 42 60 74 61 54 62 73 63 55 64
REMARK SMILES IDX 58 65 72 66 91 67 56 68 57 69 71 71 92 72 59 73 43 74 44 75
REMARK SMILES IDX 52 76 45 77 51 78 53 79 50 80 46 81 47 82 48 83 49 84 75 85
REMARK SMILES IDX 76 86 84 87 77 88 83 89 85 90 82 91 78 92 79 93 80 94 81 95
REMARK SMILES IDX 60 96 61 97 69 98 62 99 68 100 70 101 67 102 63 103 64 104
REMARK SMILES IDX 65 105 66 106
REMARK H PARENT 15 17 8 22 90 59 58 70
REMARK Flexibility Score: inf
ROOT
ATOM      1  C   UNL A   1      39.852  20.558  26.059  1.00  0.00     0.188 C 
ENDROOT
BRANCH   1   2
ATOM      2  O   UNL A   1      38.870  19.803  25.344  1.00  0.00    -0.376 OA
BRANCH   2   3
ATOM      3  C   UNL A   1      37.608  20.325  24.984  1.00  0.00     0.202 C 
BRANCH   3   4
ATOM      4  C   UNL A   1      37.200  21.727  25.691  1.00  0.00     0.261 C 
BRANCH   4   5
ATOM      5  O   UNL A   1      35.747  22.184  26.065  1.00  0.00    -0.460 OA
BRANCH   5   6
ATOM      6  C   UNL A   1      34.563  22.861  25.813  1.00  0.00     0.338 C 
ATOM      7  O   UNL A   1      34.010  23.395  26.778  1.00  0.00    -0.246 OA
BRANCH   6   8
ATOM      8  C   UNL A   1      33.727  23.047  24.547  1.00  0.00     0.060 A 
ATOM      9  C   UNL A   1      32.288  24.228  22.424  1.00  0.00     0.041 A 
ATOM     10  C   UNL A   1      31.615  23.773  23.555  1.00  0.00     0.027 A 
ATOM     11  C   UNL A   1      33.608  23.850  22.216  1.00  0.00     0.027 A 
ATOM     12  C   UNL A   1      32.340  23.216  24.626  1.00  0.00     0.018 A 
ATOM     13  C   UNL A   1      34.334  23.294  23.287  1.00  0.00     0.018 A 
BRANCH   9  14
ATOM     14  N   UNL A   1      31.724  25.322  21.736  1.00  0.00    -0.326 N 
ATOM     15  C   UNL A   1      31.813  26.620  22.210  1.00  0.00     0.226 C 
ATOM     16  O   UNL A   1      30.985  27.462  21.850  1.00  0.00    -0.275 OA
ATOM     17  H   UNL A   1      31.249  25.156  20.890  1.00  0.00     0.169 HD
BRANCH  15  18
ATOM     18  C   UNL A   1      32.919  27.001  23.176  1.00  0.00     0.128 C 
BRANCH  18  19
ATOM     19  C   UNL A   1      32.539  28.011  24.248  1.00  0.00     0.183 C 
ATOM     20  N   UNL A   1      33.298  29.669  27.558  1.00  0.00    -0.234 N 
ATOM     21  C   UNL A   1      33.127  28.835  26.598  1.00  0.00     0.319 C 
ATOM     22  H   UNL A   1      32.612  29.578  28.259  1.00  0.00     0.313 HD
ATOM     23  S   UNL A   1      34.025  28.506  25.161  1.00  0.00    -0.022 SA
ATOM     24  N   UNL A   1      31.989  28.064  26.585  1.00  0.00    -0.193 N 
ATOM     25  C   UNL A   1      31.543  27.656  25.342  1.00  0.00     0.324 C 
ATOM     26  C   UNL A   1      31.237  27.822  27.802  1.00  0.00     0.301 C 
ATOM     27  O   UNL A   1      30.413  27.228  25.120  1.00  0.00    -0.245 OA
BRANCH  20  28
ATOM     28  C   UNL A   1      34.223  30.678  27.848  1.00  0.00     0.128 A 
ATOM     29  C   UNL A   1      36.490  29.428  27.917  1.00  0.00     0.049 C 
ATOM     30  C   UNL A   1      35.631  30.653  27.900  1.00  0.00    -0.004 A 
ATOM     31  C   UNL A   1      36.345  31.874  27.959  1.00  0.00     0.008 A 
ATOM     32  C   UNL A   1      35.704  33.106  27.941  1.00  0.00     0.001 A 
ATOM     33  C   UNL A   1      33.605  31.948  27.880  1.00  0.00     0.052 A 
ATOM     34  C   UNL A   1      34.322  33.145  27.914  1.00  0.00     0.004 A 
ENDBRANCH  20  28
ENDBRANCH  18  19
ENDBRANCH  15  18
ENDBRANCH   9  14
ENDBRANCH   6   8
ENDBRANCH   5   6
ENDBRANCH   4   5
ENDBRANCH   3   4
ENDBRANCH   2   3
ENDBRANCH   1   2
BRANCH   1  35
ATOM     35  C   UNL A   1      41.097  19.803  26.521  1.00  0.00     0.188 C 
BRANCH  35  36
ATOM     36  O   UNL A   1      41.714  19.151  25.417  1.00  0.00    -0.376 OA
BRANCH  36  37
ATOM     37  C   UNL A   1      43.100  18.906  25.574  1.00  0.00     0.202 C 
BRANCH  37  38
ATOM     38  C   UNL A   1      43.966  19.864  24.748  1.00  0.00     0.261 C 
BRANCH  38  39
ATOM     39  O   UNL A   1      44.206  21.070  25.504  1.00  0.00    -0.460 OA
BRANCH  39  40
ATOM     40  C   UNL A   1      43.705  22.212  24.953  1.00  0.00     0.338 C 
ATOM     41  O   UNL A   1      42.500  22.381  24.722  1.00  0.00    -0.246 OA
BRANCH  40  42
ATOM     42  C   UNL A   1      44.796  23.195  24.705  1.00  0.00     0.060 A 
ATOM     43  C   UNL A   1      46.086  22.889  24.285  1.00  0.00     0.016 A 
ATOM     44  C   UNL A   1      44.590  24.499  25.045  1.00  0.00     0.016 A 
ATOM     45  C   UNL A   1      47.170  23.844  24.394  1.00  0.00     0.010 A 
ATOM     46  C   UNL A   1      45.704  25.343  25.202  1.00  0.00     0.010 A 
ATOM     47  C   UNL A   1      47.055  25.110  24.982  1.00  0.00    -0.014 A 
BRANCH  47  48
ATOM     48  C   UNL A   1      48.236  25.985  25.603  1.00  0.00     0.031 A 
ATOM     49  C   UNL A   1      49.792  25.923  25.532  1.00  0.00     0.074 A 
ATOM     50  C   UNL A   1      47.907  27.071  26.339  1.00  0.00     0.049 A 
ATOM     51  N   UNL A   1      50.606  25.480  26.469  1.00  0.00    -0.248 NA
ATOM     52  C   UNL A   1      50.579  26.612  24.487  1.00  0.00     0.031 C 
ATOM     53  C   UNL A   1      48.798  28.031  26.996  1.00  0.00     0.029 A 
ATOM     54  N   UNL A   1      46.655  27.389  26.836  1.00  0.00    -0.354 N 
ATOM     55  C   UNL A   1      51.926  25.803  26.084  1.00  0.00     0.074 A 
ATOM     56  C   UNL A   1      51.852  26.328  24.751  1.00  0.00     0.031 C 
ATOM     57  C   UNL A   1      48.133  28.573  28.029  1.00  0.00     0.029 A 
ATOM     58  C   UNL A   1      46.838  27.919  28.111  1.00  0.00     0.049 A 
ATOM     59  H   UNL A   1      45.794  27.264  26.374  1.00  0.00     0.167 HD
ATOM     60  C   UNL A   1      52.983  26.176  26.875  1.00  0.00     0.034 A 
ATOM     61  C   UNL A   1      46.297  27.276  29.183  1.00  0.00     0.034 A 
ATOM     62  C   UNL A   1      52.540  26.762  28.107  1.00  0.00     0.049 A 
ATOM     63  C   UNL A   1      47.331  26.849  30.197  1.00  0.00     0.074 A 
ATOM     64  C   UNL A   1      52.442  28.078  28.524  1.00  0.00     0.029 A 
ATOM     65  N   UNL A   1      51.857  25.992  29.020  1.00  0.00    -0.354 N 
ATOM     66  N   UNL A   1      48.622  26.873  29.999  1.00  0.00    -0.248 NA
ATOM     67  C   UNL A   1      46.984  26.335  31.515  1.00  0.00     0.031 C 
ATOM     68  C   UNL A   1      51.644  28.099  29.692  1.00  0.00     0.029 A 
ATOM     69  C   UNL A   1      51.317  26.792  30.000  1.00  0.00     0.049 A 
ATOM     70  H   UNL A   1      51.768  25.012  28.976  1.00  0.00     0.167 HD
ATOM     71  C   UNL A   1      49.267  26.350  31.095  1.00  0.00     0.074 A 
ATOM     72  C   UNL A   1      48.196  26.065  32.028  1.00  0.00     0.031 C 
ATOM     73  C   UNL A   1      50.625  26.179  31.113  1.00  0.00     0.034 A 
BRANCH  60  74
ATOM     74  C   UNL A   1      54.381  26.371  26.287  1.00  0.00     0.023 A 
ATOM     75  C   UNL A   1      55.338  25.343  26.125  1.00  0.00     0.031 A 
ATOM     76  C   UNL A   1      54.770  27.652  25.832  1.00  0.00     0.131 A 
ATOM     77  C   UNL A   1      56.628  25.622  25.605  1.00  0.00     0.055 A 
ATOM     78  C   UNL A   1      56.051  27.927  25.330  1.00  0.00     0.041 A 
ATOM     79  F   UNL A   1      53.905  28.676  25.868  1.00  0.00    -0.206 F 
ATOM     80  C   UNL A   1      56.992  26.913  25.226  1.00  0.00     0.022 A 
BRANCH  77  81
ATOM     81  S   UNL A   1      57.860  24.285  25.453  1.00  0.00     0.124 S 
ATOM     82  O   UNL A   1      57.135  23.131  25.977  1.00  0.00    -0.237 OA
ATOM     83  O   UNL A   1      58.140  24.273  24.022  1.00  0.00    -0.237 OA
ATOM     84  O   UNL A   1      58.970  24.739  26.292  1.00  0.00    -0.744 OA
ENDBRANCH  77  81
ENDBRANCH  60  74
BRANCH  61  85
ATOM     85  C   UNL A   1      44.991  26.588  28.901  1.00  0.00     0.023 A 
ATOM     86  C   UNL A   1      43.944  27.381  28.364  1.00  0.00     0.031 A 
ATOM     87  C   UNL A   1      44.834  25.195  28.838  1.00  0.00     0.131 A 
ATOM     88  C   UNL A   1      42.882  26.797  27.660  1.00  0.00     0.055 A 
ATOM     89  C   UNL A   1      43.718  24.609  28.212  1.00  0.00     0.041 A 
ATOM     90  F   UNL A   1      45.811  24.375  29.251  1.00  0.00    -0.206 F 
ATOM     91  C   UNL A   1      42.749  25.410  27.599  1.00  0.00     0.022 A 
BRANCH  88  92
ATOM     92  S   UNL A   1      41.831  27.838  26.593  1.00  0.00     0.124 S 
ATOM     93  O   UNL A   1      42.565  29.097  26.573  1.00  0.00    -0.237 OA
ATOM     94  O   UNL A   1      41.789  27.106  25.330  1.00  0.00    -0.237 OA
ATOM     95  O   UNL A   1      40.559  27.854  27.312  1.00  0.00    -0.744 OA
ENDBRANCH  88  92
ENDBRANCH  61  85
BRANCH  73  96
ATOM     96  C   UNL A   1      51.468  25.474  32.160  1.00  0.00     0.023 A 
ATOM     97  C   UNL A   1      51.528  24.085  32.294  1.00  0.00     0.031 A 
ATOM     98  C   UNL A   1      52.306  26.202  33.050  1.00  0.00     0.131 A 
ATOM     99  C   UNL A   1      52.309  23.478  33.294  1.00  0.00     0.055 A 
ATOM    100  C   UNL A   1      53.145  25.595  33.989  1.00  0.00     0.041 A 
ATOM    101  F   UNL A   1      52.354  27.543  33.051  1.00  0.00    -0.206 F 
ATOM    102  C   UNL A   1      53.139  24.220  34.128  1.00  0.00     0.022 A 
BRANCH  99 103
ATOM    103  S   UNL A   1      52.138  21.691  33.527  1.00  0.00     0.124 S 
ATOM    104  O   UNL A   1      52.288  21.197  32.161  1.00  0.00    -0.237 OA
ATOM    105  O   UNL A   1      53.242  21.390  34.432  1.00  0.00    -0.237 OA
ATOM    106  O   UNL A   1      50.802  21.544  34.098  1.00  0.00    -0.744 OA
ENDBRANCH  99 103
ENDBRANCH  73  96
ENDBRANCH  47  48
ENDBRANCH  40  42
ENDBRANCH  39  40
ENDBRANCH  38  39
ENDBRANCH  37  38
ENDBRANCH  36  37
ENDBRANCH  35  36
ENDBRANCH   1  35
TORSDOF 24
ENDMDL
MODEL 2
REMARK VINA RESULT:     -10.5      3.593      5.764
REMARK SMILES Cc1ccccc1/[NH+]=C1\S[C@@H](CC(=O)Nc2ccc(C(=O)OCCOCCOCCOC(=O)c3ccc(-c4c5nc(c(-c6cc(S(=O)(=O)[O-])ccc6F)c6ccc([nH]6)c(-c6cc(S(=O)(=O)[O-])ccc6F)c6nc(c(-c7cc(S(=O)(=O)[O-])ccc7F)c7ccc4[nH]7)C=C6)C=C5)cc3)cc2)C(=O)N1C
REMARK SMILES IDX 26 1 25 2 24 3 23 4 22 5 20 6 21 7 19 8 16 9 17 10 98 11
REMARK SMILES IDX 18 12 97 13 15 14 13 15 14 16 12 18 11 19 8 20 9 21 10 23
REMARK SMILES IDX 101 24 99 25 102 26 100 27 7 28 1 29 2 30 3 31 4 32 6 33
REMARK SMILES IDX 5 34 27 35 28 36 29 37 30 38 31 39 32 40 33 41 34 42 35 43
REMARK SMILES IDX 96 44 36 45 95 46 37 47 38 48 39 49 89 50 40 51 94 52 88 53
REMARK SMILES IDX 90 54 41 55 93 56 87 57 86 58 42 60 74 61 54 62 73 63 55 64
REMARK SMILES IDX 58 65 72 66 91 67 56 68 57 69 71 71 92 72 59 73 43 74 44 75
REMARK SMILES IDX 52 76 45 77 51 78 53 79 50 80 46 81 47 82 48 83 49 84 75 85
REMARK SMILES IDX 76 86 84 87 77 88 83 89 85 90 82 91 78 92 79 93 80 94 81 95
REMARK SMILES IDX 60 96 61 97 69 98 62 99 68 100 70 101 67 102 63 103 64 104
REMARK SMILES IDX 65 105 66 106
REMARK H PARENT 15 17 8 22 90 59 58 70
REMARK Flexibility Score: inf
ROOT
ATOM      1  C   UNL A   1      40.723  20.686  27.077  1.00  0.00     0.188 C 
ENDROOT
BRANCH   1   2
ATOM      2  O   UNL A   1      40.086  21.269  25.936  1.00  0.00    -0.376 OA
BRANCH   2   3
ATOM      3  C   UNL A   1      38.921  22.061  26.024  1.00  0.00     0.202 C 
BRANCH   3   4
ATOM      4  C   UNL A   1      37.599  21.449  25.311  1.00  0.00     0.261 C 
BRANCH   4   5
ATOM      5  O   UNL A   1      36.820  22.085  24.107  1.00  0.00    -0.460 OA
BRANCH   5   6
ATOM      6  C   UNL A   1      35.940  23.003  23.554  1.00  0.00     0.338 C 
ATOM      7  O   UNL A   1      35.738  22.920  22.339  1.00  0.00    -0.246 OA
BRANCH   6   8
ATOM      8  C   UNL A   1      35.176  24.189  24.143  1.00  0.00     0.060 A 
ATOM      9  C   UNL A   1      33.179  25.753  25.381  1.00  0.00     0.041 A 
ATOM     10  C   UNL A   1      33.250  25.685  23.992  1.00  0.00     0.027 A 
ATOM     11  C   UNL A   1      34.245  25.292  26.144  1.00  0.00     0.027 A 
ATOM     12  C   UNL A   1      34.226  24.876  23.380  1.00  0.00     0.018 A 
ATOM     13  C   UNL A   1      35.220  24.482  25.531  1.00  0.00     0.018 A 
BRANCH   9  14
ATOM     14  N   UNL A   1      31.904  25.953  25.952  1.00  0.00    -0.326 N 
ATOM     15  C   UNL A   1      31.131  24.904  26.421  1.00  0.00     0.226 C 
ATOM     16  O   UNL A   1      29.907  25.038  26.508  1.00  0.00    -0.275 OA
ATOM     17  H   UNL A   1      31.553  26.870  26.017  1.00  0.00     0.169 HD
BRANCH  15  18
ATOM     18  C   UNL A   1      31.787  23.595  26.817  1.00  0.00     0.128 C 
BRANCH  18  19
ATOM     19  C   UNL A   1      31.554  22.428  25.869  1.00  0.00     0.183 C 
ATOM     20  N   UNL A   1      32.960  19.571  23.834  1.00  0.00    -0.234 N 
ATOM     21  C   UNL A   1      32.743  20.700  24.404  1.00  0.00     0.319 C 
ATOM     22  H   UNL A   1      32.795  19.603  22.865  1.00  0.00     0.313 HD
ATOM     23  S   UNL A   1      32.912  21.239  26.036  1.00  0.00    -0.022 SA
ATOM     24  N   UNL A   1      32.191  21.719  23.665  1.00  0.00    -0.193 N 
ATOM     25  C   UNL A   1      31.446  22.647  24.367  1.00  0.00     0.324 C 
ATOM     26  C   UNL A   1      32.279  21.724  22.217  1.00  0.00     0.301 C 
ATOM     27  O   UNL A   1      30.655  23.432  23.850  1.00  0.00    -0.245 OA
BRANCH  20  28
ATOM     28  C   UNL A   1      33.373  18.303  24.261  1.00  0.00     0.128 A 
ATOM     29  C   UNL A   1      35.941  18.543  24.495  1.00  0.00     0.049 C 
ATOM     30  C   UNL A   1      34.636  17.834  24.674  1.00  0.00    -0.004 A 
ATOM     31  C   UNL A   1      34.733  16.572  25.309  1.00  0.00     0.008 A 
ATOM     32  C   UNL A   1      33.617  15.786  25.565  1.00  0.00     0.001 A 
ATOM     33  C   UNL A   1      32.268  17.455  24.494  1.00  0.00     0.052 A 
ATOM     34  C   UNL A   1      32.375  16.223  25.144  1.00  0.00     0.004 A 
ENDBRANCH  20  28
ENDBRANCH  18  19
ENDBRANCH  15  18
ENDBRANCH   9  14
ENDBRANCH   6   8
ENDBRANCH   5   6
ENDBRANCH   4   5
ENDBRANCH   3   4
ENDBRANCH   2   3
ENDBRANCH   1   2
BRANCH   1  35
ATOM     35  C   UNL A   1      41.921  19.778  26.807  1.00  0.00     0.188 C 
BRANCH  35  36
ATOM     36  O   UNL A   1      42.478  20.067  25.530  1.00  0.00    -0.376 OA
BRANCH  36  37
ATOM     37  C   UNL A   1      43.680  19.378  25.239  1.00  0.00     0.202 C 
BRANCH  37  38
ATOM     38  C   UNL A   1      44.773  20.303  24.693  1.00  0.00     0.261 C 
BRANCH  38  39
ATOM     39  O   UNL A   1      44.575  21.638  25.204  1.00  0.00    -0.460 OA
BRANCH  39  40
ATOM     40  C   UNL A   1      44.588  22.629  24.268  1.00  0.00     0.338 C 
ATOM     41  O   UNL A   1      43.978  22.553  23.192  1.00  0.00    -0.246 OA
BRANCH  40  42
ATOM     42  C   UNL A   1      45.404  23.782  24.737  1.00  0.00     0.060 A 
ATOM     43  C   UNL A   1      46.790  23.805  24.855  1.00  0.00     0.016 A 
ATOM     44  C   UNL A   1      44.762  24.875  25.239  1.00  0.00     0.016 A 
ATOM     45  C   UNL A   1      47.474  24.820  25.629  1.00  0.00     0.010 A 
ATOM     46  C   UNL A   1      45.483  25.777  26.043  1.00  0.00     0.010 A 
ATOM     47  C   UNL A   1      46.830  25.814  26.377  1.00  0.00    -0.014 A 
BRANCH  47  48
ATOM     48  C   UNL A   1      47.430  26.609  27.622  1.00  0.00     0.031 A 
ATOM     49  C   UNL A   1      48.873  26.919  28.127  1.00  0.00     0.074 A 
ATOM     50  C   UNL A   1      46.568  27.223  28.464  1.00  0.00     0.049 A 
ATOM     51  N   UNL A   1      49.501  26.333  29.126  1.00  0.00    -0.248 NA
ATOM     52  C   UNL A   1      49.635  28.114  27.704  1.00  0.00     0.031 C 
ATOM     53  C   UNL A   1      46.868  28.018  29.658  1.00  0.00     0.029 A 
ATOM     54  N   UNL A   1      45.197  27.042  28.525  1.00  0.00    -0.354 N 
ATOM     55  C   UNL A   1      50.686  27.058  29.378  1.00  0.00     0.074 A 
ATOM     56  C   UNL A   1      50.806  28.032  28.331  1.00  0.00     0.031 C 
ATOM     57  C   UNL A   1      45.805  27.956  30.476  1.00  0.00     0.029 A 
ATOM     58  C   UNL A   1      44.836  27.058  29.870  1.00  0.00     0.049 A 
ATOM     59  H   UNL A   1      44.588  26.925  27.759  1.00  0.00     0.167 HD
ATOM     60  C   UNL A   1      51.298  27.312  30.579  1.00  0.00     0.034 A 
ATOM     61  C   UNL A   1      44.273  25.947  30.422  1.00  0.00     0.034 A 
ATOM     62  C   UNL A   1      50.366  27.259  31.668  1.00  0.00     0.049 A 
ATOM     63  C   UNL A   1      45.072  25.393  31.577  1.00  0.00     0.074 A 
ATOM     64  C   UNL A   1      49.720  28.253  32.383  1.00  0.00     0.029 A 
ATOM     65  N   UNL A   1      49.761  26.066  31.989  1.00  0.00    -0.354 N 
ATOM     66  N   UNL A   1      46.281  25.771  31.894  1.00  0.00    -0.248 NA
ATOM     67  C   UNL A   1      44.574  24.343  32.454  1.00  0.00     0.031 C 
ATOM     68  C   UNL A   1      48.676  27.643  33.117  1.00  0.00     0.029 A 
ATOM     69  C   UNL A   1      48.737  26.282  32.882  1.00  0.00     0.049 A 
ATOM     70  H   UNL A   1      50.023  25.187  31.630  1.00  0.00     0.167 HD
ATOM     71  C   UNL A   1      46.741  25.015  32.946  1.00  0.00     0.074 A 
ATOM     72  C   UNL A   1      45.617  24.164  33.281  1.00  0.00     0.031 C 
ATOM     73  C   UNL A   1      48.017  25.149  33.422  1.00  0.00     0.034 A 
BRANCH  60  74
ATOM     74  C   UNL A   1      52.652  28.019  30.644  1.00  0.00     0.023 A 
ATOM     75  C   UNL A   1      52.830  29.397  30.907  1.00  0.00     0.031 A 
ATOM     76  C   UNL A   1      53.837  27.269  30.465  1.00  0.00     0.131 A 
ATOM     77  C   UNL A   1      54.123  29.978  30.911  1.00  0.00     0.055 A 
ATOM     78  C   UNL A   1      55.114  27.849  30.456  1.00  0.00     0.041 A 
ATOM     79  F   UNL A   1      53.778  25.940  30.290  1.00  0.00    -0.206 F 
ATOM     80  C   UNL A   1      55.262  29.212  30.668  1.00  0.00     0.022 A 
BRANCH  77  81
ATOM     81  S   UNL A   1      54.319  31.768  31.205  1.00  0.00     0.124 S 
ATOM     82  O   UNL A   1      53.069  32.310  30.679  1.00  0.00    -0.237 OA
ATOM     83  O   UNL A   1      54.491  31.835  32.651  1.00  0.00    -0.237 OA
ATOM     84  O   UNL A   1      55.509  32.119  30.428  1.00  0.00    -0.744 OA
ENDBRANCH  77  81
ENDBRANCH  60  74
BRANCH  61  85
ATOM     85  C   UNL A   1      43.404  25.159  29.482  1.00  0.00     0.023 A 
ATOM     86  C   UNL A   1      42.312  25.840  28.884  1.00  0.00     0.031 A 
ATOM     87  C   UNL A   1      43.767  23.922  28.926  1.00  0.00     0.131 A 
ATOM     88  C   UNL A   1      41.732  25.374  27.696  1.00  0.00     0.055 A 
ATOM     89  C   UNL A   1      43.119  23.410  27.787  1.00  0.00     0.041 A 
ATOM     90  F   UNL A   1      44.836  23.253  29.382  1.00  0.00    -0.206 F 
ATOM     91  C   UNL A   1      42.114  24.148  27.153  1.00  0.00     0.022 A 
BRANCH  88  92
ATOM     92  S   UNL A   1      40.680  26.493  26.712  1.00  0.00     0.124 S 
ATOM     93  O   UNL A   1      40.770  25.907  25.380  1.00  0.00    -0.237 OA
ATOM     94  O   UNL A   1      39.375  26.400  27.361  1.00  0.00    -0.237 OA
ATOM     95  O   UNL A   1      41.338  27.786  26.883  1.00  0.00    -0.744 OA
ENDBRANCH  88  92
ENDBRANCH  61  85
BRANCH  73  96
ATOM     96  C   UNL A   1      48.730  24.292  34.452  1.00  0.00     0.023 A 
ATOM     97  C   UNL A   1      49.654  23.298  34.122  1.00  0.00     0.031 A 
ATOM     98  C   UNL A   1      48.531  24.492  35.847  1.00  0.00     0.131 A 
ATOM     99  C   UNL A   1      50.274  22.515  35.113  1.00  0.00     0.055 A 
ATOM    100  C   UNL A   1      49.210  23.769  36.833  1.00  0.00     0.041 A 
ATOM    101  F   UNL A   1      47.670  25.402  36.324  1.00  0.00    -0.206 F 
ATOM    102  C   UNL A   1      50.079  22.758  36.469  1.00  0.00     0.022 A 
BRANCH  99 103
ATOM    103  S   UNL A   1      51.277  21.110  34.569  1.00  0.00     0.124 S 
ATOM    104  O   UNL A   1      52.630  21.588  34.838  1.00  0.00    -0.237 OA
ATOM    105  O   UNL A   1      50.803  20.037  35.436  1.00  0.00    -0.237 OA
ATOM    106  O   UNL A   1      50.937  20.969  33.156  1.00  0.00    -0.744 OA
ENDBRANCH  99 103
ENDBRANCH  73  96
ENDBRANCH  47  48
ENDBRANCH  40  42
ENDBRANCH  39  40
ENDBRANCH  38  39
ENDBRANCH  37  38
ENDBRANCH  36  37
ENDBRANCH  35  36
ENDBRANCH   1  35
TORSDOF 24
ENDMDL
MODEL 3
REMARK VINA RESULT:      -9.8      6.538     12.098
REMARK SMILES Cc1ccccc1/[NH+]=C1\S[C@@H](CC(=O)Nc2ccc(C(=O)OCCOCCOCCOC(=O)c3ccc(-c4c5nc(c(-c6cc(S(=O)(=O)[O-])ccc6F)c6ccc([nH]6)c(-c6cc(S(=O)(=O)[O-])ccc6F)c6nc(c(-c7cc(S(=O)(=O)[O-])ccc7F)c7ccc4[nH]7)C=C6)C=C5)cc3)cc2)C(=O)N1C
REMARK SMILES IDX 26 1 25 2 24 3 23 4 22 5 20 6 21 7 19 8 16 9 17 10 98 11
REMARK SMILES IDX 18 12 97 13 15 14 13 15 14 16 12 18 11 19 8 20 9 21 10 23
REMARK SMILES IDX 101 24 99 25 102 26 100 27 7 28 1 29 2 30 3 31 4 32 6 33
REMARK SMILES IDX 5 34 27 35 28 36 29 37 30 38 31 39 32 40 33 41 34 42 35 43
REMARK SMILES IDX 96 44 36 45 95 46 37 47 38 48 39 49 89 50 40 51 94 52 88 53
REMARK SMILES IDX 90 54 41 55 93 56 87 57 86 58 42 60 74 61 54 62 73 63 55 64
REMARK SMILES IDX 58 65 72 66 91 67 56 68 57 69 71 71 92 72 59 73 43 74 44 75
REMARK SMILES IDX 52 76 45 77 51 78 53 79 50 80 46 81 47 82 48 83 49 84 75 85
REMARK SMILES IDX 76 86 84 87 77 88 83 89 85 90 82 91 78 92 79 93 80 94 81 95
REMARK SMILES IDX 60 96 61 97 69 98 62 99 68 100 70 101 67 102 63 103 64 104
REMARK SMILES IDX 65 105 66 106
REMARK H PARENT 15 17 8 22 90 59 58 70
REMARK Flexibility Score: inf
ROOT
ATOM      1  C   UNL A   1      41.105  20.598  26.498  1.00  0.00     0.188 C 
ENDROOT
BRANCH   1   2
ATOM      2  O   UNL A   1      40.045  21.030  25.641  1.00  0.00    -0.376 OA
BRANCH   2   3
ATOM      3  C   UNL A   1      38.915  21.737  26.108  1.00  0.00     0.202 C 
BRANCH   3   4
ATOM      4  C   UNL A   1      37.556  21.539  25.244  1.00  0.00     0.261 C 
BRANCH   4   5
ATOM      5  O   UNL A   1      36.983  22.541  24.181  1.00  0.00    -0.460 OA
BRANCH   5   6
ATOM      6  C   UNL A   1      35.947  23.228  23.566  1.00  0.00     0.338 C 
ATOM      7  O   UNL A   1      35.665  22.896  22.412  1.00  0.00    -0.246 OA
BRANCH   6   8
ATOM      8  C   UNL A   1      35.078  24.404  24.012  1.00  0.00     0.060 A 
ATOM      9  C   UNL A   1      32.967  25.922  25.111  1.00  0.00     0.041 A 
ATOM     10  C   UNL A   1      32.990  25.644  23.747  1.00  0.00     0.027 A 
ATOM     11  C   UNL A   1      34.108  25.703  25.872  1.00  0.00     0.027 A 
ATOM     12  C   UNL A   1      34.025  24.858  23.209  1.00  0.00     0.018 A 
ATOM     13  C   UNL A   1      35.144  24.915  25.334  1.00  0.00     0.018 A 
BRANCH   9  14
ATOM     14  N   UNL A   1      31.702  26.073  25.716  1.00  0.00    -0.326 N 
ATOM     15  C   UNL A   1      31.047  25.020  26.334  1.00  0.00     0.226 C 
ATOM     16  O   UNL A   1      29.820  25.055  26.464  1.00  0.00    -0.275 OA
ATOM     17  H   UNL A   1      31.270  26.958  25.698  1.00  0.00     0.169 HD
BRANCH  15  18
ATOM     18  C   UNL A   1      31.835  23.827  26.837  1.00  0.00     0.128 C 
BRANCH  18  19
ATOM     19  C   UNL A   1      31.689  22.550  26.023  1.00  0.00     0.183 C 
ATOM     20  N   UNL A   1      33.308  19.665  24.195  1.00  0.00    -0.234 N 
ATOM     21  C   UNL A   1      32.993  20.818  24.665  1.00  0.00     0.319 C 
ATOM     22  H   UNL A   1      33.092  19.579  23.239  1.00  0.00     0.313 HD
ATOM     23  S   UNL A   1      33.181  21.538  26.222  1.00  0.00    -0.022 SA
ATOM     24  N   UNL A   1      32.292  21.689  23.865  1.00  0.00    -0.193 N 
ATOM     25  C   UNL A   1      31.482  22.599  24.517  1.00  0.00     0.324 C 
ATOM     26  C   UNL A   1      32.307  21.553  22.420  1.00  0.00     0.301 C 
ATOM     27  O   UNL A   1      30.583  23.235  23.975  1.00  0.00    -0.245 OA
BRANCH  20  28
ATOM     28  C   UNL A   1      33.883  18.501  24.717  1.00  0.00     0.128 A 
ATOM     29  C   UNL A   1      31.855  16.937  25.104  1.00  0.00     0.049 C 
ATOM     30  C   UNL A   1      33.317  17.247  25.020  1.00  0.00    -0.004 A 
ATOM     31  C   UNL A   1      34.168  16.149  25.293  1.00  0.00     0.008 A 
ATOM     32  C   UNL A   1      35.552  16.258  25.247  1.00  0.00     0.001 A 
ATOM     33  C   UNL A   1      35.293  18.585  24.728  1.00  0.00     0.052 A 
ATOM     34  C   UNL A   1      36.121  17.488  24.975  1.00  0.00     0.004 A 
ENDBRANCH  20  28
ENDBRANCH  18  19
ENDBRANCH  15  18
ENDBRANCH   9  14
ENDBRANCH   6   8
ENDBRANCH   5   6
ENDBRANCH   4   5
ENDBRANCH   3   4
ENDBRANCH   2   3
ENDBRANCH   1   2
BRANCH   1  35
ATOM     35  C   UNL A   1      42.412  21.385  26.426  1.00  0.00     0.188 C 
BRANCH  35  36
ATOM     36  O   UNL A   1      42.251  22.529  25.595  1.00  0.00    -0.376 OA
BRANCH  36  37
ATOM     37  C   UNL A   1      43.411  22.906  24.877  1.00  0.00     0.202 C 
BRANCH  37  38
ATOM     38  C   UNL A   1      43.784  24.377  25.088  1.00  0.00     0.261 C 
BRANCH  38  39
ATOM     39  O   UNL A   1      42.966  24.936  26.138  1.00  0.00    -0.460 OA
BRANCH  39  40
ATOM     40  C   UNL A   1      42.058  25.870  25.736  1.00  0.00     0.338 C 
ATOM     41  O   UNL A   1      41.140  25.624  24.942  1.00  0.00    -0.246 OA
BRANCH  40  42
ATOM     42  C   UNL A   1      42.324  27.177  26.397  1.00  0.00     0.060 A 
ATOM     43  C   UNL A   1      43.550  27.602  26.897  1.00  0.00     0.016 A 
ATOM     44  C   UNL A   1      41.268  27.992  26.680  1.00  0.00     0.016 A 
ATOM     45  C   UNL A   1      43.655  28.717  27.815  1.00  0.00     0.010 A 
ATOM     46  C   UNL A   1      41.434  29.008  27.640  1.00  0.00     0.010 A 
ATOM     47  C   UNL A   1      42.562  29.419  28.337  1.00  0.00    -0.014 A 
BRANCH  47  48
ATOM     48  C   UNL A   1      42.530  30.268  29.687  1.00  0.00     0.031 A 
ATOM     49  C   UNL A   1      41.413  31.013  30.481  1.00  0.00     0.074 A 
ATOM     50  C   UNL A   1      43.676  30.388  30.394  1.00  0.00     0.049 A 
ATOM     51  N   UNL A   1      41.204  32.313  30.514  1.00  0.00    -0.248 NA
ATOM     52  C   UNL A   1      40.595  30.360  31.526  1.00  0.00     0.031 C 
ATOM     53  C   UNL A   1      43.899  31.095  31.658  1.00  0.00     0.029 A 
ATOM     54  N   UNL A   1      44.954  30.070  29.965  1.00  0.00    -0.354 N 
ATOM     55  C   UNL A   1      40.242  32.573  31.515  1.00  0.00     0.074 A 
ATOM     56  C   UNL A   1      39.760  31.299  31.966  1.00  0.00     0.031 C 
ATOM     57  C   UNL A   1      45.195  31.445  31.714  1.00  0.00     0.029 A 
ATOM     58  C   UNL A   1      45.813  31.047  30.460  1.00  0.00     0.049 A 
ATOM     59  H   UNL A   1      45.208  29.296  29.411  1.00  0.00     0.167 HD
ATOM     60  C   UNL A   1      40.160  33.642  32.370  1.00  0.00     0.034 A 
ATOM     61  C   UNL A   1      46.502  31.833  29.587  1.00  0.00     0.034 A 
ATOM     62  C   UNL A   1      41.442  34.253  32.576  1.00  0.00     0.049 A 
ATOM     63  C   UNL A   1      46.198  33.303  29.750  1.00  0.00     0.074 A 
ATOM     64  C   UNL A   1      42.355  34.163  33.613  1.00  0.00     0.029 A 
ATOM     65  N   UNL A   1      42.076  34.873  31.525  1.00  0.00    -0.354 N 
ATOM     66  N   UNL A   1      45.226  33.785  30.476  1.00  0.00    -0.248 NA
ATOM     67  C   UNL A   1      46.959  34.349  29.080  1.00  0.00     0.031 C 
ATOM     68  C   UNL A   1      43.578  34.706  33.154  1.00  0.00     0.029 A 
ATOM     69  C   UNL A   1      43.376  35.168  31.868  1.00  0.00     0.049 A 
ATOM     70  H   UNL A   1      41.661  35.075  30.655  1.00  0.00     0.167 HD
ATOM     71  C   UNL A   1      45.186  35.154  30.344  1.00  0.00     0.074 A 
ATOM     72  C   UNL A   1      46.317  35.455  29.490  1.00  0.00     0.031 C 
ATOM     73  C   UNL A   1      44.205  35.902  30.935  1.00  0.00     0.034 A 
BRANCH  60  74
ATOM     74  C   UNL A   1      38.969  33.812  33.314  1.00  0.00     0.023 A 
ATOM     75  C   UNL A   1      38.977  33.484  34.689  1.00  0.00     0.031 A 
ATOM     76  C   UNL A   1      37.764  34.362  32.819  1.00  0.00     0.131 A 
ATOM     77  C   UNL A   1      37.813  33.638  35.483  1.00  0.00     0.055 A 
ATOM     78  C   UNL A   1      36.611  34.502  33.604  1.00  0.00     0.041 A 
ATOM     79  F   UNL A   1      37.681  34.780  31.547  1.00  0.00    -0.206 F 
ATOM     80  C   UNL A   1      36.626  34.128  34.940  1.00  0.00     0.022 A 
BRANCH  77  81
ATOM     81  S   UNL A   1      37.838  33.162  37.244  1.00  0.00     0.124 S 
ATOM     82  O   UNL A   1      38.606  31.920  37.221  1.00  0.00    -0.237 OA
ATOM     83  O   UNL A   1      38.485  34.307  37.873  1.00  0.00    -0.237 OA
ATOM     84  O   UNL A   1      36.423  32.996  37.579  1.00  0.00    -0.744 OA
ENDBRANCH  77  81
ENDBRANCH  60  74
BRANCH  61  85
ATOM     85  C   UNL A   1      46.902  31.143  28.312  1.00  0.00     0.023 A 
ATOM     86  C   UNL A   1      47.915  30.154  28.401  1.00  0.00     0.031 A 
ATOM     87  C   UNL A   1      46.149  31.182  27.129  1.00  0.00     0.131 A 
ATOM     88  C   UNL A   1      48.046  29.162  27.420  1.00  0.00     0.055 A 
ATOM     89  C   UNL A   1      46.347  30.240  26.101  1.00  0.00     0.041 A 
ATOM     90  F   UNL A   1      45.122  32.034  26.997  1.00  0.00    -0.206 F 
ATOM     91  C   UNL A   1      47.281  29.211  26.255  1.00  0.00     0.022 A 
BRANCH  88  92
ATOM     92  S   UNL A   1      49.013  27.659  27.785  1.00  0.00     0.124 S 
ATOM     93  O   UNL A   1      49.618  27.987  29.070  1.00  0.00    -0.237 OA
ATOM     94  O   UNL A   1      48.008  26.599  27.807  1.00  0.00    -0.237 OA
ATOM     95  O   UNL A   1      49.930  27.584  26.651  1.00  0.00    -0.744 OA
ENDBRANCH  88  92
ENDBRANCH  61  85
BRANCH  73  96
ATOM     96  C   UNL A   1      43.919  37.383  30.760  1.00  0.00     0.023 A 
ATOM     97  C   UNL A   1      44.086  38.326  31.777  1.00  0.00     0.031 A 
ATOM     98  C   UNL A   1      43.505  37.914  29.507  1.00  0.00     0.131 A 
ATOM     99  C   UNL A   1      43.787  39.685  31.572  1.00  0.00     0.055 A 
ATOM    100  C   UNL A   1      43.288  39.277  29.281  1.00  0.00     0.041 A 
ATOM    101  F   UNL A   1      43.293  37.136  28.435  1.00  0.00    -0.206 F 
ATOM    102  C   UNL A   1      43.413  40.175  30.324  1.00  0.00     0.022 A 
BRANCH  99 103
ATOM    103  S   UNL A   1      43.819  40.780  33.012  1.00  0.00     0.124 S 
ATOM    104  O   UNL A   1      42.686  40.284  33.789  1.00  0.00    -0.237 OA
ATOM    105  O   UNL A   1      45.137  40.512  33.576  1.00  0.00    -0.237 OA
ATOM    106  O   UNL A   1      43.643  42.111  32.438  1.00  0.00    -0.744 OA
ENDBRANCH  99 103
ENDBRANCH  73  96
ENDBRANCH  47  48
ENDBRANCH  40  42
ENDBRANCH  39  40
ENDBRANCH  38  39
ENDBRANCH  37  38
ENDBRANCH  36  37
ENDBRANCH  35  36
ENDBRANCH   1  35
TORSDOF 24
ENDMDL
