MODEL 1
REMARK VINA RESULT:      -9.3      0.000      0.000
REMARK SMILES C[C@@H]1CCCN(C(=O)c2ccncc2/C=C/C(=O)OCCOCCOCCOC(=O)c2ccc(-c3c4nc(c(-c5cc(S(=O)(=O)[O-])ccc5F)c5ccc([nH]5)c(-c5cc(S(=O)(=O)[O-])ccc5F)c5nc(c(-c6cc(S(=O)(=O)[O-])ccc6F)c6ccc3[nH]6)C=C5)C=C4)cc2)[C@@H]1C
REMARK SMILES IDX 23 1 22 2 21 3 20 4 19 5 17 6 18 7 16 8 15 9 14 10 9 11
REMARK SMILES IDX 10 12 11 13 13 14 12 15 7 16 8 17 6 18 1 19 2 20 3 21 94 22
REMARK SMILES IDX 4 23 95 24 5 25 24 26 25 27 26 28 27 29 28 30 29 31 30 32
REMARK SMILES IDX 31 33 32 34 93 35 33 36 92 37 34 38 35 39 36 40 86 41 37 42
REMARK SMILES IDX 91 43 85 44 87 45 38 46 90 47 84 48 83 49 39 51 71 52 51 53
REMARK SMILES IDX 70 54 52 55 55 56 69 57 88 58 53 59 54 60 68 62 89 63 56 64
REMARK SMILES IDX 40 65 41 66 49 67 42 68 48 69 50 70 47 71 43 72 44 73 45 74
REMARK SMILES IDX 46 75 72 76 73 77 81 78 74 79 80 80 82 81 79 82 75 83 76 84
REMARK SMILES IDX 77 85 78 86 57 87 58 88 66 89 59 90 65 91 67 92 64 93 60 94
REMARK SMILES IDX 61 95 62 96 63 97
REMARK H PARENT 87 50 55 61
REMARK Flexibility Score: inf
ROOT
ATOM      1  C   UNL A   1      36.466  22.648  25.129  1.00  0.00     0.188 C 
ENDROOT
BRANCH   1   2
ATOM      2  O   UNL A   1      35.346  23.079  25.866  1.00  0.00    -0.376 OA
BRANCH   2   3
ATOM      3  C   UNL A   1      34.079  22.475  25.678  1.00  0.00     0.202 C 
BRANCH   3   4
ATOM      4  C   UNL A   1      33.630  21.671  24.440  1.00  0.00     0.261 C 
BRANCH   4   5
ATOM      5  O   UNL A   1      32.639  22.246  23.582  1.00  0.00    -0.460 OA
BRANCH   5   6
ATOM      6  C   UNL A   1      33.058  23.307  22.848  1.00  0.00     0.330 C 
ATOM      7  O   UNL A   1      34.075  23.356  22.171  1.00  0.00    -0.247 OA
BRANCH   6   8
ATOM      8  C   UNL A   1      32.067  24.404  22.811  1.00  0.00     0.094 C 
ATOM      9  C   UNL A   1      31.502  25.000  23.875  1.00  0.00     0.018 C 
BRANCH   9  10
ATOM     10  C   UNL A   1      30.552  26.129  23.749  1.00  0.00     0.006 A 
ATOM     11  C   UNL A   1      30.949  27.469  23.586  1.00  0.00     0.050 A 
ATOM     12  C   UNL A   1      30.002  28.466  23.323  1.00  0.00     0.034 A 
ATOM     13  C   UNL A   1      28.666  28.120  23.352  1.00  0.00     0.112 A 
ATOM     14  C   UNL A   1      29.175  25.915  23.790  1.00  0.00     0.119 A 
ATOM     15  N   UNL A   1      28.234  26.873  23.608  1.00  0.00    -0.264 NA
BRANCH  11  16
ATOM     16  C   UNL A   1      32.381  27.839  23.577  1.00  0.00     0.254 C 
ATOM     17  O   UNL A   1      32.994  27.540  22.556  1.00  0.00    -0.269 OA
BRANCH  16  18
ATOM     18  N   UNL A   1      32.952  28.467  24.695  1.00  0.00    -0.336 N 
ATOM     19  C   UNL A   1      31.341  27.178  26.931  1.00  0.00     0.010 C 
ATOM     20  C   UNL A   1      32.734  27.808  27.069  1.00  0.00     0.008 C 
ATOM     21  C   UNL A   1      32.623  29.294  27.459  1.00  0.00     0.007 C 
ATOM     22  C   UNL A   1      33.591  27.690  25.782  1.00  0.00     0.085 C 
ATOM     23  C   UNL A   1      32.093  30.155  26.313  1.00  0.00     0.022 C 
ATOM     24  C   UNL A   1      34.001  26.241  25.504  1.00  0.00     0.031 C 
ATOM     25  C   UNL A   1      32.843  29.901  25.006  1.00  0.00     0.120 C 
ENDBRANCH  16  18
ENDBRANCH  11  16
ENDBRANCH   9  10
ENDBRANCH   6   8
ENDBRANCH   5   6
ENDBRANCH   4   5
ENDBRANCH   3   4
ENDBRANCH   2   3
ENDBRANCH   1   2
BRANCH   1  26
ATOM     26  C   UNL A   1      36.700  21.127  25.045  1.00  0.00     0.188 C 
BRANCH  26  27
ATOM     27  O   UNL A   1      37.986  20.584  25.270  1.00  0.00    -0.376 OA
BRANCH  27  28
ATOM     28  C   UNL A   1      38.999  21.383  25.861  1.00  0.00     0.202 C 
BRANCH  28  29
ATOM     29  C   UNL A   1      40.418  20.880  26.184  1.00  0.00     0.261 C 
BRANCH  29  30
ATOM     30  O   UNL A   1      41.278  21.765  26.908  1.00  0.00    -0.460 OA
BRANCH  30  31
ATOM     31  C   UNL A   1      42.071  22.555  26.143  1.00  0.00     0.338 C 
ATOM     32  O   UNL A   1      42.686  22.231  25.136  1.00  0.00    -0.246 OA
BRANCH  31  33
ATOM     33  C   UNL A   1      41.954  23.943  26.617  1.00  0.00     0.060 A 
ATOM     34  C   UNL A   1      41.825  24.981  25.683  1.00  0.00     0.016 A 
ATOM     35  C   UNL A   1      42.004  24.216  27.984  1.00  0.00     0.016 A 
ATOM     36  C   UNL A   1      41.742  26.305  26.116  1.00  0.00     0.010 A 
ATOM     37  C   UNL A   1      41.952  25.543  28.412  1.00  0.00     0.010 A 
ATOM     38  C   UNL A   1      41.839  26.594  27.481  1.00  0.00    -0.014 A 
BRANCH  38  39
ATOM     39  C   UNL A   1      42.011  27.988  27.954  1.00  0.00     0.031 A 
ATOM     40  C   UNL A   1      43.411  28.525  28.070  1.00  0.00     0.074 A 
ATOM     41  C   UNL A   1      40.958  28.741  28.318  1.00  0.00     0.049 A 
ATOM     42  N   UNL A   1      43.836  29.624  28.634  1.00  0.00    -0.248 NA
ATOM     43  C   UNL A   1      44.474  27.697  27.479  1.00  0.00     0.031 C 
ATOM     44  C   UNL A   1      39.555  28.356  28.180  1.00  0.00     0.029 A 
ATOM     45  N   UNL A   1      40.912  29.981  28.904  1.00  0.00    -0.354 N 
ATOM     46  C   UNL A   1      45.219  29.606  28.495  1.00  0.00     0.074 A 
ATOM     47  C   UNL A   1      45.560  28.380  27.805  1.00  0.00     0.031 C 
ATOM     48  C   UNL A   1      38.785  29.333  28.690  1.00  0.00     0.029 A 
ATOM     49  C   UNL A   1      39.640  30.383  29.245  1.00  0.00     0.049 A 
ATOM     50  H   UNL A   1      41.711  30.532  29.066  1.00  0.00     0.167 HD
ATOM     51  C   UNL A   1      46.119  30.527  28.915  1.00  0.00     0.034 A 
ATOM     52  C   UNL A   1      39.224  31.448  29.961  1.00  0.00     0.034 A 
ATOM     53  C   UNL A   1      45.756  31.738  29.607  1.00  0.00     0.049 A 
ATOM     54  C   UNL A   1      40.257  32.407  30.514  1.00  0.00     0.074 A 
ATOM     55  C   UNL A   1      46.584  32.753  30.056  1.00  0.00     0.029 A 
ATOM     56  N   UNL A   1      44.462  32.091  29.970  1.00  0.00    -0.354 N 
ATOM     57  N   UNL A   1      41.564  32.383  30.385  1.00  0.00    -0.248 NA
ATOM     58  C   UNL A   1      39.759  33.536  31.316  1.00  0.00     0.031 C 
ATOM     59  C   UNL A   1      45.804  33.670  30.766  1.00  0.00     0.029 A 
ATOM     60  C   UNL A   1      44.476  33.285  30.673  1.00  0.00     0.049 A 
ATOM     61  H   UNL A   1      43.654  31.570  29.757  1.00  0.00     0.167 HD
ATOM     62  C   UNL A   1      42.034  33.518  31.043  1.00  0.00     0.074 A 
ATOM     63  C   UNL A   1      40.875  34.203  31.572  1.00  0.00     0.031 C 
ATOM     64  C   UNL A   1      43.309  33.962  31.186  1.00  0.00     0.034 A 
BRANCH  51  65
ATOM     65  C   UNL A   1      47.581  30.225  28.704  1.00  0.00     0.023 A 
ATOM     66  C   UNL A   1      48.344  29.518  29.649  1.00  0.00     0.031 A 
ATOM     67  C   UNL A   1      48.227  30.665  27.533  1.00  0.00     0.131 A 
ATOM     68  C   UNL A   1      49.717  29.326  29.436  1.00  0.00     0.055 A 
ATOM     69  C   UNL A   1      49.574  30.400  27.290  1.00  0.00     0.041 A 
ATOM     70  F   UNL A   1      47.557  31.371  26.608  1.00  0.00    -0.206 F 
ATOM     71  C   UNL A   1      50.331  29.736  28.250  1.00  0.00     0.022 A 
BRANCH  68  72
ATOM     72  S   UNL A   1      50.719  28.655  30.790  1.00  0.00     0.124 S 
ATOM     73  O   UNL A   1      51.989  29.350  30.593  1.00  0.00    -0.237 OA
ATOM     74  O   UNL A   1      49.956  29.043  31.971  1.00  0.00    -0.237 OA
ATOM     75  O   UNL A   1      50.753  27.221  30.514  1.00  0.00    -0.744 OA
ENDBRANCH  68  72
ENDBRANCH  51  65
BRANCH  52  76
ATOM     76  C   UNL A   1      37.774  31.657  30.253  1.00  0.00     0.023 A 
ATOM     77  C   UNL A   1      36.941  32.305  29.327  1.00  0.00     0.031 A 
ATOM     78  C   UNL A   1      37.217  31.289  31.491  1.00  0.00     0.131 A 
ATOM     79  C   UNL A   1      35.619  32.620  29.674  1.00  0.00     0.055 A 
ATOM     80  C   UNL A   1      35.881  31.543  31.805  1.00  0.00     0.041 A 
ATOM     81  F   UNL A   1      37.968  30.676  32.420  1.00  0.00    -0.206 F 
ATOM     82  C   UNL A   1      35.077  32.229  30.900  1.00  0.00     0.022 A 
BRANCH  79  83
ATOM     83  S   UNL A   1      34.651  33.660  28.545  1.00  0.00     0.124 S 
ATOM     84  O   UNL A   1      33.562  32.760  28.178  1.00  0.00    -0.237 OA
ATOM     85  O   UNL A   1      34.293  34.785  29.401  1.00  0.00    -0.237 OA
ATOM     86  O   UNL A   1      35.594  33.968  27.473  1.00  0.00    -0.744 OA
ENDBRANCH  79  83
ENDBRANCH  52  76
BRANCH  64  87
ATOM     87  C   UNL A   1      43.518  35.295  31.868  1.00  0.00     0.023 A 
ATOM     88  C   UNL A   1      43.632  35.416  33.263  1.00  0.00     0.031 A 
ATOM     89  C   UNL A   1      43.641  36.461  31.091  1.00  0.00     0.131 A 
ATOM     90  C   UNL A   1      43.831  36.682  33.839  1.00  0.00     0.055 A 
ATOM     91  C   UNL A   1      43.899  37.706  31.664  1.00  0.00     0.041 A 
ATOM     92  F   UNL A   1      43.536  36.404  29.752  1.00  0.00    -0.206 F 
ATOM     93  C   UNL A   1      43.987  37.823  33.047  1.00  0.00     0.022 A 
BRANCH  90  94
ATOM     94  S   UNL A   1      43.816  36.833  35.647  1.00  0.00     0.124 S 
ATOM     95  O   UNL A   1      42.532  36.233  35.992  1.00  0.00    -0.237 OA
ATOM     96  O   UNL A   1      45.001  36.074  36.034  1.00  0.00    -0.237 OA
ATOM     97  O   UNL A   1      43.908  38.275  35.871  1.00  0.00    -0.744 OA
ENDBRANCH  90  94
ENDBRANCH  64  87
ENDBRANCH  38  39
ENDBRANCH  31  33
ENDBRANCH  30  31
ENDBRANCH  29  30
ENDBRANCH  28  29
ENDBRANCH  27  28
ENDBRANCH  26  27
ENDBRANCH   1  26
TORSDOF 23
ENDMDL
MODEL 2
REMARK VINA RESULT:      -9.1      3.450      8.039
REMARK SMILES C[C@@H]1CCCN(C(=O)c2ccncc2/C=C/C(=O)OCCOCCOCCOC(=O)c2ccc(-c3c4nc(c(-c5cc(S(=O)(=O)[O-])ccc5F)c5ccc([nH]5)c(-c5cc(S(=O)(=O)[O-])ccc5F)c5nc(c(-c6cc(S(=O)(=O)[O-])ccc6F)c6ccc3[nH]6)C=C5)C=C4)cc2)[C@@H]1C
REMARK SMILES IDX 23 1 22 2 21 3 20 4 19 5 17 6 18 7 16 8 15 9 14 10 9 11
REMARK SMILES IDX 10 12 11 13 13 14 12 15 7 16 8 17 6 18 1 19 2 20 3 21 94 22
REMARK SMILES IDX 4 23 95 24 5 25 24 26 25 27 26 28 27 29 28 30 29 31 30 32
REMARK SMILES IDX 31 33 32 34 93 35 33 36 92 37 34 38 35 39 36 40 86 41 37 42
REMARK SMILES IDX 91 43 85 44 87 45 38 46 90 47 84 48 83 49 39 51 71 52 51 53
REMARK SMILES IDX 70 54 52 55 55 56 69 57 88 58 53 59 54 60 68 62 89 63 56 64
REMARK SMILES IDX 40 65 41 66 49 67 42 68 48 69 50 70 47 71 43 72 44 73 45 74
REMARK SMILES IDX 46 75 72 76 73 77 81 78 74 79 80 80 82 81 79 82 75 83 76 84
REMARK SMILES IDX 77 85 78 86 57 87 58 88 66 89 59 90 65 91 67 92 64 93 60 94
REMARK SMILES IDX 61 95 62 96 63 97
REMARK H PARENT 87 50 55 61
REMARK Flexibility Score: inf
ROOT
ATOM      1  C   UNL A   1      40.968  20.956  26.452  1.00  0.00     0.188 C 
ENDROOT
BRANCH   1   2
ATOM      2  O   UNL A   1      39.591  21.171  26.653  1.00  0.00    -0.376 OA
BRANCH   2   3
ATOM      3  C   UNL A   1      38.773  21.655  25.603  1.00  0.00     0.202 C 
BRANCH   3   4
ATOM      4  C   UNL A   1      37.483  22.484  25.764  1.00  0.00     0.261 C 
BRANCH   4   5
ATOM      5  O   UNL A   1      37.255  23.565  24.854  1.00  0.00    -0.460 OA
BRANCH   5   6
ATOM      6  C   UNL A   1      36.210  23.394  24.006  1.00  0.00     0.330 C 
ATOM      7  O   UNL A   1      36.284  23.059  22.832  1.00  0.00    -0.247 OA
BRANCH   6   8
ATOM      8  C   UNL A   1      34.899  23.506  24.683  1.00  0.00     0.094 C 
ATOM      9  C   UNL A   1      34.035  24.530  24.573  1.00  0.00     0.018 C 
BRANCH   9  10
ATOM     10  C   UNL A   1      32.718  24.540  25.249  1.00  0.00     0.006 A 
ATOM     11  C   UNL A   1      31.586  25.206  24.745  1.00  0.00     0.050 A 
ATOM     12  C   UNL A   1      30.336  25.051  25.356  1.00  0.00     0.034 A 
ATOM     13  C   UNL A   1      30.270  24.331  26.531  1.00  0.00     0.112 A 
ATOM     14  C   UNL A   1      32.527  23.872  26.459  1.00  0.00     0.119 A 
ATOM     15  N   UNL A   1      31.343  23.763  27.109  1.00  0.00    -0.264 NA
BRANCH  11  16
ATOM     16  C   UNL A   1      31.665  25.995  23.496  1.00  0.00     0.254 C 
ATOM     17  O   UNL A   1      31.670  25.337  22.459  1.00  0.00    -0.269 OA
BRANCH  16  18
ATOM     18  N   UNL A   1      31.751  27.395  23.552  1.00  0.00    -0.336 N 
ATOM     19  C   UNL A   1      33.963  27.726  25.616  1.00  0.00     0.010 C 
ATOM     20  C   UNL A   1      33.560  28.755  24.550  1.00  0.00     0.008 C 
ATOM     21  C   UNL A   1      32.505  29.730  25.105  1.00  0.00     0.007 C 
ATOM     22  C   UNL A   1      33.012  28.110  23.251  1.00  0.00     0.085 C 
ATOM     23  C   UNL A   1      31.146  29.060  25.304  1.00  0.00     0.022 C 
ATOM     24  C   UNL A   1      34.108  27.370  22.479  1.00  0.00     0.031 C 
ATOM     25  C   UNL A   1      30.697  28.286  24.066  1.00  0.00     0.120 C 
ENDBRANCH  16  18
ENDBRANCH  11  16
ENDBRANCH   9  10
ENDBRANCH   6   8
ENDBRANCH   5   6
ENDBRANCH   4   5
ENDBRANCH   3   4
ENDBRANCH   2   3
ENDBRANCH   1   2
BRANCH   1  26
ATOM     26  C   UNL A   1      41.398  19.534  26.041  1.00  0.00     0.188 C 
BRANCH  26  27
ATOM     27  O   UNL A   1      42.537  18.931  26.624  1.00  0.00    -0.376 OA
BRANCH  27  28
ATOM     28  C   UNL A   1      43.637  18.560  25.808  1.00  0.00     0.202 C 
BRANCH  28  29
ATOM     29  C   UNL A   1      44.679  19.552  25.258  1.00  0.00     0.261 C 
BRANCH  29  30
ATOM     30  O   UNL A   1      44.602  20.904  25.718  1.00  0.00    -0.460 OA
BRANCH  30  31
ATOM     31  C   UNL A   1      44.628  21.848  24.746  1.00  0.00     0.338 C 
ATOM     32  O   UNL A   1      44.289  21.716  23.577  1.00  0.00    -0.246 OA
BRANCH  31  33
ATOM     33  C   UNL A   1      44.980  23.142  25.352  1.00  0.00     0.060 A 
ATOM     34  C   UNL A   1      45.517  23.173  26.647  1.00  0.00     0.016 A 
ATOM     35  C   UNL A   1      44.747  24.324  24.648  1.00  0.00     0.016 A 
ATOM     36  C   UNL A   1      45.829  24.394  27.246  1.00  0.00     0.010 A 
ATOM     37  C   UNL A   1      45.031  25.545  25.261  1.00  0.00     0.010 A 
ATOM     38  C   UNL A   1      45.556  25.587  26.568  1.00  0.00    -0.014 A 
BRANCH  38  39
ATOM     39  C   UNL A   1      45.633  26.893  27.265  1.00  0.00     0.031 A 
ATOM     40  C   UNL A   1      44.369  27.451  27.856  1.00  0.00     0.074 A 
ATOM     41  C   UNL A   1      46.782  27.588  27.327  1.00  0.00     0.049 A 
ATOM     42  N   UNL A   1      44.132  28.643  28.336  1.00  0.00    -0.248 NA
ATOM     43  C   UNL A   1      43.215  26.541  27.897  1.00  0.00     0.031 C 
ATOM     44  C   UNL A   1      48.083  27.116  26.856  1.00  0.00     0.029 A 
ATOM     45  N   UNL A   1      47.032  28.855  27.792  1.00  0.00    -0.354 N 
ATOM     46  C   UNL A   1      42.791  28.637  28.707  1.00  0.00     0.074 A 
ATOM     47  C   UNL A   1      42.268  27.328  28.385  1.00  0.00     0.031 C 
ATOM     48  C   UNL A   1      48.990  28.092  27.037  1.00  0.00     0.029 A 
ATOM     49  C   UNL A   1      48.324  29.277  27.578  1.00  0.00     0.049 A 
ATOM     50  H   UNL A   1      46.351  29.410  28.237  1.00  0.00     0.167 HD
ATOM     51  C   UNL A   1      42.068  29.641  29.259  1.00  0.00     0.034 A 
ATOM     52  C   UNL A   1      48.886  30.492  27.754  1.00  0.00     0.034 A 
ATOM     53  C   UNL A   1      42.610  30.941  29.566  1.00  0.00     0.049 A 
ATOM     54  C   UNL A   1      48.028  31.628  28.270  1.00  0.00     0.074 A 
ATOM     55  C   UNL A   1      41.972  32.022  30.149  1.00  0.00     0.029 A 
ATOM     56  N   UNL A   1      43.911  31.344  29.297  1.00  0.00    -0.354 N 
ATOM     57  N   UNL A   1      46.760  31.619  28.614  1.00  0.00    -0.248 NA
ATOM     58  C   UNL A   1      48.676  32.940  28.416  1.00  0.00     0.031 C 
ATOM     59  C   UNL A   1      42.858  33.102  30.149  1.00  0.00     0.029 A 
ATOM     60  C   UNL A   1      44.082  32.669  29.663  1.00  0.00     0.049 A 
ATOM     61  H   UNL A   1      44.610  30.771  28.905  1.00  0.00     0.167 HD
ATOM     62  C   UNL A   1      46.478  32.907  29.064  1.00  0.00     0.074 A 
ATOM     63  C   UNL A   1      47.702  33.668  28.945  1.00  0.00     0.031 C 
ATOM     64  C   UNL A   1      45.314  33.413  29.547  1.00  0.00     0.034 A 
BRANCH  51  65
ATOM     65  C   UNL A   1      40.598  29.395  29.495  1.00  0.00     0.023 A 
ATOM     66  C   UNL A   1      40.052  29.309  30.787  1.00  0.00     0.031 A 
ATOM     67  C   UNL A   1      39.729  29.232  28.400  1.00  0.00     0.131 A 
ATOM     68  C   UNL A   1      38.692  29.007  30.952  1.00  0.00     0.055 A 
ATOM     69  C   UNL A   1      38.362  29.014  28.571  1.00  0.00     0.041 A 
ATOM     70  F   UNL A   1      40.198  29.275  27.143  1.00  0.00    -0.206 F 
ATOM     71  C   UNL A   1      37.838  28.888  29.852  1.00  0.00     0.022 A 
BRANCH  68  72
ATOM     72  S   UNL A   1      38.081  28.636  32.618  1.00  0.00     0.124 S 
ATOM     73  O   UNL A   1      38.155  27.177  32.644  1.00  0.00    -0.237 OA
ATOM     74  O   UNL A   1      39.036  29.338  33.469  1.00  0.00    -0.237 OA
ATOM     75  O   UNL A   1      36.726  29.183  32.617  1.00  0.00    -0.744 OA
ENDBRANCH  68  72
ENDBRANCH  51  65
BRANCH  52  76
ATOM     76  C   UNL A   1      50.316  30.733  27.400  1.00  0.00     0.023 A 
ATOM     77  C   UNL A   1      50.667  31.271  26.151  1.00  0.00     0.031 A 
ATOM     78  C   UNL A   1      51.358  30.355  28.266  1.00  0.00     0.131 A 
ATOM     79  C   UNL A   1      52.017  31.357  25.779  1.00  0.00     0.055 A 
ATOM     80  C   UNL A   1      52.702  30.507  27.919  1.00  0.00     0.041 A 
ATOM     81  F   UNL A   1      51.084  29.825  29.470  1.00  0.00    -0.206 F 
ATOM     82  C   UNL A   1      53.037  30.996  26.660  1.00  0.00     0.022 A 
BRANCH  79  83
ATOM     83  S   UNL A   1      52.417  31.837  24.075  1.00  0.00     0.124 S 
ATOM     84  O   UNL A   1      51.701  33.102  23.951  1.00  0.00    -0.237 OA
ATOM     85  O   UNL A   1      53.872  31.924  24.119  1.00  0.00    -0.237 OA
ATOM     86  O   UNL A   1      51.882  30.737  23.277  1.00  0.00    -0.744 OA
ENDBRANCH  79  83
ENDBRANCH  52  76
BRANCH  64  87
ATOM     87  C   UNL A   1      45.325  34.832  30.066  1.00  0.00     0.023 A 
ATOM     88  C   UNL A   1      45.046  35.936  29.243  1.00  0.00     0.031 A 
ATOM     89  C   UNL A   1      45.585  35.072  31.428  1.00  0.00     0.131 A 
ATOM     90  C   UNL A   1      45.066  37.232  29.783  1.00  0.00     0.055 A 
ATOM     91  C   UNL A   1      45.544  36.356  31.972  1.00  0.00     0.041 A 
ATOM     92  F   UNL A   1      45.862  34.054  32.260  1.00  0.00    -0.206 F 
ATOM     93  C   UNL A   1      45.291  37.446  31.146  1.00  0.00     0.022 A 
BRANCH  90  94
ATOM     94  S   UNL A   1      44.860  38.650  28.670  1.00  0.00     0.124 S 
ATOM     95  O   UNL A   1      46.110  39.374  28.865  1.00  0.00    -0.237 OA
ATOM     96  O   UNL A   1      44.691  38.005  27.371  1.00  0.00    -0.237 OA
ATOM     97  O   UNL A   1      43.667  39.320  29.185  1.00  0.00    -0.744 OA
ENDBRANCH  90  94
ENDBRANCH  64  87
ENDBRANCH  38  39
ENDBRANCH  31  33
ENDBRANCH  30  31
ENDBRANCH  29  30
ENDBRANCH  28  29
ENDBRANCH  27  28
ENDBRANCH  26  27
ENDBRANCH   1  26
TORSDOF 23
ENDMDL
MODEL 3
REMARK VINA RESULT:      -8.9      5.187      7.808
REMARK SMILES C[C@@H]1CCCN(C(=O)c2ccncc2/C=C/C(=O)OCCOCCOCCOC(=O)c2ccc(-c3c4nc(c(-c5cc(S(=O)(=O)[O-])ccc5F)c5ccc([nH]5)c(-c5cc(S(=O)(=O)[O-])ccc5F)c5nc(c(-c6cc(S(=O)(=O)[O-])ccc6F)c6ccc3[nH]6)C=C5)C=C4)cc2)[C@@H]1C
REMARK SMILES IDX 23 1 22 2 21 3 20 4 19 5 17 6 18 7 16 8 15 9 14 10 9 11
REMARK SMILES IDX 10 12 11 13 13 14 12 15 7 16 8 17 6 18 1 19 2 20 3 21 94 22
REMARK SMILES IDX 4 23 95 24 5 25 24 26 25 27 26 28 27 29 28 30 29 31 30 32
REMARK SMILES IDX 31 33 32 34 93 35 33 36 92 37 34 38 35 39 36 40 86 41 37 42
REMARK SMILES IDX 91 43 85 44 87 45 38 46 90 47 84 48 83 49 39 51 71 52 51 53
REMARK SMILES IDX 70 54 52 55 55 56 69 57 88 58 53 59 54 60 68 62 89 63 56 64
REMARK SMILES IDX 40 65 41 66 49 67 42 68 48 69 50 70 47 71 43 72 44 73 45 74
REMARK SMILES IDX 46 75 72 76 73 77 81 78 74 79 80 80 82 81 79 82 75 83 76 84
REMARK SMILES IDX 77 85 78 86 57 87 58 88 66 89 59 90 65 91 67 92 64 93 60 94
REMARK SMILES IDX 61 95 62 96 63 97
REMARK H PARENT 87 50 55 61
REMARK Flexibility Score: inf
ROOT
ATOM      1  C   UNL A   1      42.483  22.047  27.165  1.00  0.00     0.188 C 
ENDROOT
BRANCH   1   2
ATOM      2  O   UNL A   1      41.111  22.047  27.482  1.00  0.00    -0.376 OA
BRANCH   2   3
ATOM      3  C   UNL A   1      40.215  21.175  26.818  1.00  0.00     0.202 C 
BRANCH   3   4
ATOM      4  C   UNL A   1      38.890  21.577  26.138  1.00  0.00     0.261 C 
BRANCH   4   5
ATOM      5  O   UNL A   1      38.779  22.898  25.599  1.00  0.00    -0.460 OA
BRANCH   5   6
ATOM      6  C   UNL A   1      38.792  23.897  26.516  1.00  0.00     0.330 C 
ATOM      7  O   UNL A   1      38.290  23.856  27.631  1.00  0.00    -0.247 OA
BRANCH   6   8
ATOM      8  C   UNL A   1      39.627  25.045  26.101  1.00  0.00     0.094 C 
ATOM      9  C   UNL A   1      40.111  26.007  26.906  1.00  0.00     0.018 C 
BRANCH   9  10
ATOM     10  C   UNL A   1      40.983  27.098  26.414  1.00  0.00     0.006 A 
ATOM     11  C   UNL A   1      41.019  28.385  26.981  1.00  0.00     0.050 A 
ATOM     12  C   UNL A   1      41.973  29.322  26.565  1.00  0.00     0.034 A 
ATOM     13  C   UNL A   1      42.789  28.992  25.502  1.00  0.00     0.112 A 
ATOM     14  C   UNL A   1      41.836  26.900  25.329  1.00  0.00     0.119 A 
ATOM     15  N   UNL A   1      42.721  27.813  24.860  1.00  0.00    -0.264 NA
BRANCH  11  16
ATOM     16  C   UNL A   1      40.127  28.742  28.106  1.00  0.00     0.254 C 
ATOM     17  O   UNL A   1      38.925  28.639  27.876  1.00  0.00    -0.269 OA
BRANCH  16  18
ATOM     18  N   UNL A   1      40.670  29.185  29.322  1.00  0.00    -0.336 N 
ATOM     19  C   UNL A   1      38.704  27.944  31.285  1.00  0.00     0.010 C 
ATOM     20  C   UNL A   1      40.148  28.360  31.594  1.00  0.00     0.008 C 
ATOM     21  C   UNL A   1      40.198  29.807  32.119  1.00  0.00     0.007 C 
ATOM     22  C   UNL A   1      41.098  28.235  30.374  1.00  0.00     0.085 C 
ATOM     23  C   UNL A   1      39.894  30.830  31.025  1.00  0.00     0.022 C 
ATOM     24  C   UNL A   1      41.338  26.773  29.989  1.00  0.00     0.031 C 
ATOM     25  C   UNL A   1      40.721  30.588  29.763  1.00  0.00     0.120 C 
ENDBRANCH  16  18
ENDBRANCH  11  16
ENDBRANCH   9  10
ENDBRANCH   6   8
ENDBRANCH   5   6
ENDBRANCH   4   5
ENDBRANCH   3   4
ENDBRANCH   2   3
ENDBRANCH   1   2
BRANCH   1  26
ATOM     26  C   UNL A   1      42.875  21.515  25.773  1.00  0.00     0.188 C 
BRANCH  26  27
ATOM     27  O   UNL A   1      43.697  20.371  25.646  1.00  0.00    -0.376 OA
BRANCH  27  28
ATOM     28  C   UNL A   1      44.660  20.303  24.606  1.00  0.00     0.202 C 
BRANCH  28  29
ATOM     29  C   UNL A   1      46.126  20.754  24.754  1.00  0.00     0.261 C 
BRANCH  29  30
ATOM     30  O   UNL A   1      46.389  21.840  25.647  1.00  0.00    -0.460 OA
BRANCH  30  31
ATOM     31  C   UNL A   1      46.366  23.072  25.082  1.00  0.00     0.338 C 
ATOM     32  O   UNL A   1      46.419  23.339  23.889  1.00  0.00    -0.246 OA
BRANCH  31  33
ATOM     33  C   UNL A   1      46.096  24.068  26.131  1.00  0.00     0.060 A 
ATOM     34  C   UNL A   1      44.798  24.579  26.278  1.00  0.00     0.016 A 
ATOM     35  C   UNL A   1      47.135  24.517  26.946  1.00  0.00     0.016 A 
ATOM     36  C   UNL A   1      44.532  25.545  27.249  1.00  0.00     0.010 A 
ATOM     37  C   UNL A   1      46.873  25.505  27.896  1.00  0.00     0.010 A 
ATOM     38  C   UNL A   1      45.576  26.036  28.040  1.00  0.00    -0.014 A 
BRANCH  38  39
ATOM     39  C   UNL A   1      45.385  27.232  28.895  1.00  0.00     0.031 A 
ATOM     40  C   UNL A   1      44.948  27.018  30.317  1.00  0.00     0.074 A 
ATOM     41  C   UNL A   1      45.546  28.476  28.409  1.00  0.00     0.049 A 
ATOM     42  N   UNL A   1      44.528  27.888  31.198  1.00  0.00    -0.248 NA
ATOM     43  C   UNL A   1      44.976  25.630  30.802  1.00  0.00     0.031 C 
ATOM     44  C   UNL A   1      46.038  28.804  27.073  1.00  0.00     0.029 A 
ATOM     45  N   UNL A   1      45.287  29.695  28.982  1.00  0.00    -0.354 N 
ATOM     46  C   UNL A   1      44.212  27.149  32.332  1.00  0.00     0.074 A 
ATOM     47  C   UNL A   1      44.477  25.760  32.022  1.00  0.00     0.031 C 
ATOM     48  C   UNL A   1      46.023  30.140  26.921  1.00  0.00     0.029 A 
ATOM     49  C   UNL A   1      45.465  30.757  28.124  1.00  0.00     0.049 A 
ATOM     50  H   UNL A   1      45.001  29.802  29.919  1.00  0.00     0.167 HD
ATOM     51  C   UNL A   1      43.736  27.594  33.520  1.00  0.00     0.034 A 
ATOM     52  C   UNL A   1      45.165  32.064  28.280  1.00  0.00     0.034 A 
ATOM     53  C   UNL A   1      43.473  28.982  33.804  1.00  0.00     0.049 A 
ATOM     54  C   UNL A   1      44.532  32.521  29.577  1.00  0.00     0.074 A 
ATOM     55  C   UNL A   1      43.014  29.546  34.982  1.00  0.00     0.029 A 
ATOM     56  N   UNL A   1      43.626  30.023  32.898  1.00  0.00    -0.354 N 
ATOM     57  N   UNL A   1      44.229  31.818  30.645  1.00  0.00    -0.248 NA
ATOM     58  C   UNL A   1      44.194  33.948  29.689  1.00  0.00     0.031 C 
ATOM     59  C   UNL A   1      42.805  30.910  34.759  1.00  0.00     0.029 A 
ATOM     60  C   UNL A   1      43.231  31.218  33.477  1.00  0.00     0.049 A 
ATOM     61  H   UNL A   1      43.968  29.926  31.979  1.00  0.00     0.167 HD
ATOM     62  C   UNL A   1      43.716  32.727  31.568  1.00  0.00     0.074 A 
ATOM     63  C   UNL A   1      43.745  34.026  30.933  1.00  0.00     0.031 C 
ATOM     64  C   UNL A   1      43.274  32.510  32.833  1.00  0.00     0.034 A 
BRANCH  51  65
ATOM     65  C   UNL A   1      43.400  26.564  34.569  1.00  0.00     0.023 A 
ATOM     66  C   UNL A   1      44.390  25.914  35.324  1.00  0.00     0.031 A 
ATOM     67  C   UNL A   1      42.056  26.219  34.809  1.00  0.00     0.131 A 
ATOM     68  C   UNL A   1      44.028  24.912  36.237  1.00  0.00     0.055 A 
ATOM     69  C   UNL A   1      41.698  25.280  35.776  1.00  0.00     0.041 A 
ATOM     70  F   UNL A   1      41.068  26.785  34.098  1.00  0.00    -0.206 F 
ATOM     71  C   UNL A   1      42.687  24.611  36.489  1.00  0.00     0.022 A 
BRANCH  68  72
ATOM     72  S   UNL A   1      45.338  23.910  36.991  1.00  0.00     0.124 S 
ATOM     73  O   UNL A   1      46.530  24.694  36.676  1.00  0.00    -0.237 OA
ATOM     74  O   UNL A   1      44.946  23.881  38.395  1.00  0.00    -0.237 OA
ATOM     75  O   UNL A   1      45.240  22.632  36.289  1.00  0.00    -0.744 OA
ENDBRANCH  68  72
ENDBRANCH  51  65
BRANCH  52  76
ATOM     76  C   UNL A   1      45.403  33.041  27.176  1.00  0.00     0.023 A 
ATOM     77  C   UNL A   1      46.468  33.953  27.240  1.00  0.00     0.031 A 
ATOM     78  C   UNL A   1      44.523  33.136  26.082  1.00  0.00     0.131 A 
ATOM     79  C   UNL A   1      46.593  34.956  26.267  1.00  0.00     0.055 A 
ATOM     80  C   UNL A   1      44.691  34.093  25.079  1.00  0.00     0.041 A 
ATOM     81  F   UNL A   1      43.480  32.298  25.973  1.00  0.00    -0.206 F 
ATOM     82  C   UNL A   1      45.722  35.022  25.178  1.00  0.00     0.022 A 
BRANCH  79  83
ATOM     83  S   UNL A   1      47.840  36.251  26.513  1.00  0.00     0.124 S 
ATOM     84  O   UNL A   1      47.653  36.574  27.924  1.00  0.00    -0.237 OA
ATOM     85  O   UNL A   1      49.073  35.552  26.172  1.00  0.00    -0.237 OA
ATOM     86  O   UNL A   1      47.435  37.295  25.575  1.00  0.00    -0.744 OA
ENDBRANCH  79  83
ENDBRANCH  52  76
BRANCH  64  87
ATOM     87  C   UNL A   1      42.865  33.712  33.652  1.00  0.00     0.023 A 
ATOM     88  C   UNL A   1      43.789  34.465  34.397  1.00  0.00     0.031 A 
ATOM     89  C   UNL A   1      41.522  34.130  33.650  1.00  0.00     0.131 A 
ATOM     90  C   UNL A   1      43.350  35.576  35.135  1.00  0.00     0.055 A 
ATOM     91  C   UNL A   1      41.102  35.270  34.336  1.00  0.00     0.041 A 
ATOM     92  F   UNL A   1      40.595  33.446  32.959  1.00  0.00    -0.206 F 
ATOM     93  C   UNL A   1      42.018  35.995  35.091  1.00  0.00     0.022 A 
BRANCH  90  94
ATOM     94  S   UNL A   1      44.531  36.434  36.212  1.00  0.00     0.124 S 
ATOM     95  O   UNL A   1      44.837  35.410  37.205  1.00  0.00    -0.237 OA
ATOM     96  O   UNL A   1      45.610  36.771  35.289  1.00  0.00    -0.237 OA
ATOM     97  O   UNL A   1      43.769  37.577  36.714  1.00  0.00    -0.744 OA
ENDBRANCH  90  94
ENDBRANCH  64  87
ENDBRANCH  38  39
ENDBRANCH  31  33
ENDBRANCH  30  31
ENDBRANCH  29  30
ENDBRANCH  28  29
ENDBRANCH  27  28
ENDBRANCH  26  27
ENDBRANCH   1  26
TORSDOF 23
ENDMDL
