MODEL 1
REMARK VINA RESULT:     -10.2      0.000      0.000
REMARK SMILES Cc1oc(CNC(=O)c2ccnn2C)cc1C(=O)OCCOCCOCCOC(=O)c1ccc(-c2c3nc(c(-c4cc(S(=O)(=O)[O-])ccc4F)c4ccc([nH]4)c(-c4cc(S(=O)(=O)[O-])ccc4F)c4nc(c(-c5cc(S(=O)(=O)[O-])ccc5F)c5ccc2[nH]5)C=C4)C=C3)cc1
REMARK SMILES IDX 23 1 22 2 21 3 20 4 19 5 17 6 18 7 16 8 1 9 2 10 3 11 4 12
REMARK SMILES IDX 15 13 5 14 6 15 7 16 8 18 9 19 10 20 13 21 11 22 12 23 14 24
REMARK SMILES IDX 24 25 25 26 26 27 27 28 28 29 29 30 30 31 31 32 32 33 93 34
REMARK SMILES IDX 33 35 92 36 34 37 35 38 36 39 86 40 37 41 91 42 85 43 87 44
REMARK SMILES IDX 38 45 90 46 84 47 83 48 39 50 71 51 51 52 70 53 52 54 55 55
REMARK SMILES IDX 69 56 88 57 53 58 54 59 68 61 89 62 56 63 40 64 41 65 49 66
REMARK SMILES IDX 42 67 48 68 50 69 47 70 43 71 44 72 45 73 46 74 72 75 73 76
REMARK SMILES IDX 81 77 74 78 80 79 82 80 79 81 75 82 76 83 77 84 78 85 57 86
REMARK SMILES IDX 58 87 66 88 59 89 65 90 67 91 64 92 60 93 61 94 62 95 63 96
REMARK H PARENT 6 17 87 49 55 60
REMARK Flexibility Score: inf
ROOT
ATOM      1  C   UNL A   1      31.770  29.904  25.313  1.00  0.00     0.188 C 
ENDROOT
BRANCH   1   2
ATOM      2  O   UNL A   1      30.643  29.226  24.763  1.00  0.00    -0.376 OA
BRANCH   2   3
ATOM      3  C   UNL A   1      30.057  29.687  23.554  1.00  0.00     0.202 C 
BRANCH   3   4
ATOM      4  C   UNL A   1      30.539  29.031  22.260  1.00  0.00     0.261 C 
BRANCH   4   5
ATOM      5  O   UNL A   1      31.052  27.709  22.483  1.00  0.00    -0.460 OA
BRANCH   5   6
ATOM      6  C   UNL A   1      32.409  27.598  22.426  1.00  0.00     0.341 C 
ATOM      7  O   UNL A   1      33.184  28.546  22.464  1.00  0.00    -0.246 OA
BRANCH   6   8
ATOM      8  C   UNL A   1      32.874  26.227  22.475  1.00  0.00     0.101 A 
ATOM      9  C   UNL A   1      32.639  25.272  20.021  1.00  0.00     0.088 C 
ATOM     10  C   UNL A   1      32.943  25.276  21.469  1.00  0.00     0.115 A 
ATOM     11  O   UNL A   1      33.471  24.111  21.958  1.00  0.00    -0.464 OA
ATOM     12  C   UNL A   1      33.740  24.309  23.279  1.00  0.00     0.124 A 
ATOM     13  C   UNL A   1      33.376  25.585  23.641  1.00  0.00     0.063 A 
BRANCH  12  14
ATOM     14  C   UNL A   1      34.450  23.258  24.044  1.00  0.00     0.191 C 
BRANCH  14  15
ATOM     15  N   UNL A   1      33.825  21.963  23.936  1.00  0.00    -0.343 N 
ATOM     16  C   UNL A   1      32.743  21.471  24.616  1.00  0.00     0.269 C 
ATOM     17  H   UNL A   1      34.234  21.348  23.286  1.00  0.00     0.164 HD
ATOM     18  O   UNL A   1      32.433  20.295  24.436  1.00  0.00    -0.268 OA
BRANCH  16  19
ATOM     19  C   UNL A   1      32.064  22.306  25.572  1.00  0.00     0.125 A 
ATOM     20  C   UNL A   1      30.946  23.087  25.333  1.00  0.00     0.055 A 
ATOM     21  N   UNL A   1      32.407  22.580  26.875  1.00  0.00    -0.263 N 
ATOM     22  C   UNL A   1      30.627  23.675  26.565  1.00  0.00     0.136 A 
ATOM     23  N   UNL A   1      31.496  23.344  27.519  1.00  0.00    -0.181 NA
ATOM     24  C   UNL A   1      33.588  22.173  27.604  1.00  0.00     0.174 C 
ENDBRANCH  16  19
ENDBRANCH  14  15
ENDBRANCH  12  14
ENDBRANCH   6   8
ENDBRANCH   5   6
ENDBRANCH   4   5
ENDBRANCH   3   4
ENDBRANCH   2   3
ENDBRANCH   1   2
BRANCH   1  25
ATOM     25  C   UNL A   1      32.066  29.808  26.822  1.00  0.00     0.188 C 
BRANCH  25  26
ATOM     26  O   UNL A   1      32.458  31.035  27.423  1.00  0.00    -0.376 OA
BRANCH  26  27
ATOM     27  C   UNL A   1      32.156  32.206  26.677  1.00  0.00     0.202 C 
BRANCH  27  28
ATOM     28  C   UNL A   1      32.297  33.489  27.501  1.00  0.00     0.261 C 
BRANCH  28  29
ATOM     29  O   UNL A   1      33.334  33.453  28.494  1.00  0.00    -0.460 OA
BRANCH  29  30
ATOM     30  C   UNL A   1      34.486  34.095  28.189  1.00  0.00     0.338 C 
ATOM     31  O   UNL A   1      34.603  35.238  27.787  1.00  0.00    -0.246 OA
BRANCH  30  32
ATOM     32  C   UNL A   1      35.610  33.222  28.580  1.00  0.00     0.060 A 
ATOM     33  C   UNL A   1      35.350  31.888  28.911  1.00  0.00     0.016 A 
ATOM     34  C   UNL A   1      36.914  33.726  28.628  1.00  0.00     0.016 A 
ATOM     35  C   UNL A   1      36.398  31.057  29.319  1.00  0.00     0.010 A 
ATOM     36  C   UNL A   1      37.956  32.898  29.049  1.00  0.00     0.010 A 
ATOM     37  C   UNL A   1      37.700  31.567  29.419  1.00  0.00    -0.014 A 
BRANCH  37  38
ATOM     38  C   UNL A   1      38.769  30.768  30.068  1.00  0.00     0.031 A 
ATOM     39  C   UNL A   1      39.169  31.117  31.477  1.00  0.00     0.074 A 
ATOM     40  C   UNL A   1      39.385  29.765  29.419  1.00  0.00     0.049 A 
ATOM     41  N   UNL A   1      40.109  30.600  32.225  1.00  0.00    -0.248 NA
ATOM     42  C   UNL A   1      38.406  32.196  32.120  1.00  0.00     0.031 C 
ATOM     43  C   UNL A   1      39.073  29.319  28.062  1.00  0.00     0.029 A 
ATOM     44  N   UNL A   1      40.416  28.949  29.813  1.00  0.00    -0.354 N 
ATOM     45  C   UNL A   1      40.049  31.289  33.432  1.00  0.00     0.074 A 
ATOM     46  C   UNL A   1      39.005  32.283  33.298  1.00  0.00     0.031 C 
ATOM     47  C   UNL A   1      39.910  28.319  27.730  1.00  0.00     0.029 A 
ATOM     48  C   UNL A   1      40.835  28.076  28.837  1.00  0.00     0.049 A 
ATOM     49  H   UNL A   1      40.818  28.985  30.712  1.00  0.00     0.167 HD
ATOM     50  C   UNL A   1      40.790  31.105  34.553  1.00  0.00     0.034 A 
ATOM     51  C   UNL A   1      41.863  27.203  28.830  1.00  0.00     0.034 A 
ATOM     52  C   UNL A   1      41.850  30.135  34.668  1.00  0.00     0.049 A 
ATOM     53  C   UNL A   1      42.735  27.076  30.058  1.00  0.00     0.074 A 
ATOM     54  C   UNL A   1      42.655  29.861  35.761  1.00  0.00     0.029 A 
ATOM     55  N   UNL A   1      42.268  29.291  33.648  1.00  0.00    -0.354 N 
ATOM     56  N   UNL A   1      42.652  27.716  31.201  1.00  0.00    -0.248 NA
ATOM     57  C   UNL A   1      43.836  26.104  29.992  1.00  0.00     0.031 C 
ATOM     58  C   UNL A   1      43.599  28.899  35.381  1.00  0.00     0.029 A 
ATOM     59  C   UNL A   1      43.338  28.520  34.074  1.00  0.00     0.049 A 
ATOM     60  H   UNL A   1      41.862  29.247  32.752  1.00  0.00     0.167 HD
ATOM     61  C   UNL A   1      43.671  27.201  32.000  1.00  0.00     0.074 A 
ATOM     62  C   UNL A   1      44.348  26.194  31.211  1.00  0.00     0.031 C 
ATOM     63  C   UNL A   1      44.012  27.526  33.273  1.00  0.00     0.034 A 
BRANCH  50  64
ATOM     64  C   UNL A   1      40.502  32.016  35.719  1.00  0.00     0.023 A 
ATOM     65  C   UNL A   1      39.399  31.802  36.565  1.00  0.00     0.031 A 
ATOM     66  C   UNL A   1      41.313  33.138  35.962  1.00  0.00     0.131 A 
ATOM     67  C   UNL A   1      39.096  32.735  37.568  1.00  0.00     0.055 A 
ATOM     68  C   UNL A   1      41.049  34.023  37.010  1.00  0.00     0.041 A 
ATOM     69  F   UNL A   1      42.366  33.404  35.173  1.00  0.00    -0.206 F 
ATOM     70  C   UNL A   1      39.926  33.832  37.810  1.00  0.00     0.022 A 
BRANCH  67  71
ATOM     71  S   UNL A   1      37.523  32.572  38.456  1.00  0.00     0.124 S 
ATOM     72  O   UNL A   1      37.459  31.129  38.678  1.00  0.00    -0.237 OA
ATOM     73  O   UNL A   1      37.743  33.392  39.641  1.00  0.00    -0.237 OA
ATOM     74  O   UNL A   1      36.540  33.093  37.509  1.00  0.00    -0.744 OA
ENDBRANCH  67  71
ENDBRANCH  50  64
BRANCH  51  75
ATOM     75  C   UNL A   1      42.166  26.401  27.610  1.00  0.00     0.023 A 
ATOM     76  C   UNL A   1      41.762  25.062  27.503  1.00  0.00     0.031 A 
ATOM     77  C   UNL A   1      42.924  26.950  26.561  1.00  0.00     0.131 A 
ATOM     78  C   UNL A   1      42.155  24.301  26.391  1.00  0.00     0.055 A 
ATOM     79  C   UNL A   1      43.273  26.202  25.434  1.00  0.00     0.041 A 
ATOM     80  F   UNL A   1      43.335  28.227  26.614  1.00  0.00    -0.206 F 
ATOM     81  C   UNL A   1      42.898  24.865  25.351  1.00  0.00     0.022 A 
BRANCH  78  82
ATOM     82  S   UNL A   1      41.739  22.535  26.358  1.00  0.00     0.124 S 
ATOM     83  O   UNL A   1      42.437  22.089  25.158  1.00  0.00    -0.237 OA
ATOM     84  O   UNL A   1      42.288  22.074  27.630  1.00  0.00    -0.237 OA
ATOM     85  O   UNL A   1      40.281  22.531  26.273  1.00  0.00    -0.744 OA
ENDBRANCH  78  82
ENDBRANCH  51  75
BRANCH  63  86
ATOM     86  C   UNL A   1      45.139  26.746  33.905  1.00  0.00     0.023 A 
ATOM     87  C   UNL A   1      44.921  25.516  34.551  1.00  0.00     0.031 A 
ATOM     88  C   UNL A   1      46.452  27.248  33.863  1.00  0.00     0.131 A 
ATOM     89  C   UNL A   1      45.992  24.852  35.169  1.00  0.00     0.055 A 
ATOM     90  C   UNL A   1      47.522  26.557  34.434  1.00  0.00     0.041 A 
ATOM     91  F   UNL A   1      46.716  28.418  33.260  1.00  0.00    -0.206 F 
ATOM     92  C   UNL A   1      47.293  25.358  35.102  1.00  0.00     0.022 A 
BRANCH  89  93
ATOM     93  S   UNL A   1      45.652  23.352  36.131  1.00  0.00     0.124 S 
ATOM     94  O   UNL A   1      46.996  22.839  36.379  1.00  0.00    -0.237 OA
ATOM     95  O   UNL A   1      44.946  23.880  37.294  1.00  0.00    -0.237 OA
ATOM     96  O   UNL A   1      44.836  22.542  35.228  1.00  0.00    -0.744 OA
ENDBRANCH  89  93
ENDBRANCH  63  86
ENDBRANCH  37  38
ENDBRANCH  30  32
ENDBRANCH  29  30
ENDBRANCH  28  29
ENDBRANCH  27  28
ENDBRANCH  26  27
ENDBRANCH  25  26
ENDBRANCH   1  25
TORSDOF 23
ENDMDL
MODEL 2
REMARK VINA RESULT:      -9.7      2.376      3.376
REMARK SMILES Cc1oc(CNC(=O)c2ccnn2C)cc1C(=O)OCCOCCOCCOC(=O)c1ccc(-c2c3nc(c(-c4cc(S(=O)(=O)[O-])ccc4F)c4ccc([nH]4)c(-c4cc(S(=O)(=O)[O-])ccc4F)c4nc(c(-c5cc(S(=O)(=O)[O-])ccc5F)c5ccc2[nH]5)C=C4)C=C3)cc1
REMARK SMILES IDX 23 1 22 2 21 3 20 4 19 5 17 6 18 7 16 8 1 9 2 10 3 11 4 12
REMARK SMILES IDX 15 13 5 14 6 15 7 16 8 18 9 19 10 20 13 21 11 22 12 23 14 24
REMARK SMILES IDX 24 25 25 26 26 27 27 28 28 29 29 30 30 31 31 32 32 33 93 34
REMARK SMILES IDX 33 35 92 36 34 37 35 38 36 39 86 40 37 41 91 42 85 43 87 44
REMARK SMILES IDX 38 45 90 46 84 47 83 48 39 50 71 51 51 52 70 53 52 54 55 55
REMARK SMILES IDX 69 56 88 57 53 58 54 59 68 61 89 62 56 63 40 64 41 65 49 66
REMARK SMILES IDX 42 67 48 68 50 69 47 70 43 71 44 72 45 73 46 74 72 75 73 76
REMARK SMILES IDX 81 77 74 78 80 79 82 80 79 81 75 82 76 83 77 84 78 85 57 86
REMARK SMILES IDX 58 87 66 88 59 89 65 90 67 91 64 92 60 93 61 94 62 95 63 96
REMARK H PARENT 6 17 87 49 55 60
REMARK Flexibility Score: inf
ROOT
ATOM      1  C   UNL A   1      35.118  32.381  28.585  1.00  0.00     0.188 C 
ENDROOT
BRANCH   1   2
ATOM      2  O   UNL A   1      35.585  31.380  27.684  1.00  0.00    -0.376 OA
BRANCH   2   3
ATOM      3  C   UNL A   1      34.781  30.242  27.408  1.00  0.00     0.202 C 
BRANCH   3   4
ATOM      4  C   UNL A   1      33.267  30.457  27.381  1.00  0.00     0.261 C 
BRANCH   4   5
ATOM      5  O   UNL A   1      32.557  29.253  27.057  1.00  0.00    -0.460 OA
BRANCH   5   6
ATOM      6  C   UNL A   1      31.925  29.262  25.850  1.00  0.00     0.341 C 
ATOM      7  O   UNL A   1      31.375  30.243  25.362  1.00  0.00    -0.246 OA
BRANCH   6   8
ATOM      8  C   UNL A   1      32.097  28.032  25.104  1.00  0.00     0.101 A 
ATOM      9  C   UNL A   1      29.912  27.733  23.646  1.00  0.00     0.088 C 
ATOM     10  C   UNL A   1      31.240  27.409  24.210  1.00  0.00     0.115 A 
ATOM     11  O   UNL A   1      31.820  26.269  23.719  1.00  0.00    -0.464 OA
ATOM     12  C   UNL A   1      33.048  26.156  24.299  1.00  0.00     0.124 A 
ATOM     13  C   UNL A   1      33.253  27.205  25.164  1.00  0.00     0.063 A 
BRANCH  12  14
ATOM     14  C   UNL A   1      33.968  25.084  23.854  1.00  0.00     0.191 C 
BRANCH  14  15
ATOM     15  N   UNL A   1      34.797  24.574  24.919  1.00  0.00    -0.343 N 
ATOM     16  C   UNL A   1      34.635  23.439  25.667  1.00  0.00     0.269 C 
ATOM     17  H   UNL A   1      35.587  25.118  25.138  1.00  0.00     0.164 HD
ATOM     18  O   UNL A   1      35.415  23.242  26.596  1.00  0.00    -0.268 OA
BRANCH  16  19
ATOM     19  C   UNL A   1      33.520  22.566  25.403  1.00  0.00     0.125 A 
ATOM     20  C   UNL A   1      33.490  21.523  24.493  1.00  0.00     0.055 A 
ATOM     21  N   UNL A   1      32.243  22.621  25.910  1.00  0.00    -0.263 N 
ATOM     22  C   UNL A   1      32.220  20.945  24.625  1.00  0.00     0.136 A 
ATOM     23  N   UNL A   1      31.464  21.590  25.512  1.00  0.00    -0.181 NA
ATOM     24  C   UNL A   1      31.656  23.619  26.777  1.00  0.00     0.174 C 
ENDBRANCH  16  19
ENDBRANCH  14  15
ENDBRANCH  12  14
ENDBRANCH   6   8
ENDBRANCH   5   6
ENDBRANCH   4   5
ENDBRANCH   3   4
ENDBRANCH   2   3
ENDBRANCH   1   2
BRANCH   1  25
ATOM     25  C   UNL A   1      35.075  33.857  28.141  1.00  0.00     0.188 C 
BRANCH  25  26
ATOM     26  O   UNL A   1      33.783  34.447  28.190  1.00  0.00    -0.376 OA
BRANCH  26  27
ATOM     27  C   UNL A   1      33.759  35.853  28.388  1.00  0.00     0.202 C 
BRANCH  27  28
ATOM     28  C   UNL A   1      32.980  36.265  29.641  1.00  0.00     0.261 C 
BRANCH  28  29
ATOM     29  O   UNL A   1      32.752  35.202  30.580  1.00  0.00    -0.460 OA
BRANCH  29  30
ATOM     30  C   UNL A   1      33.281  35.363  31.815  1.00  0.00     0.338 C 
ATOM     31  O   UNL A   1      32.815  36.014  32.732  1.00  0.00    -0.246 OA
BRANCH  30  32
ATOM     32  C   UNL A   1      34.455  34.474  31.926  1.00  0.00     0.060 A 
ATOM     33  C   UNL A   1      34.278  33.173  32.408  1.00  0.00     0.016 A 
ATOM     34  C   UNL A   1      35.725  34.932  31.562  1.00  0.00     0.016 A 
ATOM     35  C   UNL A   1      35.384  32.331  32.552  1.00  0.00     0.010 A 
ATOM     36  C   UNL A   1      36.829  34.094  31.721  1.00  0.00     0.010 A 
ATOM     37  C   UNL A   1      36.668  32.797  32.239  1.00  0.00    -0.014 A 
BRANCH  37  38
ATOM     38  C   UNL A   1      37.865  32.001  32.606  1.00  0.00     0.031 A 
ATOM     39  C   UNL A   1      38.587  32.339  33.882  1.00  0.00     0.074 A 
ATOM     40  C   UNL A   1      38.314  31.009  31.817  1.00  0.00     0.049 A 
ATOM     41  N   UNL A   1      39.681  31.823  34.380  1.00  0.00    -0.248 NA
ATOM     42  C   UNL A   1      37.994  33.406  34.701  1.00  0.00     0.031 C 
ATOM     43  C   UNL A   1      37.690  30.574  30.568  1.00  0.00     0.029 A 
ATOM     44  N   UNL A   1      39.414  30.197  31.945  1.00  0.00    -0.354 N 
ATOM     45  C   UNL A   1      39.907  32.499  35.573  1.00  0.00     0.074 A 
ATOM     46  C   UNL A   1      38.855  33.486  35.703  1.00  0.00     0.031 C 
ATOM     47  C   UNL A   1      38.429  29.584  30.035  1.00  0.00     0.029 A 
ATOM     48  C   UNL A   1      39.592  29.337  30.888  1.00  0.00     0.049 A 
ATOM     49  H   UNL A   1      40.018  30.228  32.723  1.00  0.00     0.167 HD
ATOM     50  C   UNL A   1      40.894  32.310  36.484  1.00  0.00     0.034 A 
ATOM     51  C   UNL A   1      40.594  28.472  30.627  1.00  0.00     0.034 A 
ATOM     52  C   UNL A   1      41.956  31.347  36.333  1.00  0.00     0.049 A 
ATOM     53  C   UNL A   1      41.734  28.340  31.610  1.00  0.00     0.074 A 
ATOM     54  C   UNL A   1      42.999  31.069  37.199  1.00  0.00     0.029 A 
ATOM     55  N   UNL A   1      42.123  30.516  35.233  1.00  0.00    -0.354 N 
ATOM     56  N   UNL A   1      41.922  28.968  32.747  1.00  0.00    -0.248 NA
ATOM     57  C   UNL A   1      42.792  27.377  31.273  1.00  0.00     0.031 C 
ATOM     58  C   UNL A   1      43.831  30.118  36.595  1.00  0.00     0.029 A 
ATOM     59  C   UNL A   1      43.268  29.749  35.383  1.00  0.00     0.049 A 
ATOM     60  H   UNL A   1      41.516  30.478  34.458  1.00  0.00     0.167 HD
ATOM     61  C   UNL A   1      43.105  28.453  33.275  1.00  0.00     0.074 A 
ATOM     62  C   UNL A   1      43.580  27.459  32.336  1.00  0.00     0.031 C 
ATOM     63  C   UNL A   1      43.737  28.768  34.434  1.00  0.00     0.034 A 
BRANCH  50  64
ATOM     64  C   UNL A   1      40.887  33.207  37.695  1.00  0.00     0.023 A 
ATOM     65  C   UNL A   1      40.166  32.872  38.855  1.00  0.00     0.031 A 
ATOM     66  C   UNL A   1      41.573  34.434  37.675  1.00  0.00     0.131 A 
ATOM     67  C   UNL A   1      40.088  33.785  39.918  1.00  0.00     0.055 A 
ATOM     68  C   UNL A   1      41.552  35.306  38.767  1.00  0.00     0.041 A 
ATOM     69  F   UNL A   1      42.258  34.816  36.587  1.00  0.00    -0.206 F 
ATOM     70  C   UNL A   1      40.795  34.989  39.890  1.00  0.00     0.022 A 
BRANCH  67  71
ATOM     71  S   UNL A   1      38.935  33.437  41.274  1.00  0.00     0.124 S 
ATOM     72  O   UNL A   1      39.850  33.053  42.347  1.00  0.00    -0.237 OA
ATOM     73  O   UNL A   1      38.253  34.714  41.444  1.00  0.00    -0.237 OA
ATOM     74  O   UNL A   1      38.108  32.352  40.751  1.00  0.00    -0.744 OA
ENDBRANCH  67  71
ENDBRANCH  50  64
BRANCH  51  75
ATOM     75  C   UNL A   1      40.602  27.684  29.361  1.00  0.00     0.023 A 
ATOM     76  C   UNL A   1      41.476  28.006  28.311  1.00  0.00     0.031 A 
ATOM     77  C   UNL A   1      39.687  26.636  29.162  1.00  0.00     0.131 A 
ATOM     78  C   UNL A   1      41.387  27.316  27.092  1.00  0.00     0.055 A 
ATOM     79  C   UNL A   1      39.634  25.921  27.964  1.00  0.00     0.041 A 
ATOM     80  F   UNL A   1      38.830  26.288  30.135  1.00  0.00    -0.206 F 
ATOM     81  C   UNL A   1      40.479  26.269  26.915  1.00  0.00     0.022 A 
BRANCH  78  82
ATOM     82  S   UNL A   1      42.431  27.859  25.711  1.00  0.00     0.124 S 
ATOM     83  O   UNL A   1      43.740  27.949  26.345  1.00  0.00    -0.237 OA
ATOM     84  O   UNL A   1      42.253  26.770  24.755  1.00  0.00    -0.237 OA
ATOM     85  O   UNL A   1      41.836  29.134  25.316  1.00  0.00    -0.744 OA
ENDBRANCH  78  82
ENDBRANCH  51  75
BRANCH  63  86
ATOM     86  C   UNL A   1      44.986  27.991  34.771  1.00  0.00     0.023 A 
ATOM     87  C   UNL A   1      44.933  26.738  35.408  1.00  0.00     0.031 A 
ATOM     88  C   UNL A   1      46.251  28.518  34.452  1.00  0.00     0.131 A 
ATOM     89  C   UNL A   1      46.124  26.076  35.747  1.00  0.00     0.055 A 
ATOM     90  C   UNL A   1      47.429  27.831  34.745  1.00  0.00     0.041 A 
ATOM     91  F   UNL A   1      46.359  29.711  33.844  1.00  0.00    -0.206 F 
ATOM     92  C   UNL A   1      47.370  26.608  35.407  1.00  0.00     0.022 A 
BRANCH  89  93
ATOM     93  S   UNL A   1      46.025  24.543  36.711  1.00  0.00     0.124 S 
ATOM     94  O   UNL A   1      47.155  24.685  37.625  1.00  0.00    -0.237 OA
ATOM     95  O   UNL A   1      44.701  24.638  37.315  1.00  0.00    -0.237 OA
ATOM     96  O   UNL A   1      46.172  23.494  35.703  1.00  0.00    -0.744 OA
ENDBRANCH  89  93
ENDBRANCH  63  86
ENDBRANCH  37  38
ENDBRANCH  30  32
ENDBRANCH  29  30
ENDBRANCH  28  29
ENDBRANCH  27  28
ENDBRANCH  26  27
ENDBRANCH  25  26
ENDBRANCH   1  25
TORSDOF 23
ENDMDL
MODEL 3
REMARK VINA RESULT:      -9.6      4.829     10.515
REMARK SMILES Cc1oc(CNC(=O)c2ccnn2C)cc1C(=O)OCCOCCOCCOC(=O)c1ccc(-c2c3nc(c(-c4cc(S(=O)(=O)[O-])ccc4F)c4ccc([nH]4)c(-c4cc(S(=O)(=O)[O-])ccc4F)c4nc(c(-c5cc(S(=O)(=O)[O-])ccc5F)c5ccc2[nH]5)C=C4)C=C3)cc1
REMARK SMILES IDX 23 1 22 2 21 3 20 4 19 5 17 6 18 7 16 8 1 9 2 10 3 11 4 12
REMARK SMILES IDX 15 13 5 14 6 15 7 16 8 18 9 19 10 20 13 21 11 22 12 23 14 24
REMARK SMILES IDX 24 25 25 26 26 27 27 28 28 29 29 30 30 31 31 32 32 33 93 34
REMARK SMILES IDX 33 35 92 36 34 37 35 38 36 39 86 40 37 41 91 42 85 43 87 44
REMARK SMILES IDX 38 45 90 46 84 47 83 48 39 50 71 51 51 52 70 53 52 54 55 55
REMARK SMILES IDX 69 56 88 57 53 58 54 59 68 61 89 62 56 63 40 64 41 65 49 66
REMARK SMILES IDX 42 67 48 68 50 69 47 70 43 71 44 72 45 73 46 74 72 75 73 76
REMARK SMILES IDX 81 77 74 78 80 79 82 80 79 81 75 82 76 83 77 84 78 85 57 86
REMARK SMILES IDX 58 87 66 88 59 89 65 90 67 91 64 92 60 93 61 94 62 95 63 96
REMARK H PARENT 6 17 87 49 55 60
REMARK Flexibility Score: inf
ROOT
ATOM      1  C   UNL A   1      35.406  21.422  25.835  1.00  0.00     0.188 C 
ENDROOT
BRANCH   1   2
ATOM      2  O   UNL A   1      35.289  22.405  26.861  1.00  0.00    -0.376 OA
BRANCH   2   3
ATOM      3  C   UNL A   1      34.165  23.273  26.887  1.00  0.00     0.202 C 
BRANCH   3   4
ATOM      4  C   UNL A   1      32.854  22.689  27.415  1.00  0.00     0.261 C 
BRANCH   4   5
ATOM      5  O   UNL A   1      32.056  22.120  26.367  1.00  0.00    -0.460 OA
BRANCH   5   6
ATOM      6  C   UNL A   1      31.140  22.965  25.814  1.00  0.00     0.341 C 
ATOM      7  O   UNL A   1      30.170  23.420  26.407  1.00  0.00    -0.246 OA
BRANCH   6   8
ATOM      8  C   UNL A   1      31.506  23.415  24.486  1.00  0.00     0.101 A 
ATOM      9  C   UNL A   1      32.355  21.276  23.184  1.00  0.00     0.088 C 
ATOM     10  C   UNL A   1      32.024  22.699  23.418  1.00  0.00     0.115 A 
ATOM     11  O   UNL A   1      32.199  23.524  22.339  1.00  0.00    -0.464 OA
ATOM     12  C   UNL A   1      31.798  24.772  22.712  1.00  0.00     0.124 A 
ATOM     13  C   UNL A   1      31.379  24.753  24.022  1.00  0.00     0.063 A 
BRANCH  12  14
ATOM     14  C   UNL A   1      31.745  25.853  21.701  1.00  0.00     0.191 C 
BRANCH  14  15
ATOM     15  N   UNL A   1      32.976  26.597  21.606  1.00  0.00    -0.343 N 
ATOM     16  C   UNL A   1      33.319  27.775  22.215  1.00  0.00     0.269 C 
ATOM     17  H   UNL A   1      33.665  26.204  21.022  1.00  0.00     0.164 HD
ATOM     18  O   UNL A   1      34.396  28.288  21.917  1.00  0.00    -0.268 OA
BRANCH  16  19
ATOM     19  C   UNL A   1      32.386  28.413  23.106  1.00  0.00     0.125 A 
ATOM     20  C   UNL A   1      31.197  29.026  22.749  1.00  0.00     0.055 A 
ATOM     21  N   UNL A   1      32.497  28.633  24.458  1.00  0.00    -0.263 N 
ATOM     22  C   UNL A   1      30.619  29.456  23.952  1.00  0.00     0.136 A 
ATOM     23  N   UNL A   1      31.392  29.190  25.003  1.00  0.00    -0.181 NA
ATOM     24  C   UNL A   1      33.618  28.359  25.330  1.00  0.00     0.174 C 
ENDBRANCH  16  19
ENDBRANCH  14  15
ENDBRANCH  12  14
ENDBRANCH   6   8
ENDBRANCH   5   6
ENDBRANCH   4   5
ENDBRANCH   3   4
ENDBRANCH   2   3
ENDBRANCH   1   2
BRANCH   1  25
ATOM     25  C   UNL A   1      35.896  21.829  24.431  1.00  0.00     0.188 C 
BRANCH  25  26
ATOM     26  O   UNL A   1      37.168  21.303  24.078  1.00  0.00    -0.376 OA
BRANCH  26  27
ATOM     27  C   UNL A   1      37.756  20.429  25.031  1.00  0.00     0.202 C 
BRANCH  27  28
ATOM     28  C   UNL A   1      38.791  21.125  25.919  1.00  0.00     0.261 C 
BRANCH  28  29
ATOM     29  O   UNL A   1      39.671  20.235  26.624  1.00  0.00    -0.460 OA
BRANCH  29  30
ATOM     30  C   UNL A   1      40.988  20.546  26.608  1.00  0.00     0.338 C 
ATOM     31  O   UNL A   1      41.903  19.837  26.233  1.00  0.00    -0.246 OA
BRANCH  30  32
ATOM     32  C   UNL A   1      41.123  21.970  26.975  1.00  0.00     0.060 A 
ATOM     33  C   UNL A   1      40.732  22.948  26.055  1.00  0.00     0.016 A 
ATOM     34  C   UNL A   1      41.643  22.332  28.221  1.00  0.00     0.016 A 
ATOM     35  C   UNL A   1      40.886  24.300  26.373  1.00  0.00     0.010 A 
ATOM     36  C   UNL A   1      41.810  23.683  28.530  1.00  0.00     0.010 A 
ATOM     37  C   UNL A   1      41.454  24.674  27.599  1.00  0.00    -0.014 A 
BRANCH  37  38
ATOM     38  C   UNL A   1      41.837  26.085  27.849  1.00  0.00     0.031 A 
ATOM     39  C   UNL A   1      43.198  26.550  27.405  1.00  0.00     0.074 A 
ATOM     40  C   UNL A   1      41.002  26.936  28.472  1.00  0.00     0.049 A 
ATOM     41  N   UNL A   1      43.771  27.714  27.564  1.00  0.00    -0.248 NA
ATOM     42  C   UNL A   1      44.019  25.561  26.691  1.00  0.00     0.031 C 
ATOM     43  C   UNL A   1      39.652  26.612  28.931  1.00  0.00     0.029 A 
ATOM     44  N   UNL A   1      41.178  28.247  28.840  1.00  0.00    -0.354 N 
ATOM     45  C   UNL A   1      45.021  27.602  26.965  1.00  0.00     0.074 A 
ATOM     46  C   UNL A   1      45.133  26.244  26.475  1.00  0.00     0.031 C 
ATOM     47  C   UNL A   1      39.128  27.693  29.536  1.00  0.00     0.029 A 
ATOM     48  C   UNL A   1      40.114  28.773  29.535  1.00  0.00     0.049 A 
ATOM     49  H   UNL A   1      41.989  28.762  28.625  1.00  0.00     0.167 HD
ATOM     50  C   UNL A   1      45.986  28.546  26.827  1.00  0.00     0.034 A 
ATOM     51  C   UNL A   1      39.968  29.978  30.125  1.00  0.00     0.034 A 
ATOM     52  C   UNL A   1      45.881  29.886  27.347  1.00  0.00     0.049 A 
ATOM     53  C   UNL A   1      41.091  30.986  30.039  1.00  0.00     0.074 A 
ATOM     54  C   UNL A   1      46.794  30.922  27.255  1.00  0.00     0.029 A 
ATOM     55  N   UNL A   1      44.802  30.374  28.074  1.00  0.00    -0.354 N 
ATOM     56  N   UNL A   1      42.258  30.875  29.448  1.00  0.00    -0.248 NA
ATOM     57  C   UNL A   1      40.870  32.281  30.696  1.00  0.00     0.031 C 
ATOM     58  C   UNL A   1      46.297  32.012  27.980  1.00  0.00     0.029 A 
ATOM     59  C   UNL A   1      45.042  31.682  28.464  1.00  0.00     0.049 A 
ATOM     60  H   UNL A   1      43.987  29.863  28.282  1.00  0.00     0.167 HD
ATOM     61  C   UNL A   1      42.897  32.099  29.638  1.00  0.00     0.074 A 
ATOM     62  C   UNL A   1      41.983  32.933  30.389  1.00  0.00     0.031 C 
ATOM     63  C   UNL A   1      44.126  32.500  29.223  1.00  0.00     0.034 A 
BRANCH  50  64
ATOM     64  C   UNL A   1      47.255  28.129  26.130  1.00  0.00     0.023 A 
ATOM     65  C   UNL A   1      47.382  28.198  24.731  1.00  0.00     0.031 A 
ATOM     66  C   UNL A   1      48.336  27.614  26.867  1.00  0.00     0.131 A 
ATOM     67  C   UNL A   1      48.533  27.693  24.108  1.00  0.00     0.055 A 
ATOM     68  C   UNL A   1      49.510  27.182  26.246  1.00  0.00     0.041 A 
ATOM     69  F   UNL A   1      48.261  27.504  28.202  1.00  0.00    -0.206 F 
ATOM     70  C   UNL A   1      49.607  27.206  24.858  1.00  0.00     0.022 A 
BRANCH  67  71
ATOM     71  S   UNL A   1      48.547  27.549  22.300  1.00  0.00     0.124 S 
ATOM     72  O   UNL A   1      49.740  28.318  21.953  1.00  0.00    -0.237 OA
ATOM     73  O   UNL A   1      48.635  26.108  22.099  1.00  0.00    -0.237 OA
ATOM     74  O   UNL A   1      47.282  28.160  21.899  1.00  0.00    -0.744 OA
ENDBRANCH  67  71
ENDBRANCH  50  64
BRANCH  51  75
ATOM     75  C   UNL A   1      38.731  30.299  30.892  1.00  0.00     0.023 A 
ATOM     76  C   UNL A   1      37.677  31.015  30.303  1.00  0.00     0.031 A 
ATOM     77  C   UNL A   1      38.615  29.947  32.248  1.00  0.00     0.131 A 
ATOM     78  C   UNL A   1      36.572  31.396  31.081  1.00  0.00     0.055 A 
ATOM     79  C   UNL A   1      37.493  30.288  33.006  1.00  0.00     0.041 A 
ATOM     80  F   UNL A   1      39.596  29.261  32.858  1.00  0.00    -0.206 F 
ATOM     81  C   UNL A   1      36.469  31.028  32.425  1.00  0.00     0.022 A 
BRANCH  78  82
ATOM     82  S   UNL A   1      35.301  32.446  30.325  1.00  0.00     0.124 S 
ATOM     83  O   UNL A   1      36.065  33.642  29.989  1.00  0.00    -0.237 OA
ATOM     84  O   UNL A   1      34.863  31.626  29.200  1.00  0.00    -0.237 OA
ATOM     85  O   UNL A   1      34.317  32.611  31.392  1.00  0.00    -0.744 OA
ENDBRANCH  78  82
ENDBRANCH  51  75
BRANCH  63  86
ATOM     86  C   UNL A   1      44.527  33.921  29.532  1.00  0.00     0.023 A 
ATOM     87  C   UNL A   1      44.226  34.985  28.663  1.00  0.00     0.031 A 
ATOM     88  C   UNL A   1      45.229  34.213  30.716  1.00  0.00     0.131 A 
ATOM     89  C   UNL A   1      44.666  36.283  28.968  1.00  0.00     0.055 A 
ATOM     90  C   UNL A   1      45.618  35.513  31.040  1.00  0.00     0.041 A 
ATOM     91  F   UNL A   1      45.543  33.235  31.581  1.00  0.00    -0.206 F 
ATOM     92  C   UNL A   1      45.347  36.555  30.158  1.00  0.00     0.022 A 
BRANCH  89  93
ATOM     93  S   UNL A   1      44.405  37.602  27.751  1.00  0.00     0.124 S 
ATOM     94  O   UNL A   1      43.504  36.962  26.798  1.00  0.00    -0.237 OA
ATOM     95  O   UNL A   1      43.822  38.665  28.564  1.00  0.00    -0.237 OA
ATOM     96  O   UNL A   1      45.749  37.875  27.247  1.00  0.00    -0.744 OA
ENDBRANCH  89  93
ENDBRANCH  63  86
ENDBRANCH  37  38
ENDBRANCH  30  32
ENDBRANCH  29  30
ENDBRANCH  28  29
ENDBRANCH  27  28
ENDBRANCH  26  27
ENDBRANCH  25  26
ENDBRANCH   1  25
TORSDOF 23
ENDMDL
