MODEL 1
REMARK VINA RESULT:     -10.0      0.000      0.000
REMARK SMILES O=C(COC1CC[NH+](Cc2nccs2)CC1)OCCOCCOCCOC(=O)c1ccc(-c2c3nc(c(-c4cc(S(=O)(=O)[O-])ccc4F)c4ccc([nH]4)c(-c4cc(S(=O)(=O)[O-])ccc4F)c4nc(c(-c5cc(S(=O)(=O)[O-])ccc5F)c5ccc2[nH]5)C=C4)C=C3)cc1
REMARK SMILES IDX 21 1 20 2 19 3 18 4 17 5 2 6 1 7 3 8 4 9 5 10 6 11 16 12
REMARK SMILES IDX 7 13 15 14 8 15 9 17 10 18 11 19 14 20 12 21 13 22 22 23
REMARK SMILES IDX 23 24 24 25 25 26 26 27 27 28 28 29 29 30 30 31 91 32 31 33
REMARK SMILES IDX 90 34 32 35 33 36 34 37 84 38 35 39 89 40 83 41 85 42 36 43
REMARK SMILES IDX 88 44 82 45 81 46 37 48 69 49 49 50 68 51 50 52 53 53 67 54
REMARK SMILES IDX 86 55 51 56 52 57 66 59 87 60 54 61 38 62 39 63 47 64 40 65
REMARK SMILES IDX 46 66 48 67 45 68 41 69 42 70 43 71 44 72 70 73 71 74 79 75
REMARK SMILES IDX 72 76 78 77 80 78 77 79 73 80 74 81 75 82 76 83 55 84 56 85
REMARK SMILES IDX 64 86 57 87 63 88 65 89 62 90 58 91 59 92 60 93 61 94
REMARK H PARENT 8 16 85 47 53 58
REMARK Flexibility Score: inf
ROOT
ATOM      1  C   UNL A   1      34.000  32.761  28.058  1.00  0.00     0.188 C 
ENDROOT
BRANCH   1   2
ATOM      2  O   UNL A   1      33.776  31.367  28.221  1.00  0.00    -0.376 OA
BRANCH   2   3
ATOM      3  C   UNL A   1      34.815  30.539  27.722  1.00  0.00     0.202 C 
BRANCH   3   4
ATOM      4  C   UNL A   1      34.196  29.520  26.770  1.00  0.00     0.261 C 
BRANCH   4   5
ATOM      5  O   UNL A   1      32.751  29.568  26.696  1.00  0.00    -0.462 OA
BRANCH   5   6
ATOM      6  C   UNL A   1      32.018  29.900  25.611  1.00  0.00     0.332 C 
ATOM      7  O   UNL A   1      31.405  30.965  25.580  1.00  0.00    -0.250 OA
BRANCH   6   8
ATOM      8  C   UNL A   1      31.948  28.921  24.452  1.00  0.00     0.283 C 
BRANCH   8   9
ATOM      9  O   UNL A   1      31.581  27.613  24.849  1.00  0.00    -0.366 OA
BRANCH   9  10
ATOM     10  C   UNL A   1      30.953  26.885  23.785  1.00  0.00     0.130 C 
ATOM     11  C   UNL A   1      29.540  26.477  24.205  1.00  0.00     0.093 C 
ATOM     12  C   UNL A   1      31.802  25.651  23.499  1.00  0.00     0.093 C 
ATOM     13  C   UNL A   1      29.582  25.478  25.362  1.00  0.00     0.265 C 
ATOM     14  C   UNL A   1      31.758  24.661  24.662  1.00  0.00     0.265 C 
ATOM     15  N   UNL A   1      30.375  24.298  24.987  1.00  0.00    -0.329 N 
ATOM     16  H   UNL A   1      29.970  23.911  24.134  1.00  0.00     0.348 HD
BRANCH  15  17
ATOM     17  C   UNL A   1      30.289  23.235  26.010  1.00  0.00     0.331 C 
BRANCH  17  18
ATOM     18  C   UNL A   1      31.595  22.607  26.446  1.00  0.00     0.147 A 
ATOM     19  N   UNL A   1      32.256  22.923  27.542  1.00  0.00    -0.244 NA
ATOM     20  S   UNL A   1      32.319  21.365  25.492  1.00  0.00    -0.122 S 
ATOM     21  C   UNL A   1      33.404  22.167  27.637  1.00  0.00     0.123 A 
ATOM     22  C   UNL A   1      33.608  21.267  26.615  1.00  0.00     0.087 A 
ENDBRANCH  17  18
ENDBRANCH  15  17
ENDBRANCH   9  10
ENDBRANCH   8   9
ENDBRANCH   6   8
ENDBRANCH   5   6
ENDBRANCH   4   5
ENDBRANCH   3   4
ENDBRANCH   2   3
ENDBRANCH   1   2
BRANCH   1  23
ATOM     23  C   UNL A   1      35.460  33.132  28.344  1.00  0.00     0.188 C 
BRANCH  23  24
ATOM     24  O   UNL A   1      35.769  33.998  29.431  1.00  0.00    -0.376 OA
BRANCH  24  25
ATOM     25  C   UNL A   1      34.723  34.495  30.250  1.00  0.00     0.202 C 
BRANCH  25  26
ATOM     26  C   UNL A   1      34.700  34.025  31.706  1.00  0.00     0.261 C 
BRANCH  26  27
ATOM     27  O   UNL A   1      34.790  32.596  31.871  1.00  0.00    -0.460 OA
BRANCH  27  28
ATOM     28  C   UNL A   1      35.724  32.191  32.769  1.00  0.00     0.338 C 
ATOM     29  O   UNL A   1      35.790  32.514  33.941  1.00  0.00    -0.246 OA
BRANCH  28  30
ATOM     30  C   UNL A   1      36.632  31.177  32.187  1.00  0.00     0.060 A 
ATOM     31  C   UNL A   1      37.894  31.028  32.775  1.00  0.00     0.016 A 
ATOM     32  C   UNL A   1      36.334  30.531  30.984  1.00  0.00     0.016 A 
ATOM     33  C   UNL A   1      38.894  30.307  32.119  1.00  0.00     0.010 A 
ATOM     34  C   UNL A   1      37.344  29.817  30.320  1.00  0.00     0.010 A 
ATOM     35  C   UNL A   1      38.646  29.756  30.855  1.00  0.00    -0.014 A 
BRANCH  35  36
ATOM     36  C   UNL A   1      39.805  29.370  30.002  1.00  0.00     0.031 A 
ATOM     37  C   UNL A   1      40.897  30.388  29.776  1.00  0.00     0.074 A 
ATOM     38  C   UNL A   1      39.934  28.131  29.492  1.00  0.00     0.049 A 
ATOM     39  N   UNL A   1      42.012  30.282  29.097  1.00  0.00    -0.248 NA
ATOM     40  C   UNL A   1      40.697  31.705  30.400  1.00  0.00     0.031 C 
ATOM     41  C   UNL A   1      38.981  27.038  29.673  1.00  0.00     0.029 A 
ATOM     42  N   UNL A   1      40.930  27.586  28.719  1.00  0.00    -0.354 N 
ATOM     43  C   UNL A   1      42.644  31.517  29.211  1.00  0.00     0.074 A 
ATOM     44  C   UNL A   1      41.767  32.366  29.988  1.00  0.00     0.031 C 
ATOM     45  C   UNL A   1      39.440  25.951  29.024  1.00  0.00     0.029 A 
ATOM     46  C   UNL A   1      40.704  26.277  28.363  1.00  0.00     0.049 A 
ATOM     47  H   UNL A   1      41.733  28.086  28.445  1.00  0.00     0.167 HD
ATOM     48  C   UNL A   1      43.850  31.908  28.727  1.00  0.00     0.034 A 
ATOM     49  C   UNL A   1      41.425  25.442  27.585  1.00  0.00     0.034 A 
ATOM     50  C   UNL A   1      44.720  31.063  27.946  1.00  0.00     0.049 A 
ATOM     51  C   UNL A   1      42.730  25.923  26.991  1.00  0.00     0.074 A 
ATOM     52  C   UNL A   1      45.966  31.358  27.420  1.00  0.00     0.029 A 
ATOM     53  N   UNL A   1      44.432  29.758  27.569  1.00  0.00    -0.354 N 
ATOM     54  N   UNL A   1      43.324  27.087  27.121  1.00  0.00    -0.248 NA
ATOM     55  C   UNL A   1      43.469  24.966  26.155  1.00  0.00     0.031 C 
ATOM     56  C   UNL A   1      46.399  30.260  26.668  1.00  0.00     0.029 A 
ATOM     57  C   UNL A   1      45.461  29.249  26.790  1.00  0.00     0.049 A 
ATOM     58  H   UNL A   1      43.616  29.265  27.817  1.00  0.00     0.167 HD
ATOM     59  C   UNL A   1      44.524  26.984  26.418  1.00  0.00     0.074 A 
ATOM     60  C   UNL A   1      44.572  25.644  25.874  1.00  0.00     0.031 C 
ATOM     61  C   UNL A   1      45.502  27.911  26.247  1.00  0.00     0.034 A 
BRANCH  48  62
ATOM     62  C   UNL A   1      44.264  33.337  28.985  1.00  0.00     0.023 A 
ATOM     63  C   UNL A   1      43.656  34.419  28.323  1.00  0.00     0.031 A 
ATOM     64  C   UNL A   1      45.314  33.618  29.877  1.00  0.00     0.131 A 
ATOM     65  C   UNL A   1      44.153  35.719  28.504  1.00  0.00     0.055 A 
ATOM     66  C   UNL A   1      45.751  34.923  30.114  1.00  0.00     0.041 A 
ATOM     67  F   UNL A   1      45.949  32.625  30.521  1.00  0.00    -0.206 F 
ATOM     68  C   UNL A   1      45.180  35.981  29.414  1.00  0.00     0.022 A 
BRANCH  65  69
ATOM     69  S   UNL A   1      43.540  37.041  27.424  1.00  0.00     0.124 S 
ATOM     70  O   UNL A   1      42.494  37.636  28.252  1.00  0.00    -0.237 OA
ATOM     71  O   UNL A   1      44.731  37.855  27.214  1.00  0.00    -0.237 OA
ATOM     72  O   UNL A   1      43.057  36.324  26.245  1.00  0.00    -0.744 OA
ENDBRANCH  65  69
ENDBRANCH  48  62
BRANCH  49  73
ATOM     73  C   UNL A   1      40.933  24.066  27.288  1.00  0.00     0.023 A 
ATOM     74  C   UNL A   1      39.802  23.855  26.482  1.00  0.00     0.031 A 
ATOM     75  C   UNL A   1      41.544  22.943  27.874  1.00  0.00     0.131 A 
ATOM     76  C   UNL A   1      39.287  22.558  26.327  1.00  0.00     0.055 A 
ATOM     77  C   UNL A   1      41.059  21.651  27.674  1.00  0.00     0.041 A 
ATOM     78  F   UNL A   1      42.626  23.090  28.656  1.00  0.00    -0.206 F 
ATOM     79  C   UNL A   1      39.914  21.453  26.907  1.00  0.00     0.022 A 
BRANCH  76  80
ATOM     80  S   UNL A   1      37.729  22.344  25.422  1.00  0.00     0.124 S 
ATOM     81  O   UNL A   1      37.915  21.030  24.818  1.00  0.00    -0.237 OA
ATOM     82  O   UNL A   1      36.744  22.424  26.496  1.00  0.00    -0.237 OA
ATOM     83  O   UNL A   1      37.720  23.467  24.488  1.00  0.00    -0.744 OA
ENDBRANCH  76  80
ENDBRANCH  49  73
BRANCH  61  84
ATOM     84  C   UNL A   1      46.737  27.480  25.489  1.00  0.00     0.023 A 
ATOM     85  C   UNL A   1      46.982  27.887  24.166  1.00  0.00     0.031 A 
ATOM     86  C   UNL A   1      47.677  26.631  26.101  1.00  0.00     0.131 A 
ATOM     87  C   UNL A   1      48.103  27.395  23.478  1.00  0.00     0.055 A 
ATOM     88  C   UNL A   1      48.821  26.193  25.432  1.00  0.00     0.041 A 
ATOM     89  F   UNL A   1      47.496  26.209  27.363  1.00  0.00    -0.206 F 
ATOM     90  C   UNL A   1      49.032  26.562  24.108  1.00  0.00     0.022 A 
BRANCH  87  91
ATOM     91  S   UNL A   1      48.279  27.773  21.711  1.00  0.00     0.124 S 
ATOM     92  O   UNL A   1      46.912  28.117  21.335  1.00  0.00    -0.237 OA
ATOM     93  O   UNL A   1      49.233  28.877  21.723  1.00  0.00    -0.237 OA
ATOM     94  O   UNL A   1      48.783  26.525  21.141  1.00  0.00    -0.744 OA
ENDBRANCH  87  91
ENDBRANCH  61  84
ENDBRANCH  35  36
ENDBRANCH  28  30
ENDBRANCH  27  28
ENDBRANCH  26  27
ENDBRANCH  25  26
ENDBRANCH  24  25
ENDBRANCH  23  24
ENDBRANCH   1  23
TORSDOF 24
ENDMDL
MODEL 2
REMARK VINA RESULT:      -9.9      4.949     11.068
REMARK SMILES O=C(COC1CC[NH+](Cc2nccs2)CC1)OCCOCCOCCOC(=O)c1ccc(-c2c3nc(c(-c4cc(S(=O)(=O)[O-])ccc4F)c4ccc([nH]4)c(-c4cc(S(=O)(=O)[O-])ccc4F)c4nc(c(-c5cc(S(=O)(=O)[O-])ccc5F)c5ccc2[nH]5)C=C4)C=C3)cc1
REMARK SMILES IDX 21 1 20 2 19 3 18 4 17 5 2 6 1 7 3 8 4 9 5 10 6 11 16 12
REMARK SMILES IDX 7 13 15 14 8 15 9 17 10 18 11 19 14 20 12 21 13 22 22 23
REMARK SMILES IDX 23 24 24 25 25 26 26 27 27 28 28 29 29 30 30 31 91 32 31 33
REMARK SMILES IDX 90 34 32 35 33 36 34 37 84 38 35 39 89 40 83 41 85 42 36 43
REMARK SMILES IDX 88 44 82 45 81 46 37 48 69 49 49 50 68 51 50 52 53 53 67 54
REMARK SMILES IDX 86 55 51 56 52 57 66 59 87 60 54 61 38 62 39 63 47 64 40 65
REMARK SMILES IDX 46 66 48 67 45 68 41 69 42 70 43 71 44 72 70 73 71 74 79 75
REMARK SMILES IDX 72 76 78 77 80 78 77 79 73 80 74 81 75 82 76 83 55 84 56 85
REMARK SMILES IDX 64 86 57 87 63 88 65 89 62 90 58 91 59 92 60 93 61 94
REMARK H PARENT 8 16 85 47 53 58
REMARK Flexibility Score: inf
ROOT
ATOM      1  C   UNL A   1      42.869  19.034  25.728  1.00  0.00     0.188 C 
ENDROOT
BRANCH   1   2
ATOM      2  O   UNL A   1      42.702  20.102  26.650  1.00  0.00    -0.376 OA
BRANCH   2   3
ATOM      3  C   UNL A   1      41.760  21.086  26.250  1.00  0.00     0.202 C 
BRANCH   3   4
ATOM      4  C   UNL A   1      40.361  20.553  26.545  1.00  0.00     0.261 C 
BRANCH   4   5
ATOM      5  O   UNL A   1      39.348  20.972  25.600  1.00  0.00    -0.462 OA
BRANCH   5   6
ATOM      6  C   UNL A   1      38.465  21.980  25.770  1.00  0.00     0.332 C 
ATOM      7  O   UNL A   1      38.673  22.850  26.613  1.00  0.00    -0.250 OA
BRANCH   6   8
ATOM      8  C   UNL A   1      37.208  21.997  24.917  1.00  0.00     0.283 C 
BRANCH   8   9
ATOM      9  O   UNL A   1      36.092  21.408  25.559  1.00  0.00    -0.366 OA
BRANCH   9  10
ATOM     10  C   UNL A   1      35.540  22.263  26.569  1.00  0.00     0.130 C 
ATOM     11  C   UNL A   1      34.171  21.736  26.998  1.00  0.00     0.093 C 
ATOM     12  C   UNL A   1      35.411  23.663  25.976  1.00  0.00     0.093 C 
ATOM     13  C   UNL A   1      33.167  21.825  25.848  1.00  0.00     0.265 C 
ATOM     14  C   UNL A   1      34.351  23.707  24.875  1.00  0.00     0.265 C 
ATOM     15  N   UNL A   1      33.064  23.211  25.370  1.00  0.00    -0.329 N 
ATOM     16  H   UNL A   1      32.816  23.797  26.168  1.00  0.00     0.348 HD
BRANCH  15  17
ATOM     17  C   UNL A   1      31.974  23.369  24.382  1.00  0.00     0.331 C 
BRANCH  17  18
ATOM     18  C   UNL A   1      32.150  24.459  23.349  1.00  0.00     0.147 A 
ATOM     19  N   UNL A   1      31.855  25.731  23.535  1.00  0.00    -0.244 NA
ATOM     20  S   UNL A   1      32.798  24.082  21.794  1.00  0.00    -0.122 S 
ATOM     21  C   UNL A   1      32.132  26.453  22.395  1.00  0.00     0.123 A 
ATOM     22  C   UNL A   1      32.649  25.728  21.344  1.00  0.00     0.087 A 
ENDBRANCH  17  18
ENDBRANCH  15  17
ENDBRANCH   9  10
ENDBRANCH   8   9
ENDBRANCH   6   8
ENDBRANCH   5   6
ENDBRANCH   4   5
ENDBRANCH   3   4
ENDBRANCH   2   3
ENDBRANCH   1   2
BRANCH   1  23
ATOM     23  C   UNL A   1      44.176  19.173  24.940  1.00  0.00     0.188 C 
BRANCH  23  24
ATOM     24  O   UNL A   1      45.189  20.061  25.402  1.00  0.00    -0.376 OA
BRANCH  24  25
ATOM     25  C   UNL A   1      45.672  21.081  24.543  1.00  0.00     0.202 C 
BRANCH  25  26
ATOM     26  C   UNL A   1      44.716  22.235  24.232  1.00  0.00     0.261 C 
BRANCH  26  27
ATOM     27  O   UNL A   1      44.364  23.039  25.374  1.00  0.00    -0.460 OA
BRANCH  27  28
ATOM     28  C   UNL A   1      44.656  24.359  25.244  1.00  0.00     0.338 C 
ATOM     29  O   UNL A   1      45.576  24.838  24.606  1.00  0.00    -0.246 OA
BRANCH  28  30
ATOM     30  C   UNL A   1      43.631  25.207  25.892  1.00  0.00     0.060 A 
ATOM     31  C   UNL A   1      43.886  26.583  25.967  1.00  0.00     0.016 A 
ATOM     32  C   UNL A   1      42.547  24.654  26.577  1.00  0.00     0.016 A 
ATOM     33  C   UNL A   1      43.114  27.395  26.800  1.00  0.00     0.010 A 
ATOM     34  C   UNL A   1      41.780  25.470  27.423  1.00  0.00     0.010 A 
ATOM     35  C   UNL A   1      42.101  26.831  27.586  1.00  0.00    -0.014 A 
BRANCH  35  36
ATOM     36  C   UNL A   1      41.583  27.605  28.750  1.00  0.00     0.031 A 
ATOM     37  C   UNL A   1      42.343  27.530  30.053  1.00  0.00     0.074 A 
ATOM     38  C   UNL A   1      40.509  28.410  28.651  1.00  0.00     0.049 A 
ATOM     39  N   UNL A   1      42.108  28.129  31.194  1.00  0.00    -0.248 NA
ATOM     40  C   UNL A   1      43.527  26.658  30.066  1.00  0.00     0.031 C 
ATOM     41  C   UNL A   1      39.713  28.613  27.443  1.00  0.00     0.029 A 
ATOM     42  N   UNL A   1      39.908  29.212  29.590  1.00  0.00    -0.354 N 
ATOM     43  C   UNL A   1      43.112  27.705  32.059  1.00  0.00     0.074 A 
ATOM     44  C   UNL A   1      43.931  26.767  31.322  1.00  0.00     0.031 C 
ATOM     45  C   UNL A   1      38.723  29.484  27.717  1.00  0.00     0.029 A 
ATOM     46  C   UNL A   1      38.801  29.881  29.123  1.00  0.00     0.049 A 
ATOM     47  H   UNL A   1      40.239  29.301  30.513  1.00  0.00     0.167 HD
ATOM     48  C   UNL A   1      43.342  28.069  33.346  1.00  0.00     0.034 A 
ATOM     49  C   UNL A   1      37.943  30.708  29.757  1.00  0.00     0.034 A 
ATOM     50  C   UNL A   1      42.521  28.998  34.081  1.00  0.00     0.049 A 
ATOM     51  C   UNL A   1      38.174  31.042  31.214  1.00  0.00     0.074 A 
ATOM     52  C   UNL A   1      42.676  29.444  35.383  1.00  0.00     0.029 A 
ATOM     53  N   UNL A   1      41.381  29.619  33.586  1.00  0.00    -0.354 N 
ATOM     54  N   UNL A   1      39.137  30.646  32.015  1.00  0.00    -0.248 NA
ATOM     55  C   UNL A   1      37.206  31.948  31.847  1.00  0.00     0.031 C 
ATOM     56  C   UNL A   1      41.595  30.276  35.696  1.00  0.00     0.029 A 
ATOM     57  C   UNL A   1      40.807  30.415  34.566  1.00  0.00     0.049 A 
ATOM     58  H   UNL A   1      41.032  29.509  32.672  1.00  0.00     0.167 HD
ATOM     59  C   UNL A   1      38.911  31.291  33.231  1.00  0.00     0.074 A 
ATOM     60  C   UNL A   1      37.727  32.105  33.055  1.00  0.00     0.031 C 
ATOM     61  C   UNL A   1      39.623  31.223  34.385  1.00  0.00     0.034 A 
BRANCH  48  62
ATOM     62  C   UNL A   1      44.503  27.409  34.050  1.00  0.00     0.023 A 
ATOM     63  C   UNL A   1      44.336  26.260  34.844  1.00  0.00     0.031 A 
ATOM     64  C   UNL A   1      45.792  27.963  33.960  1.00  0.00     0.131 A 
ATOM     65  C   UNL A   1      45.419  25.750  35.576  1.00  0.00     0.055 A 
ATOM     66  C   UNL A   1      46.884  27.403  34.626  1.00  0.00     0.041 A 
ATOM     67  F   UNL A   1      46.010  29.072  33.234  1.00  0.00    -0.206 F 
ATOM     68  C   UNL A   1      46.698  26.300  35.453  1.00  0.00     0.022 A 
BRANCH  65  69
ATOM     69  S   UNL A   1      45.104  24.454  36.804  1.00  0.00     0.124 S 
ATOM     70  O   UNL A   1      43.980  25.018  37.547  1.00  0.00    -0.237 OA
ATOM     71  O   UNL A   1      44.805  23.296  35.971  1.00  0.00    -0.237 OA
ATOM     72  O   UNL A   1      46.359  24.379  37.552  1.00  0.00    -0.744 OA
ENDBRANCH  65  69
ENDBRANCH  48  62
BRANCH  49  73
ATOM     73  C   UNL A   1      36.760  31.269  29.043  1.00  0.00     0.023 A 
ATOM     74  C   UNL A   1      35.729  30.438  28.577  1.00  0.00     0.031 A 
ATOM     75  C   UNL A   1      36.686  32.642  28.746  1.00  0.00     0.131 A 
ATOM     76  C   UNL A   1      34.695  30.978  27.796  1.00  0.00     0.055 A 
ATOM     77  C   UNL A   1      35.629  33.182  28.014  1.00  0.00     0.041 A 
ATOM     78  F   UNL A   1      37.648  33.480  29.165  1.00  0.00    -0.206 F 
ATOM     79  C   UNL A   1      34.631  32.346  27.521  1.00  0.00     0.022 A 
BRANCH  76  80
ATOM     80  S   UNL A   1      33.474  29.850  27.068  1.00  0.00     0.124 S 
ATOM     81  O   UNL A   1      32.251  30.638  27.157  1.00  0.00    -0.237 OA
ATOM     82  O   UNL A   1      34.013  29.649  25.726  1.00  0.00    -0.237 OA
ATOM     83  O   UNL A   1      33.529  28.680  27.940  1.00  0.00    -0.744 OA
ENDBRANCH  76  80
ENDBRANCH  49  73
BRANCH  61  84
ATOM     84  C   UNL A   1      39.174  32.105  35.528  1.00  0.00     0.023 A 
ATOM     85  C   UNL A   1      39.622  33.429  35.671  1.00  0.00     0.031 A 
ATOM     86  C   UNL A   1      38.295  31.598  36.503  1.00  0.00     0.131 A 
ATOM     87  C   UNL A   1      39.241  34.181  36.794  1.00  0.00     0.055 A 
ATOM     88  C   UNL A   1      37.871  32.370  37.586  1.00  0.00     0.041 A 
ATOM     89  F   UNL A   1      37.835  30.340  36.420  1.00  0.00    -0.206 F 
ATOM     90  C   UNL A   1      38.356  33.664  37.745  1.00  0.00     0.022 A 
BRANCH  87  91
ATOM     91  S   UNL A   1      39.998  35.809  37.054  1.00  0.00     0.124 S 
ATOM     92  O   UNL A   1      41.400  35.464  37.265  1.00  0.00    -0.237 OA
ATOM     93  O   UNL A   1      39.692  36.498  35.805  1.00  0.00    -0.237 OA
ATOM     94  O   UNL A   1      39.304  36.327  38.233  1.00  0.00    -0.744 OA
ENDBRANCH  87  91
ENDBRANCH  61  84
ENDBRANCH  35  36
ENDBRANCH  28  30
ENDBRANCH  27  28
ENDBRANCH  26  27
ENDBRANCH  25  26
ENDBRANCH  24  25
ENDBRANCH  23  24
ENDBRANCH   1  23
TORSDOF 24
ENDMDL
MODEL 3
REMARK VINA RESULT:      -9.4      4.950     11.312
REMARK SMILES O=C(COC1CC[NH+](Cc2nccs2)CC1)OCCOCCOCCOC(=O)c1ccc(-c2c3nc(c(-c4cc(S(=O)(=O)[O-])ccc4F)c4ccc([nH]4)c(-c4cc(S(=O)(=O)[O-])ccc4F)c4nc(c(-c5cc(S(=O)(=O)[O-])ccc5F)c5ccc2[nH]5)C=C4)C=C3)cc1
REMARK SMILES IDX 21 1 20 2 19 3 18 4 17 5 2 6 1 7 3 8 4 9 5 10 6 11 16 12
REMARK SMILES IDX 7 13 15 14 8 15 9 17 10 18 11 19 14 20 12 21 13 22 22 23
REMARK SMILES IDX 23 24 24 25 25 26 26 27 27 28 28 29 29 30 30 31 91 32 31 33
REMARK SMILES IDX 90 34 32 35 33 36 34 37 84 38 35 39 89 40 83 41 85 42 36 43
REMARK SMILES IDX 88 44 82 45 81 46 37 48 69 49 49 50 68 51 50 52 53 53 67 54
REMARK SMILES IDX 86 55 51 56 52 57 66 59 87 60 54 61 38 62 39 63 47 64 40 65
REMARK SMILES IDX 46 66 48 67 45 68 41 69 42 70 43 71 44 72 70 73 71 74 79 75
REMARK SMILES IDX 72 76 78 77 80 78 77 79 73 80 74 81 75 82 76 83 55 84 56 85
REMARK SMILES IDX 64 86 57 87 63 88 65 89 62 90 58 91 59 92 60 93 61 94
REMARK H PARENT 8 16 85 47 53 58
REMARK Flexibility Score: inf
ROOT
ATOM      1  C   UNL A   1      42.734  19.081  25.966  1.00  0.00     0.188 C 
ENDROOT
BRANCH   1   2
ATOM      2  O   UNL A   1      42.629  20.308  26.675  1.00  0.00    -0.376 OA
BRANCH   2   3
ATOM      3  C   UNL A   1      41.591  21.165  26.225  1.00  0.00     0.202 C 
BRANCH   3   4
ATOM      4  C   UNL A   1      40.408  21.021  27.178  1.00  0.00     0.261 C 
BRANCH   4   5
ATOM      5  O   UNL A   1      39.118  21.281  26.577  1.00  0.00    -0.462 OA
BRANCH   5   6
ATOM      6  C   UNL A   1      38.620  22.492  26.247  1.00  0.00     0.332 C 
ATOM      7  O   UNL A   1      38.967  23.495  26.868  1.00  0.00    -0.250 OA
BRANCH   6   8
ATOM      8  C   UNL A   1      37.609  22.581  25.117  1.00  0.00     0.283 C 
BRANCH   8   9
ATOM      9  O   UNL A   1      36.552  21.647  25.241  1.00  0.00    -0.366 OA
BRANCH   9  10
ATOM     10  C   UNL A   1      35.569  22.071  26.195  1.00  0.00     0.130 C 
ATOM     11  C   UNL A   1      34.315  21.208  26.060  1.00  0.00     0.093 C 
ATOM     12  C   UNL A   1      35.244  23.534  25.912  1.00  0.00     0.093 C 
ATOM     13  C   UNL A   1      33.639  21.436  24.707  1.00  0.00     0.265 C 
ATOM     14  C   UNL A   1      34.516  23.695  24.578  1.00  0.00     0.265 C 
ATOM     15  N   UNL A   1      33.313  22.859  24.535  1.00  0.00    -0.329 N 
ATOM     16  H   UNL A   1      32.736  23.143  25.327  1.00  0.00     0.348 HD
BRANCH  15  17
ATOM     17  C   UNL A   1      32.500  23.090  23.322  1.00  0.00     0.331 C 
BRANCH  17  18
ATOM     18  C   UNL A   1      32.135  24.526  23.016  1.00  0.00     0.147 A 
ATOM     19  N   UNL A   1      32.328  25.123  21.855  1.00  0.00    -0.244 NA
ATOM     20  S   UNL A   1      31.390  25.507  24.224  1.00  0.00    -0.122 S 
ATOM     21  C   UNL A   1      31.887  26.427  21.915  1.00  0.00     0.123 A 
ATOM     22  C   UNL A   1      31.348  26.817  23.120  1.00  0.00     0.087 A 
ENDBRANCH  17  18
ENDBRANCH  15  17
ENDBRANCH   9  10
ENDBRANCH   8   9
ENDBRANCH   6   8
ENDBRANCH   5   6
ENDBRANCH   4   5
ENDBRANCH   3   4
ENDBRANCH   2   3
ENDBRANCH   1   2
BRANCH   1  23
ATOM     23  C   UNL A   1      43.862  19.127  24.930  1.00  0.00     0.188 C 
BRANCH  23  24
ATOM     24  O   UNL A   1      44.980  19.983  25.140  1.00  0.00    -0.376 OA
BRANCH  24  25
ATOM     25  C   UNL A   1      45.342  20.922  24.140  1.00  0.00     0.202 C 
BRANCH  25  26
ATOM     26  C   UNL A   1      44.547  22.230  24.097  1.00  0.00     0.261 C 
BRANCH  26  27
ATOM     27  O   UNL A   1      44.552  22.969  25.334  1.00  0.00    -0.460 OA
BRANCH  27  28
ATOM     28  C   UNL A   1      44.807  24.295  25.195  1.00  0.00     0.338 C 
ATOM     29  O   UNL A   1      45.718  24.796  24.560  1.00  0.00    -0.246 OA
BRANCH  28  30
ATOM     30  C   UNL A   1      43.752  25.119  25.826  1.00  0.00     0.060 A 
ATOM     31  C   UNL A   1      43.962  26.502  25.885  1.00  0.00     0.016 A 
ATOM     32  C   UNL A   1      42.682  24.540  26.512  1.00  0.00     0.016 A 
ATOM     33  C   UNL A   1      43.161  27.300  26.703  1.00  0.00     0.010 A 
ATOM     34  C   UNL A   1      41.884  25.341  27.344  1.00  0.00     0.010 A 
ATOM     35  C   UNL A   1      42.161  26.715  27.491  1.00  0.00    -0.014 A 
BRANCH  35  36
ATOM     36  C   UNL A   1      41.612  27.486  28.642  1.00  0.00     0.031 A 
ATOM     37  C   UNL A   1      42.378  27.471  29.943  1.00  0.00     0.074 A 
ATOM     38  C   UNL A   1      40.503  28.239  28.532  1.00  0.00     0.049 A 
ATOM     39  N   UNL A   1      42.120  28.080  31.073  1.00  0.00    -0.248 NA
ATOM     40  C   UNL A   1      43.602  26.654  29.968  1.00  0.00     0.031 C 
ATOM     41  C   UNL A   1      39.693  28.383  27.323  1.00  0.00     0.029 A 
ATOM     42  N   UNL A   1      39.868  29.031  29.458  1.00  0.00    -0.354 N 
ATOM     43  C   UNL A   1      43.145  27.719  31.942  1.00  0.00     0.074 A 
ATOM     44  C   UNL A   1      44.004  26.805  31.220  1.00  0.00     0.031 C 
ATOM     45  C   UNL A   1      38.666  29.213  27.585  1.00  0.00     0.029 A 
ATOM     46  C   UNL A   1      38.730  29.640  28.983  1.00  0.00     0.049 A 
ATOM     47  H   UNL A   1      40.198  29.152  30.378  1.00  0.00     0.167 HD
ATOM     48  C   UNL A   1      43.363  28.118  33.221  1.00  0.00     0.034 A 
ATOM     49  C   UNL A   1      37.838  30.438  29.605  1.00  0.00     0.034 A 
ATOM     50  C   UNL A   1      42.502  29.023  33.942  1.00  0.00     0.049 A 
ATOM     51  C   UNL A   1      38.058  30.811  31.054  1.00  0.00     0.074 A 
ATOM     52  C   UNL A   1      42.641  29.500  35.235  1.00  0.00     0.029 A 
ATOM     53  N   UNL A   1      41.334  29.581  33.439  1.00  0.00    -0.354 N 
ATOM     54  N   UNL A   1      39.040  30.474  31.859  1.00  0.00    -0.248 NA
ATOM     55  C   UNL A   1      37.051  31.684  31.674  1.00  0.00     0.031 C 
ATOM     56  C   UNL A   1      41.524  30.288  35.536  1.00  0.00     0.029 A 
ATOM     57  C   UNL A   1      40.727  30.369  34.406  1.00  0.00     0.049 A 
ATOM     58  H   UNL A   1      40.987  29.438  32.529  1.00  0.00     0.167 HD
ATOM     59  C   UNL A   1      38.788  31.131  33.063  1.00  0.00     0.074 A 
ATOM     60  C   UNL A   1      37.568  31.887  32.876  1.00  0.00     0.031 C 
ATOM     61  C   UNL A   1      39.507  31.118  34.215  1.00  0.00     0.034 A 
BRANCH  48  62
ATOM     62  C   UNL A   1      44.555  27.525  33.933  1.00  0.00     0.023 A 
ATOM     63  C   UNL A   1      44.470  26.314  34.644  1.00  0.00     0.031 A 
ATOM     64  C   UNL A   1      45.786  28.204  33.936  1.00  0.00     0.131 A 
ATOM     65  C   UNL A   1      45.570  25.861  35.389  1.00  0.00     0.055 A 
ATOM     66  C   UNL A   1      46.901  27.707  34.613  1.00  0.00     0.041 A 
ATOM     67  F   UNL A   1      45.922  29.376  33.293  1.00  0.00    -0.206 F 
ATOM     68  C   UNL A   1      46.792  26.537  35.359  1.00  0.00     0.022 A 
BRANCH  65  69
ATOM     69  S   UNL A   1      45.337  24.461  36.517  1.00  0.00     0.124 S 
ATOM     70  O   UNL A   1      45.588  23.325  35.634  1.00  0.00    -0.237 OA
ATOM     71  O   UNL A   1      46.344  24.710  37.542  1.00  0.00    -0.237 OA
ATOM     72  O   UNL A   1      43.950  24.602  36.957  1.00  0.00    -0.744 OA
ENDBRANCH  65  69
ENDBRANCH  48  62
BRANCH  49  73
ATOM     73  C   UNL A   1      36.628  30.931  28.885  1.00  0.00     0.023 A 
ATOM     74  C   UNL A   1      36.287  32.293  28.883  1.00  0.00     0.031 A 
ATOM     75  C   UNL A   1      35.752  30.030  28.253  1.00  0.00     0.131 A 
ATOM     76  C   UNL A   1      35.076  32.709  28.307  1.00  0.00     0.055 A 
ATOM     77  C   UNL A   1      34.575  30.456  27.637  1.00  0.00     0.041 A 
ATOM     78  F   UNL A   1      36.030  28.717  28.229  1.00  0.00    -0.206 F 
ATOM     79  C   UNL A   1      34.223  31.802  27.674  1.00  0.00     0.022 A 
BRANCH  76  80
ATOM     80  S   UNL A   1      34.584  34.448  28.474  1.00  0.00     0.124 S 
ATOM     81  O   UNL A   1      34.867  34.966  27.140  1.00  0.00    -0.237 OA
ATOM     82  O   UNL A   1      33.175  34.330  28.832  1.00  0.00    -0.237 OA
ATOM     83  O   UNL A   1      35.455  34.947  29.536  1.00  0.00    -0.744 OA
ENDBRANCH  76  80
ENDBRANCH  49  73
BRANCH  61  84
ATOM     84  C   UNL A   1      39.022  32.000  35.343  1.00  0.00     0.023 A 
ATOM     85  C   UNL A   1      38.432  31.471  36.504  1.00  0.00     0.031 A 
ATOM     86  C   UNL A   1      39.137  33.399  35.242  1.00  0.00     0.131 A 
ATOM     87  C   UNL A   1      37.923  32.335  37.487  1.00  0.00     0.055 A 
ATOM     88  C   UNL A   1      38.684  34.251  36.250  1.00  0.00     0.041 A 
ATOM     89  F   UNL A   1      39.691  33.962  34.156  1.00  0.00    -0.206 F 
ATOM     90  C   UNL A   1      38.059  33.721  37.374  1.00  0.00     0.022 A 
BRANCH  87  91
ATOM     91  S   UNL A   1      36.986  31.628  38.872  1.00  0.00     0.124 S 
ATOM     92  O   UNL A   1      35.723  32.355  38.788  1.00  0.00    -0.237 OA
ATOM     93  O   UNL A   1      36.931  30.213  38.521  1.00  0.00    -0.237 OA
ATOM     94  O   UNL A   1      37.806  31.946  40.040  1.00  0.00    -0.744 OA
ENDBRANCH  87  91
ENDBRANCH  61  84
ENDBRANCH  35  36
ENDBRANCH  28  30
ENDBRANCH  27  28
ENDBRANCH  26  27
ENDBRANCH  25  26
ENDBRANCH  24  25
ENDBRANCH  23  24
ENDBRANCH   1  23
TORSDOF 24
ENDMDL
