MODEL 1
REMARK VINA RESULT:      -8.6      0.000      0.000
REMARK SMILES CCCC[C@H](CC)Cn1ccc(C(=O)OCCOCCOCCOC(=O)c2ccc(-c3c4nc(c(-c5cc(S(=O)(=O)[O-])ccc5F)c5ccc([nH]5)c(-c5cc(S(=O)(=O)[O-])ccc5F)c5nc(c(-c6cc(S(=O)(=O)[O-])ccc6F)c6ccc3[nH]6)C=C5)C=C4)cc2)c1
REMARK SMILES IDX 19 1 18 2 17 3 16 4 15 5 13 6 14 7 12 8 9 9 10 10 90 11
REMARK SMILES IDX 11 12 8 13 5 14 4 15 3 16 2 17 1 18 6 19 7 20 20 21 21 22
REMARK SMILES IDX 22 23 23 24 24 25 25 26 26 27 27 28 28 29 89 30 29 31 88 32
REMARK SMILES IDX 30 33 31 34 32 35 82 36 33 37 87 38 81 39 83 40 34 41 86 42
REMARK SMILES IDX 80 43 79 44 35 46 67 47 47 48 66 49 48 50 51 51 65 52 84 53
REMARK SMILES IDX 49 54 50 55 64 57 85 58 52 59 36 60 37 61 45 62 38 63 44 64
REMARK SMILES IDX 46 65 43 66 39 67 40 68 41 69 42 70 68 71 69 72 77 73 70 74
REMARK SMILES IDX 76 75 78 76 75 77 71 78 72 79 73 80 74 81 53 82 54 83 62 84
REMARK SMILES IDX 55 85 61 86 63 87 60 88 56 89 57 90 58 91 59 92
REMARK H PARENT 83 45 51 56
REMARK Flexibility Score: inf
ROOT
ATOM      1  C   UNL A   1      37.205  23.046  25.960  1.00  0.00     0.188 C 
ENDROOT
BRANCH   1   2
ATOM      2  O   UNL A   1      35.803  22.837  26.102  1.00  0.00    -0.376 OA
BRANCH   2   3
ATOM      3  C   UNL A   1      35.263  21.531  26.232  1.00  0.00     0.202 C 
BRANCH   3   4
ATOM      4  C   UNL A   1      34.720  20.765  25.009  1.00  0.00     0.261 C 
BRANCH   4   5
ATOM      5  O   UNL A   1      33.631  21.385  24.323  1.00  0.00    -0.460 OA
BRANCH   5   6
ATOM      6  C   UNL A   1      32.399  21.198  24.869  1.00  0.00     0.339 C 
ATOM      7  O   UNL A   1      31.865  20.106  25.037  1.00  0.00    -0.246 OA
BRANCH   6   8
ATOM      8  C   UNL A   1      31.829  22.437  25.377  1.00  0.00     0.077 A 
ATOM      9  N   UNL A   1      31.488  24.588  25.844  1.00  0.00    -0.353 N 
ATOM     10  C   UNL A   1      30.488  23.893  26.475  1.00  0.00     0.086 A 
ATOM     11  C   UNL A   1      32.387  23.704  25.313  1.00  0.00     0.101 A 
ATOM     12  C   UNL A   1      30.634  22.566  26.145  1.00  0.00     0.035 A 
BRANCH   9  13
ATOM     13  C   UNL A   1      31.462  26.032  25.669  1.00  0.00     0.125 C 
BRANCH  13  14
ATOM     14  C   UNL A   1      32.820  26.760  25.715  1.00  0.00     0.008 C 
BRANCH  14  15
ATOM     15  C   UNL A   1      32.969  27.611  27.002  1.00  0.00     0.005 C 
BRANCH  15  16
ATOM     16  C   UNL A   1      31.864  28.632  27.327  1.00  0.00     0.000 C 
BRANCH  16  17
ATOM     17  C   UNL A   1      32.093  30.100  26.940  1.00  0.00    -0.003 C 
ATOM     18  C   UNL A   1      31.414  30.536  25.653  1.00  0.00     0.004 C 
ENDBRANCH  16  17
ENDBRANCH  15  16
ENDBRANCH  14  15
BRANCH  14  19
ATOM     19  C   UNL A   1      33.090  27.583  24.430  1.00  0.00     0.002 C 
ATOM     20  C   UNL A   1      33.519  26.722  23.249  1.00  0.00     0.004 C 
ENDBRANCH  14  19
ENDBRANCH  13  14
ENDBRANCH   9  13
ENDBRANCH   6   8
ENDBRANCH   5   6
ENDBRANCH   4   5
ENDBRANCH   3   4
ENDBRANCH   2   3
ENDBRANCH   1   2
BRANCH   1  21
ATOM     21  C   UNL A   1      38.172  21.872  25.699  1.00  0.00     0.188 C 
BRANCH  21  22
ATOM     22  O   UNL A   1      39.538  22.171  25.914  1.00  0.00    -0.376 OA
BRANCH  22  23
ATOM     23  C   UNL A   1      40.284  21.358  26.809  1.00  0.00     0.202 C 
BRANCH  23  24
ATOM     24  C   UNL A   1      41.451  20.522  26.272  1.00  0.00     0.261 C 
BRANCH  24  25
ATOM     25  O   UNL A   1      42.745  20.933  26.681  1.00  0.00    -0.460 OA
BRANCH  25  26
ATOM     26  C   UNL A   1      43.200  21.991  25.986  1.00  0.00     0.338 C 
ATOM     27  O   UNL A   1      43.178  22.155  24.778  1.00  0.00    -0.246 OA
BRANCH  26  28
ATOM     28  C   UNL A   1      43.850  22.913  26.903  1.00  0.00     0.060 A 
ATOM     29  C   UNL A   1      43.355  22.928  28.208  1.00  0.00     0.016 A 
ATOM     30  C   UNL A   1      44.439  24.018  26.282  1.00  0.00     0.016 A 
ATOM     31  C   UNL A   1      43.226  24.150  28.817  1.00  0.00     0.010 A 
ATOM     32  C   UNL A   1      44.235  25.245  26.857  1.00  0.00     0.010 A 
ATOM     33  C   UNL A   1      43.588  25.297  28.096  1.00  0.00    -0.014 A 
BRANCH  33  34
ATOM     34  C   UNL A   1      43.454  26.581  28.773  1.00  0.00     0.031 A 
ATOM     35  C   UNL A   1      44.632  26.699  29.778  1.00  0.00     0.074 A 
ATOM     36  C   UNL A   1      42.330  27.298  28.435  1.00  0.00     0.049 A 
ATOM     37  N   UNL A   1      44.675  27.236  30.954  1.00  0.00    -0.248 NA
ATOM     38  C   UNL A   1      45.925  25.989  29.497  1.00  0.00     0.031 C 
ATOM     39  C   UNL A   1      41.337  26.936  27.379  1.00  0.00     0.029 A 
ATOM     40  N   UNL A   1      41.771  28.468  28.893  1.00  0.00    -0.354 N 
ATOM     41  C   UNL A   1      46.019  27.189  31.398  1.00  0.00     0.074 A 
ATOM     42  C   UNL A   1      46.693  26.264  30.551  1.00  0.00     0.031 C 
ATOM     43  C   UNL A   1      40.283  27.794  27.365  1.00  0.00     0.029 A 
ATOM     44  C   UNL A   1      40.474  28.807  28.384  1.00  0.00     0.049 A 
ATOM     45  H   UNL A   1      42.239  29.045  29.540  1.00  0.00     0.167 HD
ATOM     46  C   UNL A   1      46.518  28.058  32.325  1.00  0.00     0.034 A 
ATOM     47  C   UNL A   1      39.622  29.800  28.819  1.00  0.00     0.034 A 
ATOM     48  C   UNL A   1      45.461  28.902  32.775  1.00  0.00     0.049 A 
ATOM     49  C   UNL A   1      40.437  30.482  29.839  1.00  0.00     0.074 A 
ATOM     50  C   UNL A   1      44.353  28.650  33.538  1.00  0.00     0.029 A 
ATOM     51  N   UNL A   1      45.283  30.077  32.081  1.00  0.00    -0.354 N 
ATOM     52  N   UNL A   1      41.447  31.258  29.593  1.00  0.00    -0.248 NA
ATOM     53  C   UNL A   1      40.179  30.164  31.250  1.00  0.00     0.031 C 
ATOM     54  C   UNL A   1      43.350  29.361  32.849  1.00  0.00     0.029 A 
ATOM     55  C   UNL A   1      43.932  30.235  31.918  1.00  0.00     0.049 A 
ATOM     56  H   UNL A   1      45.988  30.687  31.764  1.00  0.00     0.167 HD
ATOM     57  C   UNL A   1      42.117  31.261  30.789  1.00  0.00     0.074 A 
ATOM     58  C   UNL A   1      41.156  30.876  31.802  1.00  0.00     0.031 C 
ATOM     59  C   UNL A   1      43.457  31.045  30.820  1.00  0.00     0.034 A 
BRANCH  46  60
ATOM     60  C   UNL A   1      47.914  28.463  32.720  1.00  0.00     0.023 A 
ATOM     61  C   UNL A   1      48.916  28.192  31.756  1.00  0.00     0.031 A 
ATOM     62  C   UNL A   1      48.360  28.741  34.016  1.00  0.00     0.131 A 
ATOM     63  C   UNL A   1      50.251  28.003  32.119  1.00  0.00     0.055 A 
ATOM     64  C   UNL A   1      49.718  28.641  34.364  1.00  0.00     0.041 A 
ATOM     65  F   UNL A   1      47.510  29.031  35.011  1.00  0.00    -0.206 F 
ATOM     66  C   UNL A   1      50.663  28.221  33.428  1.00  0.00     0.022 A 
BRANCH  63  67
ATOM     67  S   UNL A   1      51.360  27.259  30.890  1.00  0.00     0.124 S 
ATOM     68  O   UNL A   1      52.382  26.649  31.733  1.00  0.00    -0.237 OA
ATOM     69  O   UNL A   1      50.469  26.334  30.197  1.00  0.00    -0.237 OA
ATOM     70  O   UNL A   1      51.803  28.404  30.098  1.00  0.00    -0.744 OA
ENDBRANCH  63  67
ENDBRANCH  46  60
BRANCH  47  71
ATOM     71  C   UNL A   1      38.180  30.321  28.704  1.00  0.00     0.023 A 
ATOM     72  C   UNL A   1      37.705  31.639  28.863  1.00  0.00     0.031 A 
ATOM     73  C   UNL A   1      37.155  29.386  28.324  1.00  0.00     0.131 A 
ATOM     74  C   UNL A   1      36.340  31.957  28.552  1.00  0.00     0.055 A 
ATOM     75  C   UNL A   1      35.864  29.720  27.917  1.00  0.00     0.041 A 
ATOM     76  F   UNL A   1      37.353  28.062  28.333  1.00  0.00    -0.206 F 
ATOM     77  C   UNL A   1      35.452  31.022  28.011  1.00  0.00     0.022 A 
BRANCH  74  78
ATOM     78  S   UNL A   1      35.636  33.615  28.844  1.00  0.00     0.124 S 
ATOM     79  O   UNL A   1      36.802  34.361  29.304  1.00  0.00    -0.237 OA
ATOM     80  O   UNL A   1      35.110  33.981  27.535  1.00  0.00    -0.237 OA
ATOM     81  O   UNL A   1      34.617  33.374  29.868  1.00  0.00    -0.744 OA
ENDBRANCH  74  78
ENDBRANCH  47  71
BRANCH  59  82
ATOM     82  C   UNL A   1      44.200  31.366  29.526  1.00  0.00     0.023 A 
ATOM     83  C   UNL A   1      44.539  30.326  28.643  1.00  0.00     0.031 A 
ATOM     84  C   UNL A   1      44.676  32.645  29.176  1.00  0.00     0.131 A 
ATOM     85  C   UNL A   1      45.324  30.569  27.498  1.00  0.00     0.055 A 
ATOM     86  C   UNL A   1      45.457  32.892  28.037  1.00  0.00     0.041 A 
ATOM     87  F   UNL A   1      44.412  33.705  29.935  1.00  0.00    -0.206 F 
ATOM     88  C   UNL A   1      45.786  31.848  27.187  1.00  0.00     0.022 A 
BRANCH  85  89
ATOM     89  S   UNL A   1      45.714  29.189  26.388  1.00  0.00     0.124 S 
ATOM     90  O   UNL A   1      44.394  28.673  26.047  1.00  0.00    -0.237 OA
ATOM     91  O   UNL A   1      46.442  29.849  25.308  1.00  0.00    -0.237 OA
ATOM     92  O   UNL A   1      46.528  28.301  27.219  1.00  0.00    -0.744 OA
ENDBRANCH  85  89
ENDBRANCH  59  82
ENDBRANCH  33  34
ENDBRANCH  26  28
ENDBRANCH  25  26
ENDBRANCH  24  25
ENDBRANCH  23  24
ENDBRANCH  22  23
ENDBRANCH  21  22
ENDBRANCH   1  21
TORSDOF 26
ENDMDL
MODEL 2
REMARK VINA RESULT:      -8.0      1.796      2.237
REMARK SMILES CCCC[C@H](CC)Cn1ccc(C(=O)OCCOCCOCCOC(=O)c2ccc(-c3c4nc(c(-c5cc(S(=O)(=O)[O-])ccc5F)c5ccc([nH]5)c(-c5cc(S(=O)(=O)[O-])ccc5F)c5nc(c(-c6cc(S(=O)(=O)[O-])ccc6F)c6ccc3[nH]6)C=C5)C=C4)cc2)c1
REMARK SMILES IDX 19 1 18 2 17 3 16 4 15 5 13 6 14 7 12 8 9 9 10 10 90 11
REMARK SMILES IDX 11 12 8 13 5 14 4 15 3 16 2 17 1 18 6 19 7 20 20 21 21 22
REMARK SMILES IDX 22 23 23 24 24 25 25 26 26 27 27 28 28 29 89 30 29 31 88 32
REMARK SMILES IDX 30 33 31 34 32 35 82 36 33 37 87 38 81 39 83 40 34 41 86 42
REMARK SMILES IDX 80 43 79 44 35 46 67 47 47 48 66 49 48 50 51 51 65 52 84 53
REMARK SMILES IDX 49 54 50 55 64 57 85 58 52 59 36 60 37 61 45 62 38 63 44 64
REMARK SMILES IDX 46 65 43 66 39 67 40 68 41 69 42 70 68 71 69 72 77 73 70 74
REMARK SMILES IDX 76 75 78 76 75 77 71 78 72 79 73 80 74 81 53 82 54 83 62 84
REMARK SMILES IDX 55 85 61 86 63 87 60 88 56 89 57 90 58 91 59 92
REMARK H PARENT 83 45 51 56
REMARK Flexibility Score: inf
ROOT
ATOM      1  C   UNL A   1      36.670  22.658  26.107  1.00  0.00     0.188 C 
ENDROOT
BRANCH   1   2
ATOM      2  O   UNL A   1      35.279  22.448  26.328  1.00  0.00    -0.376 OA
BRANCH   2   3
ATOM      3  C   UNL A   1      34.692  21.167  26.156  1.00  0.00     0.202 C 
BRANCH   3   4
ATOM      4  C   UNL A   1      34.297  20.649  24.758  1.00  0.00     0.261 C 
BRANCH   4   5
ATOM      5  O   UNL A   1      33.218  21.338  24.124  1.00  0.00    -0.460 OA
BRANCH   5   6
ATOM      6  C   UNL A   1      32.102  21.520  24.881  1.00  0.00     0.339 C 
ATOM      7  O   UNL A   1      31.450  20.617  25.397  1.00  0.00    -0.246 OA
BRANCH   6   8
ATOM      8  C   UNL A   1      31.837  22.927  25.142  1.00  0.00     0.077 A 
ATOM      9  N   UNL A   1      31.992  25.148  25.185  1.00  0.00    -0.353 N 
ATOM     10  C   UNL A   1      30.896  24.823  25.944  1.00  0.00     0.086 A 
ATOM     11  C   UNL A   1      32.652  24.004  24.831  1.00  0.00     0.101 A 
ATOM     12  C   UNL A   1      30.736  23.459  25.876  1.00  0.00     0.035 A 
BRANCH   9  13
ATOM     13  C   UNL A   1      32.271  26.503  24.734  1.00  0.00     0.125 C 
BRANCH  13  14
ATOM     14  C   UNL A   1      31.287  27.601  25.186  1.00  0.00     0.008 C 
BRANCH  14  15
ATOM     15  C   UNL A   1      30.701  28.376  23.978  1.00  0.00     0.005 C 
BRANCH  15  16
ATOM     16  C   UNL A   1      31.644  28.720  22.811  1.00  0.00     0.000 C 
BRANCH  16  17
ATOM     17  C   UNL A   1      33.086  29.131  23.139  1.00  0.00    -0.003 C 
ATOM     18  C   UNL A   1      34.152  28.471  22.280  1.00  0.00     0.004 C 
ENDBRANCH  16  17
ENDBRANCH  15  16
ENDBRANCH  14  15
BRANCH  14  19
ATOM     19  C   UNL A   1      31.906  28.544  26.247  1.00  0.00     0.002 C 
ATOM     20  C   UNL A   1      31.633  28.095  27.677  1.00  0.00     0.004 C 
ENDBRANCH  14  19
ENDBRANCH  13  14
ENDBRANCH   9  13
ENDBRANCH   6   8
ENDBRANCH   5   6
ENDBRANCH   4   5
ENDBRANCH   3   4
ENDBRANCH   2   3
ENDBRANCH   1   2
BRANCH   1  21
ATOM     21  C   UNL A   1      37.557  21.573  25.460  1.00  0.00     0.188 C 
BRANCH  21  22
ATOM     22  O   UNL A   1      38.929  21.905  25.371  1.00  0.00    -0.376 OA
BRANCH  22  23
ATOM     23  C   UNL A   1      39.743  21.764  26.526  1.00  0.00     0.202 C 
BRANCH  23  24
ATOM     24  C   UNL A   1      40.965  20.840  26.477  1.00  0.00     0.261 C 
BRANCH  24  25
ATOM     25  O   UNL A   1      42.166  21.373  27.011  1.00  0.00    -0.460 OA
BRANCH  25  26
ATOM     26  C   UNL A   1      42.718  22.308  26.218  1.00  0.00     0.338 C 
ATOM     27  O   UNL A   1      42.734  22.338  24.999  1.00  0.00    -0.246 OA
BRANCH  26  28
ATOM     28  C   UNL A   1      43.420  23.275  27.047  1.00  0.00     0.060 A 
ATOM     29  C   UNL A   1      43.070  23.290  28.398  1.00  0.00     0.016 A 
ATOM     30  C   UNL A   1      43.887  24.394  26.352  1.00  0.00     0.016 A 
ATOM     31  C   UNL A   1      42.951  24.516  29.002  1.00  0.00     0.010 A 
ATOM     32  C   UNL A   1      43.690  25.620  26.931  1.00  0.00     0.010 A 
ATOM     33  C   UNL A   1      43.179  25.665  28.232  1.00  0.00    -0.014 A 
BRANCH  33  34
ATOM     34  C   UNL A   1      43.061  26.953  28.904  1.00  0.00     0.031 A 
ATOM     35  C   UNL A   1      44.326  27.132  29.786  1.00  0.00     0.074 A 
ATOM     36  C   UNL A   1      41.881  27.620  28.670  1.00  0.00     0.049 A 
ATOM     37  N   UNL A   1      44.463  27.690  30.945  1.00  0.00    -0.248 NA
ATOM     38  C   UNL A   1      45.613  26.469  29.387  1.00  0.00     0.031 C 
ATOM     39  C   UNL A   1      40.804  27.203  27.722  1.00  0.00     0.029 A 
ATOM     40  N   UNL A   1      41.322  28.774  29.167  1.00  0.00    -0.354 N 
ATOM     41  C   UNL A   1      45.844  27.702  31.255  1.00  0.00     0.074 A 
ATOM     42  C   UNL A   1      46.469  26.792  30.357  1.00  0.00     0.031 C 
ATOM     43  C   UNL A   1      39.720  28.018  27.802  1.00  0.00     0.029 A 
ATOM     44  C   UNL A   1      39.969  29.054  28.785  1.00  0.00     0.049 A 
ATOM     45  H   UNL A   1      41.828  29.379  29.758  1.00  0.00     0.167 HD
ATOM     46  C   UNL A   1      46.396  28.605  32.118  1.00  0.00     0.034 A 
ATOM     47  C   UNL A   1      39.124  30.020  29.290  1.00  0.00     0.034 A 
ATOM     48  C   UNL A   1      45.356  29.414  32.660  1.00  0.00     0.049 A 
ATOM     49  C   UNL A   1      40.007  30.748  30.217  1.00  0.00     0.074 A 
ATOM     50  C   UNL A   1      44.338  29.131  33.531  1.00  0.00     0.029 A 
ATOM     51  N   UNL A   1      45.062  30.570  31.973  1.00  0.00    -0.354 N 
ATOM     52  N   UNL A   1      40.956  31.560  29.862  1.00  0.00    -0.248 NA
ATOM     53  C   UNL A   1      39.902  30.443  31.650  1.00  0.00     0.031 C 
ATOM     54  C   UNL A   1      43.245  29.791  32.936  1.00  0.00     0.029 A 
ATOM     55  C   UNL A   1      43.696  30.672  31.943  1.00  0.00     0.049 A 
ATOM     56  H   UNL A   1      45.707  31.202  31.581  1.00  0.00     0.167 HD
ATOM     57  C   UNL A   1      41.739  31.608  30.986  1.00  0.00     0.074 A 
ATOM     58  C   UNL A   1      40.899  31.202  32.094  1.00  0.00     0.031 C 
ATOM     59  C   UNL A   1      43.084  31.445  30.887  1.00  0.00     0.034 A 
BRANCH  46  60
ATOM     60  C   UNL A   1      47.806  29.070  32.368  1.00  0.00     0.023 A 
ATOM     61  C   UNL A   1      48.193  29.117  33.731  1.00  0.00     0.031 A 
ATOM     62  C   UNL A   1      48.621  29.766  31.469  1.00  0.00     0.131 A 
ATOM     63  C   UNL A   1      49.199  29.976  34.178  1.00  0.00     0.055 A 
ATOM     64  C   UNL A   1      49.693  30.561  31.911  1.00  0.00     0.041 A 
ATOM     65  F   UNL A   1      48.371  29.783  30.153  1.00  0.00    -0.206 F 
ATOM     66  C   UNL A   1      49.954  30.709  33.273  1.00  0.00     0.022 A 
BRANCH  63  67
ATOM     67  S   UNL A   1      49.326  30.261  35.966  1.00  0.00     0.124 S 
ATOM     68  O   UNL A   1      49.145  28.917  36.503  1.00  0.00    -0.237 OA
ATOM     69  O   UNL A   1      50.669  30.821  36.090  1.00  0.00    -0.237 OA
ATOM     70  O   UNL A   1      48.237  31.196  36.238  1.00  0.00    -0.744 OA
ENDBRANCH  63  67
ENDBRANCH  46  60
BRANCH  47  71
ATOM     71  C   UNL A   1      37.657  30.482  29.312  1.00  0.00     0.023 A 
ATOM     72  C   UNL A   1      37.090  31.573  30.000  1.00  0.00     0.031 A 
ATOM     73  C   UNL A   1      36.717  29.773  28.486  1.00  0.00     0.131 A 
ATOM     74  C   UNL A   1      35.722  31.943  29.762  1.00  0.00     0.055 A 
ATOM     75  C   UNL A   1      35.427  30.203  28.175  1.00  0.00     0.041 A 
ATOM     76  F   UNL A   1      37.002  28.591  27.927  1.00  0.00    -0.206 F 
ATOM     77  C   UNL A   1      34.926  31.311  28.803  1.00  0.00     0.022 A 
BRANCH  74  78
ATOM     78  S   UNL A   1      34.897  33.271  30.702  1.00  0.00     0.124 S 
ATOM     79  O   UNL A   1      34.149  32.515  31.701  1.00  0.00    -0.237 OA
ATOM     80  O   UNL A   1      36.015  34.065  31.197  1.00  0.00    -0.237 OA
ATOM     81  O   UNL A   1      34.072  33.939  29.691  1.00  0.00    -0.744 OA
ENDBRANCH  74  78
ENDBRANCH  47  71
BRANCH  59  82
ATOM     82  C   UNL A   1      43.682  31.775  29.523  1.00  0.00     0.023 A 
ATOM     83  C   UNL A   1      44.240  30.747  28.742  1.00  0.00     0.031 A 
ATOM     84  C   UNL A   1      43.814  33.077  29.003  1.00  0.00     0.131 A 
ATOM     85  C   UNL A   1      44.904  31.030  27.531  1.00  0.00     0.055 A 
ATOM     86  C   UNL A   1      44.473  33.364  27.798  1.00  0.00     0.041 A 
ATOM     87  F   UNL A   1      43.321  34.128  29.655  1.00  0.00    -0.206 F 
ATOM     88  C   UNL A   1      45.024  32.335  27.052  1.00  0.00     0.022 A 
BRANCH  85  89
ATOM     89  S   UNL A   1      45.588  29.660  26.561  1.00  0.00     0.124 S 
ATOM     90  O   UNL A   1      46.169  30.344  25.411  1.00  0.00    -0.237 OA
ATOM     91  O   UNL A   1      46.535  29.056  27.493  1.00  0.00    -0.237 OA
ATOM     92  O   UNL A   1      44.417  28.835  26.260  1.00  0.00    -0.744 OA
ENDBRANCH  85  89
ENDBRANCH  59  82
ENDBRANCH  33  34
ENDBRANCH  26  28
ENDBRANCH  25  26
ENDBRANCH  24  25
ENDBRANCH  23  24
ENDBRANCH  22  23
ENDBRANCH  21  22
ENDBRANCH   1  21
TORSDOF 26
ENDMDL
MODEL 3
REMARK VINA RESULT:      -7.9      4.126      6.000
REMARK SMILES CCCC[C@H](CC)Cn1ccc(C(=O)OCCOCCOCCOC(=O)c2ccc(-c3c4nc(c(-c5cc(S(=O)(=O)[O-])ccc5F)c5ccc([nH]5)c(-c5cc(S(=O)(=O)[O-])ccc5F)c5nc(c(-c6cc(S(=O)(=O)[O-])ccc6F)c6ccc3[nH]6)C=C5)C=C4)cc2)c1
REMARK SMILES IDX 19 1 18 2 17 3 16 4 15 5 13 6 14 7 12 8 9 9 10 10 90 11
REMARK SMILES IDX 11 12 8 13 5 14 4 15 3 16 2 17 1 18 6 19 7 20 20 21 21 22
REMARK SMILES IDX 22 23 23 24 24 25 25 26 26 27 27 28 28 29 89 30 29 31 88 32
REMARK SMILES IDX 30 33 31 34 32 35 82 36 33 37 87 38 81 39 83 40 34 41 86 42
REMARK SMILES IDX 80 43 79 44 35 46 67 47 47 48 66 49 48 50 51 51 65 52 84 53
REMARK SMILES IDX 49 54 50 55 64 57 85 58 52 59 36 60 37 61 45 62 38 63 44 64
REMARK SMILES IDX 46 65 43 66 39 67 40 68 41 69 42 70 68 71 69 72 77 73 70 74
REMARK SMILES IDX 76 75 78 76 75 77 71 78 72 79 73 80 74 81 53 82 54 83 62 84
REMARK SMILES IDX 55 85 61 86 63 87 60 88 56 89 57 90 58 91 59 92
REMARK H PARENT 83 45 51 56
REMARK Flexibility Score: inf
ROOT
ATOM      1  C   UNL A   1      38.006  22.460  26.005  1.00  0.00     0.188 C 
ENDROOT
BRANCH   1   2
ATOM      2  O   UNL A   1      37.467  23.428  25.111  1.00  0.00    -0.376 OA
BRANCH   2   3
ATOM      3  C   UNL A   1      36.907  23.046  23.863  1.00  0.00     0.202 C 
BRANCH   3   4
ATOM      4  C   UNL A   1      35.507  22.408  23.777  1.00  0.00     0.261 C 
BRANCH   4   5
ATOM      5  O   UNL A   1      35.312  21.232  24.565  1.00  0.00    -0.460 OA
BRANCH   5   6
ATOM      6  C   UNL A   1      34.027  20.804  24.687  1.00  0.00     0.339 C 
ATOM      7  O   UNL A   1      33.679  19.627  24.717  1.00  0.00    -0.246 OA
BRANCH   6   8
ATOM      8  C   UNL A   1      33.101  21.901  24.930  1.00  0.00     0.077 A 
ATOM      9  N   UNL A   1      32.051  23.631  25.859  1.00  0.00    -0.353 N 
ATOM     10  C   UNL A   1      31.374  23.345  24.701  1.00  0.00     0.086 A 
ATOM     11  C   UNL A   1      32.995  22.666  26.081  1.00  0.00     0.101 A 
ATOM     12  C   UNL A   1      32.045  22.324  24.071  1.00  0.00     0.035 A 
BRANCH   9  13
ATOM     13  C   UNL A   1      31.854  24.862  26.610  1.00  0.00     0.125 C 
BRANCH  13  14
ATOM     14  C   UNL A   1      32.517  26.133  26.042  1.00  0.00     0.008 C 
BRANCH  14  15
ATOM     15  C   UNL A   1      31.583  26.869  25.048  1.00  0.00     0.005 C 
BRANCH  15  16
ATOM     16  C   UNL A   1      31.392  28.387  25.221  1.00  0.00     0.000 C 
BRANCH  16  17
ATOM     17  C   UNL A   1      30.911  29.201  24.012  1.00  0.00    -0.003 C 
ATOM     18  C   UNL A   1      31.061  28.505  22.670  1.00  0.00     0.004 C 
ENDBRANCH  16  17
ENDBRANCH  15  16
ENDBRANCH  14  15
BRANCH  14  19
ATOM     19  C   UNL A   1      33.914  25.848  25.437  1.00  0.00     0.002 C 
ATOM     20  C   UNL A   1      33.959  26.035  23.926  1.00  0.00     0.004 C 
ENDBRANCH  14  19
ENDBRANCH  13  14
ENDBRANCH   9  13
ENDBRANCH   6   8
ENDBRANCH   5   6
ENDBRANCH   4   5
ENDBRANCH   3   4
ENDBRANCH   2   3
ENDBRANCH   1   2
BRANCH   1  21
ATOM     21  C   UNL A   1      39.337  21.737  25.704  1.00  0.00     0.188 C 
BRANCH  21  22
ATOM     22  O   UNL A   1      40.319  21.859  26.715  1.00  0.00    -0.376 OA
BRANCH  22  23
ATOM     23  C   UNL A   1      41.499  22.597  26.436  1.00  0.00     0.202 C 
BRANCH  23  24
ATOM     24  C   UNL A   1      42.613  21.952  25.604  1.00  0.00     0.261 C 
BRANCH  24  25
ATOM     25  O   UNL A   1      43.013  22.665  24.446  1.00  0.00    -0.460 OA
BRANCH  25  26
ATOM     26  C   UNL A   1      44.231  22.301  24.006  1.00  0.00     0.338 C 
ATOM     27  O   UNL A   1      44.540  21.271  23.432  1.00  0.00    -0.246 OA
BRANCH  26  28
ATOM     28  C   UNL A   1      45.201  23.303  24.420  1.00  0.00     0.060 A 
ATOM     29  C   UNL A   1      46.307  22.827  25.127  1.00  0.00     0.016 A 
ATOM     30  C   UNL A   1      44.667  24.584  24.581  1.00  0.00     0.016 A 
ATOM     31  C   UNL A   1      46.734  23.570  26.197  1.00  0.00     0.010 A 
ATOM     32  C   UNL A   1      45.041  25.285  25.698  1.00  0.00     0.010 A 
ATOM     33  C   UNL A   1      46.037  24.744  26.517  1.00  0.00    -0.014 A 
BRANCH  33  34
ATOM     34  C   UNL A   1      46.523  25.521  27.651  1.00  0.00     0.031 A 
ATOM     35  C   UNL A   1      47.932  26.055  27.276  1.00  0.00     0.074 A 
ATOM     36  C   UNL A   1      45.694  25.520  28.749  1.00  0.00     0.049 A 
ATOM     37  N   UNL A   1      48.981  26.230  28.013  1.00  0.00    -0.248 NA
ATOM     38  C   UNL A   1      48.277  26.301  25.835  1.00  0.00     0.031 C 
ATOM     39  C   UNL A   1      44.332  24.912  28.826  1.00  0.00     0.029 A 
ATOM     40  N   UNL A   1      45.804  26.015  30.028  1.00  0.00    -0.354 N 
ATOM     41  C   UNL A   1      49.966  26.859  27.213  1.00  0.00     0.074 A 
ATOM     42  C   UNL A   1      49.544  26.713  25.861  1.00  0.00     0.031 C 
ATOM     43  C   UNL A   1      43.818  24.986  30.081  1.00  0.00     0.029 A 
ATOM     44  C   UNL A   1      44.765  25.657  30.950  1.00  0.00     0.049 A 
ATOM     45  H   UNL A   1      46.559  26.587  30.296  1.00  0.00     0.167 HD
ATOM     46  C   UNL A   1      50.972  27.614  27.744  1.00  0.00     0.034 A 
ATOM     47  C   UNL A   1      44.737  25.850  32.315  1.00  0.00     0.034 A 
ATOM     48  C   UNL A   1      50.875  27.569  29.165  1.00  0.00     0.049 A 
ATOM     49  C   UNL A   1      45.973  26.617  32.545  1.00  0.00     0.074 A 
ATOM     50  C   UNL A   1      51.093  26.560  30.065  1.00  0.00     0.029 A 
ATOM     51  N   UNL A   1      50.113  28.552  29.755  1.00  0.00    -0.354 N 
ATOM     52  N   UNL A   1      46.150  27.863  32.228  1.00  0.00    -0.248 NA
ATOM     53  C   UNL A   1      47.147  25.892  33.052  1.00  0.00     0.031 C 
ATOM     54  C   UNL A   1      50.001  26.705  30.944  1.00  0.00     0.029 A 
ATOM     55  C   UNL A   1      49.373  27.941  30.732  1.00  0.00     0.049 A 
ATOM     56  H   UNL A   1      50.103  29.508  29.522  1.00  0.00     0.167 HD
ATOM     57  C   UNL A   1      47.516  27.971  32.208  1.00  0.00     0.074 A 
ATOM     58  C   UNL A   1      48.031  26.884  33.015  1.00  0.00     0.031 C 
ATOM     59  C   UNL A   1      48.137  28.561  31.153  1.00  0.00     0.034 A 
BRANCH  46  60
ATOM     60  C   UNL A   1      51.912  28.639  27.168  1.00  0.00     0.023 A 
ATOM     61  C   UNL A   1      51.581  29.100  25.870  1.00  0.00     0.031 A 
ATOM     62  C   UNL A   1      53.211  28.913  27.610  1.00  0.00     0.131 A 
ATOM     63  C   UNL A   1      52.551  29.605  25.002  1.00  0.00     0.055 A 
ATOM     64  C   UNL A   1      54.165  29.506  26.766  1.00  0.00     0.041 A 
ATOM     65  F   UNL A   1      53.638  28.545  28.826  1.00  0.00    -0.206 F 
ATOM     66  C   UNL A   1      53.853  29.808  25.441  1.00  0.00     0.022 A 
BRANCH  63  67
ATOM     67  S   UNL A   1      52.108  29.771  23.250  1.00  0.00     0.124 S 
ATOM     68  O   UNL A   1      53.364  29.444  22.585  1.00  0.00    -0.237 OA
ATOM     69  O   UNL A   1      51.039  28.786  23.112  1.00  0.00    -0.237 OA
ATOM     70  O   UNL A   1      51.684  31.165  23.139  1.00  0.00    -0.744 OA
ENDBRANCH  63  67
ENDBRANCH  46  60
BRANCH  47  71
ATOM     71  C   UNL A   1      43.981  25.462  33.596  1.00  0.00     0.023 A 
ATOM     72  C   UNL A   1      43.338  26.302  34.527  1.00  0.00     0.031 A 
ATOM     73  C   UNL A   1      43.831  24.062  33.890  1.00  0.00     0.131 A 
ATOM     74  C   UNL A   1      42.540  25.737  35.579  1.00  0.00     0.055 A 
ATOM     75  C   UNL A   1      42.967  23.522  34.842  1.00  0.00     0.041 A 
ATOM     76  F   UNL A   1      44.538  23.116  33.259  1.00  0.00    -0.206 F 
ATOM     77  C   UNL A   1      42.296  24.365  35.686  1.00  0.00     0.022 A 
BRANCH  74  78
ATOM     78  S   UNL A   1      41.776  26.764  36.880  1.00  0.00     0.124 S 
ATOM     79  O   UNL A   1      42.889  26.959  37.802  1.00  0.00    -0.237 OA
ATOM     80  O   UNL A   1      41.331  27.942  36.146  1.00  0.00    -0.237 OA
ATOM     81  O   UNL A   1      40.697  25.916  37.390  1.00  0.00    -0.744 OA
ENDBRANCH  74  78
ENDBRANCH  47  71
BRANCH  59  82
ATOM     82  C   UNL A   1      47.280  29.538  30.355  1.00  0.00     0.023 A 
ATOM     83  C   UNL A   1      47.104  29.340  28.973  1.00  0.00     0.031 A 
ATOM     84  C   UNL A   1      46.710  30.714  30.880  1.00  0.00     0.131 A 
ATOM     85  C   UNL A   1      46.416  30.283  28.184  1.00  0.00     0.055 A 
ATOM     86  C   UNL A   1      46.024  31.655  30.099  1.00  0.00     0.041 A 
ATOM     87  F   UNL A   1      46.811  31.003  32.175  1.00  0.00    -0.206 F 
ATOM     88  C   UNL A   1      45.872  31.443  28.738  1.00  0.00     0.022 A 
BRANCH  85  89
ATOM     89  S   UNL A   1      46.206  29.963  26.411  1.00  0.00     0.124 S 
ATOM     90  O   UNL A   1      45.174  28.933  26.394  1.00  0.00    -0.237 OA
ATOM     91  O   UNL A   1      45.814  31.272  25.898  1.00  0.00    -0.237 OA
ATOM     92  O   UNL A   1      47.533  29.513  25.986  1.00  0.00    -0.744 OA
ENDBRANCH  85  89
ENDBRANCH  59  82
ENDBRANCH  33  34
ENDBRANCH  26  28
ENDBRANCH  25  26
ENDBRANCH  24  25
ENDBRANCH  23  24
ENDBRANCH  22  23
ENDBRANCH  21  22
ENDBRANCH   1  21
TORSDOF 26
ENDMDL
