MODEL 1
REMARK VINA RESULT:     -10.3      0.000      0.000
REMARK SMILES Cc1ccc2oc(C(=O)N[C@@H]3C=C[C@H](C(=O)OCCOCCOCCOC(=O)c4ccc(-c5c6nc(c(-c7cc(S(=O)(=O)[O-])ccc7F)c7ccc([nH]7)c(-c7cc(S(=O)(=O)[O-])ccc7F)c7nc(c(-c8cc(S(=O)(=O)[O-])ccc8F)c8ccc5[nH]8)C=C7)C=C6)cc4)C3)cc2c1
REMARK SMILES IDX 22 1 21 2 20 3 19 4 18 5 17 6 15 7 16 8 14 9 11 10 12 11
REMARK SMILES IDX 92 12 13 13 10 14 8 15 9 16 7 18 1 19 2 20 3 21 95 22 4 23
REMARK SMILES IDX 94 24 5 25 93 26 6 27 23 28 24 29 25 30 26 31 27 32 28 33
REMARK SMILES IDX 29 34 30 35 91 36 31 37 90 38 32 39 33 40 34 41 84 42 35 43
REMARK SMILES IDX 89 44 83 45 85 46 36 47 88 48 82 49 81 50 37 52 69 53 49 54
REMARK SMILES IDX 68 55 50 56 53 57 67 58 86 59 51 60 52 61 66 63 87 64 54 65
REMARK SMILES IDX 38 66 39 67 47 68 40 69 46 70 48 71 45 72 41 73 42 74 43 75
REMARK SMILES IDX 44 76 70 77 71 78 79 79 72 80 78 81 80 82 77 83 73 84 74 85
REMARK SMILES IDX 75 86 76 87 55 88 56 89 64 90 57 91 63 92 65 93 62 94 58 95
REMARK SMILES IDX 59 96 60 97 61 98
REMARK H PARENT 10 17 85 51 53 62
REMARK Flexibility Score: inf
ROOT
ATOM      1  C   UNL A   1      35.102  32.263  28.015  1.00  0.00     0.188 C 
ENDROOT
BRANCH   1   2
ATOM      2  C   UNL A   1      34.477  30.897  27.662  1.00  0.00     0.188 C 
BRANCH   2   3
ATOM      3  O   UNL A   1      33.144  31.008  27.195  1.00  0.00    -0.376 OA
BRANCH   3   4
ATOM      4  C   UNL A   1      32.739  30.056  26.224  1.00  0.00     0.202 C 
BRANCH   4   5
ATOM      5  C   UNL A   1      33.130  28.584  26.473  1.00  0.00     0.261 C 
BRANCH   5   6
ATOM      6  O   UNL A   1      33.162  27.717  25.316  1.00  0.00    -0.463 OA
BRANCH   6   7
ATOM      7  C   UNL A   1      32.077  26.918  25.147  1.00  0.00     0.312 C 
ATOM      8  O   UNL A   1      31.184  26.835  25.979  1.00  0.00    -0.252 OA
BRANCH   7   9
ATOM      9  C   UNL A   1      32.009  26.317  23.725  1.00  0.00     0.124 C 
ATOM     10  C   UNL A   1      30.660  24.299  23.768  1.00  0.00     0.106 C 
ATOM     11  C   UNL A   1      32.047  24.001  23.338  1.00  0.00    -0.006 C 
ATOM     12  C   UNL A   1      30.583  25.804  23.488  1.00  0.00     0.048 C 
ATOM     13  C   UNL A   1      32.808  25.108  23.353  1.00  0.00    -0.014 C 
BRANCH  10  14
ATOM     14  N   UNL A   1      30.347  23.875  25.137  1.00  0.00    -0.343 N 
ATOM     15  C   UNL A   1      30.980  23.437  26.290  1.00  0.00     0.287 C 
ATOM     16  O   UNL A   1      30.277  23.477  27.305  1.00  0.00    -0.266 OA
ATOM     17  H   UNL A   1      29.375  23.913  25.284  1.00  0.00     0.164 HD
BRANCH  15  18
ATOM     18  C   UNL A   1      32.355  22.962  26.338  1.00  0.00     0.192 A 
ATOM     19  C   UNL A   1      37.663  20.702  24.738  1.00  0.00     0.044 C 
ATOM     20  C   UNL A   1      36.604  21.566  25.361  1.00  0.00    -0.050 A 
ATOM     21  C   UNL A   1      36.871  22.886  25.757  1.00  0.00     0.007 A 
ATOM     22  C   UNL A   1      35.306  21.052  25.490  1.00  0.00     0.015 A 
ATOM     23  C   UNL A   1      35.846  23.755  26.179  1.00  0.00     0.048 A 
ATOM     24  C   UNL A   1      34.292  21.888  25.975  1.00  0.00     0.021 A 
ATOM     25  C   UNL A   1      34.558  23.224  26.208  1.00  0.00     0.135 A 
ATOM     26  C   UNL A   1      32.946  21.715  26.351  1.00  0.00     0.065 A 
ATOM     27  O   UNL A   1      33.385  23.893  26.425  1.00  0.00    -0.451 OA
ENDBRANCH  15  18
ENDBRANCH  10  14
ENDBRANCH   7   9
ENDBRANCH   6   7
ENDBRANCH   5   6
ENDBRANCH   4   5
ENDBRANCH   3   4
ENDBRANCH   2   3
ENDBRANCH   1   2
BRANCH   1  28
ATOM     28  O   UNL A   1      34.404  33.181  28.838  1.00  0.00    -0.376 OA
BRANCH  28  29
ATOM     29  C   UNL A   1      34.264  34.512  28.381  1.00  0.00     0.202 C 
BRANCH  29  30
ATOM     30  C   UNL A   1      33.231  35.438  29.051  1.00  0.00     0.261 C 
BRANCH  30  31
ATOM     31  O   UNL A   1      32.578  34.937  30.236  1.00  0.00    -0.460 OA
BRANCH  31  32
ATOM     32  C   UNL A   1      32.839  35.600  31.393  1.00  0.00     0.338 C 
ATOM     33  O   UNL A   1      32.170  36.503  31.879  1.00  0.00    -0.246 OA
BRANCH  32  34
ATOM     34  C   UNL A   1      33.951  34.940  32.122  1.00  0.00     0.060 A 
ATOM     35  C   UNL A   1      35.251  35.465  32.014  1.00  0.00     0.016 A 
ATOM     36  C   UNL A   1      33.732  33.780  32.864  1.00  0.00     0.016 A 
ATOM     37  C   UNL A   1      36.331  34.831  32.635  1.00  0.00     0.010 A 
ATOM     38  C   UNL A   1      34.822  33.125  33.457  1.00  0.00     0.010 A 
ATOM     39  C   UNL A   1      36.131  33.630  33.324  1.00  0.00    -0.014 A 
BRANCH  39  40
ATOM     40  C   UNL A   1      37.296  32.791  33.718  1.00  0.00     0.031 A 
ATOM     41  C   UNL A   1      38.040  33.150  34.979  1.00  0.00     0.074 A 
ATOM     42  C   UNL A   1      37.692  31.731  32.989  1.00  0.00     0.049 A 
ATOM     43  N   UNL A   1      39.139  32.644  35.474  1.00  0.00    -0.248 NA
ATOM     44  C   UNL A   1      37.459  34.236  35.784  1.00  0.00     0.031 C 
ATOM     45  C   UNL A   1      37.026  31.235  31.787  1.00  0.00     0.029 A 
ATOM     46  N   UNL A   1      38.765  30.887  33.151  1.00  0.00    -0.354 N 
ATOM     47  C   UNL A   1      39.392  33.358  36.641  1.00  0.00     0.074 A 
ATOM     48  C   UNL A   1      38.347  34.353  36.759  1.00  0.00     0.031 C 
ATOM     49  C   UNL A   1      37.717  30.184  31.309  1.00  0.00     0.029 A 
ATOM     50  C   UNL A   1      38.900  29.961  32.142  1.00  0.00     0.049 A 
ATOM     51  H   UNL A   1      39.380  30.940  33.917  1.00  0.00     0.167 HD
ATOM     52  C   UNL A   1      40.400  33.197  37.535  1.00  0.00     0.034 A 
ATOM     53  C   UNL A   1      39.880  29.064  31.899  1.00  0.00     0.034 A 
ATOM     54  C   UNL A   1      41.445  32.213  37.400  1.00  0.00     0.049 A 
ATOM     55  C   UNL A   1      41.055  28.977  32.848  1.00  0.00     0.074 A 
ATOM     56  C   UNL A   1      42.506  31.962  38.254  1.00  0.00     0.029 A 
ATOM     57  N   UNL A   1      41.576  31.328  36.337  1.00  0.00    -0.354 N 
ATOM     58  N   UNL A   1      41.285  29.657  33.949  1.00  0.00    -0.248 NA
ATOM     59  C   UNL A   1      42.101  27.997  32.524  1.00  0.00     0.031 C 
ATOM     60  C   UNL A   1      43.321  30.989  37.667  1.00  0.00     0.029 A 
ATOM     61  C   UNL A   1      42.720  30.560  36.494  1.00  0.00     0.049 A 
ATOM     62  H   UNL A   1      40.948  31.258  35.582  1.00  0.00     0.167 HD
ATOM     63  C   UNL A   1      42.481  29.157  34.465  1.00  0.00     0.074 A 
ATOM     64  C   UNL A   1      42.916  28.112  33.563  1.00  0.00     0.031 C 
ATOM     65  C   UNL A   1      43.152  29.522  35.588  1.00  0.00     0.034 A 
BRANCH  52  66
ATOM     66  C   UNL A   1      40.447  34.152  38.705  1.00  0.00     0.023 A 
ATOM     67  C   UNL A   1      39.884  33.827  39.952  1.00  0.00     0.031 A 
ATOM     68  C   UNL A   1      41.040  35.419  38.562  1.00  0.00     0.131 A 
ATOM     69  C   UNL A   1      39.859  34.783  40.978  1.00  0.00     0.055 A 
ATOM     70  C   UNL A   1      41.089  36.334  39.615  1.00  0.00     0.041 A 
ATOM     71  F   UNL A   1      41.572  35.797  37.388  1.00  0.00    -0.206 F 
ATOM     72  C   UNL A   1      40.482  36.024  40.828  1.00  0.00     0.022 A 
BRANCH  69  73
ATOM     73  S   UNL A   1      38.863  34.440  42.455  1.00  0.00     0.124 S 
ATOM     74  O   UNL A   1      37.792  35.425  42.324  1.00  0.00    -0.237 OA
ATOM     75  O   UNL A   1      38.477  33.047  42.258  1.00  0.00    -0.237 OA
ATOM     76  O   UNL A   1      39.790  34.682  43.558  1.00  0.00    -0.744 OA
ENDBRANCH  69  73
ENDBRANCH  52  66
BRANCH  53  77
ATOM     77  C   UNL A   1      39.835  28.198  30.683  1.00  0.00     0.023 A 
ATOM     78  C   UNL A   1      40.556  28.535  29.525  1.00  0.00     0.031 A 
ATOM     79  C   UNL A   1      39.011  27.059  30.632  1.00  0.00     0.131 A 
ATOM     80  C   UNL A   1      40.399  27.776  28.355  1.00  0.00     0.055 A 
ATOM     81  C   UNL A   1      38.908  26.270  29.485  1.00  0.00     0.041 A 
ATOM     82  F   UNL A   1      38.290  26.695  31.705  1.00  0.00    -0.206 F 
ATOM     83  C   UNL A   1      39.594  26.635  28.332  1.00  0.00     0.022 A 
BRANCH  80  84
ATOM     84  S   UNL A   1      41.189  28.361  26.829  1.00  0.00     0.124 S 
ATOM     85  O   UNL A   1      42.410  28.970  27.344  1.00  0.00    -0.237 OA
ATOM     86  O   UNL A   1      41.357  27.119  26.081  1.00  0.00    -0.237 OA
ATOM     87  O   UNL A   1      40.210  29.294  26.276  1.00  0.00    -0.744 OA
ENDBRANCH  80  84
ENDBRANCH  53  77
BRANCH  65  88
ATOM     88  C   UNL A   1      44.401  28.742  35.939  1.00  0.00     0.023 A 
ATOM     89  C   UNL A   1      44.367  27.599  36.754  1.00  0.00     0.031 A 
ATOM     90  C   UNL A   1      45.652  29.159  35.444  1.00  0.00     0.131 A 
ATOM     91  C   UNL A   1      45.561  26.945  37.097  1.00  0.00     0.055 A 
ATOM     92  C   UNL A   1      46.828  28.465  35.731  1.00  0.00     0.041 A 
ATOM     93  F   UNL A   1      45.751  30.247  34.663  1.00  0.00    -0.206 F 
ATOM     94  C   UNL A   1      46.788  27.359  36.574  1.00  0.00     0.022 A 
BRANCH  91  95
ATOM     95  S   UNL A   1      45.505  25.605  38.319  1.00  0.00     0.124 S 
ATOM     96  O   UNL A   1      44.792  26.234  39.426  1.00  0.00    -0.237 OA
ATOM     97  O   UNL A   1      44.778  24.561  37.605  1.00  0.00    -0.237 OA
ATOM     98  O   UNL A   1      46.915  25.314  38.575  1.00  0.00    -0.744 OA
ENDBRANCH  91  95
ENDBRANCH  65  88
ENDBRANCH  39  40
ENDBRANCH  32  34
ENDBRANCH  31  32
ENDBRANCH  30  31
ENDBRANCH  29  30
ENDBRANCH  28  29
ENDBRANCH   1  28
TORSDOF 22
ENDMDL
MODEL 2
REMARK VINA RESULT:     -10.2      3.155      8.931
REMARK SMILES Cc1ccc2oc(C(=O)N[C@@H]3C=C[C@H](C(=O)OCCOCCOCCOC(=O)c4ccc(-c5c6nc(c(-c7cc(S(=O)(=O)[O-])ccc7F)c7ccc([nH]7)c(-c7cc(S(=O)(=O)[O-])ccc7F)c7nc(c(-c8cc(S(=O)(=O)[O-])ccc8F)c8ccc5[nH]8)C=C7)C=C6)cc4)C3)cc2c1
REMARK SMILES IDX 22 1 21 2 20 3 19 4 18 5 17 6 15 7 16 8 14 9 11 10 12 11
REMARK SMILES IDX 92 12 13 13 10 14 8 15 9 16 7 18 1 19 2 20 3 21 95 22 4 23
REMARK SMILES IDX 94 24 5 25 93 26 6 27 23 28 24 29 25 30 26 31 27 32 28 33
REMARK SMILES IDX 29 34 30 35 91 36 31 37 90 38 32 39 33 40 34 41 84 42 35 43
REMARK SMILES IDX 89 44 83 45 85 46 36 47 88 48 82 49 81 50 37 52 69 53 49 54
REMARK SMILES IDX 68 55 50 56 53 57 67 58 86 59 51 60 52 61 66 63 87 64 54 65
REMARK SMILES IDX 38 66 39 67 47 68 40 69 46 70 48 71 45 72 41 73 42 74 43 75
REMARK SMILES IDX 44 76 70 77 71 78 79 79 72 80 78 81 80 82 77 83 73 84 74 85
REMARK SMILES IDX 75 86 76 87 55 88 56 89 64 90 57 91 63 92 65 93 62 94 58 95
REMARK SMILES IDX 59 96 60 97 61 98
REMARK H PARENT 10 17 85 51 53 62
REMARK Flexibility Score: inf
ROOT
ATOM      1  C   UNL A   1      41.450  20.737  27.058  1.00  0.00     0.188 C 
ENDROOT
BRANCH   1   2
ATOM      2  C   UNL A   1      40.304  21.469  26.327  1.00  0.00     0.188 C 
BRANCH   2   3
ATOM      3  O   UNL A   1      39.561  22.319  27.182  1.00  0.00    -0.376 OA
BRANCH   3   4
ATOM      4  C   UNL A   1      39.424  23.667  26.762  1.00  0.00     0.202 C 
BRANCH   4   5
ATOM      5  C   UNL A   1      38.080  24.071  26.120  1.00  0.00     0.261 C 
BRANCH   5   6
ATOM      6  O   UNL A   1      37.316  23.015  25.493  1.00  0.00    -0.463 OA
BRANCH   6   7
ATOM      7  C   UNL A   1      36.134  23.391  24.940  1.00  0.00     0.312 C 
ATOM      8  O   UNL A   1      35.804  23.069  23.806  1.00  0.00    -0.252 OA
BRANCH   7   9
ATOM      9  C   UNL A   1      35.197  24.067  25.966  1.00  0.00     0.124 C 
ATOM     10  C   UNL A   1      32.888  23.625  25.361  1.00  0.00     0.106 C 
ATOM     11  C   UNL A   1      33.173  25.080  25.341  1.00  0.00    -0.006 C 
ATOM     12  C   UNL A   1      34.027  23.116  26.250  1.00  0.00     0.048 C 
ATOM     13  C   UNL A   1      34.460  25.326  25.635  1.00  0.00    -0.014 C 
BRANCH  10  14
ATOM     14  N   UNL A   1      32.775  23.013  24.033  1.00  0.00    -0.343 N 
ATOM     15  C   UNL A   1      32.643  21.768  23.438  1.00  0.00     0.287 C 
ATOM     16  O   UNL A   1      32.293  21.802  22.253  1.00  0.00    -0.266 OA
ATOM     17  H   UNL A   1      32.801  23.712  23.340  1.00  0.00     0.164 HD
BRANCH  15  18
ATOM     18  C   UNL A   1      32.890  20.506  24.120  1.00  0.00     0.192 A 
ATOM     19  C   UNL A   1      32.775  14.702  25.585  1.00  0.00     0.044 C 
ATOM     20  C   UNL A   1      33.251  16.099  25.302  1.00  0.00    -0.050 A 
ATOM     21  C   UNL A   1      34.586  16.364  24.958  1.00  0.00     0.007 A 
ATOM     22  C   UNL A   1      32.319  17.146  25.328  1.00  0.00     0.015 A 
ATOM     23  C   UNL A   1      35.000  17.639  24.525  1.00  0.00     0.048 A 
ATOM     24  C   UNL A   1      32.738  18.433  24.965  1.00  0.00     0.021 A 
ATOM     25  C   UNL A   1      34.019  18.627  24.484  1.00  0.00     0.135 A 
ATOM     26  C   UNL A   1      32.158  19.716  24.983  1.00  0.00     0.065 A 
ATOM     27  O   UNL A   1      34.125  19.886  23.960  1.00  0.00    -0.451 OA
ENDBRANCH  15  18
ENDBRANCH  10  14
ENDBRANCH   7   9
ENDBRANCH   6   7
ENDBRANCH   5   6
ENDBRANCH   4   5
ENDBRANCH   3   4
ENDBRANCH   2   3
ENDBRANCH   1   2
BRANCH   1  28
ATOM     28  O   UNL A   1      42.799  21.082  26.804  1.00  0.00    -0.376 OA
BRANCH  28  29
ATOM     29  C   UNL A   1      43.166  21.404  25.477  1.00  0.00     0.202 C 
BRANCH  29  30
ATOM     30  C   UNL A   1      42.882  22.816  24.932  1.00  0.00     0.261 C 
BRANCH  30  31
ATOM     31  O   UNL A   1      44.024  23.662  24.685  1.00  0.00    -0.460 OA
BRANCH  31  32
ATOM     32  C   UNL A   1      44.725  24.061  25.779  1.00  0.00     0.338 C 
ATOM     33  O   UNL A   1      45.915  23.860  25.992  1.00  0.00    -0.246 OA
BRANCH  32  34
ATOM     34  C   UNL A   1      43.901  24.972  26.613  1.00  0.00     0.060 A 
ATOM     35  C   UNL A   1      44.069  26.362  26.482  1.00  0.00     0.016 A 
ATOM     36  C   UNL A   1      43.008  24.468  27.556  1.00  0.00     0.016 A 
ATOM     37  C   UNL A   1      43.357  27.247  27.297  1.00  0.00     0.010 A 
ATOM     38  C   UNL A   1      42.320  25.356  28.397  1.00  0.00     0.010 A 
ATOM     39  C   UNL A   1      42.510  26.749  28.292  1.00  0.00    -0.014 A 
BRANCH  39  40
ATOM     40  C   UNL A   1      41.994  27.653  29.356  1.00  0.00     0.031 A 
ATOM     41  C   UNL A   1      42.684  27.644  30.696  1.00  0.00     0.074 A 
ATOM     42  C   UNL A   1      40.944  28.471  29.152  1.00  0.00     0.049 A 
ATOM     43  N   UNL A   1      42.363  28.256  31.806  1.00  0.00    -0.248 NA
ATOM     44  C   UNL A   1      43.902  26.824  30.789  1.00  0.00     0.031 C 
ATOM     45  C   UNL A   1      40.226  28.627  27.889  1.00  0.00     0.029 A 
ATOM     46  N   UNL A   1      40.291  29.317  30.016  1.00  0.00    -0.354 N 
ATOM     47  C   UNL A   1      43.329  27.885  32.736  1.00  0.00     0.074 A 
ATOM     48  C   UNL A   1      44.227  26.969  32.064  1.00  0.00     0.031 C 
ATOM     49  C   UNL A   1      39.220  29.502  28.066  1.00  0.00     0.029 A 
ATOM     50  C   UNL A   1      39.191  29.932  29.464  1.00  0.00     0.049 A 
ATOM     51  H   UNL A   1      40.583  29.469  30.943  1.00  0.00     0.167 HD
ATOM     52  C   UNL A   1      43.459  28.273  34.028  1.00  0.00     0.034 A 
ATOM     53  C   UNL A   1      38.251  30.721  30.029  1.00  0.00     0.034 A 
ATOM     54  C   UNL A   1      42.549  29.175  34.693  1.00  0.00     0.049 A 
ATOM     55  C   UNL A   1      38.351  31.052  31.502  1.00  0.00     0.074 A 
ATOM     56  C   UNL A   1      42.597  29.639  35.997  1.00  0.00     0.029 A 
ATOM     57  N   UNL A   1      41.418  29.735  34.115  1.00  0.00    -0.354 N 
ATOM     58  N   UNL A   1      39.268  30.696  32.373  1.00  0.00    -0.248 NA
ATOM     59  C   UNL A   1      37.289  31.898  32.067  1.00  0.00     0.031 C 
ATOM     60  C   UNL A   1      41.453  30.408  36.231  1.00  0.00     0.029 A 
ATOM     61  C   UNL A   1      40.740  30.507  35.047  1.00  0.00     0.049 A 
ATOM     62  H   UNL A   1      41.138  29.603  33.181  1.00  0.00     0.167 HD
ATOM     63  C   UNL A   1      38.912  31.307  33.575  1.00  0.00     0.074 A 
ATOM     64  C   UNL A   1      37.705  32.063  33.315  1.00  0.00     0.031 C 
ATOM     65  C   UNL A   1      39.533  31.255  34.783  1.00  0.00     0.034 A 
BRANCH  52  66
ATOM     66  C   UNL A   1      44.596  27.673  34.822  1.00  0.00     0.023 A 
ATOM     67  C   UNL A   1      44.485  26.418  35.446  1.00  0.00     0.031 A 
ATOM     68  C   UNL A   1      45.801  28.381  34.981  1.00  0.00     0.131 A 
ATOM     69  C   UNL A   1      45.525  25.945  36.259  1.00  0.00     0.055 A 
ATOM     70  C   UNL A   1      46.867  27.865  35.719  1.00  0.00     0.041 A 
ATOM     71  F   UNL A   1      45.959  29.595  34.430  1.00  0.00    -0.206 F 
ATOM     72  C   UNL A   1      46.727  26.647  36.378  1.00  0.00     0.022 A 
BRANCH  69  73
ATOM     73  S   UNL A   1      45.225  24.479  37.284  1.00  0.00     0.124 S 
ATOM     74  O   UNL A   1      44.304  25.006  38.289  1.00  0.00    -0.237 OA
ATOM     75  O   UNL A   1      44.657  23.537  36.327  1.00  0.00    -0.237 OA
ATOM     76  O   UNL A   1      46.553  24.135  37.787  1.00  0.00    -0.744 OA
ENDBRANCH  69  73
ENDBRANCH  52  66
BRANCH  53  77
ATOM     77  C   UNL A   1      37.096  31.224  29.226  1.00  0.00     0.023 A 
ATOM     78  C   UNL A   1      36.102  30.348  28.758  1.00  0.00     0.031 A 
ATOM     79  C   UNL A   1      37.007  32.576  28.849  1.00  0.00     0.131 A 
ATOM     80  C   UNL A   1      35.096  30.823  27.901  1.00  0.00     0.055 A 
ATOM     81  C   UNL A   1      35.969  33.055  28.048  1.00  0.00     0.041 A 
ATOM     82  F   UNL A   1      37.936  33.456  29.257  1.00  0.00    -0.206 F 
ATOM     83  C   UNL A   1      35.013  32.173  27.557  1.00  0.00     0.022 A 
BRANCH  80  84
ATOM     84  S   UNL A   1      33.952  29.624  27.159  1.00  0.00     0.124 S 
ATOM     85  O   UNL A   1      32.659  30.145  27.590  1.00  0.00    -0.237 OA
ATOM     86  O   UNL A   1      34.256  29.757  25.738  1.00  0.00    -0.237 OA
ATOM     87  O   UNL A   1      34.349  28.355  27.765  1.00  0.00    -0.744 OA
ENDBRANCH  80  84
ENDBRANCH  53  77
BRANCH  65  88
ATOM     88  C   UNL A   1      38.950  32.089  35.903  1.00  0.00     0.023 A 
ATOM     89  C   UNL A   1      38.234  31.518  36.968  1.00  0.00     0.031 A 
ATOM     90  C   UNL A   1      39.118  33.487  35.899  1.00  0.00     0.131 A 
ATOM     91  C   UNL A   1      37.665  32.342  37.953  1.00  0.00     0.055 A 
ATOM     92  C   UNL A   1      38.610  34.295  36.916  1.00  0.00     0.041 A 
ATOM     93  F   UNL A   1      39.789  34.093  34.905  1.00  0.00    -0.206 F 
ATOM     94  C   UNL A   1      37.865  33.724  37.944  1.00  0.00     0.022 A 
BRANCH  91  95
ATOM     95  S   UNL A   1      36.570  31.595  39.192  1.00  0.00     0.124 S 
ATOM     96  O   UNL A   1      37.366  31.711  40.410  1.00  0.00    -0.237 OA
ATOM     97  O   UNL A   1      35.389  32.448  39.120  1.00  0.00    -0.237 OA
ATOM     98  O   UNL A   1      36.380  30.230  38.704  1.00  0.00    -0.744 OA
ENDBRANCH  91  95
ENDBRANCH  65  88
ENDBRANCH  39  40
ENDBRANCH  32  34
ENDBRANCH  31  32
ENDBRANCH  30  31
ENDBRANCH  29  30
ENDBRANCH  28  29
ENDBRANCH   1  28
TORSDOF 22
ENDMDL
MODEL 3
REMARK VINA RESULT:     -10.2      6.543     12.660
REMARK SMILES Cc1ccc2oc(C(=O)N[C@@H]3C=C[C@H](C(=O)OCCOCCOCCOC(=O)c4ccc(-c5c6nc(c(-c7cc(S(=O)(=O)[O-])ccc7F)c7ccc([nH]7)c(-c7cc(S(=O)(=O)[O-])ccc7F)c7nc(c(-c8cc(S(=O)(=O)[O-])ccc8F)c8ccc5[nH]8)C=C7)C=C6)cc4)C3)cc2c1
REMARK SMILES IDX 22 1 21 2 20 3 19 4 18 5 17 6 15 7 16 8 14 9 11 10 12 11
REMARK SMILES IDX 92 12 13 13 10 14 8 15 9 16 7 18 1 19 2 20 3 21 95 22 4 23
REMARK SMILES IDX 94 24 5 25 93 26 6 27 23 28 24 29 25 30 26 31 27 32 28 33
REMARK SMILES IDX 29 34 30 35 91 36 31 37 90 38 32 39 33 40 34 41 84 42 35 43
REMARK SMILES IDX 89 44 83 45 85 46 36 47 88 48 82 49 81 50 37 52 69 53 49 54
REMARK SMILES IDX 68 55 50 56 53 57 67 58 86 59 51 60 52 61 66 63 87 64 54 65
REMARK SMILES IDX 38 66 39 67 47 68 40 69 46 70 48 71 45 72 41 73 42 74 43 75
REMARK SMILES IDX 44 76 70 77 71 78 79 79 72 80 78 81 80 82 77 83 73 84 74 85
REMARK SMILES IDX 75 86 76 87 55 88 56 89 64 90 57 91 63 92 65 93 62 94 58 95
REMARK SMILES IDX 59 96 60 97 61 98
REMARK H PARENT 10 17 85 51 53 62
REMARK Flexibility Score: inf
ROOT
ATOM      1  C   UNL A   1      41.630  20.145  26.814  1.00  0.00     0.188 C 
ENDROOT
BRANCH   1   2
ATOM      2  C   UNL A   1      40.229  20.097  26.167  1.00  0.00     0.188 C 
BRANCH   2   3
ATOM      3  O   UNL A   1      39.629  21.375  26.062  1.00  0.00    -0.376 OA
BRANCH   3   4
ATOM      4  C   UNL A   1      38.340  21.416  25.469  1.00  0.00     0.202 C 
BRANCH   4   5
ATOM      5  C   UNL A   1      37.460  22.646  25.777  1.00  0.00     0.261 C 
BRANCH   5   6
ATOM      6  O   UNL A   1      36.146  22.672  25.174  1.00  0.00    -0.463 OA
BRANCH   6   7
ATOM      7  C   UNL A   1      35.231  21.829  25.718  1.00  0.00     0.312 C 
ATOM      8  O   UNL A   1      34.870  21.912  26.885  1.00  0.00    -0.252 OA
BRANCH   7   9
ATOM      9  C   UNL A   1      34.564  20.926  24.657  1.00  0.00     0.124 C 
ATOM     10  C   UNL A   1      32.151  21.107  24.848  1.00  0.00     0.106 C 
ATOM     11  C   UNL A   1      32.599  19.716  25.094  1.00  0.00    -0.006 C 
ATOM     12  C   UNL A   1      33.353  21.671  24.083  1.00  0.00     0.048 C 
ATOM     13  C   UNL A   1      33.937  19.619  25.032  1.00  0.00    -0.014 C 
BRANCH  10  14
ATOM     14  N   UNL A   1      31.747  21.835  26.055  1.00  0.00    -0.343 N 
ATOM     15  C   UNL A   1      31.070  22.984  26.433  1.00  0.00     0.287 C 
ATOM     16  O   UNL A   1      30.738  23.014  27.623  1.00  0.00    -0.266 OA
ATOM     17  H   UNL A   1      32.057  21.353  26.856  1.00  0.00     0.164 HD
BRANCH  15  18
ATOM     18  C   UNL A   1      30.759  24.085  25.532  1.00  0.00     0.192 A 
ATOM     19  C   UNL A   1      30.827  29.418  22.813  1.00  0.00     0.044 C 
ATOM     20  C   UNL A   1      30.783  27.937  23.060  1.00  0.00    -0.050 A 
ATOM     21  C   UNL A   1      31.166  27.016  22.071  1.00  0.00     0.007 A 
ATOM     22  C   UNL A   1      30.407  27.476  24.329  1.00  0.00     0.015 A 
ATOM     23  C   UNL A   1      31.293  25.641  22.349  1.00  0.00     0.048 A 
ATOM     24  C   UNL A   1      30.463  26.101  24.594  1.00  0.00     0.021 A 
ATOM     25  C   UNL A   1      30.991  25.242  23.649  1.00  0.00     0.135 A 
ATOM     26  C   UNL A   1      30.066  25.270  25.659  1.00  0.00     0.065 A 
ATOM     27  O   UNL A   1      31.183  24.008  24.209  1.00  0.00    -0.451 OA
ENDBRANCH  15  18
ENDBRANCH  10  14
ENDBRANCH   7   9
ENDBRANCH   6   7
ENDBRANCH   5   6
ENDBRANCH   4   5
ENDBRANCH   3   4
ENDBRANCH   2   3
ENDBRANCH   1   2
BRANCH   1  28
ATOM     28  O   UNL A   1      42.089  19.070  27.613  1.00  0.00    -0.376 OA
BRANCH  28  29
ATOM     29  C   UNL A   1      43.010  18.162  27.043  1.00  0.00     0.202 C 
BRANCH  29  30
ATOM     30  C   UNL A   1      43.455  18.350  25.581  1.00  0.00     0.261 C 
BRANCH  30  31
ATOM     31  O   UNL A   1      44.730  18.988  25.364  1.00  0.00    -0.460 OA
BRANCH  31  32
ATOM     32  C   UNL A   1      44.782  19.904  24.361  1.00  0.00     0.338 C 
ATOM     33  O   UNL A   1      44.795  19.666  23.160  1.00  0.00    -0.246 OA
BRANCH  32  34
ATOM     34  C   UNL A   1      44.609  21.274  24.909  1.00  0.00     0.060 A 
ATOM     35  C   UNL A   1      44.157  22.300  24.061  1.00  0.00     0.016 A 
ATOM     36  C   UNL A   1      44.942  21.564  26.231  1.00  0.00     0.016 A 
ATOM     37  C   UNL A   1      44.044  23.614  24.526  1.00  0.00     0.010 A 
ATOM     38  C   UNL A   1      44.863  22.889  26.686  1.00  0.00     0.010 A 
ATOM     39  C   UNL A   1      44.440  23.926  25.830  1.00  0.00    -0.014 A 
BRANCH  39  40
ATOM     40  C   UNL A   1      44.621  25.347  26.237  1.00  0.00     0.031 A 
ATOM     41  C   UNL A   1      46.004  25.941  26.153  1.00  0.00     0.074 A 
ATOM     42  C   UNL A   1      43.594  26.105  26.664  1.00  0.00     0.049 A 
ATOM     43  N   UNL A   1      46.436  27.112  26.544  1.00  0.00    -0.248 NA
ATOM     44  C   UNL A   1      47.038  25.088  25.548  1.00  0.00     0.031 C 
ATOM     45  C   UNL A   1      42.198  25.678  26.732  1.00  0.00     0.029 A 
ATOM     46  N   UNL A   1      43.574  27.395  27.137  1.00  0.00    -0.354 N 
ATOM     47  C   UNL A   1      47.795  27.132  26.248  1.00  0.00     0.074 A 
ATOM     48  C   UNL A   1      48.118  25.843  25.674  1.00  0.00     0.031 C 
ATOM     49  C   UNL A   1      41.460  26.683  27.236  1.00  0.00     0.029 A 
ATOM     50  C   UNL A   1      42.334  27.807  27.572  1.00  0.00     0.049 A 
ATOM     51  H   UNL A   1      44.371  27.972  27.162  1.00  0.00     0.167 HD
ATOM     52  C   UNL A   1      48.691  28.133  26.433  1.00  0.00     0.034 A 
ATOM     53  C   UNL A   1      41.957  28.943  28.198  1.00  0.00     0.034 A 
ATOM     54  C   UNL A   1      48.362  29.409  27.020  1.00  0.00     0.049 A 
ATOM     55  C   UNL A   1      42.995  30.002  28.498  1.00  0.00     0.074 A 
ATOM     56  C   UNL A   1      49.193  30.494  27.243  1.00  0.00     0.029 A 
ATOM     57  N   UNL A   1      47.107  29.769  27.496  1.00  0.00    -0.354 N 
ATOM     58  N   UNL A   1      44.278  30.012  28.214  1.00  0.00    -0.248 NA
ATOM     59  C   UNL A   1      42.531  31.208  29.199  1.00  0.00     0.031 C 
ATOM     60  C   UNL A   1      48.464  31.472  27.928  1.00  0.00     0.029 A 
ATOM     61  C   UNL A   1      47.153  31.041  28.046  1.00  0.00     0.049 A 
ATOM     62  H   UNL A   1      46.303  29.202  27.449  1.00  0.00     0.167 HD
ATOM     63  C   UNL A   1      44.761  31.239  28.667  1.00  0.00     0.074 A 
ATOM     64  C   UNL A   1      43.631  31.946  29.232  1.00  0.00     0.031 C 
ATOM     65  C   UNL A   1      46.023  31.740  28.613  1.00  0.00     0.034 A 
BRANCH  52  66
ATOM     66  C   UNL A   1      50.126  27.859  26.048  1.00  0.00     0.023 A 
ATOM     67  C   UNL A   1      50.576  27.982  24.722  1.00  0.00     0.031 A 
ATOM     68  C   UNL A   1      51.052  27.440  27.020  1.00  0.00     0.131 A 
ATOM     69  C   UNL A   1      51.889  27.617  24.392  1.00  0.00     0.055 A 
ATOM     70  C   UNL A   1      52.383  27.163  26.700  1.00  0.00     0.041 A 
ATOM     71  F   UNL A   1      50.677  27.280  28.299  1.00  0.00    -0.206 F 
ATOM     72  C   UNL A   1      52.804  27.235  25.376  1.00  0.00     0.022 A 
BRANCH  69  73
ATOM     73  S   UNL A   1      52.339  27.497  22.639  1.00  0.00     0.124 S 
ATOM     74  O   UNL A   1      53.411  26.505  22.676  1.00  0.00    -0.237 OA
ATOM     75  O   UNL A   1      51.090  27.066  22.022  1.00  0.00    -0.237 OA
ATOM     76  O   UNL A   1      52.767  28.853  22.301  1.00  0.00    -0.744 OA
ENDBRANCH  69  73
ENDBRANCH  52  66
BRANCH  53  77
ATOM     77  C   UNL A   1      40.543  29.136  28.638  1.00  0.00     0.023 A 
ATOM     78  C   UNL A   1      40.188  29.063  29.995  1.00  0.00     0.031 A 
ATOM     79  C   UNL A   1      39.510  29.320  27.701  1.00  0.00     0.131 A 
ATOM     80  C   UNL A   1      38.837  29.122  30.372  1.00  0.00     0.055 A 
ATOM     81  C   UNL A   1      38.174  29.442  28.086  1.00  0.00     0.041 A 
ATOM     82  F   UNL A   1      39.788  29.386  26.389  1.00  0.00    -0.206 F 
ATOM     83  C   UNL A   1      37.829  29.328  29.428  1.00  0.00     0.022 A 
BRANCH  80  84
ATOM     84  S   UNL A   1      38.407  28.822  32.110  1.00  0.00     0.124 S 
ATOM     85  O   UNL A   1      39.085  29.930  32.775  1.00  0.00    -0.237 OA
ATOM     86  O   UNL A   1      36.950  28.889  32.075  1.00  0.00    -0.237 OA
ATOM     87  O   UNL A   1      38.964  27.498  32.375  1.00  0.00    -0.744 OA
ENDBRANCH  80  84
ENDBRANCH  53  77
BRANCH  65  88
ATOM     88  C   UNL A   1      46.238  33.148  29.125  1.00  0.00     0.023 A 
ATOM     89  C   UNL A   1      46.083  34.276  28.302  1.00  0.00     0.031 A 
ATOM     90  C   UNL A   1      46.607  33.359  30.467  1.00  0.00     0.131 A 
ATOM     91  C   UNL A   1      46.350  35.557  28.810  1.00  0.00     0.055 A 
ATOM     92  C   UNL A   1      46.804  34.639  30.986  1.00  0.00     0.041 A 
ATOM     93  F   UNL A   1      46.775  32.320  31.302  1.00  0.00    -0.206 F 
ATOM     94  C   UNL A   1      46.690  35.747  30.152  1.00  0.00     0.022 A 
BRANCH  91  95
ATOM     95  S   UNL A   1      46.349  36.969  27.670  1.00  0.00     0.124 S 
ATOM     96  O   UNL A   1      47.646  36.830  27.016  1.00  0.00    -0.237 OA
ATOM     97  O   UNL A   1      45.183  36.695  26.836  1.00  0.00    -0.237 OA
ATOM     98  O   UNL A   1      46.221  38.125  28.555  1.00  0.00    -0.744 OA
ENDBRANCH  91  95
ENDBRANCH  65  88
ENDBRANCH  39  40
ENDBRANCH  32  34
ENDBRANCH  31  32
ENDBRANCH  30  31
ENDBRANCH  29  30
ENDBRANCH  28  29
ENDBRANCH   1  28
TORSDOF 22
ENDMDL
