MODEL 1
REMARK VINA RESULT:     -11.0      0.000      0.000
REMARK SMILES Cc1nc2n(n1)[C@@H](c1ccc([N+](=O)[O-])o1)CC(C(=O)OCCOCCOCCOC(=O)c1ccc(-c3c4nc(c(-c5cc(S(=O)(=O)[O-])ccc5F)c5ccc([nH]5)c(-c5cc(S(=O)(=O)[O-])ccc5F)c5nc(c(-c6cc(S(=O)(=O)[O-])ccc6F)c6ccc3[nH]6)C=C5)C=C4)cc1)=N2
REMARK SMILES IDX 25 1 24 2 23 3 22 4 21 5 20 6 18 7 19 8 17 9 1 10 2 11 3 12
REMARK SMILES IDX 6 13 4 14 5 15 95 16 7 17 16 18 8 19 9 20 15 21 10 22 11 23
REMARK SMILES IDX 12 24 13 25 14 26 26 27 27 28 28 29 29 30 30 31 31 32 32 33
REMARK SMILES IDX 33 34 94 35 34 36 93 37 35 38 36 39 37 40 87 41 38 42 92 43
REMARK SMILES IDX 86 44 88 45 39 46 91 47 85 48 84 49 40 51 72 52 52 53 71 54
REMARK SMILES IDX 53 55 56 56 70 57 89 58 54 59 55 60 69 62 90 63 57 64 41 65
REMARK SMILES IDX 42 66 50 67 43 68 49 69 51 70 48 71 44 72 45 73 46 74 47 75
REMARK SMILES IDX 73 76 74 77 82 78 75 79 81 80 83 81 80 82 76 83 77 84 78 85
REMARK SMILES IDX 79 86 58 87 59 88 67 89 60 90 66 91 68 92 65 93 61 94 62 95
REMARK SMILES IDX 63 96 64 97
REMARK H PARENT 88 50 56 61
REMARK Flexibility Score: inf
ROOT
ATOM      1  C   UNL A   1      36.204  21.058  24.652  1.00  0.00     0.188 C 
ENDROOT
BRANCH   1   2
ATOM      2  C   UNL A   1      34.683  21.004  24.905  1.00  0.00     0.188 C 
BRANCH   2   3
ATOM      3  O   UNL A   1      34.023  22.099  25.536  1.00  0.00    -0.376 OA
BRANCH   3   4
ATOM      4  C   UNL A   1      33.902  22.140  26.954  1.00  0.00     0.202 C 
BRANCH   4   5
ATOM      5  C   UNL A   1      32.636  22.760  27.565  1.00  0.00     0.261 C 
BRANCH   5   6
ATOM      6  O   UNL A   1      31.475  22.561  26.746  1.00  0.00    -0.459 OA
BRANCH   6   7
ATOM      7  C   UNL A   1      30.648  23.613  26.618  1.00  0.00     0.352 C 
ATOM      8  O   UNL A   1      29.691  23.908  27.311  1.00  0.00    -0.245 OA
BRANCH   7   9
ATOM      9  C   UNL A   1      31.148  24.508  25.489  1.00  0.00     0.132 C 
ATOM     10  C   UNL A   1      32.798  25.523  20.036  1.00  0.00     0.092 C 
ATOM     11  C   UNL A   1      32.403  25.493  21.459  1.00  0.00     0.149 A 
ATOM     12  N   UNL A   1      31.690  24.455  22.001  1.00  0.00    -0.195 NA
ATOM     13  N   UNL A   1      32.748  26.447  22.333  1.00  0.00    -0.154 NA
ATOM     14  C   UNL A   1      31.582  24.766  23.275  1.00  0.00     0.249 A 
ATOM     15  N   UNL A   1      32.139  26.003  23.450  1.00  0.00    -0.219 N 
ATOM     16  N   UNL A   1      31.093  24.022  24.289  1.00  0.00    -0.209 NA
ATOM     17  C   UNL A   1      32.226  26.698  24.719  1.00  0.00     0.184 C 
ATOM     18  C   UNL A   1      31.612  25.892  25.874  1.00  0.00     0.100 C 
BRANCH  17  19
ATOM     19  C   UNL A   1      31.644  28.089  24.623  1.00  0.00     0.136 A 
ATOM     20  C   UNL A   1      31.832  29.278  25.316  1.00  0.00     0.056 A 
ATOM     21  O   UNL A   1      30.651  28.264  23.692  1.00  0.00    -0.404 OA
ATOM     22  C   UNL A   1      30.916  30.224  24.788  1.00  0.00     0.134 A 
ATOM     23  C   UNL A   1      30.234  29.557  23.803  1.00  0.00     0.433 A 
BRANCH  23  24
ATOM     24  N   UNL A   1      29.180  29.963  22.929  1.00  0.00     0.102 N 
ATOM     25  O   UNL A   1      28.190  30.486  23.459  1.00  0.00    -0.256 OA
ATOM     26  O   UNL A   1      29.326  29.753  21.717  1.00  0.00    -0.256 OA
ENDBRANCH  23  24
ENDBRANCH  17  19
ENDBRANCH   7   9
ENDBRANCH   6   7
ENDBRANCH   5   6
ENDBRANCH   4   5
ENDBRANCH   3   4
ENDBRANCH   2   3
ENDBRANCH   1   2
BRANCH   1  27
ATOM     27  O   UNL A   1      36.761  22.357  24.634  1.00  0.00    -0.376 OA
BRANCH  27  28
ATOM     28  C   UNL A   1      37.724  22.655  25.643  1.00  0.00     0.202 C 
BRANCH  28  29
ATOM     29  C   UNL A   1      38.781  21.579  25.943  1.00  0.00     0.261 C 
BRANCH  29  30
ATOM     30  O   UNL A   1      40.130  22.055  26.112  1.00  0.00    -0.460 OA
BRANCH  30  31
ATOM     31  C   UNL A   1      40.613  22.012  27.374  1.00  0.00     0.338 C 
ATOM     32  O   UNL A   1      40.742  21.032  28.086  1.00  0.00    -0.246 OA
BRANCH  31  33
ATOM     33  C   UNL A   1      41.065  23.344  27.775  1.00  0.00     0.060 A 
ATOM     34  C   UNL A   1      40.127  24.338  28.079  1.00  0.00     0.016 A 
ATOM     35  C   UNL A   1      42.417  23.638  27.643  1.00  0.00     0.016 A 
ATOM     36  C   UNL A   1      40.550  25.659  28.198  1.00  0.00     0.010 A 
ATOM     37  C   UNL A   1      42.826  24.961  27.733  1.00  0.00     0.010 A 
ATOM     38  C   UNL A   1      41.898  25.986  27.986  1.00  0.00    -0.014 A 
BRANCH  38  39
ATOM     39  C   UNL A   1      42.299  27.415  28.024  1.00  0.00     0.031 A 
ATOM     40  C   UNL A   1      41.165  28.387  27.924  1.00  0.00     0.074 A 
ATOM     41  C   UNL A   1      43.388  27.793  28.737  1.00  0.00     0.049 A 
ATOM     42  N   UNL A   1      40.347  28.594  28.915  1.00  0.00    -0.248 NA
ATOM     43  C   UNL A   1      40.701  28.947  26.656  1.00  0.00     0.031 C 
ATOM     44  C   UNL A   1      43.852  27.062  29.927  1.00  0.00     0.029 A 
ATOM     45  N   UNL A   1      44.117  28.963  28.756  1.00  0.00    -0.354 N 
ATOM     46  C   UNL A   1      39.230  29.231  28.412  1.00  0.00     0.074 A 
ATOM     47  C   UNL A   1      39.507  29.455  27.008  1.00  0.00     0.031 C 
ATOM     48  C   UNL A   1      44.642  27.875  30.654  1.00  0.00     0.029 A 
ATOM     49  C   UNL A   1      44.858  29.128  29.930  1.00  0.00     0.049 A 
ATOM     50  H   UNL A   1      44.115  29.616  28.018  1.00  0.00     0.167 HD
ATOM     51  C   UNL A   1      38.141  29.503  29.178  1.00  0.00     0.034 A 
ATOM     52  C   UNL A   1      45.052  30.326  30.553  1.00  0.00     0.034 A 
ATOM     53  C   UNL A   1      38.226  29.085  30.549  1.00  0.00     0.049 A 
ATOM     54  C   UNL A   1      43.684  30.597  31.127  1.00  0.00     0.074 A 
ATOM     55  C   UNL A   1      37.809  28.014  31.311  1.00  0.00     0.029 A 
ATOM     56  N   UNL A   1      38.899  29.889  31.440  1.00  0.00    -0.354 N 
ATOM     57  N   UNL A   1      43.180  30.075  32.214  1.00  0.00    -0.248 NA
ATOM     58  C   UNL A   1      42.700  31.222  30.243  1.00  0.00     0.031 C 
ATOM     59  C   UNL A   1      38.657  28.013  32.464  1.00  0.00     0.029 A 
ATOM     60  C   UNL A   1      39.572  29.050  32.294  1.00  0.00     0.049 A 
ATOM     61  H   UNL A   1      38.897  30.873  31.463  1.00  0.00     0.167 HD
ATOM     62  C   UNL A   1      41.795  30.090  32.035  1.00  0.00     0.074 A 
ATOM     63  C   UNL A   1      41.569  30.854  30.825  1.00  0.00     0.031 C 
ATOM     64  C   UNL A   1      40.919  29.327  32.755  1.00  0.00     0.034 A 
BRANCH  51  65
ATOM     65  C   UNL A   1      36.946  30.257  28.745  1.00  0.00     0.023 A 
ATOM     66  C   UNL A   1      36.601  31.385  29.502  1.00  0.00     0.031 A 
ATOM     67  C   UNL A   1      36.030  29.780  27.803  1.00  0.00     0.131 A 
ATOM     68  C   UNL A   1      35.343  31.973  29.362  1.00  0.00     0.055 A 
ATOM     69  C   UNL A   1      34.779  30.388  27.642  1.00  0.00     0.041 A 
ATOM     70  F   UNL A   1      36.304  28.686  27.073  1.00  0.00    -0.206 F 
ATOM     71  C   UNL A   1      34.422  31.478  28.439  1.00  0.00     0.022 A 
BRANCH  68  72
ATOM     72  S   UNL A   1      34.912  33.313  30.500  1.00  0.00     0.124 S 
ATOM     73  O   UNL A   1      36.218  33.887  30.803  1.00  0.00    -0.237 OA
ATOM     74  O   UNL A   1      34.032  34.129  29.669  1.00  0.00    -0.237 OA
ATOM     75  O   UNL A   1      34.262  32.619  31.608  1.00  0.00    -0.744 OA
ENDBRANCH  68  72
ENDBRANCH  51  65
BRANCH  52  76
ATOM     76  C   UNL A   1      45.882  31.339  29.824  1.00  0.00     0.023 A 
ATOM     77  C   UNL A   1      45.432  31.755  28.551  1.00  0.00     0.031 A 
ATOM     78  C   UNL A   1      47.090  31.902  30.268  1.00  0.00     0.131 A 
ATOM     79  C   UNL A   1      46.113  32.751  27.828  1.00  0.00     0.055 A 
ATOM     80  C   UNL A   1      47.743  32.926  29.570  1.00  0.00     0.041 A 
ATOM     81  F   UNL A   1      47.690  31.489  31.392  1.00  0.00    -0.206 F 
ATOM     82  C   UNL A   1      47.248  33.367  28.350  1.00  0.00     0.022 A 
BRANCH  79  83
ATOM     83  S   UNL A   1      45.490  33.241  26.196  1.00  0.00     0.124 S 
ATOM     84  O   UNL A   1      45.198  31.952  25.578  1.00  0.00    -0.237 OA
ATOM     85  O   UNL A   1      44.333  34.063  26.539  1.00  0.00    -0.237 OA
ATOM     86  O   UNL A   1      46.610  33.972  25.607  1.00  0.00    -0.744 OA
ENDBRANCH  79  83
ENDBRANCH  52  76
BRANCH  64  87
ATOM     87  C   UNL A   1      41.489  28.561  33.910  1.00  0.00     0.023 A 
ATOM     88  C   UNL A   1      42.192  27.365  33.692  1.00  0.00     0.031 A 
ATOM     89  C   UNL A   1      41.382  29.034  35.230  1.00  0.00     0.131 A 
ATOM     90  C   UNL A   1      42.788  26.697  34.772  1.00  0.00     0.055 A 
ATOM     91  C   UNL A   1      42.011  28.389  36.295  1.00  0.00     0.041 A 
ATOM     92  F   UNL A   1      40.677  30.141  35.517  1.00  0.00    -0.206 F 
ATOM     93  C   UNL A   1      42.723  27.217  36.069  1.00  0.00     0.022 A 
BRANCH  90  94
ATOM     94  S   UNL A   1      43.681  25.148  34.468  1.00  0.00     0.124 S 
ATOM     95  O   UNL A   1      44.031  25.258  33.056  1.00  0.00    -0.237 OA
ATOM     96  O   UNL A   1      44.792  25.228  35.412  1.00  0.00    -0.237 OA
ATOM     97  O   UNL A   1      42.690  24.118  34.779  1.00  0.00    -0.744 OA
ENDBRANCH  90  94
ENDBRANCH  64  87
ENDBRANCH  38  39
ENDBRANCH  31  33
ENDBRANCH  30  31
ENDBRANCH  29  30
ENDBRANCH  28  29
ENDBRANCH  27  28
ENDBRANCH   1  27
TORSDOF 22
ENDMDL
MODEL 2
REMARK VINA RESULT:     -10.0      3.373      8.454
REMARK SMILES Cc1nc2n(n1)[C@@H](c1ccc([N+](=O)[O-])o1)CC(C(=O)OCCOCCOCCOC(=O)c1ccc(-c3c4nc(c(-c5cc(S(=O)(=O)[O-])ccc5F)c5ccc([nH]5)c(-c5cc(S(=O)(=O)[O-])ccc5F)c5nc(c(-c6cc(S(=O)(=O)[O-])ccc6F)c6ccc3[nH]6)C=C5)C=C4)cc1)=N2
REMARK SMILES IDX 25 1 24 2 23 3 22 4 21 5 20 6 18 7 19 8 17 9 1 10 2 11 3 12
REMARK SMILES IDX 6 13 4 14 5 15 95 16 7 17 16 18 8 19 9 20 15 21 10 22 11 23
REMARK SMILES IDX 12 24 13 25 14 26 26 27 27 28 28 29 29 30 30 31 31 32 32 33
REMARK SMILES IDX 33 34 94 35 34 36 93 37 35 38 36 39 37 40 87 41 38 42 92 43
REMARK SMILES IDX 86 44 88 45 39 46 91 47 85 48 84 49 40 51 72 52 52 53 71 54
REMARK SMILES IDX 53 55 56 56 70 57 89 58 54 59 55 60 69 62 90 63 57 64 41 65
REMARK SMILES IDX 42 66 50 67 43 68 49 69 51 70 48 71 44 72 45 73 46 74 47 75
REMARK SMILES IDX 73 76 74 77 82 78 75 79 81 80 83 81 80 82 76 83 77 84 78 85
REMARK SMILES IDX 79 86 58 87 59 88 67 89 60 90 66 91 68 92 65 93 61 94 62 95
REMARK SMILES IDX 63 96 64 97
REMARK H PARENT 88 50 56 61
REMARK Flexibility Score: inf
ROOT
ATOM      1  C   UNL A   1      36.168  33.087  30.135  1.00  0.00     0.188 C 
ENDROOT
BRANCH   1   2
ATOM      2  C   UNL A   1      35.262  32.022  29.484  1.00  0.00     0.188 C 
BRANCH   2   3
ATOM      3  O   UNL A   1      35.774  30.720  29.203  1.00  0.00    -0.376 OA
BRANCH   3   4
ATOM      4  C   UNL A   1      35.591  30.143  27.914  1.00  0.00     0.202 C 
BRANCH   4   5
ATOM      5  C   UNL A   1      34.494  29.083  27.734  1.00  0.00     0.261 C 
BRANCH   5   6
ATOM      6  O   UNL A   1      34.422  28.589  26.389  1.00  0.00    -0.459 OA
BRANCH   6   7
ATOM      7  C   UNL A   1      33.362  28.986  25.664  1.00  0.00     0.352 C 
ATOM      8  O   UNL A   1      32.829  30.081  25.645  1.00  0.00    -0.245 OA
BRANCH   7   9
ATOM      9  C   UNL A   1      32.944  27.857  24.729  1.00  0.00     0.132 C 
ATOM     10  C   UNL A   1      32.589  25.290  19.555  1.00  0.00     0.092 C 
ATOM     11  C   UNL A   1      32.580  25.751  20.957  1.00  0.00     0.149 A 
ATOM     12  N   UNL A   1      33.392  26.762  21.403  1.00  0.00    -0.195 NA
ATOM     13  N   UNL A   1      31.753  25.253  21.885  1.00  0.00    -0.154 NA
ATOM     14  C   UNL A   1      33.061  26.911  22.667  1.00  0.00     0.249 A 
ATOM     15  N   UNL A   1      32.143  25.945  22.974  1.00  0.00    -0.219 N 
ATOM     16  N   UNL A   1      33.456  27.863  23.538  1.00  0.00    -0.209 NA
ATOM     17  C   UNL A   1      31.523  25.777  24.273  1.00  0.00     0.184 C 
ATOM     18  C   UNL A   1      32.013  26.813  25.296  1.00  0.00     0.100 C 
BRANCH  17  19
ATOM     19  C   UNL A   1      31.679  24.362  24.776  1.00  0.00     0.136 A 
ATOM     20  C   UNL A   1      30.885  23.492  25.512  1.00  0.00     0.056 A 
ATOM     21  O   UNL A   1      32.891  23.765  24.531  1.00  0.00    -0.404 OA
ATOM     22  C   UNL A   1      31.640  22.310  25.728  1.00  0.00     0.134 A 
ATOM     23  C   UNL A   1      32.842  22.530  25.105  1.00  0.00     0.433 A 
BRANCH  23  24
ATOM     24  N   UNL A   1      34.016  21.726  24.987  1.00  0.00     0.102 N 
ATOM     25  O   UNL A   1      35.102  22.306  25.121  1.00  0.00    -0.256 OA
ATOM     26  O   UNL A   1      33.865  20.519  24.750  1.00  0.00    -0.256 OA
ENDBRANCH  23  24
ENDBRANCH  17  19
ENDBRANCH   7   9
ENDBRANCH   6   7
ENDBRANCH   5   6
ENDBRANCH   4   5
ENDBRANCH   3   4
ENDBRANCH   2   3
ENDBRANCH   1   2
BRANCH   1  27
ATOM     27  O   UNL A   1      36.055  33.190  31.540  1.00  0.00    -0.376 OA
BRANCH  27  28
ATOM     28  C   UNL A   1      36.096  31.971  32.278  1.00  0.00     0.202 C 
BRANCH  28  29
ATOM     29  C   UNL A   1      37.481  31.466  32.720  1.00  0.00     0.261 C 
BRANCH  29  30
ATOM     30  O   UNL A   1      38.224  30.727  31.732  1.00  0.00    -0.460 OA
BRANCH  30  31
ATOM     31  C   UNL A   1      37.984  29.397  31.693  1.00  0.00     0.338 C 
ATOM     32  O   UNL A   1      37.003  28.807  32.110  1.00  0.00    -0.246 OA
BRANCH  31  33
ATOM     33  C   UNL A   1      39.066  28.721  30.977  1.00  0.00     0.060 A 
ATOM     34  C   UNL A   1      40.265  29.398  30.723  1.00  0.00     0.016 A 
ATOM     35  C   UNL A   1      38.788  27.491  30.392  1.00  0.00     0.016 A 
ATOM     36  C   UNL A   1      41.177  28.853  29.823  1.00  0.00     0.010 A 
ATOM     37  C   UNL A   1      39.688  26.971  29.472  1.00  0.00     0.010 A 
ATOM     38  C   UNL A   1      40.876  27.653  29.159  1.00  0.00    -0.014 A 
BRANCH  38  39
ATOM     39  C   UNL A   1      41.822  27.150  28.133  1.00  0.00     0.031 A 
ATOM     40  C   UNL A   1      42.748  28.185  27.573  1.00  0.00     0.074 A 
ATOM     41  C   UNL A   1      42.275  25.875  28.199  1.00  0.00     0.049 A 
ATOM     42  N   UNL A   1      43.748  28.658  28.259  1.00  0.00    -0.248 NA
ATOM     43  C   UNL A   1      42.450  28.957  26.368  1.00  0.00     0.031 C 
ATOM     44  C   UNL A   1      42.400  25.139  29.467  1.00  0.00     0.029 A 
ATOM     45  N   UNL A   1      42.940  25.084  27.286  1.00  0.00    -0.354 N 
ATOM     46  C   UNL A   1      44.167  29.820  27.644  1.00  0.00     0.074 A 
ATOM     47  C   UNL A   1      43.350  29.951  26.456  1.00  0.00     0.031 C 
ATOM     48  C   UNL A   1      43.251  24.110  29.289  1.00  0.00     0.029 A 
ATOM     49  C   UNL A   1      43.627  24.020  27.879  1.00  0.00     0.049 A 
ATOM     50  H   UNL A   1      42.932  25.251  26.315  1.00  0.00     0.167 HD
ATOM     51  C   UNL A   1      45.138  30.612  28.170  1.00  0.00     0.034 A 
ATOM     52  C   UNL A   1      44.840  23.560  27.457  1.00  0.00     0.034 A 
ATOM     53  C   UNL A   1      45.703  30.161  29.411  1.00  0.00     0.049 A 
ATOM     54  C   UNL A   1      45.758  24.674  27.894  1.00  0.00     0.074 A 
ATOM     55  C   UNL A   1      45.534  30.417  30.755  1.00  0.00     0.029 A 
ATOM     56  N   UNL A   1      46.683  29.196  29.375  1.00  0.00    -0.354 N 
ATOM     57  N   UNL A   1      46.216  24.876  29.102  1.00  0.00    -0.248 NA
ATOM     58  C   UNL A   1      45.888  25.823  26.998  1.00  0.00     0.031 C 
ATOM     59  C   UNL A   1      46.061  29.271  31.431  1.00  0.00     0.029 A 
ATOM     60  C   UNL A   1      46.460  28.368  30.447  1.00  0.00     0.049 A 
ATOM     61  H   UNL A   1      47.405  29.115  28.710  1.00  0.00     0.167 HD
ATOM     62  C   UNL A   1      46.467  26.246  29.189  1.00  0.00     0.074 A 
ATOM     63  C   UNL A   1      46.292  26.758  27.844  1.00  0.00     0.031 C 
ATOM     64  C   UNL A   1      46.610  26.929  30.364  1.00  0.00     0.034 A 
BRANCH  51  65
ATOM     65  C   UNL A   1      45.707  31.820  27.536  1.00  0.00     0.023 A 
ATOM     66  C   UNL A   1      47.059  31.764  27.168  1.00  0.00     0.031 A 
ATOM     67  C   UNL A   1      45.060  33.059  27.511  1.00  0.00     0.131 A 
ATOM     68  C   UNL A   1      47.753  32.931  26.849  1.00  0.00     0.055 A 
ATOM     69  C   UNL A   1      45.751  34.226  27.164  1.00  0.00     0.041 A 
ATOM     70  F   UNL A   1      43.774  33.167  27.882  1.00  0.00    -0.206 F 
ATOM     71  C   UNL A   1      47.110  34.169  26.850  1.00  0.00     0.022 A 
BRANCH  68  72
ATOM     72  S   UNL A   1      49.535  32.794  26.557  1.00  0.00     0.124 S 
ATOM     73  O   UNL A   1      49.705  33.584  25.342  1.00  0.00    -0.237 OA
ATOM     74  O   UNL A   1      50.077  33.378  27.779  1.00  0.00    -0.237 OA
ATOM     75  O   UNL A   1      49.742  31.358  26.401  1.00  0.00    -0.744 OA
ENDBRANCH  68  72
ENDBRANCH  51  65
BRANCH  52  76
ATOM     76  C   UNL A   1      44.882  22.905  26.110  1.00  0.00     0.023 A 
ATOM     77  C   UNL A   1      45.200  21.529  26.066  1.00  0.00     0.031 A 
ATOM     78  C   UNL A   1      44.665  23.530  24.872  1.00  0.00     0.131 A 
ATOM     79  C   UNL A   1      45.197  20.820  24.851  1.00  0.00     0.055 A 
ATOM     80  C   UNL A   1      44.616  22.816  23.668  1.00  0.00     0.041 A 
ATOM     81  F   UNL A   1      44.491  24.853  24.770  1.00  0.00    -0.206 F 
ATOM     82  C   UNL A   1      44.869  21.450  23.653  1.00  0.00     0.022 A 
BRANCH  79  83
ATOM     83  S   UNL A   1      45.619  19.055  24.856  1.00  0.00     0.124 S 
ATOM     84  O   UNL A   1      46.613  18.978  25.921  1.00  0.00    -0.237 OA
ATOM     85  O   UNL A   1      44.330  18.428  25.136  1.00  0.00    -0.237 OA
ATOM     86  O   UNL A   1      46.134  18.823  23.508  1.00  0.00    -0.744 OA
ENDBRANCH  79  83
ENDBRANCH  52  76
BRANCH  64  87
ATOM     87  C   UNL A   1      46.660  26.106  31.615  1.00  0.00     0.023 A 
ATOM     88  C   UNL A   1      45.483  25.567  32.159  1.00  0.00     0.031 A 
ATOM     89  C   UNL A   1      47.879  25.809  32.251  1.00  0.00     0.131 A 
ATOM     90  C   UNL A   1      45.550  24.734  33.286  1.00  0.00     0.055 A 
ATOM     91  C   UNL A   1      47.945  24.947  33.346  1.00  0.00     0.041 A 
ATOM     92  F   UNL A   1      49.036  26.335  31.817  1.00  0.00    -0.206 F 
ATOM     93  C   UNL A   1      46.778  24.401  33.866  1.00  0.00     0.022 A 
BRANCH  90  94
ATOM     94  S   UNL A   1      44.016  24.059  33.977  1.00  0.00     0.124 S 
ATOM     95  O   UNL A   1      43.167  25.241  34.076  1.00  0.00    -0.237 OA
ATOM     96  O   UNL A   1      43.623  23.069  32.979  1.00  0.00    -0.237 OA
ATOM     97  O   UNL A   1      44.440  23.497  35.260  1.00  0.00    -0.744 OA
ENDBRANCH  90  94
ENDBRANCH  64  87
ENDBRANCH  38  39
ENDBRANCH  31  33
ENDBRANCH  30  31
ENDBRANCH  29  30
ENDBRANCH  28  29
ENDBRANCH  27  28
ENDBRANCH   1  27
TORSDOF 22
ENDMDL
MODEL 3
REMARK VINA RESULT:      -9.8      3.353      8.121
REMARK SMILES Cc1nc2n(n1)[C@@H](c1ccc([N+](=O)[O-])o1)CC(C(=O)OCCOCCOCCOC(=O)c1ccc(-c3c4nc(c(-c5cc(S(=O)(=O)[O-])ccc5F)c5ccc([nH]5)c(-c5cc(S(=O)(=O)[O-])ccc5F)c5nc(c(-c6cc(S(=O)(=O)[O-])ccc6F)c6ccc3[nH]6)C=C5)C=C4)cc1)=N2
REMARK SMILES IDX 25 1 24 2 23 3 22 4 21 5 20 6 18 7 19 8 17 9 1 10 2 11 3 12
REMARK SMILES IDX 6 13 4 14 5 15 95 16 7 17 16 18 8 19 9 20 15 21 10 22 11 23
REMARK SMILES IDX 12 24 13 25 14 26 26 27 27 28 28 29 29 30 30 31 31 32 32 33
REMARK SMILES IDX 33 34 94 35 34 36 93 37 35 38 36 39 37 40 87 41 38 42 92 43
REMARK SMILES IDX 86 44 88 45 39 46 91 47 85 48 84 49 40 51 72 52 52 53 71 54
REMARK SMILES IDX 53 55 56 56 70 57 89 58 54 59 55 60 69 62 90 63 57 64 41 65
REMARK SMILES IDX 42 66 50 67 43 68 49 69 51 70 48 71 44 72 45 73 46 74 47 75
REMARK SMILES IDX 73 76 74 77 82 78 75 79 81 80 83 81 80 82 76 83 77 84 78 85
REMARK SMILES IDX 79 86 58 87 59 88 67 89 60 90 66 91 68 92 65 93 61 94 62 95
REMARK SMILES IDX 63 96 64 97
REMARK H PARENT 88 50 56 61
REMARK Flexibility Score: inf
ROOT
ATOM      1  C   UNL A   1      35.680  33.684  30.396  1.00  0.00     0.188 C 
ENDROOT
BRANCH   1   2
ATOM      2  C   UNL A   1      34.775  32.527  29.924  1.00  0.00     0.188 C 
BRANCH   2   3
ATOM      3  O   UNL A   1      35.284  31.538  29.032  1.00  0.00    -0.376 OA
BRANCH   3   4
ATOM      4  C   UNL A   1      34.544  31.173  27.872  1.00  0.00     0.202 C 
BRANCH   4   5
ATOM      5  C   UNL A   1      34.635  29.725  27.369  1.00  0.00     0.261 C 
BRANCH   5   6
ATOM      6  O   UNL A   1      33.845  29.499  26.192  1.00  0.00    -0.459 OA
BRANCH   6   7
ATOM      7  C   UNL A   1      32.617  28.988  26.388  1.00  0.00     0.352 C 
ATOM      8  O   UNL A   1      31.759  29.363  27.166  1.00  0.00    -0.245 OA
BRANCH   7   9
ATOM      9  C   UNL A   1      32.374  27.871  25.378  1.00  0.00     0.132 C 
ATOM     10  C   UNL A   1      32.527  25.576  20.068  1.00  0.00     0.092 C 
ATOM     11  C   UNL A   1      32.410  25.953  21.490  1.00  0.00     0.149 A 
ATOM     12  N   UNL A   1      33.077  27.026  22.023  1.00  0.00    -0.195 NA
ATOM     13  N   UNL A   1      31.614  25.310  22.354  1.00  0.00    -0.154 NA
ATOM     14  C   UNL A   1      32.683  27.064  23.277  1.00  0.00     0.249 A 
ATOM     15  N   UNL A   1      31.876  25.980  23.493  1.00  0.00    -0.219 N 
ATOM     16  N   UNL A   1      32.927  28.005  24.212  1.00  0.00    -0.209 NA
ATOM     17  C   UNL A   1      31.232  25.667  24.753  1.00  0.00     0.184 C 
ATOM     18  C   UNL A   1      31.555  26.695  25.849  1.00  0.00     0.100 C 
BRANCH  17  19
ATOM     19  C   UNL A   1      31.538  24.255  25.189  1.00  0.00     0.136 A 
ATOM     20  C   UNL A   1      30.816  23.245  25.813  1.00  0.00     0.056 A 
ATOM     21  O   UNL A   1      32.832  23.834  25.007  1.00  0.00    -0.404 OA
ATOM     22  C   UNL A   1      31.703  22.158  26.022  1.00  0.00     0.134 A 
ATOM     23  C   UNL A   1      32.906  22.569  25.507  1.00  0.00     0.433 A 
BRANCH  23  24
ATOM     24  N   UNL A   1      34.182  21.930  25.437  1.00  0.00     0.102 N 
ATOM     25  O   UNL A   1      34.262  20.929  24.712  1.00  0.00    -0.256 OA
ATOM     26  O   UNL A   1      35.103  22.413  26.110  1.00  0.00    -0.256 OA
ENDBRANCH  23  24
ENDBRANCH  17  19
ENDBRANCH   7   9
ENDBRANCH   6   7
ENDBRANCH   5   6
ENDBRANCH   4   5
ENDBRANCH   3   4
ENDBRANCH   2   3
ENDBRANCH   1   2
BRANCH   1  27
ATOM     27  O   UNL A   1      36.046  33.638  31.761  1.00  0.00    -0.376 OA
BRANCH  27  28
ATOM     28  C   UNL A   1      36.309  32.349  32.311  1.00  0.00     0.202 C 
BRANCH  28  29
ATOM     29  C   UNL A   1      37.677  31.719  31.997  1.00  0.00     0.261 C 
BRANCH  29  30
ATOM     30  O   UNL A   1      37.662  30.613  31.075  1.00  0.00    -0.460 OA
BRANCH  30  31
ATOM     31  C   UNL A   1      37.814  29.388  31.626  1.00  0.00     0.338 C 
ATOM     32  O   UNL A   1      37.162  28.895  32.529  1.00  0.00    -0.246 OA
BRANCH  31  33
ATOM     33  C   UNL A   1      38.859  28.653  30.914  1.00  0.00     0.060 A 
ATOM     34  C   UNL A   1      40.197  29.040  31.043  1.00  0.00     0.016 A 
ATOM     35  C   UNL A   1      38.462  27.714  29.968  1.00  0.00     0.016 A 
ATOM     36  C   UNL A   1      41.145  28.515  30.168  1.00  0.00     0.010 A 
ATOM     37  C   UNL A   1      39.407  27.220  29.080  1.00  0.00     0.010 A 
ATOM     38  C   UNL A   1      40.749  27.630  29.153  1.00  0.00    -0.014 A 
BRANCH  38  39
ATOM     39  C   UNL A   1      41.766  27.166  28.176  1.00  0.00     0.031 A 
ATOM     40  C   UNL A   1      42.732  28.219  27.728  1.00  0.00     0.074 A 
ATOM     41  C   UNL A   1      42.209  25.886  28.219  1.00  0.00     0.049 A 
ATOM     42  N   UNL A   1      43.681  28.656  28.503  1.00  0.00    -0.248 NA
ATOM     43  C   UNL A   1      42.522  29.042  26.539  1.00  0.00     0.031 C 
ATOM     44  C   UNL A   1      42.241  25.097  29.461  1.00  0.00     0.029 A 
ATOM     45  N   UNL A   1      42.935  25.131  27.323  1.00  0.00    -0.354 N 
ATOM     46  C   UNL A   1      44.146  29.841  27.970  1.00  0.00     0.074 A 
ATOM     47  C   UNL A   1      43.416  30.027  26.734  1.00  0.00     0.031 C 
ATOM     48  C   UNL A   1      43.100  24.072  29.300  1.00  0.00     0.029 A 
ATOM     49  C   UNL A   1      43.576  24.039  27.918  1.00  0.00     0.049 A 
ATOM     50  H   UNL A   1      42.997  25.340  26.362  1.00  0.00     0.167 HD
ATOM     51  C   UNL A   1      45.079  30.605  28.598  1.00  0.00     0.034 A 
ATOM     52  C   UNL A   1      44.814  23.591  27.564  1.00  0.00     0.034 A 
ATOM     53  C   UNL A   1      45.553  30.098  29.855  1.00  0.00     0.049 A 
ATOM     54  C   UNL A   1      45.701  24.680  28.113  1.00  0.00     0.074 A 
ATOM     55  C   UNL A   1      45.289  30.298  31.193  1.00  0.00     0.029 A 
ATOM     56  N   UNL A   1      46.531  29.130  29.848  1.00  0.00    -0.354 N 
ATOM     57  N   UNL A   1      46.073  24.828  29.358  1.00  0.00    -0.248 NA
ATOM     58  C   UNL A   1      45.898  25.865  27.278  1.00  0.00     0.031 C 
ATOM     59  C   UNL A   1      45.763  29.121  31.856  1.00  0.00     0.029 A 
ATOM     60  C   UNL A   1      46.229  28.259  30.865  1.00  0.00     0.049 A 
ATOM     61  H   UNL A   1      47.297  29.074  29.233  1.00  0.00     0.167 HD
ATOM     62  C   UNL A   1      46.321  26.192  29.520  1.00  0.00     0.074 A 
ATOM     63  C   UNL A   1      46.243  26.762  28.190  1.00  0.00     0.031 C 
ATOM     64  C   UNL A   1      46.381  26.823  30.731  1.00  0.00     0.034 A 
BRANCH  51  65
ATOM     65  C   UNL A   1      45.695  31.835  28.058  1.00  0.00     0.023 A 
ATOM     66  C   UNL A   1      45.286  33.049  28.628  1.00  0.00     0.031 A 
ATOM     67  C   UNL A   1      46.451  31.871  26.883  1.00  0.00     0.131 A 
ATOM     68  C   UNL A   1      45.574  34.259  27.995  1.00  0.00     0.055 A 
ATOM     69  C   UNL A   1      46.763  33.087  26.263  1.00  0.00     0.041 A 
ATOM     70  F   UNL A   1      46.842  30.733  26.285  1.00  0.00    -0.206 F 
ATOM     71  C   UNL A   1      46.307  34.289  26.809  1.00  0.00     0.022 A 
BRANCH  68  72
ATOM     72  S   UNL A   1      44.860  35.765  28.701  1.00  0.00     0.124 S 
ATOM     73  O   UNL A   1      43.431  35.474  28.659  1.00  0.00    -0.237 OA
ATOM     74  O   UNL A   1      45.469  35.783  30.027  1.00  0.00    -0.237 OA
ATOM     75  O   UNL A   1      45.311  36.812  27.789  1.00  0.00    -0.744 OA
ENDBRANCH  68  72
ENDBRANCH  51  65
BRANCH  52  76
ATOM     76  C   UNL A   1      44.951  22.993  26.197  1.00  0.00     0.023 A 
ATOM     77  C   UNL A   1      45.283  21.622  26.117  1.00  0.00     0.031 A 
ATOM     78  C   UNL A   1      44.811  23.669  24.974  1.00  0.00     0.131 A 
ATOM     79  C   UNL A   1      45.366  20.965  24.876  1.00  0.00     0.055 A 
ATOM     80  C   UNL A   1      44.848  23.006  23.741  1.00  0.00     0.041 A 
ATOM     81  F   UNL A   1      44.632  24.994  24.916  1.00  0.00    -0.206 F 
ATOM     82  C   UNL A   1      45.112  21.643  23.686  1.00  0.00     0.022 A 
BRANCH  79  83
ATOM     83  S   UNL A   1      45.802  19.204  24.835  1.00  0.00     0.124 S 
ATOM     84  O   UNL A   1      44.797  18.617  25.715  1.00  0.00    -0.237 OA
ATOM     85  O   UNL A   1      45.675  18.885  23.416  1.00  0.00    -0.237 OA
ATOM     86  O   UNL A   1      47.169  19.178  25.351  1.00  0.00    -0.744 OA
ENDBRANCH  79  83
ENDBRANCH  52  76
BRANCH  64  87
ATOM     87  C   UNL A   1      46.339  25.947  31.946  1.00  0.00     0.023 A 
ATOM     88  C   UNL A   1      47.526  25.436  32.495  1.00  0.00     0.031 A 
ATOM     89  C   UNL A   1      45.128  25.651  32.598  1.00  0.00     0.131 A 
ATOM     90  C   UNL A   1      47.482  24.680  33.676  1.00  0.00     0.055 A 
ATOM     91  C   UNL A   1      45.094  24.934  33.794  1.00  0.00     0.041 A 
ATOM     92  F   UNL A   1      43.950  26.061  32.097  1.00  0.00    -0.206 F 
ATOM     93  C   UNL A   1      46.275  24.450  34.343  1.00  0.00     0.022 A 
BRANCH  90  94
ATOM     94  S   UNL A   1      49.028  24.021  34.360  1.00  0.00     0.124 S 
ATOM     95  O   UNL A   1      48.670  22.642  34.675  1.00  0.00    -0.237 OA
ATOM     96  O   UNL A   1      49.968  24.205  33.259  1.00  0.00    -0.237 OA
ATOM     97  O   UNL A   1      49.275  24.874  35.522  1.00  0.00    -0.744 OA
ENDBRANCH  90  94
ENDBRANCH  64  87
ENDBRANCH  38  39
ENDBRANCH  31  33
ENDBRANCH  30  31
ENDBRANCH  29  30
ENDBRANCH  28  29
ENDBRANCH  27  28
ENDBRANCH   1  27
TORSDOF 22
ENDMDL
