MODEL 1
REMARK VINA RESULT:     -11.1      0.000      0.000
REMARK SMILES C=Cc1cc(Cl)cc2c1O[C@H](C(F)(F)F)C(C(=O)OCCOCCOCCOC(=O)c1ccc(-c3c4nc(c(-c5cc(S(=O)(=O)[O-])ccc5F)c5ccc([nH]5)c(-c5cc(S(=O)(=O)[O-])ccc5F)c5nc(c(-c6cc(S(=O)(=O)[O-])ccc6F)c6ccc3[nH]6)C=C5)C=C4)cc1)=C2
REMARK SMILES IDX 24 1 23 2 22 3 21 4 20 5 19 6 17 7 18 8 16 9 3 10 4 11 9 12
REMARK SMILES IDX 5 13 8 14 10 15 6 16 7 17 94 18 11 19 2 20 1 21 12 22 13 23
REMARK SMILES IDX 14 24 15 25 25 26 26 27 27 28 28 29 29 30 30 31 31 32 32 33
REMARK SMILES IDX 93 34 33 35 92 36 34 37 35 38 36 39 86 40 37 41 91 42 85 43
REMARK SMILES IDX 87 44 38 45 90 46 84 47 83 48 39 50 71 51 51 52 70 53 52 54
REMARK SMILES IDX 55 55 69 56 88 57 53 58 54 59 68 61 89 62 56 63 40 64 41 65
REMARK SMILES IDX 49 66 42 67 48 68 50 69 47 70 43 71 44 72 45 73 46 74 72 75
REMARK SMILES IDX 73 76 81 77 74 78 80 79 82 80 79 81 75 82 76 83 77 84 78 85
REMARK SMILES IDX 57 86 58 87 66 88 59 89 65 90 67 91 64 92 60 93 61 94 62 95
REMARK SMILES IDX 63 96
REMARK H PARENT 87 49 55 60
REMARK Flexibility Score: inf
ROOT
ATOM      1  C   UNL A   1      32.026  28.942  23.051  1.00  0.00     0.188 C 
ENDROOT
BRANCH   1   2
ATOM      2  C   UNL A   1      30.617  29.137  22.452  1.00  0.00     0.188 C 
BRANCH   2   3
ATOM      3  O   UNL A   1      29.764  28.023  22.351  1.00  0.00    -0.376 OA
BRANCH   3   4
ATOM      4  C   UNL A   1      29.402  27.241  23.474  1.00  0.00     0.202 C 
BRANCH   4   5
ATOM      5  C   UNL A   1      30.278  26.173  24.146  1.00  0.00     0.261 C 
BRANCH   5   6
ATOM      6  O   UNL A   1      30.538  24.984  23.398  1.00  0.00    -0.460 OA
BRANCH   6   7
ATOM      7  C   UNL A   1      31.705  24.985  22.709  1.00  0.00     0.338 C 
ATOM      8  O   UNL A   1      32.059  25.797  21.869  1.00  0.00    -0.246 OA
BRANCH   7   9
ATOM      9  C   UNL A   1      32.564  23.896  23.205  1.00  0.00     0.087 C 
ATOM     10  C   UNL A   1      34.872  20.791  24.820  1.00  0.00     0.018 A 
ATOM     11  C   UNL A   1      34.333  19.495  24.829  1.00  0.00     0.032 A 
ATOM     12  C   UNL A   1      34.120  21.832  24.234  1.00  0.00     0.135 A 
ATOM     13  C   UNL A   1      33.096  19.239  24.243  1.00  0.00     0.042 A 
ATOM     14  C   UNL A   1      32.860  21.572  23.678  1.00  0.00     0.019 A 
ATOM     15  O   UNL A   1      34.680  23.084  24.237  1.00  0.00    -0.475 OA
ATOM     16  Cl  UNL A   1      32.461  17.640  24.263  1.00  0.00    -0.084 Cl
ATOM     17  C   UNL A   1      32.356  20.267  23.668  1.00  0.00     0.032 A 
ATOM     18  C   UNL A   1      32.050  22.662  23.161  1.00  0.00     0.027 C 
ATOM     19  C   UNL A   1      33.939  24.216  23.714  1.00  0.00     0.316 C 
BRANCH  10  20
ATOM     20  C   UNL A   1      36.151  21.079  25.496  1.00  0.00     0.004 C 
ATOM     21  C   UNL A   1      37.360  21.021  24.924  1.00  0.00     0.009 C 
ENDBRANCH  10  20
BRANCH  19  22
ATOM     22  C   UNL A   1      33.929  25.311  24.791  1.00  0.00     0.430 C 
ATOM     23  F   UNL A   1      35.040  25.246  25.567  1.00  0.00    -0.167 F 
ATOM     24  F   UNL A   1      33.913  26.552  24.250  1.00  0.00    -0.167 F 
ATOM     25  F   UNL A   1      32.859  25.211  25.610  1.00  0.00    -0.167 F 
ENDBRANCH  19  22
ENDBRANCH   7   9
ENDBRANCH   6   7
ENDBRANCH   5   6
ENDBRANCH   4   5
ENDBRANCH   3   4
ENDBRANCH   2   3
ENDBRANCH   1   2
BRANCH   1  26
ATOM     26  O   UNL A   1      32.341  29.451  24.336  1.00  0.00    -0.376 OA
BRANCH  26  27
ATOM     27  C   UNL A   1      31.354  30.189  25.045  1.00  0.00     0.202 C 
BRANCH  27  28
ATOM     28  C   UNL A   1      31.504  30.433  26.551  1.00  0.00     0.261 C 
BRANCH  28  29
ATOM     29  O   UNL A   1      32.841  30.250  27.041  1.00  0.00    -0.460 OA
BRANCH  29  30
ATOM     30  C   UNL A   1      33.516  31.392  27.328  1.00  0.00     0.338 C 
ATOM     31  O   UNL A   1      33.062  32.522  27.373  1.00  0.00    -0.246 OA
BRANCH  30  32
ATOM     32  C   UNL A   1      34.870  31.040  27.801  1.00  0.00     0.060 A 
ATOM     33  C   UNL A   1      35.851  32.018  27.973  1.00  0.00     0.016 A 
ATOM     34  C   UNL A   1      35.151  29.695  28.076  1.00  0.00     0.016 A 
ATOM     35  C   UNL A   1      37.111  31.646  28.450  1.00  0.00     0.010 A 
ATOM     36  C   UNL A   1      36.415  29.323  28.537  1.00  0.00     0.010 A 
ATOM     37  C   UNL A   1      37.397  30.301  28.750  1.00  0.00    -0.014 A 
BRANCH  37  38
ATOM     38  C   UNL A   1      38.645  29.959  29.474  1.00  0.00     0.031 A 
ATOM     39  C   UNL A   1      38.982  30.541  30.811  1.00  0.00     0.074 A 
ATOM     40  C   UNL A   1      39.492  29.097  28.879  1.00  0.00     0.049 A 
ATOM     41  N   UNL A   1      39.968  30.228  31.610  1.00  0.00    -0.248 NA
ATOM     42  C   UNL A   1      38.113  31.613  31.314  1.00  0.00     0.031 C 
ATOM     43  C   UNL A   1      39.285  28.517  27.551  1.00  0.00     0.029 A 
ATOM     44  N   UNL A   1      40.680  28.557  29.301  1.00  0.00    -0.354 N 
ATOM     45  C   UNL A   1      39.830  31.041  32.728  1.00  0.00     0.074 A 
ATOM     46  C   UNL A   1      38.692  31.903  32.475  1.00  0.00     0.031 C 
ATOM     47  C   UNL A   1      40.296  27.682  27.278  1.00  0.00     0.029 A 
ATOM     48  C   UNL A   1      41.234  27.680  28.398  1.00  0.00     0.049 A 
ATOM     49  H   UNL A   1      41.096  28.777  30.165  1.00  0.00     0.167 HD
ATOM     50  C   UNL A   1      40.573  31.045  33.860  1.00  0.00     0.034 A 
ATOM     51  C   UNL A   1      42.362  26.942  28.466  1.00  0.00     0.034 A 
ATOM     52  C   UNL A   1      41.714  30.186  34.079  1.00  0.00     0.049 A 
ATOM     53  C   UNL A   1      43.177  26.974  29.732  1.00  0.00     0.074 A 
ATOM     54  C   UNL A   1      42.487  30.067  35.221  1.00  0.00     0.029 A 
ATOM     55  N   UNL A   1      42.259  29.317  33.143  1.00  0.00    -0.354 N 
ATOM     56  N   UNL A   1      42.951  27.641  30.839  1.00  0.00    -0.248 NA
ATOM     57  C   UNL A   1      44.384  26.138  29.771  1.00  0.00     0.031 C 
ATOM     58  C   UNL A   1      43.537  29.189  34.954  1.00  0.00     0.029 A 
ATOM     59  C   UNL A   1      43.379  28.691  33.670  1.00  0.00     0.049 A 
ATOM     60  H   UNL A   1      41.902  29.165  32.238  1.00  0.00     0.167 HD
ATOM     61  C   UNL A   1      43.975  27.288  31.715  1.00  0.00     0.074 A 
ATOM     62  C   UNL A   1      44.803  26.326  31.017  1.00  0.00     0.031 C 
ATOM     63  C   UNL A   1      44.204  27.726  32.979  1.00  0.00     0.034 A 
BRANCH  50  64
ATOM     64  C   UNL A   1      40.180  31.968  34.989  1.00  0.00     0.023 A 
ATOM     65  C   UNL A   1      39.347  31.506  36.028  1.00  0.00     0.031 A 
ATOM     66  C   UNL A   1      40.483  33.341  34.943  1.00  0.00     0.131 A 
ATOM     67  C   UNL A   1      38.814  32.416  36.950  1.00  0.00     0.055 A 
ATOM     68  C   UNL A   1      39.983  34.236  35.889  1.00  0.00     0.041 A 
ATOM     69  F   UNL A   1      41.265  33.833  33.968  1.00  0.00    -0.206 F 
ATOM     70  C   UNL A   1      39.131  33.777  36.890  1.00  0.00     0.022 A 
BRANCH  67  71
ATOM     71  S   UNL A   1      37.625  31.887  38.214  1.00  0.00     0.124 S 
ATOM     72  O   UNL A   1      38.439  31.931  39.427  1.00  0.00    -0.237 OA
ATOM     73  O   UNL A   1      36.596  32.918  38.117  1.00  0.00    -0.237 OA
ATOM     74  O   UNL A   1      37.225  30.552  37.783  1.00  0.00    -0.744 OA
ENDBRANCH  67  71
ENDBRANCH  50  64
BRANCH  51  75
ATOM     75  C   UNL A   1      42.706  26.052  27.321  1.00  0.00     0.023 A 
ATOM     76  C   UNL A   1      42.191  24.744  27.243  1.00  0.00     0.031 A 
ATOM     77  C   UNL A   1      43.651  26.449  26.362  1.00  0.00     0.131 A 
ATOM     78  C   UNL A   1      42.681  23.860  26.274  1.00  0.00     0.055 A 
ATOM     79  C   UNL A   1      44.081  25.588  25.351  1.00  0.00     0.041 A 
ATOM     80  F   UNL A   1      44.184  27.680  26.407  1.00  0.00    -0.206 F 
ATOM     81  C   UNL A   1      43.610  24.279  25.317  1.00  0.00     0.022 A 
BRANCH  78  82
ATOM     82  S   UNL A   1      42.240  22.101  26.314  1.00  0.00     0.124 S 
ATOM     83  O   UNL A   1      43.167  21.532  25.341  1.00  0.00    -0.237 OA
ATOM     84  O   UNL A   1      42.504  21.760  27.710  1.00  0.00    -0.237 OA
ATOM     85  O   UNL A   1      40.833  22.089  25.928  1.00  0.00    -0.744 OA
ENDBRANCH  78  82
ENDBRANCH  51  75
BRANCH  63  86
ATOM     86  C   UNL A   1      45.407  27.191  33.723  1.00  0.00     0.023 A 
ATOM     87  C   UNL A   1      45.336  25.948  34.382  1.00  0.00     0.031 A 
ATOM     88  C   UNL A   1      46.563  27.970  33.905  1.00  0.00     0.131 A 
ATOM     89  C   UNL A   1      46.379  25.541  35.224  1.00  0.00     0.055 A 
ATOM     90  C   UNL A   1      47.624  27.537  34.704  1.00  0.00     0.041 A 
ATOM     91  F   UNL A   1      46.679  29.168  33.309  1.00  0.00    -0.206 F 
ATOM     92  C   UNL A   1      47.527  26.325  35.380  1.00  0.00     0.022 A 
BRANCH  89  93
ATOM     93  S   UNL A   1      46.249  24.029  36.217  1.00  0.00     0.124 S 
ATOM     94  O   UNL A   1      44.933  23.525  35.830  1.00  0.00    -0.237 OA
ATOM     95  O   UNL A   1      47.382  23.244  35.735  1.00  0.00    -0.237 OA
ATOM     96  O   UNL A   1      46.352  24.501  37.594  1.00  0.00    -0.744 OA
ENDBRANCH  89  93
ENDBRANCH  63  86
ENDBRANCH  37  38
ENDBRANCH  30  32
ENDBRANCH  29  30
ENDBRANCH  28  29
ENDBRANCH  27  28
ENDBRANCH  26  27
ENDBRANCH   1  26
TORSDOF 22
ENDMDL
MODEL 2
REMARK VINA RESULT:     -11.1      1.762      2.341
REMARK SMILES C=Cc1cc(Cl)cc2c1O[C@H](C(F)(F)F)C(C(=O)OCCOCCOCCOC(=O)c1ccc(-c3c4nc(c(-c5cc(S(=O)(=O)[O-])ccc5F)c5ccc([nH]5)c(-c5cc(S(=O)(=O)[O-])ccc5F)c5nc(c(-c6cc(S(=O)(=O)[O-])ccc6F)c6ccc3[nH]6)C=C5)C=C4)cc1)=C2
REMARK SMILES IDX 24 1 23 2 22 3 21 4 20 5 19 6 17 7 18 8 16 9 3 10 4 11 9 12
REMARK SMILES IDX 5 13 8 14 10 15 6 16 7 17 94 18 11 19 2 20 1 21 12 22 13 23
REMARK SMILES IDX 14 24 15 25 25 26 26 27 27 28 28 29 29 30 30 31 31 32 32 33
REMARK SMILES IDX 93 34 33 35 92 36 34 37 35 38 36 39 86 40 37 41 91 42 85 43
REMARK SMILES IDX 87 44 38 45 90 46 84 47 83 48 39 50 71 51 51 52 70 53 52 54
REMARK SMILES IDX 55 55 69 56 88 57 53 58 54 59 68 61 89 62 56 63 40 64 41 65
REMARK SMILES IDX 49 66 42 67 48 68 50 69 47 70 43 71 44 72 45 73 46 74 72 75
REMARK SMILES IDX 73 76 81 77 74 78 80 79 82 80 79 81 75 82 76 83 77 84 78 85
REMARK SMILES IDX 57 86 58 87 66 88 59 89 65 90 67 91 64 92 60 93 61 94 62 95
REMARK SMILES IDX 63 96
REMARK H PARENT 87 49 55 60
REMARK Flexibility Score: inf
ROOT
ATOM      1  C   UNL A   1      34.067  28.140  23.737  1.00  0.00     0.188 C 
ENDROOT
BRANCH   1   2
ATOM      2  C   UNL A   1      33.351  28.089  22.369  1.00  0.00     0.188 C 
BRANCH   2   3
ATOM      3  O   UNL A   1      32.812  26.865  21.932  1.00  0.00    -0.376 OA
BRANCH   3   4
ATOM      4  C   UNL A   1      31.494  26.461  22.250  1.00  0.00     0.202 C 
BRANCH   4   5
ATOM      5  C   UNL A   1      31.093  25.119  22.885  1.00  0.00     0.261 C 
BRANCH   5   6
ATOM      6  O   UNL A   1      32.062  24.072  22.852  1.00  0.00    -0.460 OA
BRANCH   6   7
ATOM      7  C   UNL A   1      32.211  23.392  24.015  1.00  0.00     0.338 C 
ATOM      8  O   UNL A   1      31.335  22.828  24.651  1.00  0.00    -0.246 OA
BRANCH   7   9
ATOM      9  C   UNL A   1      33.640  23.334  24.366  1.00  0.00     0.087 C 
ATOM     10  C   UNL A   1      37.644  23.072  25.579  1.00  0.00     0.018 A 
ATOM     11  C   UNL A   1      38.260  21.811  25.578  1.00  0.00     0.032 A 
ATOM     12  C   UNL A   1      36.311  23.175  25.126  1.00  0.00     0.135 A 
ATOM     13  C   UNL A   1      37.579  20.690  25.108  1.00  0.00     0.042 A 
ATOM     14  C   UNL A   1      35.621  22.036  24.689  1.00  0.00     0.019 A 
ATOM     15  O   UNL A   1      35.744  24.423  25.135  1.00  0.00    -0.475 OA
ATOM     16  Cl  UNL A   1      38.359  19.158  25.112  1.00  0.00    -0.084 Cl
ATOM     17  C   UNL A   1      36.264  20.794  24.664  1.00  0.00     0.032 A 
ATOM     18  C   UNL A   1      34.221  22.130  24.312  1.00  0.00     0.027 C 
ATOM     19  C   UNL A   1      34.357  24.596  24.748  1.00  0.00     0.316 C 
BRANCH  10  20
ATOM     20  C   UNL A   1      38.340  24.248  26.135  1.00  0.00     0.004 C 
ATOM     21  C   UNL A   1      38.481  24.521  27.439  1.00  0.00     0.009 C 
ENDBRANCH  10  20
BRANCH  19  22
ATOM     22  C   UNL A   1      33.645  25.361  25.874  1.00  0.00     0.430 C 
ATOM     23  F   UNL A   1      34.446  26.322  26.397  1.00  0.00    -0.167 F 
ATOM     24  F   UNL A   1      32.531  25.991  25.432  1.00  0.00    -0.167 F 
ATOM     25  F   UNL A   1      33.276  24.548  26.888  1.00  0.00    -0.167 F 
ENDBRANCH  19  22
ENDBRANCH   7   9
ENDBRANCH   6   7
ENDBRANCH   5   6
ENDBRANCH   4   5
ENDBRANCH   3   4
ENDBRANCH   2   3
ENDBRANCH   1   2
BRANCH   1  26
ATOM     26  O   UNL A   1      33.577  28.971  24.776  1.00  0.00    -0.376 OA
BRANCH  26  27
ATOM     27  C   UNL A   1      32.189  29.276  24.818  1.00  0.00     0.202 C 
BRANCH  27  28
ATOM     28  C   UNL A   1      31.672  30.398  25.728  1.00  0.00     0.261 C 
BRANCH  28  29
ATOM     29  O   UNL A   1      32.341  30.476  26.995  1.00  0.00    -0.460 OA
BRANCH  29  30
ATOM     30  C   UNL A   1      33.027  31.626  27.221  1.00  0.00     0.338 C 
ATOM     31  O   UNL A   1      32.590  32.762  27.174  1.00  0.00    -0.246 OA
BRANCH  30  32
ATOM     32  C   UNL A   1      34.361  31.288  27.756  1.00  0.00     0.060 A 
ATOM     33  C   UNL A   1      35.315  32.279  27.993  1.00  0.00     0.016 A 
ATOM     34  C   UNL A   1      34.651  29.943  28.022  1.00  0.00     0.016 A 
ATOM     35  C   UNL A   1      36.556  31.920  28.527  1.00  0.00     0.010 A 
ATOM     36  C   UNL A   1      35.897  29.585  28.541  1.00  0.00     0.010 A 
ATOM     37  C   UNL A   1      36.850  30.575  28.819  1.00  0.00    -0.014 A 
BRANCH  37  38
ATOM     38  C   UNL A   1      38.065  30.241  29.599  1.00  0.00     0.031 A 
ATOM     39  C   UNL A   1      38.314  30.788  30.970  1.00  0.00     0.074 A 
ATOM     40  C   UNL A   1      38.966  29.421  29.026  1.00  0.00     0.049 A 
ATOM     41  N   UNL A   1      39.263  30.475  31.813  1.00  0.00    -0.248 NA
ATOM     42  C   UNL A   1      37.390  31.821  31.458  1.00  0.00     0.031 C 
ATOM     43  C   UNL A   1      38.847  28.878  27.672  1.00  0.00     0.029 A 
ATOM     44  N   UNL A   1      40.144  28.898  29.495  1.00  0.00    -0.354 N 
ATOM     45  C   UNL A   1      39.043  31.248  32.946  1.00  0.00     0.074 A 
ATOM     46  C   UNL A   1      37.897  32.088  32.657  1.00  0.00     0.031 C 
ATOM     47  C   UNL A   1      39.894  28.078  27.429  1.00  0.00     0.029 A 
ATOM     48  C   UNL A   1      40.770  28.064  28.598  1.00  0.00     0.049 A 
ATOM     49  H   UNL A   1      40.506  29.100  30.388  1.00  0.00     0.167 HD
ATOM     50  C   UNL A   1      39.723  31.234  34.117  1.00  0.00     0.034 A 
ATOM     51  C   UNL A   1      41.911  27.353  28.705  1.00  0.00     0.034 A 
ATOM     52  C   UNL A   1      40.874  30.397  34.371  1.00  0.00     0.049 A 
ATOM     53  C   UNL A   1      42.656  27.365  30.014  1.00  0.00     0.074 A 
ATOM     54  C   UNL A   1      41.586  30.261  35.550  1.00  0.00     0.029 A 
ATOM     55  N   UNL A   1      41.491  29.573  33.440  1.00  0.00    -0.354 N 
ATOM     56  N   UNL A   1      42.352  27.990  31.128  1.00  0.00    -0.248 NA
ATOM     57  C   UNL A   1      43.881  26.559  30.095  1.00  0.00     0.031 C 
ATOM     58  C   UNL A   1      42.673  29.419  35.314  1.00  0.00     0.029 A 
ATOM     59  C   UNL A   1      42.597  28.959  34.009  1.00  0.00     0.049 A 
ATOM     60  H   UNL A   1      41.189  29.442  32.513  1.00  0.00     0.167 HD
ATOM     61  C   UNL A   1      43.336  27.635  32.047  1.00  0.00     0.074 A 
ATOM     62  C   UNL A   1      44.226  26.718  31.366  1.00  0.00     0.031 C 
ATOM     63  C   UNL A   1      43.485  28.038  33.335  1.00  0.00     0.034 A 
BRANCH  50  64
ATOM     64  C   UNL A   1      39.245  32.110  35.250  1.00  0.00     0.023 A 
ATOM     65  C   UNL A   1      39.743  33.420  35.395  1.00  0.00     0.031 A 
ATOM     66  C   UNL A   1      38.438  31.589  36.279  1.00  0.00     0.131 A 
ATOM     67  C   UNL A   1      39.463  34.147  36.560  1.00  0.00     0.055 A 
ATOM     68  C   UNL A   1      38.129  32.334  37.418  1.00  0.00     0.041 A 
ATOM     69  F   UNL A   1      37.948  30.342  36.194  1.00  0.00    -0.206 F 
ATOM     70  C   UNL A   1      38.654  33.613  37.569  1.00  0.00     0.022 A 
BRANCH  67  71
ATOM     71  S   UNL A   1      40.199  35.779  36.851  1.00  0.00     0.124 S 
ATOM     72  O   UNL A   1      39.624  36.565  35.761  1.00  0.00    -0.237 OA
ATOM     73  O   UNL A   1      39.703  36.106  38.184  1.00  0.00    -0.237 OA
ATOM     74  O   UNL A   1      41.635  35.538  36.752  1.00  0.00    -0.744 OA
ENDBRANCH  67  71
ENDBRANCH  50  64
BRANCH  51  75
ATOM     75  C   UNL A   1      42.341  26.509  27.554  1.00  0.00     0.023 A 
ATOM     76  C   UNL A   1      42.163  25.113  27.576  1.00  0.00     0.031 A 
ATOM     77  C   UNL A   1      43.048  27.069  26.478  1.00  0.00     0.131 A 
ATOM     78  C   UNL A   1      42.750  24.321  26.582  1.00  0.00     0.055 A 
ATOM     79  C   UNL A   1      43.568  26.282  25.450  1.00  0.00     0.041 A 
ATOM     80  F   UNL A   1      43.259  28.393  26.424  1.00  0.00    -0.206 F 
ATOM     81  C   UNL A   1      43.437  24.898  25.509  1.00  0.00     0.022 A 
BRANCH  78  82
ATOM     82  S   UNL A   1      42.768  22.513  26.726  1.00  0.00     0.124 S 
ATOM     83  O   UNL A   1      42.506  22.317  28.148  1.00  0.00    -0.237 OA
ATOM     84  O   UNL A   1      41.682  22.131  25.826  1.00  0.00    -0.237 OA
ATOM     85  O   UNL A   1      44.106  22.144  26.274  1.00  0.00    -0.744 OA
ENDBRANCH  78  82
ENDBRANCH  51  75
BRANCH  63  86
ATOM     86  C   UNL A   1      44.659  27.510  34.127  1.00  0.00     0.023 A 
ATOM     87  C   UNL A   1      44.524  26.337  34.896  1.00  0.00     0.031 A 
ATOM     88  C   UNL A   1      45.856  28.240  34.240  1.00  0.00     0.131 A 
ATOM     89  C   UNL A   1      45.547  25.953  35.774  1.00  0.00     0.055 A 
ATOM     90  C   UNL A   1      46.894  27.825  35.077  1.00  0.00     0.041 A 
ATOM     91  F   UNL A   1      46.034  29.371  33.538  1.00  0.00    -0.206 F 
ATOM     92  C   UNL A   1      46.735  26.687  35.860  1.00  0.00     0.022 A 
BRANCH  89  93
ATOM     93  S   UNL A   1      45.339  24.547  36.901  1.00  0.00     0.124 S 
ATOM     94  O   UNL A   1      46.692  24.382  37.430  1.00  0.00    -0.237 OA
ATOM     95  O   UNL A   1      44.357  25.057  37.853  1.00  0.00    -0.237 OA
ATOM     96  O   UNL A   1      44.875  23.468  36.035  1.00  0.00    -0.744 OA
ENDBRANCH  89  93
ENDBRANCH  63  86
ENDBRANCH  37  38
ENDBRANCH  30  32
ENDBRANCH  29  30
ENDBRANCH  28  29
ENDBRANCH  27  28
ENDBRANCH  26  27
ENDBRANCH   1  26
TORSDOF 22
ENDMDL
MODEL 3
REMARK VINA RESULT:     -10.9      2.166      2.800
REMARK SMILES C=Cc1cc(Cl)cc2c1O[C@H](C(F)(F)F)C(C(=O)OCCOCCOCCOC(=O)c1ccc(-c3c4nc(c(-c5cc(S(=O)(=O)[O-])ccc5F)c5ccc([nH]5)c(-c5cc(S(=O)(=O)[O-])ccc5F)c5nc(c(-c6cc(S(=O)(=O)[O-])ccc6F)c6ccc3[nH]6)C=C5)C=C4)cc1)=C2
REMARK SMILES IDX 24 1 23 2 22 3 21 4 20 5 19 6 17 7 18 8 16 9 3 10 4 11 9 12
REMARK SMILES IDX 5 13 8 14 10 15 6 16 7 17 94 18 11 19 2 20 1 21 12 22 13 23
REMARK SMILES IDX 14 24 15 25 25 26 26 27 27 28 28 29 29 30 30 31 31 32 32 33
REMARK SMILES IDX 93 34 33 35 92 36 34 37 35 38 36 39 86 40 37 41 91 42 85 43
REMARK SMILES IDX 87 44 38 45 90 46 84 47 83 48 39 50 71 51 51 52 70 53 52 54
REMARK SMILES IDX 55 55 69 56 88 57 53 58 54 59 68 61 89 62 56 63 40 64 41 65
REMARK SMILES IDX 49 66 42 67 48 68 50 69 47 70 43 71 44 72 45 73 46 74 72 75
REMARK SMILES IDX 73 76 81 77 74 78 80 79 82 80 79 81 75 82 76 83 77 84 78 85
REMARK SMILES IDX 57 86 58 87 66 88 59 89 65 90 67 91 64 92 60 93 61 94 62 95
REMARK SMILES IDX 63 96
REMARK H PARENT 87 49 55 60
REMARK Flexibility Score: inf
ROOT
ATOM      1  C   UNL A   1      33.201  27.783  24.172  1.00  0.00     0.188 C 
ENDROOT
BRANCH   1   2
ATOM      2  C   UNL A   1      32.103  27.208  23.250  1.00  0.00     0.188 C 
BRANCH   2   3
ATOM      3  O   UNL A   1      32.126  25.834  22.945  1.00  0.00    -0.376 OA
BRANCH   3   4
ATOM      4  C   UNL A   1      31.089  24.954  23.336  1.00  0.00     0.202 C 
BRANCH   4   5
ATOM      5  C   UNL A   1      30.768  24.528  24.777  1.00  0.00     0.261 C 
BRANCH   5   6
ATOM      6  O   UNL A   1      31.842  24.559  25.716  1.00  0.00    -0.460 OA
BRANCH   6   7
ATOM      7  C   UNL A   1      31.991  23.431  26.453  1.00  0.00     0.338 C 
ATOM      8  O   UNL A   1      31.136  22.875  27.122  1.00  0.00    -0.246 OA
BRANCH   7   9
ATOM      9  C   UNL A   1      33.344  22.888  26.243  1.00  0.00     0.087 C 
ATOM     10  C   UNL A   1      37.200  21.458  25.430  1.00  0.00     0.018 A 
ATOM     11  C   UNL A   1      38.279  22.348  25.543  1.00  0.00     0.032 A 
ATOM     12  C   UNL A   1      35.905  21.920  25.750  1.00  0.00     0.135 A 
ATOM     13  C   UNL A   1      38.078  23.652  25.991  1.00  0.00     0.042 A 
ATOM     14  C   UNL A   1      35.706  23.244  26.166  1.00  0.00     0.019 A 
ATOM     15  O   UNL A   1      34.876  21.021  25.634  1.00  0.00    -0.475 OA
ATOM     16  Cl  UNL A   1      39.418  24.720  26.126  1.00  0.00    -0.084 Cl
ATOM     17  C   UNL A   1      36.800  24.105  26.303  1.00  0.00     0.032 A 
ATOM     18  C   UNL A   1      34.362  23.741  26.403  1.00  0.00     0.027 C 
ATOM     19  C   UNL A   1      33.510  21.441  25.880  1.00  0.00     0.316 C 
BRANCH  10  20
ATOM     20  C   UNL A   1      37.400  20.097  24.895  1.00  0.00     0.004 C 
ATOM     21  C   UNL A   1      38.347  19.239  25.294  1.00  0.00     0.009 C 
ENDBRANCH  10  20
BRANCH  19  22
ATOM     22  C   UNL A   1      32.666  21.040  24.660  1.00  0.00     0.430 C 
ATOM     23  F   UNL A   1      32.586  22.056  23.765  1.00  0.00    -0.167 F 
ATOM     24  F   UNL A   1      33.202  19.988  23.998  1.00  0.00    -0.167 F 
ATOM     25  F   UNL A   1      31.403  20.704  25.002  1.00  0.00    -0.167 F 
ENDBRANCH  19  22
ENDBRANCH   7   9
ENDBRANCH   6   7
ENDBRANCH   5   6
ENDBRANCH   4   5
ENDBRANCH   3   4
ENDBRANCH   2   3
ENDBRANCH   1   2
BRANCH   1  26
ATOM     26  O   UNL A   1      33.081  29.089  24.708  1.00  0.00    -0.376 OA
BRANCH  26  27
ATOM     27  C   UNL A   1      31.791  29.678  24.806  1.00  0.00     0.202 C 
BRANCH  27  28
ATOM     28  C   UNL A   1      31.500  30.725  25.887  1.00  0.00     0.261 C 
BRANCH  28  29
ATOM     29  O   UNL A   1      32.390  30.666  27.011  1.00  0.00    -0.460 OA
BRANCH  29  30
ATOM     30  C   UNL A   1      33.081  31.807  27.267  1.00  0.00     0.338 C 
ATOM     31  O   UNL A   1      32.649  32.946  27.247  1.00  0.00    -0.246 OA
BRANCH  30  32
ATOM     32  C   UNL A   1      34.413  31.450  27.795  1.00  0.00     0.060 A 
ATOM     33  C   UNL A   1      35.400  32.420  27.978  1.00  0.00     0.016 A 
ATOM     34  C   UNL A   1      34.667  30.108  28.110  1.00  0.00     0.016 A 
ATOM     35  C   UNL A   1      36.637  32.044  28.508  1.00  0.00     0.010 A 
ATOM     36  C   UNL A   1      35.909  29.733  28.624  1.00  0.00     0.010 A 
ATOM     37  C   UNL A   1      36.896  30.703  28.848  1.00  0.00    -0.014 A 
BRANCH  37  38
ATOM     38  C   UNL A   1      38.113  30.363  29.623  1.00  0.00     0.031 A 
ATOM     39  C   UNL A   1      38.341  30.859  31.017  1.00  0.00     0.074 A 
ATOM     40  C   UNL A   1      39.035  29.586  29.023  1.00  0.00     0.049 A 
ATOM     41  N   UNL A   1      39.292  30.531  31.852  1.00  0.00    -0.248 NA
ATOM     42  C   UNL A   1      37.392  31.851  31.539  1.00  0.00     0.031 C 
ATOM     43  C   UNL A   1      38.936  29.097  27.647  1.00  0.00     0.029 A 
ATOM     44  N   UNL A   1      40.220  29.069  29.479  1.00  0.00    -0.354 N 
ATOM     45  C   UNL A   1      39.048  31.252  33.014  1.00  0.00     0.074 A 
ATOM     46  C   UNL A   1      37.887  32.080  32.752  1.00  0.00     0.031 C 
ATOM     47  C   UNL A   1      40.001  28.330  27.379  1.00  0.00     0.029 A 
ATOM     48  C   UNL A   1      40.869  28.286  28.553  1.00  0.00     0.049 A 
ATOM     49  H   UNL A   1      40.572  29.242  30.382  1.00  0.00     0.167 HD
ATOM     50  C   UNL A   1      39.721  31.205  34.189  1.00  0.00     0.034 A 
ATOM     51  C   UNL A   1      42.025  27.595  28.639  1.00  0.00     0.034 A 
ATOM     52  C   UNL A   1      40.887  30.382  34.417  1.00  0.00     0.049 A 
ATOM     53  C   UNL A   1      42.761  27.569  29.953  1.00  0.00     0.074 A 
ATOM     54  C   UNL A   1      41.595  30.213  35.594  1.00  0.00     0.029 A 
ATOM     55  N   UNL A   1      41.528  29.610  33.458  1.00  0.00    -0.354 N 
ATOM     56  N   UNL A   1      42.437  28.142  31.089  1.00  0.00    -0.248 NA
ATOM     57  C   UNL A   1      44.002  26.787  30.009  1.00  0.00     0.031 C 
ATOM     58  C   UNL A   1      42.701  29.404  35.332  1.00  0.00     0.029 A 
ATOM     59  C   UNL A   1      42.643  28.996  34.009  1.00  0.00     0.049 A 
ATOM     60  H   UNL A   1      41.234  29.511  32.524  1.00  0.00     0.167 HD
ATOM     61  C   UNL A   1      43.422  27.770  32.000  1.00  0.00     0.074 A 
ATOM     62  C   UNL A   1      44.336  26.900  31.289  1.00  0.00     0.031 C 
ATOM     63  C   UNL A   1      43.554  28.123  33.304  1.00  0.00     0.034 A 
BRANCH  50  64
ATOM     64  C   UNL A   1      39.217  32.023  35.354  1.00  0.00     0.023 A 
ATOM     65  C   UNL A   1      39.654  33.351  35.531  1.00  0.00     0.031 A 
ATOM     66  C   UNL A   1      38.450  31.435  36.376  1.00  0.00     0.131 A 
ATOM     67  C   UNL A   1      39.355  34.030  36.720  1.00  0.00     0.055 A 
ATOM     68  C   UNL A   1      38.122  32.130  37.540  1.00  0.00     0.041 A 
ATOM     69  F   UNL A   1      38.019  30.168  36.260  1.00  0.00    -0.206 F 
ATOM     70  C   UNL A   1      38.588  33.428  37.723  1.00  0.00     0.022 A 
BRANCH  67  71
ATOM     71  S   UNL A   1      40.017  35.686  37.051  1.00  0.00     0.124 S 
ATOM     72  O   UNL A   1      39.304  36.055  38.272  1.00  0.00    -0.237 OA
ATOM     73  O   UNL A   1      41.442  35.418  37.219  1.00  0.00    -0.237 OA
ATOM     74  O   UNL A   1      39.653  36.452  35.863  1.00  0.00    -0.744 OA
ENDBRANCH  67  71
ENDBRANCH  50  64
BRANCH  51  75
ATOM     75  C   UNL A   1      42.479  26.809  27.458  1.00  0.00     0.023 A 
ATOM     76  C   UNL A   1      42.292  25.415  27.403  1.00  0.00     0.031 A 
ATOM     77  C   UNL A   1      43.220  27.417  26.431  1.00  0.00     0.131 A 
ATOM     78  C   UNL A   1      42.900  24.670  26.385  1.00  0.00     0.055 A 
ATOM     79  C   UNL A   1      43.761  26.680  25.377  1.00  0.00     0.041 A 
ATOM     80  F   UNL A   1      43.441  28.741  26.451  1.00  0.00    -0.206 F 
ATOM     81  C   UNL A   1      43.619  25.296  25.362  1.00  0.00     0.022 A 
BRANCH  78  82
ATOM     82  S   UNL A   1      42.902  22.857  26.435  1.00  0.00     0.124 S 
ATOM     83  O   UNL A   1      44.269  22.565  26.855  1.00  0.00    -0.237 OA
ATOM     84  O   UNL A   1      41.865  22.585  27.428  1.00  0.00    -0.237 OA
ATOM     85  O   UNL A   1      42.566  22.473  25.068  1.00  0.00    -0.744 OA
ENDBRANCH  78  82
ENDBRANCH  51  75
BRANCH  63  86
ATOM     86  C   UNL A   1      44.735  27.587  34.082  1.00  0.00     0.023 A 
ATOM     87  C   UNL A   1      44.638  26.352  34.754  1.00  0.00     0.031 A 
ATOM     88  C   UNL A   1      45.893  28.359  34.282  1.00  0.00     0.131 A 
ATOM     89  C   UNL A   1      45.658  25.947  35.625  1.00  0.00     0.055 A 
ATOM     90  C   UNL A   1      46.931  27.927  35.110  1.00  0.00     0.041 A 
ATOM     91  F   UNL A   1      46.033  29.549  33.675  1.00  0.00    -0.206 F 
ATOM     92  C   UNL A   1      46.808  26.725  35.799  1.00  0.00     0.022 A 
BRANCH  89  93
ATOM     93  S   UNL A   1      45.492  24.449  36.634  1.00  0.00     0.124 S 
ATOM     94  O   UNL A   1      45.597  24.984  37.990  1.00  0.00    -0.237 OA
ATOM     95  O   UNL A   1      44.166  23.968  36.256  1.00  0.00    -0.237 OA
ATOM     96  O   UNL A   1      46.609  23.612  36.208  1.00  0.00    -0.744 OA
ENDBRANCH  89  93
ENDBRANCH  63  86
ENDBRANCH  37  38
ENDBRANCH  30  32
ENDBRANCH  29  30
ENDBRANCH  28  29
ENDBRANCH  27  28
ENDBRANCH  26  27
ENDBRANCH   1  26
TORSDOF 22
ENDMDL
