MODEL 1
REMARK VINA RESULT:     -11.4      0.000      0.000
REMARK SMILES C[C@H]1CC[C@H]([NH2+]Cc2c(C(=O)OCCOCCOCCOC(=O)c3ccc(-c4c5nc(c(-c6cc(S(=O)(=O)[O-])ccc6F)c6ccc([nH]6)c(-c6cc(S(=O)(=O)[O-])ccc6F)c6nc(c(-c7cc(S(=O)(=O)[O-])ccc7F)c7ccc4[nH]7)C=C6)C=C5)cc3)n(Cc3ccccc3F)c3ccccc23)CC1
REMARK SMILES IDX 16 1 15 2 14 3 13 4 12 5 10 6 11 7 9 8 8 9 101 10 87 11
REMARK SMILES IDX 96 12 100 13 97 14 99 15 98 16 7 17 6 18 5 21 1 22 2 23 3 24
REMARK SMILES IDX 103 25 4 26 102 27 88 28 89 29 90 30 94 31 91 32 93 33 95 34
REMARK SMILES IDX 92 35 17 36 18 37 19 38 20 39 21 40 22 41 23 42 24 43 25 44
REMARK SMILES IDX 86 45 26 46 85 47 27 48 28 49 29 50 79 51 30 52 84 53 78 54
REMARK SMILES IDX 80 55 31 56 83 57 77 58 76 59 32 61 64 62 44 63 63 64 45 65
REMARK SMILES IDX 48 66 62 67 81 68 46 69 47 70 61 72 82 73 49 74 33 75 34 76
REMARK SMILES IDX 42 77 35 78 41 79 43 80 40 81 36 82 37 83 38 84 39 85 65 86
REMARK SMILES IDX 66 87 74 88 67 89 73 90 75 91 72 92 68 93 69 94 70 95 71 96
REMARK SMILES IDX 50 97 51 98 59 99 52 100 58 101 60 102 57 103 53 104 54 105
REMARK SMILES IDX 55 106 56 107
REMARK H PARENT 6 19 6 20 80 60 48 71
REMARK Flexibility Score: inf
ROOT
ATOM      1  C   UNL A   1      40.794  22.014  26.934  1.00  0.00     0.188 C 
ENDROOT
BRANCH   1   2
ATOM      2  O   UNL A   1      39.498  22.487  26.625  1.00  0.00    -0.376 OA
BRANCH   2   3
ATOM      3  C   UNL A   1      38.857  21.600  25.759  1.00  0.00     0.202 C 
BRANCH   3   4
ATOM      4  C   UNL A   1      37.411  22.012  25.613  1.00  0.00     0.261 C 
BRANCH   4   5
ATOM      5  O   UNL A   1      36.983  23.230  24.958  1.00  0.00    -0.459 OA
BRANCH   5   6
ATOM      6  C   UNL A   1      35.923  23.137  24.105  1.00  0.00     0.355 C 
ATOM      7  O   UNL A   1      36.070  23.118  22.897  1.00  0.00    -0.244 OA
BRANCH   6   8
ATOM      8  C   UNL A   1      34.648  23.116  24.797  1.00  0.00     0.137 A 
ATOM      9  C   UNL A   1      34.015  24.198  25.429  1.00  0.00     0.047 A 
ATOM     10  C   UNL A   1      32.742  23.697  25.896  1.00  0.00     0.009 A 
ATOM     11  N   UNL A   1      33.722  22.044  24.770  1.00  0.00    -0.330 N 
ATOM     12  C   UNL A   1      32.534  22.438  25.343  1.00  0.00     0.050 A 
ATOM     13  C   UNL A   1      31.696  24.268  26.656  1.00  0.00     0.011 A 
ATOM     14  C   UNL A   1      31.279  21.813  25.394  1.00  0.00     0.027 A 
ATOM     15  C   UNL A   1      30.482  23.592  26.798  1.00  0.00     0.001 A 
ATOM     16  C   UNL A   1      30.270  22.390  26.149  1.00  0.00     0.002 A 
BRANCH   9  17
ATOM     17  C   UNL A   1      34.377  25.674  25.588  1.00  0.00     0.300 C 
BRANCH  17  18
ATOM     18  N   UNL A   1      34.385  26.531  24.403  1.00  0.00    -0.340 N 
ATOM     19  H   UNL A   1      34.955  27.345  24.632  1.00  0.00     0.346 HD
ATOM     20  H   UNL A   1      34.725  25.910  23.669  1.00  0.00     0.346 HD
BRANCH  18  21
ATOM     21  C   UNL A   1      33.110  27.044  23.849  1.00  0.00     0.182 C 
ATOM     22  C   UNL A   1      28.663  26.331  23.992  1.00  0.00     0.007 C 
ATOM     23  C   UNL A   1      30.183  26.336  24.175  1.00  0.00    -0.014 C 
ATOM     24  C   UNL A   1      30.703  27.720  24.543  1.00  0.00     0.009 C 
ATOM     25  C   UNL A   1      30.906  25.870  22.910  1.00  0.00     0.009 C 
ATOM     26  C   UNL A   1      32.185  27.677  24.890  1.00  0.00     0.065 C 
ATOM     27  C   UNL A   1      32.445  25.941  22.966  1.00  0.00     0.065 C 
ENDBRANCH  18  21
ENDBRANCH  17  18
ENDBRANCH   9  17
BRANCH  11  28
ATOM     28  C   UNL A   1      33.852  20.827  23.954  1.00  0.00     0.161 C 
BRANCH  28  29
ATOM     29  C   UNL A   1      33.761  19.417  24.523  1.00  0.00     0.008 A 
ATOM     30  C   UNL A   1      32.523  18.723  24.520  1.00  0.00     0.008 A 
ATOM     31  C   UNL A   1      34.910  18.657  24.739  1.00  0.00     0.128 A 
ATOM     32  C   UNL A   1      32.452  17.337  24.711  1.00  0.00     0.001 A 
ATOM     33  C   UNL A   1      34.849  17.265  24.881  1.00  0.00     0.039 A 
ATOM     34  F   UNL A   1      36.115  19.235  24.639  1.00  0.00    -0.207 F 
ATOM     35  C   UNL A   1      33.621  16.602  24.860  1.00  0.00     0.003 A 
ENDBRANCH  28  29
ENDBRANCH  11  28
ENDBRANCH   6   8
ENDBRANCH   5   6
ENDBRANCH   4   5
ENDBRANCH   3   4
ENDBRANCH   2   3
ENDBRANCH   1   2
BRANCH   1  36
ATOM     36  C   UNL A   1      40.892  20.484  26.920  1.00  0.00     0.188 C 
BRANCH  36  37
ATOM     37  O   UNL A   1      42.198  19.950  26.748  1.00  0.00    -0.376 OA
BRANCH  37  38
ATOM     38  C   UNL A   1      42.303  18.905  25.788  1.00  0.00     0.202 C 
BRANCH  38  39
ATOM     39  C   UNL A   1      43.748  18.514  25.390  1.00  0.00     0.261 C 
BRANCH  39  40
ATOM     40  O   UNL A   1      44.251  19.237  24.222  1.00  0.00    -0.460 OA
BRANCH  40  41
ATOM     41  C   UNL A   1      45.303  20.092  24.377  1.00  0.00     0.338 C 
ATOM     42  O   UNL A   1      46.419  19.871  23.928  1.00  0.00    -0.246 OA
BRANCH  41  43
ATOM     43  C   UNL A   1      44.863  21.484  24.828  1.00  0.00     0.060 A 
ATOM     44  C   UNL A   1      44.663  22.653  24.064  1.00  0.00     0.016 A 
ATOM     45  C   UNL A   1      44.820  21.645  26.204  1.00  0.00     0.016 A 
ATOM     46  C   UNL A   1      44.559  23.966  24.680  1.00  0.00     0.010 A 
ATOM     47  C   UNL A   1      44.717  22.924  26.777  1.00  0.00     0.010 A 
ATOM     48  C   UNL A   1      44.647  24.140  26.067  1.00  0.00    -0.014 A 
BRANCH  48  49
ATOM     49  C   UNL A   1      44.475  25.415  26.899  1.00  0.00     0.031 A 
ATOM     50  C   UNL A   1      45.510  26.445  26.618  1.00  0.00     0.074 A 
ATOM     51  C   UNL A   1      43.498  25.920  27.732  1.00  0.00     0.049 A 
ATOM     52  N   UNL A   1      46.392  26.813  27.488  1.00  0.00    -0.248 NA
ATOM     53  C   UNL A   1      45.645  27.116  25.324  1.00  0.00     0.031 C 
ATOM     54  C   UNL A   1      42.310  25.273  28.272  1.00  0.00     0.029 A 
ATOM     55  N   UNL A   1      43.256  27.239  28.148  1.00  0.00    -0.354 N 
ATOM     56  C   UNL A   1      47.041  27.898  26.934  1.00  0.00     0.074 A 
ATOM     57  C   UNL A   1      46.675  27.931  25.545  1.00  0.00     0.031 C 
ATOM     58  C   UNL A   1      41.346  26.175  28.594  1.00  0.00     0.029 A 
ATOM     59  C   UNL A   1      41.930  27.504  28.557  1.00  0.00     0.049 A 
ATOM     60  H   UNL A   1      43.959  27.928  28.155  1.00  0.00     0.167 HD
ATOM     61  C   UNL A   1      47.644  28.829  27.716  1.00  0.00     0.034 A 
ATOM     62  C   UNL A   1      41.365  28.627  29.098  1.00  0.00     0.034 A 
ATOM     63  C   UNL A   1      47.672  28.423  29.095  1.00  0.00     0.049 A 
ATOM     64  C   UNL A   1      42.388  29.151  30.028  1.00  0.00     0.074 A 
ATOM     65  C   UNL A   1      48.276  27.397  29.784  1.00  0.00     0.029 A 
ATOM     66  N   UNL A   1      46.647  28.891  29.876  1.00  0.00    -0.354 N 
ATOM     67  N   UNL A   1      42.767  28.534  31.111  1.00  0.00    -0.248 NA
ATOM     68  C   UNL A   1      43.155  30.337  29.690  1.00  0.00     0.031 C 
ATOM     69  C   UNL A   1      47.416  27.101  30.877  1.00  0.00     0.029 A 
ATOM     70  C   UNL A   1      46.346  27.998  30.882  1.00  0.00     0.049 A 
ATOM     71  H   UNL A   1      46.187  29.751  29.736  1.00  0.00     0.167 HD
ATOM     72  C   UNL A   1      44.081  28.897  31.245  1.00  0.00     0.074 A 
ATOM     73  C   UNL A   1      44.173  30.170  30.540  1.00  0.00     0.031 C 
ATOM     74  C   UNL A   1      45.032  27.960  31.534  1.00  0.00     0.034 A 
BRANCH  61  75
ATOM     75  C   UNL A   1      47.923  30.231  27.276  1.00  0.00     0.023 A 
ATOM     76  C   UNL A   1      46.899  31.150  26.980  1.00  0.00     0.031 A 
ATOM     77  C   UNL A   1      49.234  30.732  27.292  1.00  0.00     0.131 A 
ATOM     78  C   UNL A   1      47.190  32.469  26.623  1.00  0.00     0.055 A 
ATOM     79  C   UNL A   1      49.520  32.072  27.014  1.00  0.00     0.041 A 
ATOM     80  F   UNL A   1      50.270  29.937  27.600  1.00  0.00    -0.206 F 
ATOM     81  C   UNL A   1      48.497  32.946  26.660  1.00  0.00     0.022 A 
BRANCH  78  82
ATOM     82  S   UNL A   1      45.868  33.576  26.062  1.00  0.00     0.124 S 
ATOM     83  O   UNL A   1      44.962  32.648  25.397  1.00  0.00    -0.237 OA
ATOM     84  O   UNL A   1      45.394  34.135  27.326  1.00  0.00    -0.237 OA
ATOM     85  O   UNL A   1      46.565  34.523  25.194  1.00  0.00    -0.744 OA
ENDBRANCH  78  82
ENDBRANCH  61  75
BRANCH  62  86
ATOM     86  C   UNL A   1      39.980  29.186  29.253  1.00  0.00     0.023 A 
ATOM     87  C   UNL A   1      39.466  29.403  30.554  1.00  0.00     0.031 A 
ATOM     88  C   UNL A   1      39.034  29.174  28.206  1.00  0.00     0.131 A 
ATOM     89  C   UNL A   1      38.075  29.566  30.772  1.00  0.00     0.055 A 
ATOM     90  C   UNL A   1      37.655  29.333  28.426  1.00  0.00     0.041 A 
ATOM     91  F   UNL A   1      39.414  28.939  26.942  1.00  0.00    -0.206 F 
ATOM     92  C   UNL A   1      37.168  29.515  29.713  1.00  0.00     0.022 A 
BRANCH  89  93
ATOM     93  S   UNL A   1      37.365  29.674  32.451  1.00  0.00     0.124 S 
ATOM     94  O   UNL A   1      37.446  28.289  32.910  1.00  0.00    -0.237 OA
ATOM     95  O   UNL A   1      38.273  30.599  33.127  1.00  0.00    -0.237 OA
ATOM     96  O   UNL A   1      36.021  30.190  32.220  1.00  0.00    -0.744 OA
ENDBRANCH  89  93
ENDBRANCH  62  86
BRANCH  74  97
ATOM     97  C   UNL A   1      44.672  26.722  32.366  1.00  0.00     0.023 A 
ATOM     98  C   UNL A   1      44.530  26.922  33.758  1.00  0.00     0.031 A 
ATOM     99  C   UNL A   1      44.571  25.385  31.931  1.00  0.00     0.131 A 
ATOM    100  C   UNL A   1      44.432  25.843  34.649  1.00  0.00     0.055 A 
ATOM    101  C   UNL A   1      44.340  24.322  32.818  1.00  0.00     0.041 A 
ATOM    102  F   UNL A   1      44.745  25.016  30.656  1.00  0.00    -0.206 F 
ATOM    103  C   UNL A   1      44.311  24.539  34.187  1.00  0.00     0.022 A 
BRANCH 100 104
ATOM    104  S   UNL A   1      44.591  26.098  36.433  1.00  0.00     0.124 S 
ATOM    105  O   UNL A   1      43.328  26.749  36.770  1.00  0.00    -0.237 OA
ATOM    106  O   UNL A   1      44.737  24.729  36.924  1.00  0.00    -0.237 OA
ATOM    107  O   UNL A   1      45.778  26.936  36.567  1.00  0.00    -0.744 OA
ENDBRANCH 100 104
ENDBRANCH  74  97
ENDBRANCH  48  49
ENDBRANCH  41  43
ENDBRANCH  40  41
ENDBRANCH  39  40
ENDBRANCH  38  39
ENDBRANCH  37  38
ENDBRANCH  36  37
ENDBRANCH   1  36
TORSDOF 25
ENDMDL
MODEL 2
REMARK VINA RESULT:     -11.3      1.617      2.059
REMARK SMILES C[C@H]1CC[C@H]([NH2+]Cc2c(C(=O)OCCOCCOCCOC(=O)c3ccc(-c4c5nc(c(-c6cc(S(=O)(=O)[O-])ccc6F)c6ccc([nH]6)c(-c6cc(S(=O)(=O)[O-])ccc6F)c6nc(c(-c7cc(S(=O)(=O)[O-])ccc7F)c7ccc4[nH]7)C=C6)C=C5)cc3)n(Cc3ccccc3F)c3ccccc23)CC1
REMARK SMILES IDX 16 1 15 2 14 3 13 4 12 5 10 6 11 7 9 8 8 9 101 10 87 11
REMARK SMILES IDX 96 12 100 13 97 14 99 15 98 16 7 17 6 18 5 21 1 22 2 23 3 24
REMARK SMILES IDX 103 25 4 26 102 27 88 28 89 29 90 30 94 31 91 32 93 33 95 34
REMARK SMILES IDX 92 35 17 36 18 37 19 38 20 39 21 40 22 41 23 42 24 43 25 44
REMARK SMILES IDX 86 45 26 46 85 47 27 48 28 49 29 50 79 51 30 52 84 53 78 54
REMARK SMILES IDX 80 55 31 56 83 57 77 58 76 59 32 61 64 62 44 63 63 64 45 65
REMARK SMILES IDX 48 66 62 67 81 68 46 69 47 70 61 72 82 73 49 74 33 75 34 76
REMARK SMILES IDX 42 77 35 78 41 79 43 80 40 81 36 82 37 83 38 84 39 85 65 86
REMARK SMILES IDX 66 87 74 88 67 89 73 90 75 91 72 92 68 93 69 94 70 95 71 96
REMARK SMILES IDX 50 97 51 98 59 99 52 100 58 101 60 102 57 103 53 104 54 105
REMARK SMILES IDX 55 106 56 107
REMARK H PARENT 6 19 6 20 80 60 48 71
REMARK Flexibility Score: inf
ROOT
ATOM      1  C   UNL A   1      40.481  21.934  27.238  1.00  0.00     0.188 C 
ENDROOT
BRANCH   1   2
ATOM      2  O   UNL A   1      39.501  22.623  26.486  1.00  0.00    -0.376 OA
BRANCH   2   3
ATOM      3  C   UNL A   1      38.711  21.717  25.779  1.00  0.00     0.202 C 
BRANCH   3   4
ATOM      4  C   UNL A   1      37.316  22.279  25.641  1.00  0.00     0.261 C 
BRANCH   4   5
ATOM      5  O   UNL A   1      36.978  23.391  24.779  1.00  0.00    -0.459 OA
BRANCH   5   6
ATOM      6  C   UNL A   1      35.886  23.244  23.976  1.00  0.00     0.355 C 
ATOM      7  O   UNL A   1      35.981  23.199  22.763  1.00  0.00    -0.244 OA
BRANCH   6   8
ATOM      8  C   UNL A   1      34.644  23.201  24.724  1.00  0.00     0.137 A 
ATOM      9  C   UNL A   1      34.029  24.267  25.397  1.00  0.00     0.047 A 
ATOM     10  C   UNL A   1      32.782  23.747  25.915  1.00  0.00     0.009 A 
ATOM     11  N   UNL A   1      33.728  22.119  24.724  1.00  0.00    -0.330 N 
ATOM     12  C   UNL A   1      32.563  22.492  25.355  1.00  0.00     0.050 A 
ATOM     13  C   UNL A   1      31.766  24.297  26.728  1.00  0.00     0.011 A 
ATOM     14  C   UNL A   1      31.318  21.854  25.454  1.00  0.00     0.027 A 
ATOM     15  C   UNL A   1      30.567  23.606  26.915  1.00  0.00     0.001 A 
ATOM     16  C   UNL A   1      30.338  22.411  26.261  1.00  0.00     0.002 A 
BRANCH   9  17
ATOM     17  C   UNL A   1      34.382  25.746  25.560  1.00  0.00     0.300 C 
BRANCH  17  18
ATOM     18  N   UNL A   1      33.726  26.727  24.697  1.00  0.00    -0.340 N 
ATOM     19  H   UNL A   1      34.436  27.410  24.435  1.00  0.00     0.346 HD
ATOM     20  H   UNL A   1      33.328  26.154  23.953  1.00  0.00     0.346 HD
BRANCH  18  21
ATOM     21  C   UNL A   1      32.559  27.493  25.195  1.00  0.00     0.182 C 
ATOM     22  C   UNL A   1      31.382  31.616  26.582  1.00  0.00     0.007 C 
ATOM     23  C   UNL A   1      32.074  30.359  26.048  1.00  0.00    -0.014 C 
ATOM     24  C   UNL A   1      31.307  29.745  24.883  1.00  0.00     0.009 C 
ATOM     25  C   UNL A   1      32.234  29.295  27.135  1.00  0.00     0.009 C 
ATOM     26  C   UNL A   1      32.090  28.601  24.250  1.00  0.00     0.065 C 
ATOM     27  C   UNL A   1      32.827  27.954  26.663  1.00  0.00     0.065 C 
ENDBRANCH  18  21
ENDBRANCH  17  18
ENDBRANCH   9  17
BRANCH  11  28
ATOM     28  C   UNL A   1      33.833  20.914  23.887  1.00  0.00     0.161 C 
BRANCH  28  29
ATOM     29  C   UNL A   1      33.746  19.496  24.437  1.00  0.00     0.008 A 
ATOM     30  C   UNL A   1      32.519  18.785  24.390  1.00  0.00     0.008 A 
ATOM     31  C   UNL A   1      34.899  18.749  24.677  1.00  0.00     0.128 A 
ATOM     32  C   UNL A   1      32.462  17.396  24.563  1.00  0.00     0.001 A 
ATOM     33  C   UNL A   1      34.854  17.355  24.800  1.00  0.00     0.039 A 
ATOM     34  F   UNL A   1      36.098  19.344  24.619  1.00  0.00    -0.207 F 
ATOM     35  C   UNL A   1      33.636  16.676  24.736  1.00  0.00     0.003 A 
ENDBRANCH  28  29
ENDBRANCH  11  28
ENDBRANCH   6   8
ENDBRANCH   5   6
ENDBRANCH   4   5
ENDBRANCH   3   4
ENDBRANCH   2   3
ENDBRANCH   1   2
BRANCH   1  36
ATOM     36  C   UNL A   1      40.798  20.544  26.675  1.00  0.00     0.188 C 
BRANCH  36  37
ATOM     37  O   UNL A   1      42.176  20.204  26.607  1.00  0.00    -0.376 OA
BRANCH  37  38
ATOM     38  C   UNL A   1      42.486  19.096  25.770  1.00  0.00     0.202 C 
BRANCH  38  39
ATOM     39  C   UNL A   1      43.987  18.922  25.428  1.00  0.00     0.261 C 
BRANCH  39  40
ATOM     40  O   UNL A   1      44.487  19.909  24.470  1.00  0.00    -0.460 OA
BRANCH  40  41
ATOM     41  C   UNL A   1      45.356  20.867  24.902  1.00  0.00     0.338 C 
ATOM     42  O   UNL A   1      46.545  20.875  24.614  1.00  0.00    -0.246 OA
BRANCH  41  43
ATOM     43  C   UNL A   1      44.640  22.100  25.453  1.00  0.00     0.060 A 
ATOM     44  C   UNL A   1      43.680  22.930  24.836  1.00  0.00     0.016 A 
ATOM     45  C   UNL A   1      45.136  22.547  26.667  1.00  0.00     0.016 A 
ATOM     46  C   UNL A   1      43.338  24.238  25.369  1.00  0.00     0.010 A 
ATOM     47  C   UNL A   1      44.790  23.815  27.165  1.00  0.00     0.010 A 
ATOM     48  C   UNL A   1      43.940  24.743  26.530  1.00  0.00    -0.014 A 
BRANCH  48  49
ATOM     49  C   UNL A   1      43.652  26.044  27.287  1.00  0.00     0.031 A 
ATOM     50  C   UNL A   1      44.573  27.152  26.924  1.00  0.00     0.074 A 
ATOM     51  C   UNL A   1      42.641  26.498  28.107  1.00  0.00     0.049 A 
ATOM     52  N   UNL A   1      45.426  27.659  27.753  1.00  0.00    -0.248 NA
ATOM     53  C   UNL A   1      44.621  27.753  25.590  1.00  0.00     0.031 C 
ATOM     54  C   UNL A   1      41.532  25.771  28.709  1.00  0.00     0.029 A 
ATOM     55  N   UNL A   1      42.273  27.810  28.449  1.00  0.00    -0.354 N 
ATOM     56  C   UNL A   1      45.954  28.768  27.121  1.00  0.00     0.074 A 
ATOM     57  C   UNL A   1      45.567  28.679  25.740  1.00  0.00     0.031 C 
ATOM     58  C   UNL A   1      40.487  26.590  28.996  1.00  0.00     0.029 A 
ATOM     59  C   UNL A   1      40.932  27.966  28.868  1.00  0.00     0.049 A 
ATOM     60  H   UNL A   1      42.903  28.564  28.401  1.00  0.00     0.167 HD
ATOM     61  C   UNL A   1      46.470  29.801  27.834  1.00  0.00     0.034 A 
ATOM     62  C   UNL A   1      40.264  29.058  29.352  1.00  0.00     0.034 A 
ATOM     63  C   UNL A   1      46.559  29.485  29.233  1.00  0.00     0.049 A 
ATOM     64  C   UNL A   1      41.242  29.737  30.228  1.00  0.00     0.074 A 
ATOM     65  C   UNL A   1      47.273  28.570  29.971  1.00  0.00     0.029 A 
ATOM     66  N   UNL A   1      45.503  29.896  30.006  1.00  0.00    -0.354 N 
ATOM     67  N   UNL A   1      41.697  29.229  31.339  1.00  0.00    -0.248 NA
ATOM     68  C   UNL A   1      41.880  30.971  29.804  1.00  0.00     0.031 C 
ATOM     69  C   UNL A   1      46.464  28.257  31.096  1.00  0.00     0.029 A 
ATOM     70  C   UNL A   1      45.308  29.041  31.070  1.00  0.00     0.049 A 
ATOM     71  H   UNL A   1      44.956  30.696  29.824  1.00  0.00     0.167 HD
ATOM     72  C   UNL A   1      42.969  29.730  31.424  1.00  0.00     0.074 A 
ATOM     73  C   UNL A   1      42.922  30.960  30.642  1.00  0.00     0.031 C 
ATOM     74  C   UNL A   1      44.014  28.912  31.749  1.00  0.00     0.034 A 
BRANCH  61  75
ATOM     75  C   UNL A   1      46.600  31.194  27.305  1.00  0.00     0.023 A 
ATOM     76  C   UNL A   1      45.505  32.073  27.211  1.00  0.00     0.031 A 
ATOM     77  C   UNL A   1      47.866  31.731  27.024  1.00  0.00     0.131 A 
ATOM     78  C   UNL A   1      45.668  33.388  26.763  1.00  0.00     0.055 A 
ATOM     79  C   UNL A   1      48.040  33.069  26.654  1.00  0.00     0.041 A 
ATOM     80  F   UNL A   1      48.971  30.977  27.124  1.00  0.00    -0.206 F 
ATOM     81  C   UNL A   1      46.935  33.901  26.504  1.00  0.00     0.022 A 
BRANCH  78  82
ATOM     82  S   UNL A   1      44.219  34.437  26.470  1.00  0.00     0.124 S 
ATOM     83  O   UNL A   1      43.754  33.953  25.176  1.00  0.00    -0.237 OA
ATOM     84  O   UNL A   1      43.376  34.105  27.616  1.00  0.00    -0.237 OA
ATOM     85  O   UNL A   1      44.773  35.790  26.485  1.00  0.00    -0.744 OA
ENDBRANCH  78  82
ENDBRANCH  61  75
BRANCH  62  86
ATOM     86  C   UNL A   1      38.832  29.483  29.501  1.00  0.00     0.023 A 
ATOM     87  C   UNL A   1      38.428  30.738  28.985  1.00  0.00     0.031 A 
ATOM     88  C   UNL A   1      37.952  28.879  30.424  1.00  0.00     0.131 A 
ATOM     89  C   UNL A   1      37.222  31.348  29.409  1.00  0.00     0.055 A 
ATOM     90  C   UNL A   1      36.757  29.488  30.845  1.00  0.00     0.041 A 
ATOM     91  F   UNL A   1      38.260  27.708  30.998  1.00  0.00    -0.206 F 
ATOM     92  C   UNL A   1      36.394  30.733  30.349  1.00  0.00     0.022 A 
BRANCH  89  93
ATOM     93  S   UNL A   1      36.760  33.038  28.896  1.00  0.00     0.124 S 
ATOM     94  O   UNL A   1      35.962  32.791  27.698  1.00  0.00    -0.237 OA
ATOM     95  O   UNL A   1      36.005  33.530  30.047  1.00  0.00    -0.237 OA
ATOM     96  O   UNL A   1      38.046  33.692  28.680  1.00  0.00    -0.744 OA
ENDBRANCH  89  93
ENDBRANCH  62  86
BRANCH  74  97
ATOM     97  C   UNL A   1      43.793  27.698  32.661  1.00  0.00     0.023 A 
ATOM     98  C   UNL A   1      43.580  27.973  34.030  1.00  0.00     0.031 A 
ATOM     99  C   UNL A   1      43.883  26.332  32.322  1.00  0.00     0.131 A 
ATOM    100  C   UNL A   1      43.596  26.955  34.996  1.00  0.00     0.055 A 
ATOM    101  C   UNL A   1      43.765  25.313  33.279  1.00  0.00     0.041 A 
ATOM    102  F   UNL A   1      44.145  25.903  31.082  1.00  0.00    -0.206 F 
ATOM    103  C   UNL A   1      43.662  25.618  34.627  1.00  0.00     0.022 A 
BRANCH 100 104
ATOM    104  S   UNL A   1      43.662  27.352  36.760  1.00  0.00     0.124 S 
ATOM    105  O   UNL A   1      44.838  26.611  37.204  1.00  0.00    -0.237 OA
ATOM    106  O   UNL A   1      43.812  28.806  36.738  1.00  0.00    -0.237 OA
ATOM    107  O   UNL A   1      42.388  26.867  37.280  1.00  0.00    -0.744 OA
ENDBRANCH 100 104
ENDBRANCH  74  97
ENDBRANCH  48  49
ENDBRANCH  41  43
ENDBRANCH  40  41
ENDBRANCH  39  40
ENDBRANCH  38  39
ENDBRANCH  37  38
ENDBRANCH  36  37
ENDBRANCH   1  36
TORSDOF 25
ENDMDL
MODEL 3
REMARK VINA RESULT:     -10.6      2.705      6.076
REMARK SMILES C[C@H]1CC[C@H]([NH2+]Cc2c(C(=O)OCCOCCOCCOC(=O)c3ccc(-c4c5nc(c(-c6cc(S(=O)(=O)[O-])ccc6F)c6ccc([nH]6)c(-c6cc(S(=O)(=O)[O-])ccc6F)c6nc(c(-c7cc(S(=O)(=O)[O-])ccc7F)c7ccc4[nH]7)C=C6)C=C5)cc3)n(Cc3ccccc3F)c3ccccc23)CC1
REMARK SMILES IDX 16 1 15 2 14 3 13 4 12 5 10 6 11 7 9 8 8 9 101 10 87 11
REMARK SMILES IDX 96 12 100 13 97 14 99 15 98 16 7 17 6 18 5 21 1 22 2 23 3 24
REMARK SMILES IDX 103 25 4 26 102 27 88 28 89 29 90 30 94 31 91 32 93 33 95 34
REMARK SMILES IDX 92 35 17 36 18 37 19 38 20 39 21 40 22 41 23 42 24 43 25 44
REMARK SMILES IDX 86 45 26 46 85 47 27 48 28 49 29 50 79 51 30 52 84 53 78 54
REMARK SMILES IDX 80 55 31 56 83 57 77 58 76 59 32 61 64 62 44 63 63 64 45 65
REMARK SMILES IDX 48 66 62 67 81 68 46 69 47 70 61 72 82 73 49 74 33 75 34 76
REMARK SMILES IDX 42 77 35 78 41 79 43 80 40 81 36 82 37 83 38 84 39 85 65 86
REMARK SMILES IDX 66 87 74 88 67 89 73 90 75 91 72 92 68 93 69 94 70 95 71 96
REMARK SMILES IDX 50 97 51 98 59 99 52 100 58 101 60 102 57 103 53 104 54 105
REMARK SMILES IDX 55 106 56 107
REMARK H PARENT 6 19 6 20 80 60 48 71
REMARK Flexibility Score: inf
ROOT
ATOM      1  C   UNL A   1      41.116  21.310  26.815  1.00  0.00     0.188 C 
ENDROOT
BRANCH   1   2
ATOM      2  O   UNL A   1      39.725  21.463  27.018  1.00  0.00    -0.376 OA
BRANCH   2   3
ATOM      3  C   UNL A   1      39.190  22.319  26.055  1.00  0.00     0.202 C 
BRANCH   3   4
ATOM      4  C   UNL A   1      38.085  21.603  25.315  1.00  0.00     0.261 C 
BRANCH   4   5
ATOM      5  O   UNL A   1      36.679  21.764  25.616  1.00  0.00    -0.459 OA
BRANCH   5   6
ATOM      6  C   UNL A   1      35.891  22.294  24.636  1.00  0.00     0.355 C 
ATOM      7  O   UNL A   1      36.260  22.357  23.478  1.00  0.00    -0.244 OA
BRANCH   6   8
ATOM      8  C   UNL A   1      34.629  22.796  25.145  1.00  0.00     0.137 A 
ATOM      9  C   UNL A   1      34.076  24.066  24.920  1.00  0.00     0.047 A 
ATOM     10  C   UNL A   1      32.781  24.057  25.564  1.00  0.00     0.009 A 
ATOM     11  N   UNL A   1      33.637  22.012  25.784  1.00  0.00    -0.330 N 
ATOM     12  C   UNL A   1      32.485  22.751  25.939  1.00  0.00     0.050 A 
ATOM     13  C   UNL A   1      31.786  25.042  25.752  1.00  0.00     0.011 A 
ATOM     14  C   UNL A   1      31.194  22.379  26.342  1.00  0.00     0.027 A 
ATOM     15  C   UNL A   1      30.534  24.687  26.260  1.00  0.00     0.001 A 
ATOM     16  C   UNL A   1      30.235  23.364  26.524  1.00  0.00     0.002 A 
BRANCH   9  17
ATOM     17  C   UNL A   1      34.533  25.278  24.108  1.00  0.00     0.300 C 
BRANCH  17  18
ATOM     18  N   UNL A   1      33.994  25.469  22.762  1.00  0.00    -0.340 N 
ATOM     19  H   UNL A   1      34.772  25.348  22.114  1.00  0.00     0.346 HD
ATOM     20  H   UNL A   1      33.235  24.790  22.716  1.00  0.00     0.346 HD
BRANCH  18  21
ATOM     21  C   UNL A   1      33.331  26.744  22.401  1.00  0.00     0.182 C 
ATOM     22  C   UNL A   1      30.063  29.529  23.770  1.00  0.00     0.007 C 
ATOM     23  C   UNL A   1      31.102  28.419  23.584  1.00  0.00    -0.014 C 
ATOM     24  C   UNL A   1      32.508  28.983  23.423  1.00  0.00     0.009 C 
ATOM     25  C   UNL A   1      30.788  27.549  22.366  1.00  0.00     0.009 C 
ATOM     26  C   UNL A   1      33.549  27.871  23.412  1.00  0.00     0.065 C 
ATOM     27  C   UNL A   1      31.837  26.469  22.039  1.00  0.00     0.065 C 
ENDBRANCH  18  21
ENDBRANCH  17  18
ENDBRANCH   9  17
BRANCH  11  28
ATOM     28  C   UNL A   1      33.676  20.550  25.940  1.00  0.00     0.161 C 
BRANCH  28  29
ATOM     29  C   UNL A   1      33.715  19.578  24.767  1.00  0.00     0.008 A 
ATOM     30  C   UNL A   1      34.610  18.477  24.781  1.00  0.00     0.008 A 
ATOM     31  C   UNL A   1      32.676  19.536  23.839  1.00  0.00     0.128 A 
ATOM     32  C   UNL A   1      34.455  17.389  23.913  1.00  0.00     0.001 A 
ATOM     33  C   UNL A   1      32.487  18.427  23.003  1.00  0.00     0.039 A 
ATOM     34  F   UNL A   1      31.734  20.488  23.854  1.00  0.00    -0.207 F 
ATOM     35  C   UNL A   1      33.373  17.349  23.044  1.00  0.00     0.003 A 
ENDBRANCH  28  29
ENDBRANCH  11  28
ENDBRANCH   6   8
ENDBRANCH   5   6
ENDBRANCH   4   5
ENDBRANCH   3   4
ENDBRANCH   2   3
ENDBRANCH   1   2
BRANCH   1  36
ATOM     36  C   UNL A   1      41.573  19.848  26.872  1.00  0.00     0.188 C 
BRANCH  36  37
ATOM     37  O   UNL A   1      42.945  19.617  26.585  1.00  0.00    -0.376 OA
BRANCH  37  38
ATOM     38  C   UNL A   1      43.213  19.091  25.290  1.00  0.00     0.202 C 
BRANCH  38  39
ATOM     39  C   UNL A   1      44.508  19.613  24.618  1.00  0.00     0.261 C 
BRANCH  39  40
ATOM     40  O   UNL A   1      44.415  21.001  24.166  1.00  0.00    -0.460 OA
BRANCH  40  41
ATOM     41  C   UNL A   1      45.322  21.909  24.628  1.00  0.00     0.338 C 
ATOM     42  O   UNL A   1      46.435  22.053  24.143  1.00  0.00    -0.246 OA
BRANCH  41  43
ATOM     43  C   UNL A   1      44.686  22.956  25.543  1.00  0.00     0.060 A 
ATOM     44  C   UNL A   1      44.265  24.269  25.246  1.00  0.00     0.016 A 
ATOM     45  C   UNL A   1      44.682  22.607  26.884  1.00  0.00     0.016 A 
ATOM     46  C   UNL A   1      43.980  25.240  26.290  1.00  0.00     0.010 A 
ATOM     47  C   UNL A   1      44.402  23.562  27.876  1.00  0.00     0.010 A 
ATOM     48  C   UNL A   1      44.105  24.921  27.649  1.00  0.00    -0.014 A 
BRANCH  48  49
ATOM     49  C   UNL A   1      43.769  25.769  28.880  1.00  0.00     0.031 A 
ATOM     50  C   UNL A   1      42.508  26.544  28.734  1.00  0.00     0.074 A 
ATOM     51  C   UNL A   1      44.257  25.870  30.166  1.00  0.00     0.049 A 
ATOM     52  N   UNL A   1      42.478  27.835  28.682  1.00  0.00    -0.248 NA
ATOM     53  C   UNL A   1      41.191  25.919  28.607  1.00  0.00     0.031 C 
ATOM     54  C   UNL A   1      45.457  25.291  30.753  1.00  0.00     0.029 A 
ATOM     55  N   UNL A   1      43.659  26.394  31.323  1.00  0.00    -0.354 N 
ATOM     56  C   UNL A   1      41.143  28.184  28.735  1.00  0.00     0.074 A 
ATOM     57  C   UNL A   1      40.393  26.980  28.506  1.00  0.00     0.031 C 
ATOM     58  C   UNL A   1      45.346  25.158  32.101  1.00  0.00     0.029 A 
ATOM     59  C   UNL A   1      44.178  25.901  32.541  1.00  0.00     0.049 A 
ATOM     60  H   UNL A   1      42.932  27.057  31.288  1.00  0.00     0.167 HD
ATOM     61  C   UNL A   1      40.754  29.398  29.201  1.00  0.00     0.034 A 
ATOM     62  C   UNL A   1      43.907  26.245  33.838  1.00  0.00     0.034 A 
ATOM     63  C   UNL A   1      41.879  30.267  29.417  1.00  0.00     0.049 A 
ATOM     64  C   UNL A   1      43.754  27.716  33.810  1.00  0.00     0.074 A 
ATOM     65  C   UNL A   1      42.823  30.841  28.598  1.00  0.00     0.029 A 
ATOM     66  N   UNL A   1      42.379  30.290  30.694  1.00  0.00    -0.354 N 
ATOM     67  N   UNL A   1      44.727  28.541  33.547  1.00  0.00    -0.248 NA
ATOM     68  C   UNL A   1      42.439  28.323  33.926  1.00  0.00     0.031 C 
ATOM     69  C   UNL A   1      44.000  30.966  29.385  1.00  0.00     0.029 A 
ATOM     70  C   UNL A   1      43.735  30.540  30.688  1.00  0.00     0.049 A 
ATOM     71  H   UNL A   1      41.840  30.147  31.506  1.00  0.00     0.167 HD
ATOM     72  C   UNL A   1      44.098  29.593  32.934  1.00  0.00     0.074 A 
ATOM     73  C   UNL A   1      42.729  29.531  33.433  1.00  0.00     0.031 C 
ATOM     74  C   UNL A   1      44.614  30.136  31.791  1.00  0.00     0.034 A 
BRANCH  61  75
ATOM     75  C   UNL A   1      39.392  29.682  29.750  1.00  0.00     0.023 A 
ATOM     76  C   UNL A   1      38.446  30.462  29.061  1.00  0.00     0.031 A 
ATOM     77  C   UNL A   1      38.951  29.042  30.920  1.00  0.00     0.131 A 
ATOM     78  C   UNL A   1      37.161  30.665  29.576  1.00  0.00     0.055 A 
ATOM     79  C   UNL A   1      37.642  29.179  31.392  1.00  0.00     0.041 A 
ATOM     80  F   UNL A   1      39.774  28.248  31.621  1.00  0.00    -0.206 F 
ATOM     81  C   UNL A   1      36.743  30.009  30.729  1.00  0.00     0.022 A 
BRANCH  78  82
ATOM     82  S   UNL A   1      36.028  31.827  28.768  1.00  0.00     0.124 S 
ATOM     83  O   UNL A   1      34.968  31.952  29.761  1.00  0.00    -0.237 OA
ATOM     84  O   UNL A   1      36.880  33.000  28.594  1.00  0.00    -0.237 OA
ATOM     85  O   UNL A   1      35.666  31.140  27.529  1.00  0.00    -0.744 OA
ENDBRANCH  78  82
ENDBRANCH  61  75
BRANCH  62  86
ATOM     86  C   UNL A   1      44.082  25.622  35.192  1.00  0.00     0.023 A 
ATOM     87  C   UNL A   1      44.515  26.428  36.271  1.00  0.00     0.031 A 
ATOM     88  C   UNL A   1      44.186  24.227  35.378  1.00  0.00     0.131 A 
ATOM     89  C   UNL A   1      45.047  25.848  37.449  1.00  0.00     0.055 A 
ATOM     90  C   UNL A   1      44.717  23.654  36.547  1.00  0.00     0.041 A 
ATOM     91  F   UNL A   1      43.836  23.377  34.402  1.00  0.00    -0.206 F 
ATOM     92  C   UNL A   1      45.163  24.464  37.583  1.00  0.00     0.022 A 
BRANCH  89  93
ATOM     93  S   UNL A   1      45.773  26.860  38.784  1.00  0.00     0.124 S 
ATOM     94  O   UNL A   1      44.741  27.871  39.002  1.00  0.00    -0.237 OA
ATOM     95  O   UNL A   1      45.927  25.897  39.873  1.00  0.00    -0.237 OA
ATOM     96  O   UNL A   1      47.022  27.341  38.207  1.00  0.00    -0.744 OA
ENDBRANCH  89  93
ENDBRANCH  62  86
BRANCH  74  97
ATOM     97  C   UNL A   1      46.128  30.125  31.543  1.00  0.00     0.023 A 
ATOM     98  C   UNL A   1      46.599  29.206  30.579  1.00  0.00     0.031 A 
ATOM     99  C   UNL A   1      47.124  30.844  32.235  1.00  0.00     0.131 A 
ATOM    100  C   UNL A   1      47.968  28.937  30.428  1.00  0.00     0.055 A 
ATOM    101  C   UNL A   1      48.493  30.663  31.982  1.00  0.00     0.041 A 
ATOM    102  F   UNL A   1      46.851  31.706  33.222  1.00  0.00    -0.206 F 
ATOM    103  C   UNL A   1      48.925  29.679  31.107  1.00  0.00     0.022 A 
BRANCH 100 104
ATOM    104  S   UNL A   1      48.531  27.528  29.441  1.00  0.00     0.124 S 
ATOM    105  O   UNL A   1      47.375  27.260  28.590  1.00  0.00    -0.237 OA
ATOM    106  O   UNL A   1      49.696  28.083  28.755  1.00  0.00    -0.237 OA
ATOM    107  O   UNL A   1      48.826  26.497  30.432  1.00  0.00    -0.744 OA
ENDBRANCH 100 104
ENDBRANCH  74  97
ENDBRANCH  48  49
ENDBRANCH  41  43
ENDBRANCH  40  41
ENDBRANCH  39  40
ENDBRANCH  38  39
ENDBRANCH  37  38
ENDBRANCH  36  37
ENDBRANCH   1  36
TORSDOF 25
ENDMDL
