MODEL 1
REMARK VINA RESULT:      -6.4      0.000      0.000
REMARK SMILES CC(C)[C@@H](C[NH+](C)C)C(=O)OCCOCCOCCOC(=O)c1ccc(-c2c3nc(c(-c4cc(S(=O)(=O)[O-])ccc4F)c4ccc([nH]4)c(-c4cc(S(=O)(=O)[O-])ccc4F)c4nc(c(-c5cc(S(=O)(=O)[O-])ccc5F)c5ccc2[nH]5)C=C4)C=C3)cc1
REMARK SMILES IDX 16 1 15 2 14 3 13 4 12 5 11 6 9 7 10 8 4 9 2 10 1 11 3 12
REMARK SMILES IDX 5 13 6 14 7 15 8 16 17 18 18 19 19 20 20 21 21 22 22 23
REMARK SMILES IDX 23 24 24 25 85 26 25 27 84 28 26 29 27 30 28 31 78 32 29 33
REMARK SMILES IDX 83 34 77 35 79 36 30 37 82 38 76 39 75 40 31 42 63 43 43 44
REMARK SMILES IDX 62 45 44 46 47 47 61 48 80 49 45 50 46 51 60 53 81 54 48 55
REMARK SMILES IDX 32 56 33 57 41 58 34 59 40 60 42 61 39 62 35 63 36 64 37 65
REMARK SMILES IDX 38 66 64 67 65 68 73 69 66 70 72 71 74 72 71 73 67 74 68 75
REMARK SMILES IDX 69 76 70 77 49 78 50 79 58 80 51 81 57 82 59 83 56 84 52 85
REMARK SMILES IDX 53 86 54 87 55 88
REMARK H PARENT 6 17 79 41 47 52
REMARK Flexibility Score: inf
ROOT
ATOM      1  C   UNL A   1      44.367  41.667  25.699  1.00  0.00     0.188 C 
ENDROOT
BRANCH   1   2
ATOM      2  C   UNL A   1      43.143  40.814  26.042  1.00  0.00     0.188 C 
BRANCH   2   3
ATOM      3  O   UNL A   1      43.064  40.341  27.379  1.00  0.00    -0.376 OA
BRANCH   3   4
ATOM      4  C   UNL A   1      43.709  41.125  28.385  1.00  0.00     0.202 C 
BRANCH   4   5
ATOM      5  C   UNL A   1      42.998  41.321  29.741  1.00  0.00     0.261 C 
BRANCH   5   6
ATOM      6  O   UNL A   1      43.230  40.326  30.784  1.00  0.00    -0.463 OA
BRANCH   6   7
ATOM      7  C   UNL A   1      43.413  40.839  32.029  1.00  0.00     0.315 C 
ATOM      8  O   UNL A   1      42.831  40.407  33.026  1.00  0.00    -0.252 OA
BRANCH   7   9
ATOM      9  C   UNL A   1      44.260  42.102  32.158  1.00  0.00     0.156 C 
BRANCH   9  10
ATOM     10  C   UNL A   1      43.772  43.471  32.714  1.00  0.00     0.003 C 
ATOM     11  C   UNL A   1      43.853  44.558  31.615  1.00  0.00     0.008 C 
ATOM     12  C   UNL A   1      42.328  43.474  33.197  1.00  0.00     0.008 C 
ENDBRANCH   9  10
BRANCH   9  13
ATOM     13  C   UNL A   1      45.592  41.592  32.768  1.00  0.00     0.277 C 
BRANCH  13  14
ATOM     14  N   UNL A   1      46.821  41.716  31.956  1.00  0.00    -0.339 N 
ATOM     15  C   UNL A   1      47.281  40.380  31.579  1.00  0.00     0.332 C 
ATOM     16  C   UNL A   1      46.683  42.554  30.770  1.00  0.00     0.332 C 
ATOM     17  H   UNL A   1      47.508  42.192  32.542  1.00  0.00     0.347 HD
ENDBRANCH  13  14
ENDBRANCH   9  13
ENDBRANCH   7   9
ENDBRANCH   6   7
ENDBRANCH   5   6
ENDBRANCH   4   5
ENDBRANCH   3   4
ENDBRANCH   2   3
ENDBRANCH   1   2
BRANCH   1  18
ATOM     18  O   UNL A   1      45.205  41.067  24.729  1.00  0.00    -0.376 OA
BRANCH  18  19
ATOM     19  C   UNL A   1      46.484  40.569  25.095  1.00  0.00     0.202 C 
BRANCH  19  20
ATOM     20  C   UNL A   1      46.583  39.059  25.356  1.00  0.00     0.261 C 
BRANCH  20  21
ATOM     21  O   UNL A   1      46.197  38.637  26.679  1.00  0.00    -0.460 OA
BRANCH  21  22
ATOM     22  C   UNL A   1      46.694  37.454  27.121  1.00  0.00     0.338 C 
ATOM     23  O   UNL A   1      47.751  36.951  26.797  1.00  0.00    -0.246 OA
BRANCH  22  24
ATOM     24  C   UNL A   1      45.868  37.008  28.275  1.00  0.00     0.060 A 
ATOM     25  C   UNL A   1      44.630  37.633  28.468  1.00  0.00     0.016 A 
ATOM     26  C   UNL A   1      46.252  35.958  29.113  1.00  0.00     0.016 A 
ATOM     27  C   UNL A   1      43.783  37.233  29.502  1.00  0.00     0.010 A 
ATOM     28  C   UNL A   1      45.416  35.573  30.169  1.00  0.00     0.010 A 
ATOM     29  C   UNL A   1      44.188  36.229  30.387  1.00  0.00    -0.014 A 
BRANCH  29  30
ATOM     30  C   UNL A   1      43.448  36.034  31.662  1.00  0.00     0.031 A 
ATOM     31  C   UNL A   1      43.966  36.738  32.889  1.00  0.00     0.074 A 
ATOM     32  C   UNL A   1      42.320  35.303  31.734  1.00  0.00     0.049 A 
ATOM     33  N   UNL A   1      43.559  36.664  34.129  1.00  0.00    -0.248 NA
ATOM     34  C   UNL A   1      45.102  37.650  32.681  1.00  0.00     0.031 C 
ATOM     35  C   UNL A   1      41.664  34.643  30.607  1.00  0.00     0.029 A 
ATOM     36  N   UNL A   1      41.526  34.992  32.812  1.00  0.00    -0.354 N 
ATOM     37  C   UNL A   1      44.401  37.503  34.852  1.00  0.00     0.074 A 
ATOM     38  C   UNL A   1      45.358  38.049  33.916  1.00  0.00     0.031 C 
ATOM     39  C   UNL A   1      40.573  33.996  31.055  1.00  0.00     0.029 A 
ATOM     40  C   UNL A   1      40.479  34.151  32.508  1.00  0.00     0.049 A 
ATOM     41  H   UNL A   1      41.689  35.340  33.719  1.00  0.00     0.167 HD
ATOM     42  C   UNL A   1      44.374  37.796  36.176  1.00  0.00     0.034 A 
ATOM     43  C   UNL A   1      39.578  33.546  33.311  1.00  0.00     0.034 A 
ATOM     44  C   UNL A   1      43.414  37.244  37.100  1.00  0.00     0.049 A 
ATOM     45  C   UNL A   1      39.637  33.798  34.803  1.00  0.00     0.074 A 
ATOM     46  C   UNL A   1      43.299  37.475  38.459  1.00  0.00     0.029 A 
ATOM     47  N   UNL A   1      42.412  36.344  36.763  1.00  0.00    -0.354 N 
ATOM     48  N   UNL A   1      40.452  34.575  35.482  1.00  0.00    -0.248 NA
ATOM     49  C   UNL A   1      38.654  33.092  35.637  1.00  0.00     0.031 C 
ATOM     50  C   UNL A   1      42.283  36.653  38.959  1.00  0.00     0.029 A 
ATOM     51  C   UNL A   1      41.700  35.980  37.897  1.00  0.00     0.049 A 
ATOM     52  H   UNL A   1      42.233  36.011  35.854  1.00  0.00     0.167 HD
ATOM     53  C   UNL A   1      40.053  34.475  36.815  1.00  0.00     0.074 A 
ATOM     54  C   UNL A   1      38.920  33.575  36.842  1.00  0.00     0.031 C 
ATOM     55  C   UNL A   1      40.573  35.077  37.915  1.00  0.00     0.034 A 
BRANCH  42  56
ATOM     56  C   UNL A   1      45.460  38.701  36.706  1.00  0.00     0.023 A 
ATOM     57  C   UNL A   1      45.332  40.101  36.704  1.00  0.00     0.031 A 
ATOM     58  C   UNL A   1      46.659  38.151  37.192  1.00  0.00     0.131 A 
ATOM     59  C   UNL A   1      46.410  40.903  37.110  1.00  0.00     0.055 A 
ATOM     60  C   UNL A   1      47.695  38.952  37.674  1.00  0.00     0.041 A 
ATOM     61  F   UNL A   1      46.851  36.822  37.192  1.00  0.00    -0.206 F 
ATOM     62  C   UNL A   1      47.580  40.336  37.621  1.00  0.00     0.022 A 
BRANCH  59  63
ATOM     63  S   UNL A   1      46.320  42.690  36.815  1.00  0.00     0.124 S 
ATOM     64  O   UNL A   1      47.237  42.851  35.689  1.00  0.00    -0.237 OA
ATOM     65  O   UNL A   1      44.906  42.892  36.523  1.00  0.00    -0.237 OA
ATOM     66  O   UNL A   1      46.786  43.268  38.074  1.00  0.00    -0.744 OA
ENDBRANCH  59  63
ENDBRANCH  42  56
BRANCH  43  67
ATOM     67  C   UNL A   1      38.576  32.589  32.751  1.00  0.00     0.023 A 
ATOM     68  C   UNL A   1      37.420  33.039  32.093  1.00  0.00     0.031 A 
ATOM     69  C   UNL A   1      38.723  31.202  32.940  1.00  0.00     0.131 A 
ATOM     70  C   UNL A   1      36.436  32.119  31.694  1.00  0.00     0.055 A 
ATOM     71  C   UNL A   1      37.773  30.287  32.486  1.00  0.00     0.041 A 
ATOM     72  F   UNL A   1      39.800  30.714  33.576  1.00  0.00    -0.206 F 
ATOM     73  C   UNL A   1      36.612  30.744  31.871  1.00  0.00     0.022 A 
BRANCH  70  74
ATOM     74  S   UNL A   1      34.867  32.750  31.035  1.00  0.00     0.124 S 
ATOM     75  O   UNL A   1      35.216  34.130  30.712  1.00  0.00    -0.237 OA
ATOM     76  O   UNL A   1      34.636  31.864  29.899  1.00  0.00    -0.237 OA
ATOM     77  O   UNL A   1      33.937  32.585  32.150  1.00  0.00    -0.744 OA
ENDBRANCH  70  74
ENDBRANCH  43  67
BRANCH  55  78
ATOM     78  C   UNL A   1      39.881  34.830  39.237  1.00  0.00     0.023 A 
ATOM     79  C   UNL A   1      40.042  33.629  39.951  1.00  0.00     0.031 A 
ATOM     80  C   UNL A   1      39.048  35.819  39.792  1.00  0.00     0.131 A 
ATOM     81  C   UNL A   1      39.339  33.427  41.149  1.00  0.00     0.055 A 
ATOM     82  C   UNL A   1      38.404  35.639  41.017  1.00  0.00     0.041 A 
ATOM     83  F   UNL A   1      38.854  36.985  39.155  1.00  0.00    -0.206 F 
ATOM     84  C   UNL A   1      38.536  34.433  41.696  1.00  0.00     0.022 A 
BRANCH  81  85
ATOM     85  S   UNL A   1      39.406  31.795  41.938  1.00  0.00     0.124 S 
ATOM     86  O   UNL A   1      40.758  31.356  41.612  1.00  0.00    -0.237 OA
ATOM     87  O   UNL A   1      39.162  32.117  43.341  1.00  0.00    -0.237 OA
ATOM     88  O   UNL A   1      38.335  31.051  41.278  1.00  0.00    -0.744 OA
ENDBRANCH  81  85
ENDBRANCH  55  78
ENDBRANCH  29  30
ENDBRANCH  22  24
ENDBRANCH  21  22
ENDBRANCH  20  21
ENDBRANCH  19  20
ENDBRANCH  18  19
ENDBRANCH   1  18
TORSDOF 23
ENDMDL
MODEL 2
REMARK VINA RESULT:      -6.4      1.845      2.722
REMARK SMILES CC(C)[C@@H](C[NH+](C)C)C(=O)OCCOCCOCCOC(=O)c1ccc(-c2c3nc(c(-c4cc(S(=O)(=O)[O-])ccc4F)c4ccc([nH]4)c(-c4cc(S(=O)(=O)[O-])ccc4F)c4nc(c(-c5cc(S(=O)(=O)[O-])ccc5F)c5ccc2[nH]5)C=C4)C=C3)cc1
REMARK SMILES IDX 16 1 15 2 14 3 13 4 12 5 11 6 9 7 10 8 4 9 2 10 1 11 3 12
REMARK SMILES IDX 5 13 6 14 7 15 8 16 17 18 18 19 19 20 20 21 21 22 22 23
REMARK SMILES IDX 23 24 24 25 85 26 25 27 84 28 26 29 27 30 28 31 78 32 29 33
REMARK SMILES IDX 83 34 77 35 79 36 30 37 82 38 76 39 75 40 31 42 63 43 43 44
REMARK SMILES IDX 62 45 44 46 47 47 61 48 80 49 45 50 46 51 60 53 81 54 48 55
REMARK SMILES IDX 32 56 33 57 41 58 34 59 40 60 42 61 39 62 35 63 36 64 37 65
REMARK SMILES IDX 38 66 64 67 65 68 73 69 66 70 72 71 74 72 71 73 67 74 68 75
REMARK SMILES IDX 69 76 70 77 49 78 50 79 58 80 51 81 57 82 59 83 56 84 52 85
REMARK SMILES IDX 53 86 54 87 55 88
REMARK H PARENT 6 17 79 41 47 52
REMARK Flexibility Score: inf
ROOT
ATOM      1  C   UNL A   1      46.873  40.365  25.389  1.00  0.00     0.188 C 
ENDROOT
BRANCH   1   2
ATOM      2  C   UNL A   1      46.302  41.537  24.585  1.00  0.00     0.188 C 
BRANCH   2   3
ATOM      3  O   UNL A   1      44.889  41.680  24.603  1.00  0.00    -0.376 OA
BRANCH   3   4
ATOM      4  C   UNL A   1      44.348  42.692  25.455  1.00  0.00     0.202 C 
BRANCH   4   5
ATOM      5  C   UNL A   1      44.964  42.888  26.857  1.00  0.00     0.261 C 
BRANCH   5   6
ATOM      6  O   UNL A   1      44.172  42.484  28.014  1.00  0.00    -0.463 OA
BRANCH   6   7
ATOM      7  C   UNL A   1      44.295  41.176  28.359  1.00  0.00     0.315 C 
ATOM      8  O   UNL A   1      43.794  40.258  27.706  1.00  0.00    -0.252 OA
BRANCH   7   9
ATOM      9  C   UNL A   1      44.951  40.855  29.699  1.00  0.00     0.156 C 
BRANCH   9  10
ATOM     10  C   UNL A   1      46.337  41.373  30.182  1.00  0.00     0.003 C 
ATOM     11  C   UNL A   1      47.423  41.073  29.121  1.00  0.00     0.008 C 
ATOM     12  C   UNL A   1      46.395  42.876  30.423  1.00  0.00     0.008 C 
ENDBRANCH   9  10
BRANCH   9  13
ATOM     13  C   UNL A   1      43.800  41.032  30.724  1.00  0.00     0.277 C 
BRANCH  13  14
ATOM     14  N   UNL A   1      42.747  42.025  30.420  1.00  0.00    -0.339 N 
ATOM     15  C   UNL A   1      41.438  41.380  30.526  1.00  0.00     0.332 C 
ATOM     16  C   UNL A   1      42.786  43.224  31.251  1.00  0.00     0.332 C 
ATOM     17  H   UNL A   1      42.923  42.352  29.471  1.00  0.00     0.347 HD
ENDBRANCH  13  14
ENDBRANCH   9  13
ENDBRANCH   7   9
ENDBRANCH   6   7
ENDBRANCH   5   6
ENDBRANCH   4   5
ENDBRANCH   3   4
ENDBRANCH   2   3
ENDBRANCH   1   2
BRANCH   1  18
ATOM     18  O   UNL A   1      47.012  39.185  24.621  1.00  0.00    -0.376 OA
BRANCH  18  19
ATOM     19  C   UNL A   1      47.611  38.027  25.186  1.00  0.00     0.202 C 
BRANCH  19  20
ATOM     20  C   UNL A   1      46.829  37.329  26.308  1.00  0.00     0.261 C 
BRANCH  20  21
ATOM     21  O   UNL A   1      46.721  35.897  26.184  1.00  0.00    -0.460 OA
BRANCH  21  22
ATOM     22  C   UNL A   1      45.472  35.368  26.190  1.00  0.00     0.338 C 
ATOM     23  O   UNL A   1      44.978  34.680  25.320  1.00  0.00    -0.246 OA
BRANCH  22  24
ATOM     24  C   UNL A   1      44.906  35.532  27.556  1.00  0.00     0.060 A 
ATOM     25  C   UNL A   1      45.482  34.786  28.591  1.00  0.00     0.016 A 
ATOM     26  C   UNL A   1      43.886  36.442  27.843  1.00  0.00     0.016 A 
ATOM     27  C   UNL A   1      45.033  34.924  29.905  1.00  0.00     0.010 A 
ATOM     28  C   UNL A   1      43.414  36.562  29.157  1.00  0.00     0.010 A 
ATOM     29  C   UNL A   1      43.966  35.782  30.191  1.00  0.00    -0.014 A 
BRANCH  29  30
ATOM     30  C   UNL A   1      43.281  35.685  31.508  1.00  0.00     0.031 A 
ATOM     31  C   UNL A   1      43.812  36.525  32.639  1.00  0.00     0.074 A 
ATOM     32  C   UNL A   1      42.189  34.920  31.695  1.00  0.00     0.049 A 
ATOM     33  N   UNL A   1      43.454  36.558  33.896  1.00  0.00    -0.248 NA
ATOM     34  C   UNL A   1      44.900  37.456  32.298  1.00  0.00     0.031 C 
ATOM     35  C   UNL A   1      41.522  34.127  30.664  1.00  0.00     0.029 A 
ATOM     36  N   UNL A   1      41.448  34.686  32.829  1.00  0.00    -0.354 N 
ATOM     37  C   UNL A   1      44.284  37.496  34.500  1.00  0.00     0.074 A 
ATOM     38  C   UNL A   1      45.183  37.985  33.478  1.00  0.00     0.031 C 
ATOM     39  C   UNL A   1      40.477  33.485  31.216  1.00  0.00     0.029 A 
ATOM     40  C   UNL A   1      40.429  33.778  32.650  1.00  0.00     0.049 A 
ATOM     41  H   UNL A   1      41.629  35.128  33.691  1.00  0.00     0.167 HD
ATOM     42  C   UNL A   1      44.293  37.916  35.789  1.00  0.00     0.034 A 
ATOM     43  C   UNL A   1      39.584  33.221  33.543  1.00  0.00     0.034 A 
ATOM     44  C   UNL A   1      43.391  37.421  36.800  1.00  0.00     0.049 A 
ATOM     45  C   UNL A   1      39.685  33.620  35.000  1.00  0.00     0.074 A 
ATOM     46  C   UNL A   1      43.315  37.780  38.134  1.00  0.00     0.029 A 
ATOM     47  N   UNL A   1      42.417  36.453  36.592  1.00  0.00    -0.354 N 
ATOM     48  N   UNL A   1      40.490  34.491  35.567  1.00  0.00    -0.248 NA
ATOM     49  C   UNL A   1      38.764  32.961  35.937  1.00  0.00     0.031 C 
ATOM     50  C   UNL A   1      42.355  36.971  38.751  1.00  0.00     0.029 A 
ATOM     51  C   UNL A   1      41.763  36.175  37.783  1.00  0.00     0.049 A 
ATOM     52  H   UNL A   1      42.220  36.026  35.728  1.00  0.00     0.167 HD
ATOM     53  C   UNL A   1      40.144  34.507  36.918  1.00  0.00     0.074 A 
ATOM     54  C   UNL A   1      39.052  33.571  37.078  1.00  0.00     0.031 C 
ATOM     55  C   UNL A   1      40.677  35.234  37.934  1.00  0.00     0.034 A 
BRANCH  42  56
ATOM     56  C   UNL A   1      45.357  38.911  36.185  1.00  0.00     0.023 A 
ATOM     57  C   UNL A   1      45.125  40.298  36.171  1.00  0.00     0.031 A 
ATOM     58  C   UNL A   1      46.638  38.463  36.552  1.00  0.00     0.131 A 
ATOM     59  C   UNL A   1      46.177  41.186  36.446  1.00  0.00     0.055 A 
ATOM     60  C   UNL A   1      47.655  39.348  36.909  1.00  0.00     0.041 A 
ATOM     61  F   UNL A   1      46.927  37.151  36.557  1.00  0.00    -0.206 F 
ATOM     62  C   UNL A   1      47.433  40.719  36.842  1.00  0.00     0.022 A 
BRANCH  59  63
ATOM     63  S   UNL A   1      45.924  42.954  36.129  1.00  0.00     0.124 S 
ATOM     64  O   UNL A   1      44.483  43.011  35.901  1.00  0.00    -0.237 OA
ATOM     65  O   UNL A   1      46.400  43.567  37.364  1.00  0.00    -0.237 OA
ATOM     66  O   UNL A   1      46.745  43.211  34.948  1.00  0.00    -0.744 OA
ENDBRANCH  59  63
ENDBRANCH  42  56
BRANCH  43  67
ATOM     67  C   UNL A   1      38.605  32.175  33.118  1.00  0.00     0.023 A 
ATOM     68  C   UNL A   1      38.990  30.836  32.945  1.00  0.00     0.031 A 
ATOM     69  C   UNL A   1      37.278  32.520  32.799  1.00  0.00     0.131 A 
ATOM     70  C   UNL A   1      38.078  29.904  32.420  1.00  0.00     0.055 A 
ATOM     71  C   UNL A   1      36.357  31.578  32.337  1.00  0.00     0.041 A 
ATOM     72  F   UNL A   1      36.856  33.788  32.929  1.00  0.00    -0.206 F 
ATOM     73  C   UNL A   1      36.759  30.263  32.131  1.00  0.00     0.022 A 
BRANCH  70  74
ATOM     74  S   UNL A   1      38.669  28.236  32.017  1.00  0.00     0.124 S 
ATOM     75  O   UNL A   1      38.131  28.049  30.673  1.00  0.00    -0.237 OA
ATOM     76  O   UNL A   1      40.116  28.396  32.112  1.00  0.00    -0.237 OA
ATOM     77  O   UNL A   1      38.067  27.401  33.053  1.00  0.00    -0.744 OA
ENDBRANCH  70  74
ENDBRANCH  43  67
BRANCH  55  78
ATOM     78  C   UNL A   1      40.045  35.091  39.300  1.00  0.00     0.023 A 
ATOM     79  C   UNL A   1      40.346  34.015  40.153  1.00  0.00     0.031 A 
ATOM     80  C   UNL A   1      39.126  36.055  39.756  1.00  0.00     0.131 A 
ATOM     81  C   UNL A   1      39.694  33.899  41.392  1.00  0.00     0.055 A 
ATOM     82  C   UNL A   1      38.532  35.971  41.015  1.00  0.00     0.041 A 
ATOM     83  F   UNL A   1      38.797  37.105  38.984  1.00  0.00    -0.206 F 
ATOM     84  C   UNL A   1      38.804  34.882  41.836  1.00  0.00     0.022 A 
BRANCH  81  85
ATOM     85  S   UNL A   1      39.948  32.398  42.376  1.00  0.00     0.124 S 
ATOM     86  O   UNL A   1      39.125  32.662  43.552  1.00  0.00    -0.237 OA
ATOM     87  O   UNL A   1      39.462  31.351  41.481  1.00  0.00    -0.237 OA
ATOM     88  O   UNL A   1      41.389  32.385  42.618  1.00  0.00    -0.744 OA
ENDBRANCH  81  85
ENDBRANCH  55  78
ENDBRANCH  29  30
ENDBRANCH  22  24
ENDBRANCH  21  22
ENDBRANCH  20  21
ENDBRANCH  19  20
ENDBRANCH  18  19
ENDBRANCH   1  18
TORSDOF 23
ENDMDL
MODEL 3
REMARK VINA RESULT:      -6.3      1.911      2.663
REMARK SMILES CC(C)[C@@H](C[NH+](C)C)C(=O)OCCOCCOCCOC(=O)c1ccc(-c2c3nc(c(-c4cc(S(=O)(=O)[O-])ccc4F)c4ccc([nH]4)c(-c4cc(S(=O)(=O)[O-])ccc4F)c4nc(c(-c5cc(S(=O)(=O)[O-])ccc5F)c5ccc2[nH]5)C=C4)C=C3)cc1
REMARK SMILES IDX 16 1 15 2 14 3 13 4 12 5 11 6 9 7 10 8 4 9 2 10 1 11 3 12
REMARK SMILES IDX 5 13 6 14 7 15 8 16 17 18 18 19 19 20 20 21 21 22 22 23
REMARK SMILES IDX 23 24 24 25 85 26 25 27 84 28 26 29 27 30 28 31 78 32 29 33
REMARK SMILES IDX 83 34 77 35 79 36 30 37 82 38 76 39 75 40 31 42 63 43 43 44
REMARK SMILES IDX 62 45 44 46 47 47 61 48 80 49 45 50 46 51 60 53 81 54 48 55
REMARK SMILES IDX 32 56 33 57 41 58 34 59 40 60 42 61 39 62 35 63 36 64 37 65
REMARK SMILES IDX 38 66 64 67 65 68 73 69 66 70 72 71 74 72 71 73 67 74 68 75
REMARK SMILES IDX 69 76 70 77 49 78 50 79 58 80 51 81 57 82 59 83 56 84 52 85
REMARK SMILES IDX 53 86 54 87 55 88
REMARK H PARENT 6 17 79 41 47 52
REMARK Flexibility Score: inf
ROOT
ATOM      1  C   UNL A   1      46.704  41.565  24.325  1.00  0.00     0.188 C 
ENDROOT
BRANCH   1   2
ATOM      2  C   UNL A   1      45.482  42.471  24.505  1.00  0.00     0.188 C 
BRANCH   2   3
ATOM      3  O   UNL A   1      44.247  41.960  24.021  1.00  0.00    -0.376 OA
BRANCH   3   4
ATOM      4  C   UNL A   1      43.288  41.547  24.997  1.00  0.00     0.202 C 
BRANCH   4   5
ATOM      5  C   UNL A   1      43.488  41.983  26.464  1.00  0.00     0.261 C 
BRANCH   5   6
ATOM      6  O   UNL A   1      43.713  40.942  27.462  1.00  0.00    -0.463 OA
BRANCH   6   7
ATOM      7  C   UNL A   1      44.425  41.339  28.548  1.00  0.00     0.315 C 
ATOM      8  O   UNL A   1      45.030  42.412  28.601  1.00  0.00    -0.252 OA
BRANCH   7   9
ATOM      9  C   UNL A   1      44.604  40.336  29.685  1.00  0.00     0.156 C 
BRANCH   9  10
ATOM     10  C   UNL A   1      45.934  40.038  30.435  1.00  0.00     0.003 C 
ATOM     11  C   UNL A   1      47.100  39.896  29.427  1.00  0.00     0.008 C 
ATOM     12  C   UNL A   1      46.360  41.125  31.414  1.00  0.00     0.008 C 
ENDBRANCH   9  10
BRANCH   9  13
ATOM     13  C   UNL A   1      43.385  40.604  30.607  1.00  0.00     0.277 C 
BRANCH  13  14
ATOM     14  N   UNL A   1      42.533  41.775  30.309  1.00  0.00    -0.339 N 
ATOM     15  C   UNL A   1      41.146  41.331  30.167  1.00  0.00     0.332 C 
ATOM     16  C   UNL A   1      42.619  42.853  31.288  1.00  0.00     0.332 C 
ATOM     17  H   UNL A   1      42.884  42.175  29.439  1.00  0.00     0.347 HD
ENDBRANCH  13  14
ENDBRANCH   9  13
ENDBRANCH   7   9
ENDBRANCH   6   7
ENDBRANCH   5   6
ENDBRANCH   4   5
ENDBRANCH   3   4
ENDBRANCH   2   3
ENDBRANCH   1   2
BRANCH   1  18
ATOM     18  O   UNL A   1      46.860  40.632  25.378  1.00  0.00    -0.376 OA
BRANCH  18  19
ATOM     19  C   UNL A   1      46.833  39.237  25.110  1.00  0.00     0.202 C 
BRANCH  19  20
ATOM     20  C   UNL A   1      47.966  38.400  25.721  1.00  0.00     0.261 C 
BRANCH  20  21
ATOM     21  O   UNL A   1      47.590  37.587  26.850  1.00  0.00    -0.460 OA
BRANCH  21  22
ATOM     22  C   UNL A   1      46.904  36.446  26.590  1.00  0.00     0.338 C 
ATOM     23  O   UNL A   1      47.127  35.661  25.691  1.00  0.00    -0.246 OA
BRANCH  22  24
ATOM     24  C   UNL A   1      46.013  36.167  27.749  1.00  0.00     0.060 A 
ATOM     25  C   UNL A   1      44.951  37.050  27.977  1.00  0.00     0.016 A 
ATOM     26  C   UNL A   1      46.160  35.037  28.555  1.00  0.00     0.016 A 
ATOM     27  C   UNL A   1      44.049  36.825  29.017  1.00  0.00     0.010 A 
ATOM     28  C   UNL A   1      45.272  34.823  29.618  1.00  0.00     0.010 A 
ATOM     29  C   UNL A   1      44.227  35.733  29.873  1.00  0.00    -0.014 A 
BRANCH  29  30
ATOM     30  C   UNL A   1      43.478  35.677  31.156  1.00  0.00     0.031 A 
ATOM     31  C   UNL A   1      44.086  36.358  32.354  1.00  0.00     0.074 A 
ATOM     32  C   UNL A   1      42.271  35.091  31.259  1.00  0.00     0.049 A 
ATOM     33  N   UNL A   1      43.682  36.381  33.597  1.00  0.00    -0.248 NA
ATOM     34  C   UNL A   1      45.323  37.117  32.108  1.00  0.00     0.031 C 
ATOM     35  C   UNL A   1      41.532  34.473  30.160  1.00  0.00     0.029 A 
ATOM     36  N   UNL A   1      41.452  34.919  32.350  1.00  0.00    -0.354 N 
ATOM     37  C   UNL A   1      44.624  37.138  34.285  1.00  0.00     0.074 A 
ATOM     38  C   UNL A   1      45.634  37.529  33.326  1.00  0.00     0.031 C 
ATOM     39  C   UNL A   1      40.373  33.980  30.635  1.00  0.00     0.029 A 
ATOM     40  C   UNL A   1      40.310  34.199  32.081  1.00  0.00     0.049 A 
ATOM     41  H   UNL A   1      41.663  35.279  33.243  1.00  0.00     0.167 HD
ATOM     42  C   UNL A   1      44.643  37.482  35.597  1.00  0.00     0.034 A 
ATOM     43  C   UNL A   1      39.348  33.739  32.909  1.00  0.00     0.034 A 
ATOM     44  C   UNL A   1      43.630  37.085  36.544  1.00  0.00     0.049 A 
ATOM     45  C   UNL A   1      39.448  34.038  34.390  1.00  0.00     0.074 A 
ATOM     46  C   UNL A   1      43.553  37.380  37.894  1.00  0.00     0.029 A 
ATOM     47  N   UNL A   1      42.524  36.301  36.245  1.00  0.00    -0.354 N 
ATOM     48  N   UNL A   1      40.355  34.735  35.037  1.00  0.00    -0.248 NA
ATOM     49  C   UNL A   1      38.392  33.488  35.253  1.00  0.00     0.031 C 
ATOM     50  C   UNL A   1      42.450  36.706  38.427  1.00  0.00     0.029 A 
ATOM     51  C   UNL A   1      41.781  36.069  37.393  1.00  0.00     0.049 A 
ATOM     52  H   UNL A   1      42.299  35.959  35.349  1.00  0.00     0.167 HD
ATOM     53  C   UNL A   1      39.957  34.734  36.373  1.00  0.00     0.074 A 
ATOM     54  C   UNL A   1      38.724  33.980  36.438  1.00  0.00     0.031 C 
ATOM     55  C   UNL A   1      40.554  35.310  37.448  1.00  0.00     0.034 A 
BRANCH  42  56
ATOM     56  C   UNL A   1      45.834  38.268  36.089  1.00  0.00     0.023 A 
ATOM     57  C   UNL A   1      47.001  37.640  36.559  1.00  0.00     0.031 A 
ATOM     58  C   UNL A   1      45.785  39.673  36.120  1.00  0.00     0.131 A 
ATOM     59  C   UNL A   1      48.039  38.412  37.104  1.00  0.00     0.055 A 
ATOM     60  C   UNL A   1      46.855  40.438  36.584  1.00  0.00     0.041 A 
ATOM     61  F   UNL A   1      44.686  40.327  35.711  1.00  0.00    -0.206 F 
ATOM     62  C   UNL A   1      47.985  39.808  37.094  1.00  0.00     0.022 A 
BRANCH  59  63
ATOM     63  S   UNL A   1      49.390  37.562  37.966  1.00  0.00     0.124 S 
ATOM     64  O   UNL A   1      48.935  36.174  37.934  1.00  0.00    -0.237 OA
ATOM     65  O   UNL A   1      50.544  37.876  37.132  1.00  0.00    -0.237 OA
ATOM     66  O   UNL A   1      49.391  38.178  39.291  1.00  0.00    -0.744 OA
ENDBRANCH  59  63
ENDBRANCH  42  56
BRANCH  43  67
ATOM     67  C   UNL A   1      38.234  32.890  32.388  1.00  0.00     0.023 A 
ATOM     68  C   UNL A   1      37.171  33.442  31.654  1.00  0.00     0.031 A 
ATOM     69  C   UNL A   1      38.175  31.516  32.691  1.00  0.00     0.131 A 
ATOM     70  C   UNL A   1      36.076  32.640  31.292  1.00  0.00     0.055 A 
ATOM     71  C   UNL A   1      37.115  30.710  32.275  1.00  0.00     0.041 A 
ATOM     72  F   UNL A   1      39.153  30.936  33.404  1.00  0.00    -0.206 F 
ATOM     73  C   UNL A   1      36.049  31.274  31.582  1.00  0.00     0.022 A 
BRANCH  70  74
ATOM     74  S   UNL A   1      34.632  33.430  30.527  1.00  0.00     0.124 S 
ATOM     75  O   UNL A   1      34.069  32.328  29.752  1.00  0.00    -0.237 OA
ATOM     76  O   UNL A   1      33.864  33.852  31.692  1.00  0.00    -0.237 OA
ATOM     77  O   UNL A   1      35.213  34.514  29.740  1.00  0.00    -0.744 OA
ENDBRANCH  70  74
ENDBRANCH  43  67
BRANCH  55  78
ATOM     78  C   UNL A   1      39.847  35.198  38.781  1.00  0.00     0.023 A 
ATOM     79  C   UNL A   1      39.821  33.998  39.514  1.00  0.00     0.031 A 
ATOM     80  C   UNL A   1      39.191  36.317  39.327  1.00  0.00     0.131 A 
ATOM     81  C   UNL A   1      39.108  33.931  40.722  1.00  0.00     0.055 A 
ATOM     82  C   UNL A   1      38.541  36.262  40.560  1.00  0.00     0.041 A 
ATOM     83  F   UNL A   1      39.180  37.490  38.671  1.00  0.00    -0.206 F 
ATOM     84  C   UNL A   1      38.485  35.062  41.258  1.00  0.00     0.022 A 
BRANCH  81  85
ATOM     85  S   UNL A   1      38.920  32.322  41.538  1.00  0.00     0.124 S 
ATOM     86  O   UNL A   1      37.710  31.803  40.911  1.00  0.00    -0.237 OA
ATOM     87  O   UNL A   1      40.164  31.645  41.182  1.00  0.00    -0.237 OA
ATOM     88  O   UNL A   1      38.787  32.668  42.952  1.00  0.00    -0.744 OA
ENDBRANCH  81  85
ENDBRANCH  55  78
ENDBRANCH  29  30
ENDBRANCH  22  24
ENDBRANCH  21  22
ENDBRANCH  20  21
ENDBRANCH  19  20
ENDBRANCH  18  19
ENDBRANCH   1  18
TORSDOF 23
ENDMDL
