MODEL 1
REMARK VINA RESULT:      -7.9      0.000      0.000
REMARK SMILES CCOc1cc(OCC)cc(-c2ccc([C@@H](C)C(=O)OCCOCCOCCOC(=O)c3ccc(-c4c5nc(c(-c6cc(S(=O)(=O)[O-])ccc6F)c6ccc([nH]6)c(-c6cc(S(=O)(=O)[O-])ccc6F)c6nc(c(-c7cc(S(=O)(=O)[O-])ccc7F)c7ccc4[nH]7)C=C6)C=C5)cc3)cc2)c1
REMARK SMILES IDX 24 1 23 2 22 3 21 4 20 5 18 6 19 7 16 8 17 9 15 10 12 11
REMARK SMILES IDX 13 12 96 13 14 14 95 15 11 16 4 17 5 18 97 19 6 20 10 21
REMARK SMILES IDX 3 22 2 23 1 24 7 25 8 26 9 27 25 28 26 29 27 30 28 31 29 32
REMARK SMILES IDX 30 33 31 34 32 35 33 36 94 37 34 38 93 39 35 40 36 41 37 42
REMARK SMILES IDX 87 43 38 44 92 45 86 46 88 47 39 48 91 49 85 50 84 51 40 53
REMARK SMILES IDX 72 54 52 55 71 56 53 57 56 58 70 59 89 60 54 61 55 62 69 64
REMARK SMILES IDX 90 65 57 66 41 67 42 68 50 69 43 70 49 71 51 72 48 73 44 74
REMARK SMILES IDX 45 75 46 76 47 77 73 78 74 79 82 80 75 81 81 82 83 83 80 84
REMARK SMILES IDX 76 85 77 86 78 87 79 88 58 89 59 90 67 91 60 92 66 93 68 94
REMARK SMILES IDX 65 95 61 96 62 97 63 98 64 99
REMARK H PARENT 88 52 56 63
REMARK Flexibility Score: inf
ROOT
ATOM      1  C   UNL A   1      34.526  33.797  32.082  1.00  0.00     0.188 C 
ENDROOT
BRANCH   1   2
ATOM      2  O   UNL A   1      34.189  33.484  30.735  1.00  0.00    -0.376 OA
BRANCH   2   3
ATOM      3  C   UNL A   1      34.718  34.280  29.684  1.00  0.00     0.202 C 
BRANCH   3   4
ATOM      4  C   UNL A   1      35.747  33.649  28.733  1.00  0.00     0.261 C 
BRANCH   4   5
ATOM      5  O   UNL A   1      35.595  32.231  28.494  1.00  0.00    -0.463 OA
BRANCH   5   6
ATOM      6  C   UNL A   1      36.665  31.448  28.787  1.00  0.00     0.313 C 
ATOM      7  O   UNL A   1      37.405  31.661  29.746  1.00  0.00    -0.252 OA
BRANCH   6   8
ATOM      8  C   UNL A   1      36.915  30.258  27.855  1.00  0.00     0.126 C 
ATOM      9  C   UNL A   1      35.598  29.507  27.665  1.00  0.00     0.025 C 
BRANCH   8  10
ATOM     10  C   UNL A   1      38.046  29.265  28.119  1.00  0.00    -0.034 A 
ATOM     11  C   UNL A   1      40.216  27.443  28.511  1.00  0.00    -0.018 A 
ATOM     12  C   UNL A   1      39.101  27.461  29.370  1.00  0.00     0.009 A 
ATOM     13  C   UNL A   1      40.229  28.355  27.451  1.00  0.00     0.009 A 
ATOM     14  C   UNL A   1      38.025  28.341  29.171  1.00  0.00     0.005 A 
ATOM     15  C   UNL A   1      39.162  29.245  27.255  1.00  0.00     0.005 A 
BRANCH  11  16
ATOM     16  C   UNL A   1      41.278  26.430  28.672  1.00  0.00    -0.011 A 
ATOM     17  C   UNL A   1      42.169  24.174  28.481  1.00  0.00     0.123 A 
ATOM     18  C   UNL A   1      43.373  24.586  29.056  1.00  0.00     0.092 A 
ATOM     19  C   UNL A   1      41.124  25.086  28.301  1.00  0.00     0.055 A 
ATOM     20  C   UNL A   1      43.538  25.910  29.461  1.00  0.00     0.123 A 
ATOM     21  C   UNL A   1      42.492  26.813  29.269  1.00  0.00     0.055 A 
BRANCH  17  22
ATOM     22  O   UNL A   1      42.010  22.827  28.288  1.00  0.00    -0.494 OA
BRANCH  22  23
ATOM     23  C   UNL A   1      42.298  22.356  26.969  1.00  0.00     0.226 C 
ATOM     24  C   UNL A   1      41.165  21.523  26.405  1.00  0.00     0.049 C 
ENDBRANCH  22  23
ENDBRANCH  17  22
BRANCH  20  25
ATOM     25  O   UNL A   1      44.750  26.216  30.022  1.00  0.00    -0.494 OA
BRANCH  25  26
ATOM     26  C   UNL A   1      45.158  25.452  31.160  1.00  0.00     0.226 C 
ATOM     27  C   UNL A   1      44.313  25.784  32.382  1.00  0.00     0.049 C 
ENDBRANCH  25  26
ENDBRANCH  20  25
ENDBRANCH  11  16
ENDBRANCH   8  10
ENDBRANCH   6   8
ENDBRANCH   5   6
ENDBRANCH   4   5
ENDBRANCH   3   4
ENDBRANCH   2   3
ENDBRANCH   1   2
BRANCH   1  28
ATOM     28  C   UNL A   1      34.951  32.671  33.037  1.00  0.00     0.188 C 
BRANCH  28  29
ATOM     29  O   UNL A   1      35.521  33.105  34.256  1.00  0.00    -0.376 OA
BRANCH  29  30
ATOM     30  C   UNL A   1      36.911  32.892  34.398  1.00  0.00     0.202 C 
BRANCH  30  31
ATOM     31  C   UNL A   1      37.482  31.775  33.511  1.00  0.00     0.261 C 
BRANCH  31  32
ATOM     32  O   UNL A   1      38.437  30.896  34.142  1.00  0.00    -0.460 OA
BRANCH  32  33
ATOM     33  C   UNL A   1      38.873  29.862  33.391  1.00  0.00     0.338 C 
ATOM     34  O   UNL A   1      38.277  28.808  33.213  1.00  0.00    -0.246 OA
BRANCH  33  35
ATOM     35  C   UNL A   1      40.077  30.265  32.632  1.00  0.00     0.060 A 
ATOM     36  C   UNL A   1      41.205  30.714  33.334  1.00  0.00     0.016 A 
ATOM     37  C   UNL A   1      40.086  30.234  31.237  1.00  0.00     0.016 A 
ATOM     38  C   UNL A   1      42.332  31.164  32.642  1.00  0.00     0.010 A 
ATOM     39  C   UNL A   1      41.210  30.703  30.544  1.00  0.00     0.010 A 
ATOM     40  C   UNL A   1      42.327  31.201  31.242  1.00  0.00    -0.014 A 
BRANCH  40  41
ATOM     41  C   UNL A   1      43.413  31.918  30.518  1.00  0.00     0.031 A 
ATOM     42  C   UNL A   1      44.677  31.168  30.183  1.00  0.00     0.074 A 
ATOM     43  C   UNL A   1      43.270  33.198  30.129  1.00  0.00     0.049 A 
ATOM     44  N   UNL A   1      45.762  31.586  29.583  1.00  0.00    -0.248 NA
ATOM     45  C   UNL A   1      44.720  29.754  30.587  1.00  0.00     0.031 C 
ATOM     46  C   UNL A   1      42.083  34.021  30.353  1.00  0.00     0.029 A 
ATOM     47  N   UNL A   1      44.135  34.033  29.463  1.00  0.00    -0.354 N 
ATOM     48  C   UNL A   1      46.619  30.491  29.540  1.00  0.00     0.074 A 
ATOM     49  C   UNL A   1      45.941  29.403  30.213  1.00  0.00     0.031 C 
ATOM     50  C   UNL A   1      42.296  35.244  29.836  1.00  0.00     0.029 A 
ATOM     51  C   UNL A   1      43.646  35.306  29.281  1.00  0.00     0.049 A 
ATOM     52  H   UNL A   1      45.023  33.746  29.146  1.00  0.00     0.167 HD
ATOM     53  C   UNL A   1      47.853  30.398  28.983  1.00  0.00     0.034 A 
ATOM     54  C   UNL A   1      44.231  36.402  28.749  1.00  0.00     0.034 A 
ATOM     55  C   UNL A   1      48.524  31.494  28.325  1.00  0.00     0.049 A 
ATOM     56  C   UNL A   1      45.640  36.296  28.211  1.00  0.00     0.074 A 
ATOM     57  C   UNL A   1      49.765  31.501  27.714  1.00  0.00     0.029 A 
ATOM     58  N   UNL A   1      48.017  32.782  28.203  1.00  0.00    -0.354 N 
ATOM     59  N   UNL A   1      46.435  35.250  28.163  1.00  0.00    -0.248 NA
ATOM     60  C   UNL A   1      46.224  37.517  27.642  1.00  0.00     0.031 C 
ATOM     61  C   UNL A   1      50.046  32.808  27.301  1.00  0.00     0.029 A 
ATOM     62  C   UNL A   1      48.940  33.600  27.564  1.00  0.00     0.049 A 
ATOM     63  H   UNL A   1      47.134  33.074  28.525  1.00  0.00     0.167 HD
ATOM     64  C   UNL A   1      47.597  35.683  27.528  1.00  0.00     0.074 A 
ATOM     65  C   UNL A   1      47.388  37.077  27.191  1.00  0.00     0.031 C 
ATOM     66  C   UNL A   1      48.732  34.993  27.245  1.00  0.00     0.034 A 
BRANCH  53  67
ATOM     67  C   UNL A   1      48.577  29.078  29.115  1.00  0.00     0.023 A 
ATOM     68  C   UNL A   1      48.587  28.126  28.079  1.00  0.00     0.031 A 
ATOM     69  C   UNL A   1      49.253  28.757  30.306  1.00  0.00     0.131 A 
ATOM     70  C   UNL A   1      49.194  26.877  28.281  1.00  0.00     0.055 A 
ATOM     71  C   UNL A   1      49.928  27.546  30.469  1.00  0.00     0.041 A 
ATOM     72  F   UNL A   1      49.258  29.612  31.341  1.00  0.00    -0.206 F 
ATOM     73  C   UNL A   1      49.890  26.592  29.458  1.00  0.00     0.022 A 
BRANCH  70  74
ATOM     74  S   UNL A   1      48.935  25.576  27.043  1.00  0.00     0.124 S 
ATOM     75  O   UNL A   1      49.543  24.421  27.700  1.00  0.00    -0.237 OA
ATOM     76  O   UNL A   1      47.484  25.548  26.914  1.00  0.00    -0.237 OA
ATOM     77  O   UNL A   1      49.658  26.069  25.873  1.00  0.00    -0.744 OA
ENDBRANCH  70  74
ENDBRANCH  53  67
BRANCH  54  78
ATOM     78  C   UNL A   1      43.513  37.712  28.729  1.00  0.00     0.023 A 
ATOM     79  C   UNL A   1      43.667  38.647  29.767  1.00  0.00     0.031 A 
ATOM     80  C   UNL A   1      42.603  38.017  27.701  1.00  0.00     0.131 A 
ATOM     81  C   UNL A   1      42.886  39.813  29.781  1.00  0.00     0.055 A 
ATOM     82  C   UNL A   1      41.874  39.208  27.688  1.00  0.00     0.041 A 
ATOM     83  F   UNL A   1      42.408  37.157  26.688  1.00  0.00    -0.206 F 
ATOM     84  C   UNL A   1      42.003  40.108  28.740  1.00  0.00     0.022 A 
BRANCH  81  85
ATOM     85  S   UNL A   1      42.965  40.896  31.236  1.00  0.00     0.124 S 
ATOM     86  O   UNL A   1      44.267  41.528  31.064  1.00  0.00    -0.237 OA
ATOM     87  O   UNL A   1      41.803  41.755  31.036  1.00  0.00    -0.237 OA
ATOM     88  O   UNL A   1      42.864  39.965  32.358  1.00  0.00    -0.744 OA
ENDBRANCH  81  85
ENDBRANCH  54  78
BRANCH  66  89
ATOM     89  C   UNL A   1      49.817  35.730  26.488  1.00  0.00     0.023 A 
ATOM     90  C   UNL A   1      50.835  36.441  27.149  1.00  0.00     0.031 A 
ATOM     91  C   UNL A   1      49.812  35.750  25.081  1.00  0.00     0.131 A 
ATOM     92  C   UNL A   1      51.750  37.207  26.410  1.00  0.00     0.055 A 
ATOM     93  C   UNL A   1      50.773  36.449  24.349  1.00  0.00     0.041 A 
ATOM     94  F   UNL A   1      48.866  35.094  24.391  1.00  0.00    -0.206 F 
ATOM     95  C   UNL A   1      51.737  37.199  25.013  1.00  0.00     0.022 A 
BRANCH  92  96
ATOM     96  S   UNL A   1      52.870  38.323  27.301  1.00  0.00     0.124 S 
ATOM     97  O   UNL A   1      53.966  38.472  26.351  1.00  0.00    -0.237 OA
ATOM     98  O   UNL A   1      52.036  39.503  27.504  1.00  0.00    -0.237 OA
ATOM     99  O   UNL A   1      53.198  37.579  28.516  1.00  0.00    -0.744 OA
ENDBRANCH  92  96
ENDBRANCH  66  89
ENDBRANCH  40  41
ENDBRANCH  33  35
ENDBRANCH  32  33
ENDBRANCH  31  32
ENDBRANCH  30  31
ENDBRANCH  29  30
ENDBRANCH  28  29
ENDBRANCH   1  28
TORSDOF 26
ENDMDL
MODEL 2
REMARK VINA RESULT:      -7.8      5.925     10.030
REMARK SMILES CCOc1cc(OCC)cc(-c2ccc([C@@H](C)C(=O)OCCOCCOCCOC(=O)c3ccc(-c4c5nc(c(-c6cc(S(=O)(=O)[O-])ccc6F)c6ccc([nH]6)c(-c6cc(S(=O)(=O)[O-])ccc6F)c6nc(c(-c7cc(S(=O)(=O)[O-])ccc7F)c7ccc4[nH]7)C=C6)C=C5)cc3)cc2)c1
REMARK SMILES IDX 24 1 23 2 22 3 21 4 20 5 18 6 19 7 16 8 17 9 15 10 12 11
REMARK SMILES IDX 13 12 96 13 14 14 95 15 11 16 4 17 5 18 97 19 6 20 10 21
REMARK SMILES IDX 3 22 2 23 1 24 7 25 8 26 9 27 25 28 26 29 27 30 28 31 29 32
REMARK SMILES IDX 30 33 31 34 32 35 33 36 94 37 34 38 93 39 35 40 36 41 37 42
REMARK SMILES IDX 87 43 38 44 92 45 86 46 88 47 39 48 91 49 85 50 84 51 40 53
REMARK SMILES IDX 72 54 52 55 71 56 53 57 56 58 70 59 89 60 54 61 55 62 69 64
REMARK SMILES IDX 90 65 57 66 41 67 42 68 50 69 43 70 49 71 51 72 48 73 44 74
REMARK SMILES IDX 45 75 46 76 47 77 73 78 74 79 82 80 75 81 81 82 83 83 80 84
REMARK SMILES IDX 76 85 77 86 78 87 79 88 58 89 59 90 67 91 60 92 66 93 68 94
REMARK SMILES IDX 65 95 61 96 62 97 63 98 64 99
REMARK H PARENT 88 52 56 63
REMARK Flexibility Score: inf
ROOT
ATOM      1  C   UNL A   1      33.104  37.255  31.920  1.00  0.00     0.188 C 
ENDROOT
BRANCH   1   2
ATOM      2  O   UNL A   1      33.783  36.803  30.753  1.00  0.00    -0.376 OA
BRANCH   2   3
ATOM      3  C   UNL A   1      33.291  35.663  30.063  1.00  0.00     0.202 C 
BRANCH   3   4
ATOM      4  C   UNL A   1      33.036  35.774  28.551  1.00  0.00     0.261 C 
BRANCH   4   5
ATOM      5  O   UNL A   1      33.695  34.785  27.729  1.00  0.00    -0.463 OA
BRANCH   5   6
ATOM      6  C   UNL A   1      33.144  33.543  27.715  1.00  0.00     0.313 C 
ATOM      7  O   UNL A   1      31.976  33.335  27.392  1.00  0.00    -0.252 OA
BRANCH   6   8
ATOM      8  C   UNL A   1      34.062  32.385  28.122  1.00  0.00     0.126 C 
ATOM      9  C   UNL A   1      35.511  32.813  27.891  1.00  0.00     0.025 C 
BRANCH   8  10
ATOM     10  C   UNL A   1      33.845  30.972  27.585  1.00  0.00    -0.034 A 
ATOM     11  C   UNL A   1      33.321  28.345  26.583  1.00  0.00    -0.018 A 
ATOM     12  C   UNL A   1      34.626  28.773  26.886  1.00  0.00     0.009 A 
ATOM     13  C   UNL A   1      32.279  29.254  26.788  1.00  0.00     0.009 A 
ATOM     14  C   UNL A   1      34.887  30.056  27.396  1.00  0.00     0.005 A 
ATOM     15  C   UNL A   1      32.536  30.542  27.284  1.00  0.00     0.005 A 
BRANCH  11  16
ATOM     16  C   UNL A   1      33.061  26.953  26.161  1.00  0.00    -0.011 A 
ATOM     17  C   UNL A   1      33.676  24.868  25.068  1.00  0.00     0.123 A 
ATOM     18  C   UNL A   1      32.435  24.316  25.393  1.00  0.00     0.092 A 
ATOM     19  C   UNL A   1      33.983  26.182  25.439  1.00  0.00     0.055 A 
ATOM     20  C   UNL A   1      31.491  25.075  26.083  1.00  0.00     0.123 A 
ATOM     21  C   UNL A   1      31.811  26.380  26.456  1.00  0.00     0.055 A 
BRANCH  17  22
ATOM     22  O   UNL A   1      34.472  24.138  24.226  1.00  0.00    -0.494 OA
BRANCH  22  23
ATOM     23  C   UNL A   1      35.199  23.070  24.839  1.00  0.00     0.226 C 
ATOM     24  C   UNL A   1      35.917  23.520  26.095  1.00  0.00     0.049 C 
ENDBRANCH  22  23
ENDBRANCH  17  22
BRANCH  20  25
ATOM     25  O   UNL A   1      30.301  24.449  26.349  1.00  0.00    -0.494 OA
BRANCH  25  26
ATOM     26  C   UNL A   1      30.356  23.072  26.732  1.00  0.00     0.226 C 
ATOM     27  C   UNL A   1      29.145  22.681  27.567  1.00  0.00     0.049 C 
ENDBRANCH  25  26
ENDBRANCH  20  25
ENDBRANCH  11  16
ENDBRANCH   8  10
ENDBRANCH   6   8
ENDBRANCH   5   6
ENDBRANCH   4   5
ENDBRANCH   3   4
ENDBRANCH   2   3
ENDBRANCH   1   2
BRANCH   1  28
ATOM     28  C   UNL A   1      33.898  37.484  33.216  1.00  0.00     0.188 C 
BRANCH  28  29
ATOM     29  O   UNL A   1      33.912  36.389  34.109  1.00  0.00    -0.376 OA
BRANCH  29  30
ATOM     30  C   UNL A   1      34.922  35.425  33.889  1.00  0.00     0.202 C 
BRANCH  30  31
ATOM     31  C   UNL A   1      34.418  34.084  33.330  1.00  0.00     0.261 C 
BRANCH  31  32
ATOM     32  O   UNL A   1      35.418  33.058  33.159  1.00  0.00    -0.460 OA
BRANCH  32  33
ATOM     33  C   UNL A   1      35.301  32.299  32.048  1.00  0.00     0.338 C 
ATOM     34  O   UNL A   1      34.375  32.343  31.250  1.00  0.00    -0.246 OA
BRANCH  33  35
ATOM     35  C   UNL A   1      36.559  31.559  31.811  1.00  0.00     0.060 A 
ATOM     36  C   UNL A   1      36.793  30.370  32.519  1.00  0.00     0.016 A 
ATOM     37  C   UNL A   1      37.519  32.047  30.923  1.00  0.00     0.016 A 
ATOM     38  C   UNL A   1      38.000  29.685  32.365  1.00  0.00     0.010 A 
ATOM     39  C   UNL A   1      38.737  31.368  30.785  1.00  0.00     0.010 A 
ATOM     40  C   UNL A   1      38.998  30.202  31.528  1.00  0.00    -0.014 A 
BRANCH  40  41
ATOM     41  C   UNL A   1      40.368  29.619  31.567  1.00  0.00     0.031 A 
ATOM     42  C   UNL A   1      41.320  30.077  32.642  1.00  0.00     0.074 A 
ATOM     43  C   UNL A   1      40.752  28.673  30.690  1.00  0.00     0.049 A 
ATOM     44  N   UNL A   1      42.563  29.731  32.859  1.00  0.00    -0.248 NA
ATOM     45  C   UNL A   1      40.794  31.065  33.598  1.00  0.00     0.031 C 
ATOM     46  C   UNL A   1      39.914  28.114  29.630  1.00  0.00     0.029 A 
ATOM     47  N   UNL A   1      41.951  28.015  30.551  1.00  0.00    -0.354 N 
ATOM     48  C   UNL A   1      42.971  30.460  33.972  1.00  0.00     0.074 A 
ATOM     49  C   UNL A   1      41.854  31.297  34.356  1.00  0.00     0.031 C 
ATOM     50  C   UNL A   1      40.626  27.199  28.949  1.00  0.00     0.029 A 
ATOM     51  C   UNL A   1      41.981  27.135  29.494  1.00  0.00     0.049 A 
ATOM     52  H   UNL A   1      42.717  28.160  31.153  1.00  0.00     0.167 HD
ATOM     53  C   UNL A   1      44.163  30.428  34.619  1.00  0.00     0.034 A 
ATOM     54  C   UNL A   1      42.992  26.384  29.007  1.00  0.00     0.034 A 
ATOM     55  C   UNL A   1      45.274  29.598  34.218  1.00  0.00     0.049 A 
ATOM     56  C   UNL A   1      44.338  26.429  29.694  1.00  0.00     0.074 A 
ATOM     57  C   UNL A   1      46.518  29.478  34.814  1.00  0.00     0.029 A 
ATOM     58  N   UNL A   1      45.284  28.756  33.113  1.00  0.00    -0.354 N 
ATOM     59  N   UNL A   1      44.707  27.111  30.756  1.00  0.00    -0.248 NA
ATOM     60  C   UNL A   1      45.400  25.589  29.125  1.00  0.00     0.031 C 
ATOM     61  C   UNL A   1      47.306  28.634  34.023  1.00  0.00     0.029 A 
ATOM     62  C   UNL A   1      46.525  28.147  32.987  1.00  0.00     0.049 A 
ATOM     63  H   UNL A   1      44.522  28.614  32.506  1.00  0.00     0.167 HD
ATOM     64  C   UNL A   1      46.033  26.754  30.997  1.00  0.00     0.074 A 
ATOM     65  C   UNL A   1      46.388  25.780  29.985  1.00  0.00     0.031 C 
ATOM     66  C   UNL A   1      46.879  27.188  31.966  1.00  0.00     0.034 A 
BRANCH  53  67
ATOM     67  C   UNL A   1      44.341  31.361  35.794  1.00  0.00     0.023 A 
ATOM     68  C   UNL A   1      44.738  32.701  35.629  1.00  0.00     0.031 A 
ATOM     69  C   UNL A   1      44.130  30.898  37.106  1.00  0.00     0.131 A 
ATOM     70  C   UNL A   1      44.980  33.504  36.754  1.00  0.00     0.055 A 
ATOM     71  C   UNL A   1      44.290  31.727  38.217  1.00  0.00     0.041 A 
ATOM     72  F   UNL A   1      43.776  29.623  37.331  1.00  0.00    -0.206 F 
ATOM     73  C   UNL A   1      44.730  33.035  38.046  1.00  0.00     0.022 A 
BRANCH  70  74
ATOM     74  S   UNL A   1      45.767  35.121  36.513  1.00  0.00     0.124 S 
ATOM     75  O   UNL A   1      46.647  34.853  35.378  1.00  0.00    -0.237 OA
ATOM     76  O   UNL A   1      44.628  35.990  36.247  1.00  0.00    -0.237 OA
ATOM     77  O   UNL A   1      46.453  35.360  37.781  1.00  0.00    -0.744 OA
ENDBRANCH  70  74
ENDBRANCH  53  67
BRANCH  54  78
ATOM     78  C   UNL A   1      42.799  25.550  27.782  1.00  0.00     0.023 A 
ATOM     79  C   UNL A   1      42.174  24.293  27.844  1.00  0.00     0.031 A 
ATOM     80  C   UNL A   1      43.304  25.972  26.539  1.00  0.00     0.131 A 
ATOM     81  C   UNL A   1      42.118  23.482  26.700  1.00  0.00     0.055 A 
ATOM     82  C   UNL A   1      43.190  25.187  25.390  1.00  0.00     0.041 A 
ATOM     83  F   UNL A   1      43.918  27.160  26.422  1.00  0.00    -0.206 F 
ATOM     84  C   UNL A   1      42.606  23.927  25.470  1.00  0.00     0.022 A 
BRANCH  81  85
ATOM     85  S   UNL A   1      41.488  21.788  26.865  1.00  0.00     0.124 S 
ATOM     86  O   UNL A   1      40.100  22.024  27.247  1.00  0.00    -0.237 OA
ATOM     87  O   UNL A   1      41.702  21.253  25.525  1.00  0.00    -0.237 OA
ATOM     88  O   UNL A   1      42.333  21.210  27.907  1.00  0.00    -0.744 OA
ENDBRANCH  81  85
ENDBRANCH  54  78
BRANCH  66  89
ATOM     89  C   UNL A   1      48.260  26.568  32.006  1.00  0.00     0.023 A 
ATOM     90  C   UNL A   1      49.337  27.103  31.275  1.00  0.00     0.031 A 
ATOM     91  C   UNL A   1      48.493  25.402  32.758  1.00  0.00     0.131 A 
ATOM     92  C   UNL A   1      50.568  26.429  31.246  1.00  0.00     0.055 A 
ATOM     93  C   UNL A   1      49.743  24.780  32.789  1.00  0.00     0.041 A 
ATOM     94  F   UNL A   1      47.506  24.841  33.474  1.00  0.00    -0.206 F 
ATOM     95  C   UNL A   1      50.783  25.282  32.014  1.00  0.00     0.022 A 
BRANCH  92  96
ATOM     96  S   UNL A   1      51.841  26.994  30.083  1.00  0.00     0.124 S 
ATOM     97  O   UNL A   1      51.891  28.424  30.362  1.00  0.00    -0.237 OA
ATOM     98  O   UNL A   1      53.007  26.221  30.499  1.00  0.00    -0.237 OA
ATOM     99  O   UNL A   1      51.293  26.635  28.776  1.00  0.00    -0.744 OA
ENDBRANCH  92  96
ENDBRANCH  66  89
ENDBRANCH  40  41
ENDBRANCH  33  35
ENDBRANCH  32  33
ENDBRANCH  31  32
ENDBRANCH  30  31
ENDBRANCH  29  30
ENDBRANCH  28  29
ENDBRANCH   1  28
TORSDOF 26
ENDMDL
MODEL 3
REMARK VINA RESULT:      -7.7      6.135      8.652
REMARK SMILES CCOc1cc(OCC)cc(-c2ccc([C@@H](C)C(=O)OCCOCCOCCOC(=O)c3ccc(-c4c5nc(c(-c6cc(S(=O)(=O)[O-])ccc6F)c6ccc([nH]6)c(-c6cc(S(=O)(=O)[O-])ccc6F)c6nc(c(-c7cc(S(=O)(=O)[O-])ccc7F)c7ccc4[nH]7)C=C6)C=C5)cc3)cc2)c1
REMARK SMILES IDX 24 1 23 2 22 3 21 4 20 5 18 6 19 7 16 8 17 9 15 10 12 11
REMARK SMILES IDX 13 12 96 13 14 14 95 15 11 16 4 17 5 18 97 19 6 20 10 21
REMARK SMILES IDX 3 22 2 23 1 24 7 25 8 26 9 27 25 28 26 29 27 30 28 31 29 32
REMARK SMILES IDX 30 33 31 34 32 35 33 36 94 37 34 38 93 39 35 40 36 41 37 42
REMARK SMILES IDX 87 43 38 44 92 45 86 46 88 47 39 48 91 49 85 50 84 51 40 53
REMARK SMILES IDX 72 54 52 55 71 56 53 57 56 58 70 59 89 60 54 61 55 62 69 64
REMARK SMILES IDX 90 65 57 66 41 67 42 68 50 69 43 70 49 71 51 72 48 73 44 74
REMARK SMILES IDX 45 75 46 76 47 77 73 78 74 79 82 80 75 81 81 82 83 83 80 84
REMARK SMILES IDX 76 85 77 86 78 87 79 88 58 89 59 90 67 91 60 92 66 93 68 94
REMARK SMILES IDX 65 95 61 96 62 97 63 98 64 99
REMARK H PARENT 88 52 56 63
REMARK Flexibility Score: inf
ROOT
ATOM      1  C   UNL A   1      33.100  36.938  32.342  1.00  0.00     0.188 C 
ENDROOT
BRANCH   1   2
ATOM      2  O   UNL A   1      33.777  36.693  31.113  1.00  0.00    -0.376 OA
BRANCH   2   3
ATOM      3  C   UNL A   1      33.370  35.599  30.304  1.00  0.00     0.202 C 
BRANCH   3   4
ATOM      4  C   UNL A   1      33.165  35.836  28.799  1.00  0.00     0.261 C 
BRANCH   4   5
ATOM      5  O   UNL A   1      33.808  34.886  27.920  1.00  0.00    -0.463 OA
BRANCH   5   6
ATOM      6  C   UNL A   1      33.256  33.646  27.860  1.00  0.00     0.313 C 
ATOM      7  O   UNL A   1      32.102  33.447  27.481  1.00  0.00    -0.252 OA
BRANCH   6   8
ATOM      8  C   UNL A   1      34.151  32.478  28.287  1.00  0.00     0.126 C 
ATOM      9  C   UNL A   1      35.609  32.894  28.100  1.00  0.00     0.025 C 
BRANCH   8  10
ATOM     10  C   UNL A   1      33.937  31.069  27.737  1.00  0.00    -0.034 A 
ATOM     11  C   UNL A   1      33.419  28.453  26.704  1.00  0.00    -0.018 A 
ATOM     12  C   UNL A   1      34.711  28.849  27.098  1.00  0.00     0.009 A 
ATOM     13  C   UNL A   1      32.389  29.389  26.833  1.00  0.00     0.009 A 
ATOM     14  C   UNL A   1      34.967  30.127  27.623  1.00  0.00     0.005 A 
ATOM     15  C   UNL A   1      32.642  30.671  27.346  1.00  0.00     0.005 A 
BRANCH  11  16
ATOM     16  C   UNL A   1      33.155  27.068  26.266  1.00  0.00    -0.011 A 
ATOM     17  C   UNL A   1      33.751  25.005  25.120  1.00  0.00     0.123 A 
ATOM     18  C   UNL A   1      32.523  24.440  25.470  1.00  0.00     0.092 A 
ATOM     19  C   UNL A   1      34.061  26.314  25.504  1.00  0.00     0.055 A 
ATOM     20  C   UNL A   1      31.594  25.181  26.200  1.00  0.00     0.123 A 
ATOM     21  C   UNL A   1      31.918  26.482  26.585  1.00  0.00     0.055 A 
BRANCH  17  22
ATOM     22  O   UNL A   1      34.527  24.293  24.244  1.00  0.00    -0.494 OA
BRANCH  22  23
ATOM     23  C   UNL A   1      35.218  23.174  24.803  1.00  0.00     0.226 C 
ATOM     24  C   UNL A   1      35.787  23.485  26.173  1.00  0.00     0.049 C 
ENDBRANCH  22  23
ENDBRANCH  17  22
BRANCH  20  25
ATOM     25  O   UNL A   1      30.416  24.545  26.487  1.00  0.00    -0.494 OA
BRANCH  25  26
ATOM     26  C   UNL A   1      30.466  23.128  26.682  1.00  0.00     0.226 C 
ATOM     27  C   UNL A   1      29.216  22.621  27.387  1.00  0.00     0.049 C 
ENDBRANCH  25  26
ENDBRANCH  20  25
ENDBRANCH  11  16
ENDBRANCH   8  10
ENDBRANCH   6   8
ENDBRANCH   5   6
ENDBRANCH   4   5
ENDBRANCH   3   4
ENDBRANCH   2   3
ENDBRANCH   1   2
BRANCH   1  28
ATOM     28  C   UNL A   1      33.905  36.998  33.650  1.00  0.00     0.188 C 
BRANCH  28  29
ATOM     29  O   UNL A   1      34.121  35.750  34.276  1.00  0.00    -0.376 OA
BRANCH  29  30
ATOM     30  C   UNL A   1      35.284  35.052  33.879  1.00  0.00     0.202 C 
BRANCH  30  31
ATOM     31  C   UNL A   1      35.023  33.663  33.275  1.00  0.00     0.261 C 
BRANCH  31  32
ATOM     32  O   UNL A   1      36.186  32.831  33.083  1.00  0.00    -0.460 OA
BRANCH  32  33
ATOM     33  C   UNL A   1      36.061  31.842  32.173  1.00  0.00     0.338 C 
ATOM     34  O   UNL A   1      35.066  31.618  31.497  1.00  0.00    -0.246 OA
BRANCH  33  35
ATOM     35  C   UNL A   1      37.373  31.198  31.946  1.00  0.00     0.060 A 
ATOM     36  C   UNL A   1      37.663  29.995  32.606  1.00  0.00     0.016 A 
ATOM     37  C   UNL A   1      38.326  31.791  31.117  1.00  0.00     0.016 A 
ATOM     38  C   UNL A   1      38.918  29.399  32.463  1.00  0.00     0.010 A 
ATOM     39  C   UNL A   1      39.591  31.202  30.991  1.00  0.00     0.010 A 
ATOM     40  C   UNL A   1      39.906  30.020  31.688  1.00  0.00    -0.014 A 
BRANCH  40  41
ATOM     41  C   UNL A   1      41.310  29.528  31.748  1.00  0.00     0.031 A 
ATOM     42  C   UNL A   1      41.794  28.588  30.674  1.00  0.00     0.074 A 
ATOM     43  C   UNL A   1      42.155  29.936  32.713  1.00  0.00     0.049 A 
ATOM     44  N   UNL A   1      42.961  28.013  30.532  1.00  0.00    -0.248 NA
ATOM     45  C   UNL A   1      40.824  28.248  29.622  1.00  0.00     0.031 C 
ATOM     46  C   UNL A   1      41.824  30.875  33.784  1.00  0.00     0.029 A 
ATOM     47  N   UNL A   1      43.469  29.608  32.949  1.00  0.00    -0.354 N 
ATOM     48  C   UNL A   1      42.866  27.240  29.379  1.00  0.00     0.074 A 
ATOM     49  C   UNL A   1      41.513  27.390  28.886  1.00  0.00     0.031 C 
ATOM     50  C   UNL A   1      42.906  31.045  34.564  1.00  0.00     0.029 A 
ATOM     51  C   UNL A   1      43.993  30.199  34.076  1.00  0.00     0.049 A 
ATOM     52  H   UNL A   1      43.987  29.006  32.366  1.00  0.00     0.167 HD
ATOM     53  C   UNL A   1      43.820  26.485  28.780  1.00  0.00     0.034 A 
ATOM     54  C   UNL A   1      45.203  30.054  34.659  1.00  0.00     0.034 A 
ATOM     55  C   UNL A   1      45.163  26.333  29.288  1.00  0.00     0.049 A 
ATOM     56  C   UNL A   1      46.223  29.139  34.020  1.00  0.00     0.074 A 
ATOM     57  C   UNL A   1      46.210  25.605  28.750  1.00  0.00     0.029 A 
ATOM     58  N   UNL A   1      45.643  26.908  30.459  1.00  0.00    -0.354 N 
ATOM     59  N   UNL A   1      46.125  28.425  32.921  1.00  0.00    -0.248 NA
ATOM     60  C   UNL A   1      47.521  29.022  34.696  1.00  0.00     0.031 C 
ATOM     61  C   UNL A   1      47.292  25.668  29.636  1.00  0.00     0.029 A 
ATOM     62  C   UNL A   1      46.957  26.516  30.679  1.00  0.00     0.049 A 
ATOM     63  H   UNL A   1      45.126  27.504  31.047  1.00  0.00     0.167 HD
ATOM     64  C   UNL A   1      47.362  27.804  32.759  1.00  0.00     0.074 A 
ATOM     65  C   UNL A   1      48.194  28.247  33.859  1.00  0.00     0.031 C 
ATOM     66  C   UNL A   1      47.776  26.949  31.788  1.00  0.00     0.034 A 
BRANCH  53  67
ATOM     67  C   UNL A   1      43.423  25.718  27.539  1.00  0.00     0.023 A 
ATOM     68  C   UNL A   1      42.820  24.450  27.608  1.00  0.00     0.031 A 
ATOM     69  C   UNL A   1      43.672  26.257  26.264  1.00  0.00     0.131 A 
ATOM     70  C   UNL A   1      42.552  23.736  26.429  1.00  0.00     0.055 A 
ATOM     71  C   UNL A   1      43.325  25.578  25.094  1.00  0.00     0.041 A 
ATOM     72  F   UNL A   1      44.269  27.452  26.131  1.00  0.00    -0.206 F 
ATOM     73  C   UNL A   1      42.774  24.303  25.172  1.00  0.00     0.022 A 
BRANCH  70  74
ATOM     74  S   UNL A   1      42.050  21.998  26.563  1.00  0.00     0.124 S 
ATOM     75  O   UNL A   1      40.611  22.089  26.325  1.00  0.00    -0.237 OA
ATOM     76  O   UNL A   1      42.833  21.361  25.512  1.00  0.00    -0.237 OA
ATOM     77  O   UNL A   1      42.426  21.638  27.928  1.00  0.00    -0.744 OA
ENDBRANCH  70  74
ENDBRANCH  53  67
BRANCH  54  78
ATOM     78  C   UNL A   1      45.518  30.755  35.941  1.00  0.00     0.023 A 
ATOM     79  C   UNL A   1      45.407  30.101  37.179  1.00  0.00     0.031 A 
ATOM     80  C   UNL A   1      45.866  32.118  35.947  1.00  0.00     0.131 A 
ATOM     81  C   UNL A   1      45.590  30.821  38.370  1.00  0.00     0.055 A 
ATOM     82  C   UNL A   1      46.108  32.814  37.133  1.00  0.00     0.041 A 
ATOM     83  F   UNL A   1      45.977  32.797  34.794  1.00  0.00    -0.206 F 
ATOM     84  C   UNL A   1      45.956  32.168  38.355  1.00  0.00     0.022 A 
BRANCH  81  85
ATOM     85  S   UNL A   1      45.241  29.994  39.948  1.00  0.00     0.124 S 
ATOM     86  O   UNL A   1      46.501  30.172  40.661  1.00  0.00    -0.237 OA
ATOM     87  O   UNL A   1      44.107  30.763  40.449  1.00  0.00    -0.237 OA
ATOM     88  O   UNL A   1      44.935  28.621  39.553  1.00  0.00    -0.744 OA
ENDBRANCH  81  85
ENDBRANCH  54  78
BRANCH  66  89
ATOM     89  C   UNL A   1      49.213  26.477  31.850  1.00  0.00     0.023 A 
ATOM     90  C   UNL A   1      50.253  27.169  31.202  1.00  0.00     0.031 A 
ATOM     91  C   UNL A   1      49.543  25.294  32.538  1.00  0.00     0.131 A 
ATOM     92  C   UNL A   1      51.550  26.632  31.186  1.00  0.00     0.055 A 
ATOM     93  C   UNL A   1      50.851  24.807  32.586  1.00  0.00     0.041 A 
ATOM     94  F   UNL A   1      48.596  24.586  33.174  1.00  0.00    -0.206 F 
ATOM     95  C   UNL A   1      51.859  25.466  31.890  1.00  0.00     0.022 A 
BRANCH  92  96
ATOM     96  S   UNL A   1      52.797  27.403  30.117  1.00  0.00     0.124 S 
ATOM     97  O   UNL A   1      53.978  27.388  30.972  1.00  0.00    -0.237 OA
ATOM     98  O   UNL A   1      52.827  26.499  28.972  1.00  0.00    -0.237 OA
ATOM     99  O   UNL A   1      52.243  28.729  29.846  1.00  0.00    -0.744 OA
ENDBRANCH  92  96
ENDBRANCH  66  89
ENDBRANCH  40  41
ENDBRANCH  33  35
ENDBRANCH  32  33
ENDBRANCH  31  32
ENDBRANCH  30  31
ENDBRANCH  29  30
ENDBRANCH  28  29
ENDBRANCH   1  28
TORSDOF 26
ENDMDL
