MODEL 1
REMARK VINA RESULT:     -11.9      0.000      0.000
REMARK SMILES O=C1Nc2ccccc2/C1=C/c1cccc(C(=O)OCCOCCOCCOC(=O)c2ccc(-c3c4nc(c(-c5cc(S(=O)(=O)[O-])ccc5F)c5ccc([nH]5)c(-c5cc(S(=O)(=O)[O-])ccc5F)c5nc(c(-c6cc(S(=O)(=O)[O-])ccc6F)c6ccc3[nH]6)C=C5)C=C4)cc2)c1
REMARK SMILES IDX 24 1 23 2 22 3 21 4 20 5 19 6 17 7 18 8 16 9 12 10 13 11
REMARK SMILES IDX 94 12 14 13 15 14 11 15 1 16 2 17 3 18 10 19 4 20 9 22 5 23
REMARK SMILES IDX 8 24 6 25 7 26 25 27 26 28 27 29 28 30 29 31 30 32 31 33
REMARK SMILES IDX 32 34 93 35 33 36 92 37 34 38 35 39 36 40 86 41 37 42 91 43
REMARK SMILES IDX 85 44 87 45 38 46 90 47 84 48 83 49 39 51 71 52 51 53 70 54
REMARK SMILES IDX 52 55 55 56 69 57 88 58 53 59 54 60 68 62 89 63 56 64 40 65
REMARK SMILES IDX 41 66 49 67 42 68 48 69 50 70 47 71 43 72 44 73 45 74 46 75
REMARK SMILES IDX 72 76 73 77 81 78 74 79 80 80 82 81 79 82 75 83 76 84 77 85
REMARK SMILES IDX 78 86 57 87 58 88 66 89 59 90 65 91 67 92 64 93 60 94 61 95
REMARK SMILES IDX 62 96 63 97
REMARK H PARENT 3 21 87 50 55 61
REMARK Flexibility Score: inf
ROOT
ATOM      1  C   UNL A   1      35.832  20.893  24.856  1.00  0.00     0.188 C 
ENDROOT
BRANCH   1   2
ATOM      2  C   UNL A   1      34.804  21.888  25.434  1.00  0.00     0.188 C 
BRANCH   2   3
ATOM      3  O   UNL A   1      35.012  22.415  26.726  1.00  0.00    -0.376 OA
BRANCH   3   4
ATOM      4  C   UNL A   1      33.990  22.373  27.708  1.00  0.00     0.202 C 
BRANCH   4   5
ATOM      5  C   UNL A   1      32.482  22.505  27.427  1.00  0.00     0.261 C 
BRANCH   5   6
ATOM      6  O   UNL A   1      32.109  23.227  26.254  1.00  0.00    -0.460 OA
BRANCH   6   7
ATOM      7  C   UNL A   1      31.267  24.275  26.456  1.00  0.00     0.338 C 
ATOM      8  O   UNL A   1      30.232  24.265  27.099  1.00  0.00    -0.246 OA
BRANCH   7   9
ATOM      9  C   UNL A   1      31.907  25.506  25.943  1.00  0.00     0.060 A 
ATOM     10  C   UNL A   1      31.734  27.766  25.097  1.00  0.00    -0.024 A 
ATOM     11  C   UNL A   1      33.128  27.845  25.032  1.00  0.00     0.008 A 
ATOM     12  C   UNL A   1      31.130  26.558  25.463  1.00  0.00     0.023 A 
ATOM     13  C   UNL A   1      33.911  26.756  25.431  1.00  0.00     0.002 A 
ATOM     14  C   UNL A   1      33.302  25.600  25.923  1.00  0.00     0.016 A 
BRANCH  10  15
ATOM     15  C   UNL A   1      30.891  28.946  24.875  1.00  0.00     0.022 C 
ATOM     16  O   UNL A   1      30.941  27.304  22.228  1.00  0.00    -0.269 OA
ATOM     17  C   UNL A   1      30.468  28.413  22.402  1.00  0.00     0.256 C 
ATOM     18  N   UNL A   1      29.895  29.188  21.418  1.00  0.00    -0.321 N 
ATOM     19  C   UNL A   1      30.357  29.236  23.675  1.00  0.00     0.050 C 
ATOM     20  C   UNL A   1      29.378  30.364  21.938  1.00  0.00     0.049 A 
ATOM     21  H   UNL A   1      29.857  28.938  20.466  1.00  0.00     0.170 HD
ATOM     22  C   UNL A   1      29.604  30.444  23.317  1.00  0.00     0.011 A 
ATOM     23  C   UNL A   1      28.711  31.339  21.227  1.00  0.00     0.027 A 
ATOM     24  C   UNL A   1      29.141  31.532  24.033  1.00  0.00     0.011 A 
ATOM     25  C   UNL A   1      28.241  32.437  21.944  1.00  0.00     0.002 A 
ATOM     26  C   UNL A   1      28.451  32.531  23.333  1.00  0.00     0.001 A 
ENDBRANCH  10  15
ENDBRANCH   7   9
ENDBRANCH   6   7
ENDBRANCH   5   6
ENDBRANCH   4   5
ENDBRANCH   3   4
ENDBRANCH   2   3
ENDBRANCH   1   2
BRANCH   1  27
ATOM     27  O   UNL A   1      37.091  20.771  25.477  1.00  0.00    -0.376 OA
BRANCH  27  28
ATOM     28  C   UNL A   1      38.090  19.957  24.891  1.00  0.00     0.202 C 
BRANCH  28  29
ATOM     29  C   UNL A   1      39.267  19.297  25.639  1.00  0.00     0.261 C 
BRANCH  29  30
ATOM     30  O   UNL A   1      40.484  20.033  25.788  1.00  0.00    -0.460 OA
BRANCH  30  31
ATOM     31  C   UNL A   1      40.931  20.171  27.063  1.00  0.00     0.338 C 
ATOM     32  O   UNL A   1      41.313  19.284  27.805  1.00  0.00    -0.246 OA
BRANCH  31  33
ATOM     33  C   UNL A   1      41.058  21.609  27.370  1.00  0.00     0.060 A 
ATOM     34  C   UNL A   1      40.303  22.536  26.635  1.00  0.00     0.016 A 
ATOM     35  C   UNL A   1      41.945  22.041  28.356  1.00  0.00     0.016 A 
ATOM     36  C   UNL A   1      40.444  23.904  26.878  1.00  0.00     0.010 A 
ATOM     37  C   UNL A   1      42.102  23.412  28.578  1.00  0.00     0.010 A 
ATOM     38  C   UNL A   1      41.374  24.350  27.824  1.00  0.00    -0.014 A 
BRANCH  38  39
ATOM     39  C   UNL A   1      41.725  25.790  27.914  1.00  0.00     0.031 A 
ATOM     40  C   UNL A   1      43.030  26.244  27.320  1.00  0.00     0.074 A 
ATOM     41  C   UNL A   1      40.914  26.676  28.522  1.00  0.00     0.049 A 
ATOM     42  N   UNL A   1      43.618  27.410  27.390  1.00  0.00    -0.248 NA
ATOM     43  C   UNL A   1      43.776  25.237  26.550  1.00  0.00     0.031 C 
ATOM     44  C   UNL A   1      39.599  26.369  29.081  1.00  0.00     0.029 A 
ATOM     45  N   UNL A   1      41.091  28.011  28.787  1.00  0.00    -0.354 N 
ATOM     46  C   UNL A   1      44.811  27.273  26.689  1.00  0.00     0.074 A 
ATOM     47  C   UNL A   1      44.875  25.902  26.230  1.00  0.00     0.031 C 
ATOM     48  C   UNL A   1      39.096  27.484  29.642  1.00  0.00     0.029 A 
ATOM     49  C   UNL A   1      40.074  28.566  29.528  1.00  0.00     0.049 A 
ATOM     50  H   UNL A   1      41.872  28.524  28.476  1.00  0.00     0.167 HD
ATOM     51  C   UNL A   1      45.763  28.208  26.448  1.00  0.00     0.034 A 
ATOM     52  C   UNL A   1      39.964  29.791  30.084  1.00  0.00     0.034 A 
ATOM     53  C   UNL A   1      45.689  29.567  26.928  1.00  0.00     0.049 A 
ATOM     54  C   UNL A   1      41.087  30.787  29.894  1.00  0.00     0.074 A 
ATOM     55  C   UNL A   1      46.592  30.598  26.736  1.00  0.00     0.029 A 
ATOM     56  N   UNL A   1      44.663  30.081  27.711  1.00  0.00    -0.354 N 
ATOM     57  N   UNL A   1      42.215  30.649  29.235  1.00  0.00    -0.248 NA
ATOM     58  C   UNL A   1      40.919  32.105  30.522  1.00  0.00     0.031 C 
ATOM     59  C   UNL A   1      46.157  31.705  27.472  1.00  0.00     0.029 A 
ATOM     60  C   UNL A   1      44.931  31.402  28.040  1.00  0.00     0.049 A 
ATOM     61  H   UNL A   1      43.862  29.581  27.992  1.00  0.00     0.167 HD
ATOM     62  C   UNL A   1      42.867  31.879  29.333  1.00  0.00     0.074 A 
ATOM     63  C   UNL A   1      42.005  32.743  30.109  1.00  0.00     0.031 C 
ATOM     64  C   UNL A   1      44.064  32.260  28.816  1.00  0.00     0.034 A 
BRANCH  51  65
ATOM     65  C   UNL A   1      46.991  27.772  25.685  1.00  0.00     0.023 A 
ATOM     66  C   UNL A   1      47.172  28.083  24.327  1.00  0.00     0.031 A 
ATOM     67  C   UNL A   1      47.985  27.007  26.322  1.00  0.00     0.131 A 
ATOM     68  C   UNL A   1      48.279  27.573  23.632  1.00  0.00     0.055 A 
ATOM     69  C   UNL A   1      49.129  26.576  25.647  1.00  0.00     0.041 A 
ATOM     70  F   UNL A   1      47.857  26.653  27.610  1.00  0.00    -0.206 F 
ATOM     71  C   UNL A   1      49.273  26.846  24.290  1.00  0.00     0.022 A 
BRANCH  68  72
ATOM     72  S   UNL A   1      48.323  27.741  21.826  1.00  0.00     0.124 S 
ATOM     73  O   UNL A   1      49.360  28.753  21.648  1.00  0.00    -0.237 OA
ATOM     74  O   UNL A   1      48.665  26.391  21.392  1.00  0.00    -0.237 OA
ATOM     75  O   UNL A   1      46.970  28.181  21.490  1.00  0.00    -0.744 OA
ENDBRANCH  68  72
ENDBRANCH  51  65
BRANCH  52  76
ATOM     76  C   UNL A   1      38.775  30.143  30.916  1.00  0.00     0.023 A 
ATOM     77  C   UNL A   1      37.716  30.895  30.385  1.00  0.00     0.031 A 
ATOM     78  C   UNL A   1      38.712  29.787  32.276  1.00  0.00     0.131 A 
ATOM     79  C   UNL A   1      36.664  31.311  31.219  1.00  0.00     0.055 A 
ATOM     80  C   UNL A   1      37.633  30.148  33.085  1.00  0.00     0.041 A 
ATOM     81  F   UNL A   1      39.703  29.078  32.840  1.00  0.00    -0.206 F 
ATOM     82  C   UNL A   1      36.607  30.927  32.560  1.00  0.00     0.022 A 
BRANCH  79  83
ATOM     83  S   UNL A   1      35.425  32.453  30.549  1.00  0.00     0.124 S 
ATOM     84  O   UNL A   1      34.320  32.272  31.484  1.00  0.00    -0.237 OA
ATOM     85  O   UNL A   1      36.122  33.733  30.620  1.00  0.00    -0.237 OA
ATOM     86  O   UNL A   1      35.190  31.947  29.199  1.00  0.00    -0.744 OA
ENDBRANCH  79  83
ENDBRANCH  52  76
BRANCH  64  87
ATOM     87  C   UNL A   1      44.482  33.699  29.009  1.00  0.00     0.023 A 
ATOM     88  C   UNL A   1      43.851  34.762  28.338  1.00  0.00     0.031 A 
ATOM     89  C   UNL A   1      45.533  34.011  29.893  1.00  0.00     0.131 A 
ATOM     90  C   UNL A   1      44.310  36.076  28.521  1.00  0.00     0.055 A 
ATOM     91  C   UNL A   1      45.939  35.326  30.123  1.00  0.00     0.041 A 
ATOM     92  F   UNL A   1      46.177  33.038  30.558  1.00  0.00    -0.206 F 
ATOM     93  C   UNL A   1      45.336  36.366  29.426  1.00  0.00     0.022 A 
BRANCH  90  94
ATOM     94  S   UNL A   1      43.617  37.398  27.490  1.00  0.00     0.124 S 
ATOM     95  O   UNL A   1      42.641  38.004  28.390  1.00  0.00    -0.237 OA
ATOM     96  O   UNL A   1      44.793  38.208  27.188  1.00  0.00    -0.237 OA
ATOM     97  O   UNL A   1      43.049  36.682  26.349  1.00  0.00    -0.744 OA
ENDBRANCH  90  94
ENDBRANCH  64  87
ENDBRANCH  38  39
ENDBRANCH  31  33
ENDBRANCH  30  31
ENDBRANCH  29  30
ENDBRANCH  28  29
ENDBRANCH  27  28
ENDBRANCH   1  27
TORSDOF 21
ENDMDL
MODEL 2
REMARK VINA RESULT:     -11.4      2.252      3.463
REMARK SMILES O=C1Nc2ccccc2/C1=C/c1cccc(C(=O)OCCOCCOCCOC(=O)c2ccc(-c3c4nc(c(-c5cc(S(=O)(=O)[O-])ccc5F)c5ccc([nH]5)c(-c5cc(S(=O)(=O)[O-])ccc5F)c5nc(c(-c6cc(S(=O)(=O)[O-])ccc6F)c6ccc3[nH]6)C=C5)C=C4)cc2)c1
REMARK SMILES IDX 24 1 23 2 22 3 21 4 20 5 19 6 17 7 18 8 16 9 12 10 13 11
REMARK SMILES IDX 94 12 14 13 15 14 11 15 1 16 2 17 3 18 10 19 4 20 9 22 5 23
REMARK SMILES IDX 8 24 6 25 7 26 25 27 26 28 27 29 28 30 29 31 30 32 31 33
REMARK SMILES IDX 32 34 93 35 33 36 92 37 34 38 35 39 36 40 86 41 37 42 91 43
REMARK SMILES IDX 85 44 87 45 38 46 90 47 84 48 83 49 39 51 71 52 51 53 70 54
REMARK SMILES IDX 52 55 55 56 69 57 88 58 53 59 54 60 68 62 89 63 56 64 40 65
REMARK SMILES IDX 41 66 49 67 42 68 48 69 50 70 47 71 43 72 44 73 45 74 46 75
REMARK SMILES IDX 72 76 73 77 81 78 74 79 80 80 82 81 79 82 75 83 76 84 77 85
REMARK SMILES IDX 78 86 57 87 58 88 66 89 59 90 65 91 67 92 64 93 60 94 61 95
REMARK SMILES IDX 62 96 63 97
REMARK H PARENT 3 21 87 50 55 61
REMARK Flexibility Score: inf
ROOT
ATOM      1  C   UNL A   1      34.391  20.685  24.974  1.00  0.00     0.188 C 
ENDROOT
BRANCH   1   2
ATOM      2  C   UNL A   1      33.055  20.219  24.358  1.00  0.00     0.188 C 
BRANCH   2   3
ATOM      3  O   UNL A   1      31.848  20.537  25.016  1.00  0.00    -0.376 OA
BRANCH   3   4
ATOM      4  C   UNL A   1      31.668  21.793  25.648  1.00  0.00     0.202 C 
BRANCH   4   5
ATOM      5  C   UNL A   1      31.840  23.164  24.969  1.00  0.00     0.261 C 
BRANCH   5   6
ATOM      6  O   UNL A   1      30.661  23.949  24.801  1.00  0.00    -0.460 OA
BRANCH   6   7
ATOM      7  C   UNL A   1      30.523  24.988  25.667  1.00  0.00     0.338 C 
ATOM      8  O   UNL A   1      30.023  24.950  26.777  1.00  0.00    -0.246 OA
BRANCH   7   9
ATOM      9  C   UNL A   1      31.266  26.152  25.137  1.00  0.00     0.060 A 
ATOM     10  C   UNL A   1      32.993  27.829  25.383  1.00  0.00    -0.024 A 
ATOM     11  C   UNL A   1      32.704  28.310  24.103  1.00  0.00     0.008 A 
ATOM     12  C   UNL A   1      32.204  26.811  25.930  1.00  0.00     0.023 A 
ATOM     13  C   UNL A   1      31.700  27.705  23.337  1.00  0.00     0.002 A 
ATOM     14  C   UNL A   1      31.008  26.601  23.838  1.00  0.00     0.016 A 
BRANCH  10  15
ATOM     15  C   UNL A   1      34.160  28.307  26.133  1.00  0.00     0.022 C 
ATOM     16  O   UNL A   1      31.792  30.245  26.724  1.00  0.00    -0.269 OA
ATOM     17  C   UNL A   1      32.959  30.381  27.047  1.00  0.00     0.256 C 
ATOM     18  N   UNL A   1      33.470  31.476  27.711  1.00  0.00    -0.321 N 
ATOM     19  C   UNL A   1      34.142  29.448  26.845  1.00  0.00     0.050 C 
ATOM     20  C   UNL A   1      34.813  31.305  28.007  1.00  0.00     0.049 A 
ATOM     21  H   UNL A   1      32.947  32.277  27.944  1.00  0.00     0.170 HD
ATOM     22  C   UNL A   1      35.279  30.075  27.528  1.00  0.00     0.011 A 
ATOM     23  C   UNL A   1      35.610  32.197  28.693  1.00  0.00     0.027 A 
ATOM     24  C   UNL A   1      36.592  29.700  27.746  1.00  0.00     0.011 A 
ATOM     25  C   UNL A   1      36.933  31.823  28.916  1.00  0.00     0.002 A 
ATOM     26  C   UNL A   1      37.419  30.586  28.450  1.00  0.00     0.001 A 
ENDBRANCH  10  15
ENDBRANCH   7   9
ENDBRANCH   6   7
ENDBRANCH   5   6
ENDBRANCH   4   5
ENDBRANCH   3   4
ENDBRANCH   2   3
ENDBRANCH   1   2
BRANCH   1  27
ATOM     27  O   UNL A   1      34.989  21.868  24.496  1.00  0.00    -0.376 OA
BRANCH  27  28
ATOM     28  C   UNL A   1      36.359  21.869  24.135  1.00  0.00     0.202 C 
BRANCH  28  29
ATOM     29  C   UNL A   1      37.486  21.115  24.871  1.00  0.00     0.261 C 
BRANCH  29  30
ATOM     30  O   UNL A   1      37.978  21.651  26.102  1.00  0.00    -0.460 OA
BRANCH  30  31
ATOM     31  C   UNL A   1      39.319  21.538  26.293  1.00  0.00     0.338 C 
ATOM     32  O   UNL A   1      40.039  20.634  25.910  1.00  0.00    -0.246 OA
BRANCH  31  33
ATOM     33  C   UNL A   1      39.821  22.790  26.893  1.00  0.00     0.060 A 
ATOM     34  C   UNL A   1      39.267  24.015  26.488  1.00  0.00     0.016 A 
ATOM     35  C   UNL A   1      40.857  22.756  27.825  1.00  0.00     0.016 A 
ATOM     36  C   UNL A   1      39.761  25.212  27.009  1.00  0.00     0.010 A 
ATOM     37  C   UNL A   1      41.365  23.957  28.325  1.00  0.00     0.010 A 
ATOM     38  C   UNL A   1      40.839  25.192  27.901  1.00  0.00    -0.014 A 
BRANCH  38  39
ATOM     39  C   UNL A   1      41.542  26.449  28.263  1.00  0.00     0.031 A 
ATOM     40  C   UNL A   1      42.940  26.657  27.748  1.00  0.00     0.074 A 
ATOM     41  C   UNL A   1      40.962  27.379  29.042  1.00  0.00     0.049 A 
ATOM     42  N   UNL A   1      43.803  27.597  28.034  1.00  0.00    -0.248 NA
ATOM     43  C   UNL A   1      43.432  25.657  26.787  1.00  0.00     0.031 C 
ATOM     44  C   UNL A   1      39.593  27.321  29.551  1.00  0.00     0.029 A 
ATOM     45  N   UNL A   1      41.464  28.549  29.558  1.00  0.00    -0.354 N 
ATOM     46  C   UNL A   1      44.946  27.295  27.303  1.00  0.00     0.074 A 
ATOM     47  C   UNL A   1      44.674  26.067  26.586  1.00  0.00     0.031 C 
ATOM     48  C   UNL A   1      39.371  28.398  30.324  1.00  0.00     0.029 A 
ATOM     49  C   UNL A   1      40.595  29.194  30.407  1.00  0.00     0.049 A 
ATOM     50  H   UNL A   1      42.360  28.894  29.341  1.00  0.00     0.167 HD
ATOM     51  C   UNL A   1      46.112  27.982  27.234  1.00  0.00     0.034 A 
ATOM     52  C   UNL A   1      40.782  30.278  31.191  1.00  0.00     0.034 A 
ATOM     53  C   UNL A   1      46.369  29.197  27.968  1.00  0.00     0.049 A 
ATOM     54  C   UNL A   1      42.128  30.969  31.181  1.00  0.00     0.074 A 
ATOM     55  C   UNL A   1      47.512  29.978  27.966  1.00  0.00     0.029 A 
ATOM     56  N   UNL A   1      45.482  29.798  28.851  1.00  0.00    -0.354 N 
ATOM     57  N   UNL A   1      43.206  30.675  30.491  1.00  0.00    -0.248 NA
ATOM     58  C   UNL A   1      42.278  32.142  32.055  1.00  0.00     0.031 C 
ATOM     59  C   UNL A   1      47.347  30.998  28.908  1.00  0.00     0.029 A 
ATOM     60  C   UNL A   1      46.064  30.918  29.425  1.00  0.00     0.049 A 
ATOM     61  H   UNL A   1      44.570  29.477  29.042  1.00  0.00     0.167 HD
ATOM     62  C   UNL A   1      44.145  31.653  30.816  1.00  0.00     0.074 A 
ATOM     63  C   UNL A   1      43.504  32.546  31.757  1.00  0.00     0.031 C 
ATOM     64  C   UNL A   1      45.418  31.806  30.365  1.00  0.00     0.034 A 
BRANCH  51  65
ATOM     65  C   UNL A   1      47.215  27.399  26.382  1.00  0.00     0.023 A 
ATOM     66  C   UNL A   1      47.450  27.836  25.067  1.00  0.00     0.031 A 
ATOM     67  C   UNL A   1      48.028  26.367  26.886  1.00  0.00     0.131 A 
ATOM     68  C   UNL A   1      48.420  27.198  24.279  1.00  0.00     0.055 A 
ATOM     69  C   UNL A   1      49.050  25.796  26.127  1.00  0.00     0.041 A 
ATOM     70  F   UNL A   1      47.835  25.887  28.125  1.00  0.00    -0.206 F 
ATOM     71  C   UNL A   1      49.241  26.200  24.809  1.00  0.00     0.022 A 
BRANCH  68  72
ATOM     72  S   UNL A   1      48.488  27.583  22.508  1.00  0.00     0.124 S 
ATOM     73  O   UNL A   1      48.594  26.250  21.919  1.00  0.00    -0.237 OA
ATOM     74  O   UNL A   1      47.225  28.280  22.288  1.00  0.00    -0.237 OA
ATOM     75  O   UNL A   1      49.687  28.408  22.381  1.00  0.00    -0.744 OA
ENDBRANCH  68  72
ENDBRANCH  51  65
BRANCH  52  76
ATOM     76  C   UNL A   1      39.692  30.757  32.093  1.00  0.00     0.023 A 
ATOM     77  C   UNL A   1      38.954  31.911  31.787  1.00  0.00     0.031 A 
ATOM     78  C   UNL A   1      39.418  30.104  33.309  1.00  0.00     0.131 A 
ATOM     79  C   UNL A   1      38.014  32.406  32.707  1.00  0.00     0.055 A 
ATOM     80  C   UNL A   1      38.439  30.565  34.190  1.00  0.00     0.041 A 
ATOM     81  F   UNL A   1      40.103  29.003  33.659  1.00  0.00    -0.206 F 
ATOM     82  C   UNL A   1      37.740  31.730  33.898  1.00  0.00     0.022 A 
BRANCH  79  83
ATOM     83  S   UNL A   1      37.233  34.009  32.373  1.00  0.00     0.124 S 
ATOM     84  O   UNL A   1      38.049  34.512  31.273  1.00  0.00    -0.237 OA
ATOM     85  O   UNL A   1      35.870  33.618  32.033  1.00  0.00    -0.237 OA
ATOM     86  O   UNL A   1      37.377  34.728  33.636  1.00  0.00    -0.744 OA
ENDBRANCH  79  83
ENDBRANCH  52  76
BRANCH  64  87
ATOM     87  C   UNL A   1      46.181  33.025  30.827  1.00  0.00     0.023 A 
ATOM     88  C   UNL A   1      46.141  34.247  30.130  1.00  0.00     0.031 A 
ATOM     89  C   UNL A   1      46.962  32.962  31.997  1.00  0.00     0.131 A 
ATOM     90  C   UNL A   1      46.906  35.334  30.580  1.00  0.00     0.055 A 
ATOM     91  C   UNL A   1      47.665  34.067  32.477  1.00  0.00     0.041 A 
ATOM     92  F   UNL A   1      47.044  31.821  32.702  1.00  0.00    -0.206 F 
ATOM     93  C   UNL A   1      47.650  35.258  31.761  1.00  0.00     0.022 A 
BRANCH  90  94
ATOM     94  S   UNL A   1      46.997  36.826  29.552  1.00  0.00     0.124 S 
ATOM     95  O   UNL A   1      48.036  36.468  28.591  1.00  0.00    -0.237 OA
ATOM     96  O   UNL A   1      45.642  36.920  29.018  1.00  0.00    -0.237 OA
ATOM     97  O   UNL A   1      47.363  37.876  30.500  1.00  0.00    -0.744 OA
ENDBRANCH  90  94
ENDBRANCH  64  87
ENDBRANCH  38  39
ENDBRANCH  31  33
ENDBRANCH  30  31
ENDBRANCH  29  30
ENDBRANCH  28  29
ENDBRANCH  27  28
ENDBRANCH   1  27
TORSDOF 21
ENDMDL
MODEL 3
REMARK VINA RESULT:     -11.3      5.359     11.741
REMARK SMILES O=C1Nc2ccccc2/C1=C/c1cccc(C(=O)OCCOCCOCCOC(=O)c2ccc(-c3c4nc(c(-c5cc(S(=O)(=O)[O-])ccc5F)c5ccc([nH]5)c(-c5cc(S(=O)(=O)[O-])ccc5F)c5nc(c(-c6cc(S(=O)(=O)[O-])ccc6F)c6ccc3[nH]6)C=C5)C=C4)cc2)c1
REMARK SMILES IDX 24 1 23 2 22 3 21 4 20 5 19 6 17 7 18 8 16 9 12 10 13 11
REMARK SMILES IDX 94 12 14 13 15 14 11 15 1 16 2 17 3 18 10 19 4 20 9 22 5 23
REMARK SMILES IDX 8 24 6 25 7 26 25 27 26 28 27 29 28 30 29 31 30 32 31 33
REMARK SMILES IDX 32 34 93 35 33 36 92 37 34 38 35 39 36 40 86 41 37 42 91 43
REMARK SMILES IDX 85 44 87 45 38 46 90 47 84 48 83 49 39 51 71 52 51 53 70 54
REMARK SMILES IDX 52 55 55 56 69 57 88 58 53 59 54 60 68 62 89 63 56 64 40 65
REMARK SMILES IDX 41 66 49 67 42 68 48 69 50 70 47 71 43 72 44 73 45 74 46 75
REMARK SMILES IDX 72 76 73 77 81 78 74 79 80 80 82 81 79 82 75 83 76 84 77 85
REMARK SMILES IDX 78 86 57 87 58 88 66 89 59 90 65 91 67 92 64 93 60 94 61 95
REMARK SMILES IDX 62 96 63 97
REMARK H PARENT 3 21 87 50 55 61
REMARK Flexibility Score: inf
ROOT
ATOM      1  C   UNL A   1      33.279  34.993  29.731  1.00  0.00     0.188 C 
ENDROOT
BRANCH   1   2
ATOM      2  C   UNL A   1      33.550  36.504  29.877  1.00  0.00     0.188 C 
BRANCH   2   3
ATOM      3  O   UNL A   1      32.774  37.257  30.784  1.00  0.00    -0.376 OA
BRANCH   3   4
ATOM      4  C   UNL A   1      33.258  37.567  32.080  1.00  0.00     0.202 C 
BRANCH   4   5
ATOM      5  C   UNL A   1      33.709  36.537  33.130  1.00  0.00     0.261 C 
BRANCH   5   6
ATOM      6  O   UNL A   1      35.068  36.109  33.065  1.00  0.00    -0.460 OA
BRANCH   6   7
ATOM      7  C   UNL A   1      35.344  34.940  33.704  1.00  0.00     0.338 C 
ATOM      8  O   UNL A   1      34.999  34.627  34.830  1.00  0.00    -0.246 OA
BRANCH   7   9
ATOM      9  C   UNL A   1      35.962  34.004  32.740  1.00  0.00     0.060 A 
ATOM     10  C   UNL A   1      37.530  33.567  30.949  1.00  0.00    -0.024 A 
ATOM     11  C   UNL A   1      37.166  32.218  30.965  1.00  0.00     0.008 A 
ATOM     12  C   UNL A   1      36.853  34.471  31.776  1.00  0.00     0.023 A 
ATOM     13  C   UNL A   1      36.205  31.761  31.874  1.00  0.00     0.002 A 
ATOM     14  C   UNL A   1      35.632  32.647  32.789  1.00  0.00     0.016 A 
BRANCH  10  15
ATOM     15  C   UNL A   1      38.664  34.043  30.150  1.00  0.00     0.022 C 
ATOM     16  O   UNL A   1      39.726  33.375  33.002  1.00  0.00    -0.269 OA
ATOM     17  C   UNL A   1      40.329  33.925  32.097  1.00  0.00     0.256 C 
ATOM     18  N   UNL A   1      41.615  34.412  32.190  1.00  0.00    -0.321 N 
ATOM     19  C   UNL A   1      39.891  34.221  30.673  1.00  0.00     0.050 C 
ATOM     20  C   UNL A   1      42.054  34.912  30.975  1.00  0.00     0.049 A 
ATOM     21  H   UNL A   1      42.153  34.404  33.014  1.00  0.00     0.170 HD
ATOM     22  C   UNL A   1      41.057  34.802  29.998  1.00  0.00     0.011 A 
ATOM     23  C   UNL A   1      43.302  35.439  30.720  1.00  0.00     0.027 A 
ATOM     24  C   UNL A   1      41.306  35.222  28.704  1.00  0.00     0.011 A 
ATOM     25  C   UNL A   1      43.558  35.862  29.418  1.00  0.00     0.002 A 
ATOM     26  C   UNL A   1      42.572  35.752  28.419  1.00  0.00     0.001 A 
ENDBRANCH  10  15
ENDBRANCH   7   9
ENDBRANCH   6   7
ENDBRANCH   5   6
ENDBRANCH   4   5
ENDBRANCH   3   4
ENDBRANCH   2   3
ENDBRANCH   1   2
BRANCH   1  27
ATOM     27  O   UNL A   1      34.339  34.140  29.365  1.00  0.00    -0.376 OA
BRANCH  27  28
ATOM     28  C   UNL A   1      34.358  33.552  28.077  1.00  0.00     0.202 C 
BRANCH  28  29
ATOM     29  C   UNL A   1      34.088  32.066  27.760  1.00  0.00     0.261 C 
BRANCH  29  30
ATOM     30  O   UNL A   1      34.629  31.071  28.631  1.00  0.00    -0.460 OA
BRANCH  30  31
ATOM     31  C   UNL A   1      35.071  29.939  28.022  1.00  0.00     0.338 C 
ATOM     32  O   UNL A   1      34.511  29.319  27.136  1.00  0.00    -0.246 OA
BRANCH  31  33
ATOM     33  C   UNL A   1      36.447  29.660  28.477  1.00  0.00     0.060 A 
ATOM     34  C   UNL A   1      37.528  30.041  27.667  1.00  0.00     0.016 A 
ATOM     35  C   UNL A   1      36.666  28.992  29.682  1.00  0.00     0.016 A 
ATOM     36  C   UNL A   1      38.834  29.743  28.058  1.00  0.00     0.010 A 
ATOM     37  C   UNL A   1      37.974  28.673  30.056  1.00  0.00     0.010 A 
ATOM     38  C   UNL A   1      39.062  29.023  29.236  1.00  0.00    -0.014 A 
BRANCH  38  39
ATOM     39  C   UNL A   1      40.409  28.474  29.536  1.00  0.00     0.031 A 
ATOM     40  C   UNL A   1      41.240  29.157  30.586  1.00  0.00     0.074 A 
ATOM     41  C   UNL A   1      40.893  27.402  28.882  1.00  0.00     0.049 A 
ATOM     42  N   UNL A   1      42.486  28.954  30.926  1.00  0.00    -0.248 NA
ATOM     43  C   UNL A   1      40.572  30.225  31.346  1.00  0.00     0.031 C 
ATOM     44  C   UNL A   1      40.161  26.618  27.888  1.00  0.00     0.029 A 
ATOM     45  N   UNL A   1      42.126  26.801  28.943  1.00  0.00    -0.354 N 
ATOM     46  C   UNL A   1      42.759  29.879  31.929  1.00  0.00     0.074 A 
ATOM     47  C   UNL A   1      41.556  30.662  32.117  1.00  0.00     0.031 C 
ATOM     48  C   UNL A   1      40.968  25.650  27.419  1.00  0.00     0.029 A 
ATOM     49  C   UNL A   1      42.287  25.778  28.038  1.00  0.00     0.049 A 
ATOM     50  H   UNL A   1      42.829  27.076  29.576  1.00  0.00     0.167 HD
ATOM     51  C   UNL A   1      43.906  30.053  32.630  1.00  0.00     0.034 A 
ATOM     52  C   UNL A   1      43.383  25.058  27.719  1.00  0.00     0.034 A 
ATOM     53  C   UNL A   1      45.100  29.271  32.417  1.00  0.00     0.049 A 
ATOM     54  C   UNL A   1      44.684  25.341  28.438  1.00  0.00     0.074 A 
ATOM     55  C   UNL A   1      46.314  29.358  33.076  1.00  0.00     0.029 A 
ATOM     56  N   UNL A   1      45.239  28.272  31.463  1.00  0.00    -0.354 N 
ATOM     57  N   UNL A   1      44.936  26.220  29.381  1.00  0.00    -0.248 NA
ATOM     58  C   UNL A   1      45.847  24.530  28.051  1.00  0.00     0.031 C 
ATOM     59  C   UNL A   1      47.209  28.476  32.464  1.00  0.00     0.029 A 
ATOM     60  C   UNL A   1      46.528  27.762  31.492  1.00  0.00     0.049 A 
ATOM     61  H   UNL A   1      44.526  27.969  30.854  1.00  0.00     0.167 HD
ATOM     62  C   UNL A   1      46.274  26.034  29.728  1.00  0.00     0.074 A 
ATOM     63  C   UNL A   1      46.771  24.959  28.898  1.00  0.00     0.031 C 
ATOM     64  C   UNL A   1      47.018  26.687  30.659  1.00  0.00     0.034 A 
BRANCH  51  65
ATOM     65  C   UNL A   1      43.939  31.171  33.645  1.00  0.00     0.023 A 
ATOM     66  C   UNL A   1      43.553  30.974  34.982  1.00  0.00     0.031 A 
ATOM     67  C   UNL A   1      44.337  32.464  33.261  1.00  0.00     0.131 A 
ATOM     68  C   UNL A   1      43.504  32.063  35.866  1.00  0.00     0.055 A 
ATOM     69  C   UNL A   1      44.371  33.526  34.167  1.00  0.00     0.041 A 
ATOM     70  F   UNL A   1      44.690  32.723  31.991  1.00  0.00    -0.206 F 
ATOM     71  C   UNL A   1      43.938  33.331  35.475  1.00  0.00     0.022 A 
BRANCH  68  72
ATOM     72  S   UNL A   1      42.721  31.831  37.485  1.00  0.00     0.124 S 
ATOM     73  O   UNL A   1      42.879  33.154  38.083  1.00  0.00    -0.237 OA
ATOM     74  O   UNL A   1      41.359  31.451  37.125  1.00  0.00    -0.237 OA
ATOM     75  O   UNL A   1      43.520  30.776  38.105  1.00  0.00    -0.744 OA
ENDBRANCH  68  72
ENDBRANCH  51  65
BRANCH  52  76
ATOM     76  C   UNL A   1      43.326  24.030  26.636  1.00  0.00     0.023 A 
ATOM     77  C   UNL A   1      42.677  22.802  26.836  1.00  0.00     0.031 A 
ATOM     78  C   UNL A   1      43.979  24.237  25.407  1.00  0.00     0.131 A 
ATOM     79  C   UNL A   1      42.737  21.809  25.845  1.00  0.00     0.055 A 
ATOM     80  C   UNL A   1      43.981  23.270  24.400  1.00  0.00     0.041 A 
ATOM     81  F   UNL A   1      44.627  25.388  25.166  1.00  0.00    -0.206 F 
ATOM     82  C   UNL A   1      43.369  22.042  24.621  1.00  0.00     0.022 A 
BRANCH  79  83
ATOM     83  S   UNL A   1      42.068  20.165  26.221  1.00  0.00     0.124 S 
ATOM     84  O   UNL A   1      40.632  20.400  26.121  1.00  0.00    -0.237 OA
ATOM     85  O   UNL A   1      42.660  19.347  25.169  1.00  0.00    -0.237 OA
ATOM     86  O   UNL A   1      42.564  19.897  27.570  1.00  0.00    -0.744 OA
ENDBRANCH  79  83
ENDBRANCH  52  76
BRANCH  64  87
ATOM     87  C   UNL A   1      48.434  26.206  30.883  1.00  0.00     0.023 A 
ATOM     88  C   UNL A   1      48.754  25.233  31.847  1.00  0.00     0.031 A 
ATOM     89  C   UNL A   1      49.483  26.732  30.106  1.00  0.00     0.131 A 
ATOM     90  C   UNL A   1      50.092  24.857  32.044  1.00  0.00     0.055 A 
ATOM     91  C   UNL A   1      50.802  26.304  30.259  1.00  0.00     0.041 A 
ATOM     92  F   UNL A   1      49.241  27.668  29.174  1.00  0.00    -0.206 F 
ATOM     93  C   UNL A   1      51.115  25.370  31.241  1.00  0.00     0.022 A 
BRANCH  90  94
ATOM     94  S   UNL A   1      50.498  23.758  33.429  1.00  0.00     0.124 S 
ATOM     95  O   UNL A   1      51.475  24.551  34.168  1.00  0.00    -0.237 OA
ATOM     96  O   UNL A   1      49.202  23.580  34.076  1.00  0.00    -0.237 OA
ATOM     97  O   UNL A   1      51.034  22.565  32.776  1.00  0.00    -0.744 OA
ENDBRANCH  90  94
ENDBRANCH  64  87
ENDBRANCH  38  39
ENDBRANCH  31  33
ENDBRANCH  30  31
ENDBRANCH  29  30
ENDBRANCH  28  29
ENDBRANCH  27  28
ENDBRANCH   1  27
TORSDOF 21
ENDMDL
