MODEL 1
REMARK VINA RESULT:      -7.4      0.000      0.000
REMARK SMILES C[C@@H](C(=O)OCCOCCOCCOC(=O)c1ccc(-c2c3nc(c(-c4cc(S(=O)(=O)[O-])ccc4F)c4ccc([nH]4)c(-c4cc(S(=O)(=O)[O-])ccc4F)c4nc(c(-c5cc(S(=O)(=O)[O-])ccc5F)c5ccc2[nH]5)C=C4)C=C3)cc1)c1ccc(C[C@@H]2CCC[C@@H]2O)cc1F
REMARK SMILES IDX 9 1 8 2 7 3 6 4 5 5 3 6 4 7 2 8 1 9 80 10 81 11 92 12 82 13
REMARK SMILES IDX 91 14 93 15 83 16 84 17 85 18 86 19 89 20 87 21 88 22 90 23
REMARK SMILES IDX 10 25 11 26 12 27 13 28 14 29 15 30 16 31 17 32 18 33 79 34
REMARK SMILES IDX 19 35 78 36 20 37 21 38 22 39 72 40 23 41 77 42 71 43 73 44
REMARK SMILES IDX 24 45 76 46 70 47 69 48 25 50 57 51 37 52 56 53 38 54 41 55
REMARK SMILES IDX 55 56 74 57 39 58 40 59 54 61 75 62 42 63 26 64 27 65 35 66
REMARK SMILES IDX 28 67 34 68 36 69 33 70 29 71 30 72 31 73 32 74 58 75 59 76
REMARK SMILES IDX 67 77 60 78 66 79 68 80 65 81 61 82 62 83 63 84 64 85 43 86
REMARK SMILES IDX 44 87 52 88 45 89 51 90 53 91 50 92 46 93 47 94 48 95 49 96
REMARK H PARENT 90 24 73 49 41 60
REMARK Flexibility Score: inf
ROOT
ATOM      1  C   UNL A   1      43.685  19.178  25.743  1.00  0.00     0.188 C 
ENDROOT
BRANCH   1   2
ATOM      2  O   UNL A   1      43.728  20.070  24.655  1.00  0.00    -0.376 OA
BRANCH   2   3
ATOM      3  C   UNL A   1      44.260  21.370  24.842  1.00  0.00     0.202 C 
BRANCH   3   4
ATOM      4  C   UNL A   1      45.751  21.760  24.749  1.00  0.00     0.261 C 
BRANCH   4   5
ATOM      5  O   UNL A   1      46.278  22.689  25.707  1.00  0.00    -0.463 OA
BRANCH   5   6
ATOM      6  C   UNL A   1      46.049  24.012  25.467  1.00  0.00     0.313 C 
ATOM      7  O   UNL A   1      46.337  24.572  24.414  1.00  0.00    -0.252 OA
BRANCH   6   8
ATOM      8  C   UNL A   1      45.453  24.768  26.662  1.00  0.00     0.129 C 
ATOM      9  C   UNL A   1      44.012  24.405  27.058  1.00  0.00     0.025 C 
BRANCH   8  10
ATOM     10  C   UNL A   1      45.623  26.282  26.649  1.00  0.00     0.002 A 
ATOM     11  C   UNL A   1      46.722  26.838  27.317  1.00  0.00     0.008 A 
ATOM     12  C   UNL A   1      44.736  27.180  26.051  1.00  0.00     0.127 A 
ATOM     13  C   UNL A   1      46.892  28.225  27.412  1.00  0.00     0.004 A 
ATOM     14  C   UNL A   1      44.874  28.564  26.194  1.00  0.00     0.043 A 
ATOM     15  F   UNL A   1      43.724  26.741  25.297  1.00  0.00    -0.207 F 
ATOM     16  C   UNL A   1      45.937  29.115  26.915  1.00  0.00    -0.045 A 
BRANCH  16  17
ATOM     17  C   UNL A   1      46.087  30.621  27.012  1.00  0.00     0.041 C 
BRANCH  17  18
ATOM     18  C   UNL A   1      44.970  31.599  26.558  1.00  0.00     0.022 C 
ATOM     19  C   UNL A   1      45.422  32.954  26.009  1.00  0.00     0.007 C 
ATOM     20  C   UNL A   1      43.932  32.036  27.592  1.00  0.00     0.117 C 
ATOM     21  C   UNL A   1      45.300  33.953  27.170  1.00  0.00     0.003 C 
ATOM     22  C   UNL A   1      44.575  33.218  28.293  1.00  0.00     0.032 C 
BRANCH  20  23
ATOM     23  O   UNL A   1      43.577  31.030  28.497  1.00  0.00    -0.393 OA
ATOM     24  H   UNL A   1      44.355  30.768  29.012  1.00  0.00     0.210 HD
ENDBRANCH  20  23
ENDBRANCH  17  18
ENDBRANCH  16  17
ENDBRANCH   8  10
ENDBRANCH   6   8
ENDBRANCH   5   6
ENDBRANCH   4   5
ENDBRANCH   3   4
ENDBRANCH   2   3
ENDBRANCH   1   2
BRANCH   1  25
ATOM     25  C   UNL A   1      42.304  18.669  26.181  1.00  0.00     0.188 C 
BRANCH  25  26
ATOM     26  O   UNL A   1      41.134  19.383  25.834  1.00  0.00    -0.376 OA
BRANCH  26  27
ATOM     27  C   UNL A   1      40.785  20.514  26.611  1.00  0.00     0.202 C 
BRANCH  27  28
ATOM     28  C   UNL A   1      40.162  21.777  25.984  1.00  0.00     0.261 C 
BRANCH  28  29
ATOM     29  O   UNL A   1      39.127  22.436  26.729  1.00  0.00    -0.460 OA
BRANCH  29  30
ATOM     30  C   UNL A   1      38.794  23.679  26.300  1.00  0.00     0.338 C 
ATOM     31  O   UNL A   1      37.912  23.965  25.498  1.00  0.00    -0.246 OA
BRANCH  30  32
ATOM     32  C   UNL A   1      39.539  24.693  27.071  1.00  0.00     0.060 A 
ATOM     33  C   UNL A   1      39.415  24.712  28.463  1.00  0.00     0.016 A 
ATOM     34  C   UNL A   1      40.304  25.666  26.427  1.00  0.00     0.016 A 
ATOM     35  C   UNL A   1      40.056  25.700  29.209  1.00  0.00     0.010 A 
ATOM     36  C   UNL A   1      40.908  26.686  27.179  1.00  0.00     0.010 A 
ATOM     37  C   UNL A   1      40.764  26.730  28.577  1.00  0.00    -0.014 A 
BRANCH  37  38
ATOM     38  C   UNL A   1      41.179  27.937  29.353  1.00  0.00     0.031 A 
ATOM     39  C   UNL A   1      40.119  28.919  29.786  1.00  0.00     0.074 A 
ATOM     40  C   UNL A   1      42.448  28.125  29.764  1.00  0.00     0.049 A 
ATOM     41  N   UNL A   1      40.241  30.051  30.431  1.00  0.00    -0.248 NA
ATOM     42  C   UNL A   1      38.729  28.563  29.459  1.00  0.00     0.031 C 
ATOM     43  C   UNL A   1      43.551  27.203  29.516  1.00  0.00     0.029 A 
ATOM     44  N   UNL A   1      43.015  29.134  30.509  1.00  0.00    -0.354 N 
ATOM     45  C   UNL A   1      38.955  30.572  30.539  1.00  0.00     0.074 A 
ATOM     46  C   UNL A   1      38.068  29.619  29.904  1.00  0.00     0.031 C 
ATOM     47  C   UNL A   1      44.651  27.663  30.137  1.00  0.00     0.029 A 
ATOM     48  C   UNL A   1      44.357  28.954  30.759  1.00  0.00     0.049 A 
ATOM     49  H   UNL A   1      42.508  29.913  30.833  1.00  0.00     0.167 HD
ATOM     50  C   UNL A   1      38.555  31.741  31.102  1.00  0.00     0.034 A 
ATOM     51  C   UNL A   1      45.252  29.750  31.386  1.00  0.00     0.034 A 
ATOM     52  C   UNL A   1      39.447  32.685  31.731  1.00  0.00     0.049 A 
ATOM     53  C   UNL A   1      44.797  31.091  31.923  1.00  0.00     0.074 A 
ATOM     54  C   UNL A   1      39.139  33.908  32.305  1.00  0.00     0.029 A 
ATOM     55  N   UNL A   1      40.820  32.523  31.867  1.00  0.00    -0.354 N 
ATOM     56  N   UNL A   1      43.588  31.604  31.960  1.00  0.00    -0.248 NA
ATOM     57  C   UNL A   1      45.833  31.969  32.487  1.00  0.00     0.031 C 
ATOM     58  C   UNL A   1      40.330  34.519  32.710  1.00  0.00     0.029 A 
ATOM     59  C   UNL A   1      41.374  33.638  32.482  1.00  0.00     0.049 A 
ATOM     60  H   UNL A   1      41.326  31.732  31.572  1.00  0.00     0.167 HD
ATOM     61  C   UNL A   1      43.722  32.855  32.562  1.00  0.00     0.074 A 
ATOM     62  C   UNL A   1      45.121  33.006  32.900  1.00  0.00     0.031 C 
ATOM     63  C   UNL A   1      42.773  33.796  32.807  1.00  0.00     0.034 A 
BRANCH  50  64
ATOM     64  C   UNL A   1      37.094  32.103  30.975  1.00  0.00     0.023 A 
ATOM     65  C   UNL A   1      36.538  32.565  29.770  1.00  0.00     0.031 A 
ATOM     66  C   UNL A   1      36.250  32.016  32.098  1.00  0.00     0.131 A 
ATOM     67  C   UNL A   1      35.203  32.994  29.736  1.00  0.00     0.055 A 
ATOM     68  C   UNL A   1      34.898  32.362  32.035  1.00  0.00     0.041 A 
ATOM     69  F   UNL A   1      36.728  31.606  33.284  1.00  0.00    -0.206 F 
ATOM     70  C   UNL A   1      34.371  32.870  30.852  1.00  0.00     0.022 A 
BRANCH  67  71
ATOM     71  S   UNL A   1      34.613  33.868  28.260  1.00  0.00     0.124 S 
ATOM     72  O   UNL A   1      35.748  33.709  27.352  1.00  0.00    -0.237 OA
ATOM     73  O   UNL A   1      33.409  33.123  27.913  1.00  0.00    -0.237 OA
ATOM     74  O   UNL A   1      34.391  35.232  28.735  1.00  0.00    -0.744 OA
ENDBRANCH  67  71
ENDBRANCH  50  64
BRANCH  51  75
ATOM     75  C   UNL A   1      46.695  29.360  31.472  1.00  0.00     0.023 A 
ATOM     76  C   UNL A   1      47.623  29.751  30.492  1.00  0.00     0.031 A 
ATOM     77  C   UNL A   1      47.151  28.515  32.502  1.00  0.00     0.131 A 
ATOM     78  C   UNL A   1      48.941  29.263  30.538  1.00  0.00     0.055 A 
ATOM     79  C   UNL A   1      48.479  28.093  32.584  1.00  0.00     0.041 A 
ATOM     80  F   UNL A   1      46.306  28.082  33.452  1.00  0.00    -0.206 F 
ATOM     81  C   UNL A   1      49.380  28.457  31.591  1.00  0.00     0.022 A 
BRANCH  78  82
ATOM     82  S   UNL A   1      50.052  29.604  29.143  1.00  0.00     0.124 S 
ATOM     83  O   UNL A   1      50.160  28.288  28.524  1.00  0.00    -0.237 OA
ATOM     84  O   UNL A   1      49.301  30.606  28.393  1.00  0.00    -0.237 OA
ATOM     85  O   UNL A   1      51.269  30.092  29.787  1.00  0.00    -0.744 OA
ENDBRANCH  78  82
ENDBRANCH  51  75
BRANCH  63  86
ATOM     86  C   UNL A   1      43.208  35.062  33.514  1.00  0.00     0.023 A 
ATOM     87  C   UNL A   1      43.518  36.240  32.811  1.00  0.00     0.031 A 
ATOM     88  C   UNL A   1      43.311  35.089  34.917  1.00  0.00     0.131 A 
ATOM     89  C   UNL A   1      43.967  37.376  33.507  1.00  0.00     0.055 A 
ATOM     90  C   UNL A   1      43.695  36.240  35.608  1.00  0.00     0.041 A 
ATOM     91  F   UNL A   1      43.033  33.995  35.644  1.00  0.00    -0.206 F 
ATOM     92  C   UNL A   1      44.038  37.389  34.902  1.00  0.00     0.022 A 
BRANCH  89  93
ATOM     93  S   UNL A   1      44.552  38.809  32.560  1.00  0.00     0.124 S 
ATOM     94  O   UNL A   1      44.279  39.912  33.477  1.00  0.00    -0.237 OA
ATOM     95  O   UNL A   1      45.959  38.490  32.346  1.00  0.00    -0.237 OA
ATOM     96  O   UNL A   1      43.722  38.785  31.356  1.00  0.00    -0.744 OA
ENDBRANCH  89  93
ENDBRANCH  63  86
ENDBRANCH  37  38
ENDBRANCH  30  32
ENDBRANCH  29  30
ENDBRANCH  28  29
ENDBRANCH  27  28
ENDBRANCH  26  27
ENDBRANCH  25  26
ENDBRANCH   1  25
TORSDOF 24
ENDMDL
MODEL 2
REMARK VINA RESULT:      -7.4      2.010      7.539
REMARK SMILES C[C@@H](C(=O)OCCOCCOCCOC(=O)c1ccc(-c2c3nc(c(-c4cc(S(=O)(=O)[O-])ccc4F)c4ccc([nH]4)c(-c4cc(S(=O)(=O)[O-])ccc4F)c4nc(c(-c5cc(S(=O)(=O)[O-])ccc5F)c5ccc2[nH]5)C=C4)C=C3)cc1)c1ccc(C[C@@H]2CCC[C@@H]2O)cc1F
REMARK SMILES IDX 9 1 8 2 7 3 6 4 5 5 3 6 4 7 2 8 1 9 80 10 81 11 92 12 82 13
REMARK SMILES IDX 91 14 93 15 83 16 84 17 85 18 86 19 89 20 87 21 88 22 90 23
REMARK SMILES IDX 10 25 11 26 12 27 13 28 14 29 15 30 16 31 17 32 18 33 79 34
REMARK SMILES IDX 19 35 78 36 20 37 21 38 22 39 72 40 23 41 77 42 71 43 73 44
REMARK SMILES IDX 24 45 76 46 70 47 69 48 25 50 57 51 37 52 56 53 38 54 41 55
REMARK SMILES IDX 55 56 74 57 39 58 40 59 54 61 75 62 42 63 26 64 27 65 35 66
REMARK SMILES IDX 28 67 34 68 36 69 33 70 29 71 30 72 31 73 32 74 58 75 59 76
REMARK SMILES IDX 67 77 60 78 66 79 68 80 65 81 61 82 62 83 63 84 64 85 43 86
REMARK SMILES IDX 44 87 52 88 45 89 51 90 53 91 50 92 46 93 47 94 48 95 49 96
REMARK H PARENT 90 24 73 49 41 60
REMARK Flexibility Score: inf
ROOT
ATOM      1  C   UNL A   1      43.644  19.235  25.785  1.00  0.00     0.188 C 
ENDROOT
BRANCH   1   2
ATOM      2  O   UNL A   1      43.813  20.151  24.730  1.00  0.00    -0.376 OA
BRANCH   2   3
ATOM      3  C   UNL A   1      44.307  21.449  25.008  1.00  0.00     0.202 C 
BRANCH   3   4
ATOM      4  C   UNL A   1      45.793  21.840  25.159  1.00  0.00     0.261 C 
BRANCH   4   5
ATOM      5  O   UNL A   1      46.150  22.801  26.162  1.00  0.00    -0.463 OA
BRANCH   5   6
ATOM      6  C   UNL A   1      45.808  24.099  25.916  1.00  0.00     0.313 C 
ATOM      7  O   UNL A   1      45.825  24.607  24.799  1.00  0.00    -0.252 OA
BRANCH   6   8
ATOM      8  C   UNL A   1      45.455  24.900  27.176  1.00  0.00     0.129 C 
ATOM      9  C   UNL A   1      44.197  24.460  27.943  1.00  0.00     0.025 C 
BRANCH   8  10
ATOM     10  C   UNL A   1      45.473  26.417  27.032  1.00  0.00     0.002 A 
ATOM     11  C   UNL A   1      46.524  27.133  27.620  1.00  0.00     0.008 A 
ATOM     12  C   UNL A   1      44.489  27.169  26.388  1.00  0.00     0.127 A 
ATOM     13  C   UNL A   1      46.556  28.533  27.594  1.00  0.00     0.004 A 
ATOM     14  C   UNL A   1      44.490  28.567  26.411  1.00  0.00     0.043 A 
ATOM     15  F   UNL A   1      43.510  26.570  25.703  1.00  0.00    -0.207 F 
ATOM     16  C   UNL A   1      45.507  29.279  27.053  1.00  0.00    -0.045 A 
BRANCH  16  17
ATOM     17  C   UNL A   1      45.509  30.795  27.020  1.00  0.00     0.041 C 
BRANCH  17  18
ATOM     18  C   UNL A   1      44.213  31.623  26.805  1.00  0.00     0.022 C 
ATOM     19  C   UNL A   1      44.294  32.783  25.810  1.00  0.00     0.007 C 
ATOM     20  C   UNL A   1      43.595  32.322  28.017  1.00  0.00     0.117 C 
ATOM     21  C   UNL A   1      44.516  34.054  26.646  1.00  0.00     0.003 C 
ATOM     22  C   UNL A   1      44.334  33.645  28.103  1.00  0.00     0.032 C 
BRANCH  20  23
ATOM     23  O   UNL A   1      43.702  31.592  29.205  1.00  0.00    -0.393 OA
ATOM     24  H   UNL A   1      44.558  31.139  29.232  1.00  0.00     0.210 HD
ENDBRANCH  20  23
ENDBRANCH  17  18
ENDBRANCH  16  17
ENDBRANCH   8  10
ENDBRANCH   6   8
ENDBRANCH   5   6
ENDBRANCH   4   5
ENDBRANCH   3   4
ENDBRANCH   2   3
ENDBRANCH   1   2
BRANCH   1  25
ATOM     25  C   UNL A   1      42.221  18.720  26.048  1.00  0.00     0.188 C 
BRANCH  25  26
ATOM     26  O   UNL A   1      41.099  19.507  25.701  1.00  0.00    -0.376 OA
BRANCH  26  27
ATOM     27  C   UNL A   1      40.752  20.589  26.547  1.00  0.00     0.202 C 
BRANCH  27  28
ATOM     28  C   UNL A   1      40.102  21.877  26.004  1.00  0.00     0.261 C 
BRANCH  28  29
ATOM     29  O   UNL A   1      39.171  22.552  26.862  1.00  0.00    -0.460 OA
BRANCH  29  30
ATOM     30  C   UNL A   1      38.765  23.777  26.442  1.00  0.00     0.338 C 
ATOM     31  O   UNL A   1      37.898  24.015  25.610  1.00  0.00    -0.246 OA
BRANCH  30  32
ATOM     32  C   UNL A   1      39.404  24.826  27.261  1.00  0.00     0.060 A 
ATOM     33  C   UNL A   1      39.013  24.974  28.595  1.00  0.00     0.016 A 
ATOM     34  C   UNL A   1      40.333  25.704  26.706  1.00  0.00     0.016 A 
ATOM     35  C   UNL A   1      39.552  25.999  29.372  1.00  0.00     0.010 A 
ATOM     36  C   UNL A   1      40.837  26.763  27.479  1.00  0.00     0.010 A 
ATOM     37  C   UNL A   1      40.428  26.938  28.812  1.00  0.00    -0.014 A 
BRANCH  37  38
ATOM     38  C   UNL A   1      40.752  28.192  29.555  1.00  0.00     0.031 A 
ATOM     39  C   UNL A   1      42.140  28.361  30.121  1.00  0.00     0.074 A 
ATOM     40  C   UNL A   1      39.882  29.217  29.650  1.00  0.00     0.049 A 
ATOM     41  N   UNL A   1      42.641  29.339  30.832  1.00  0.00    -0.248 NA
ATOM     42  C   UNL A   1      43.097  27.283  29.828  1.00  0.00     0.031 C 
ATOM     43  C   UNL A   1      38.549  29.237  29.055  1.00  0.00     0.029 A 
ATOM     44  N   UNL A   1      40.001  30.451  30.247  1.00  0.00    -0.354 N 
ATOM     45  C   UNL A   1      43.952  28.973  31.120  1.00  0.00     0.074 A 
ATOM     46  C   UNL A   1      44.170  27.687  30.491  1.00  0.00     0.031 C 
ATOM     47  C   UNL A   1      37.992  30.441  29.277  1.00  0.00     0.029 A 
ATOM     48  C   UNL A   1      38.891  31.251  30.099  1.00  0.00     0.049 A 
ATOM     49  H   UNL A   1      40.807  30.735  30.736  1.00  0.00     0.167 HD
ATOM     50  C   UNL A   1      44.880  29.639  31.852  1.00  0.00     0.034 A 
ATOM     51  C   UNL A   1      38.615  32.478  30.594  1.00  0.00     0.034 A 
ATOM     52  C   UNL A   1      44.654  30.921  32.477  1.00  0.00     0.049 A 
ATOM     53  C   UNL A   1      39.633  33.159  31.485  1.00  0.00     0.074 A 
ATOM     54  C   UNL A   1      45.524  31.661  33.260  1.00  0.00     0.029 A 
ATOM     55  N   UNL A   1      43.476  31.653  32.400  1.00  0.00    -0.354 N 
ATOM     56  N   UNL A   1      40.846  32.772  31.807  1.00  0.00    -0.248 NA
ATOM     57  C   UNL A   1      39.236  34.437  32.094  1.00  0.00     0.031 C 
ATOM     58  C   UNL A   1      44.847  32.795  33.723  1.00  0.00     0.029 A 
ATOM     59  C   UNL A   1      43.587  32.816  33.149  1.00  0.00     0.049 A 
ATOM     60  H   UNL A   1      42.679  31.386  31.887  1.00  0.00     0.167 HD
ATOM     61  C   UNL A   1      41.356  33.765  32.643  1.00  0.00     0.074 A 
ATOM     62  C   UNL A   1      40.333  34.783  32.751  1.00  0.00     0.031 C 
ATOM     63  C   UNL A   1      42.560  33.826  33.270  1.00  0.00     0.034 A 
BRANCH  50  64
ATOM     64  C   UNL A   1      46.199  28.943  32.092  1.00  0.00     0.023 A 
ATOM     65  C   UNL A   1      46.372  27.999  33.119  1.00  0.00     0.031 A 
ATOM     66  C   UNL A   1      47.316  29.262  31.298  1.00  0.00     0.131 A 
ATOM     67  C   UNL A   1      47.644  27.465  33.371  1.00  0.00     0.055 A 
ATOM     68  C   UNL A   1      48.561  28.661  31.498  1.00  0.00     0.041 A 
ATOM     69  F   UNL A   1      47.221  30.175  30.319  1.00  0.00    -0.206 F 
ATOM     70  C   UNL A   1      48.735  27.769  32.551  1.00  0.00     0.022 A 
BRANCH  67  71
ATOM     71  S   UNL A   1      47.892  26.498  34.885  1.00  0.00     0.124 S 
ATOM     72  O   UNL A   1      49.339  26.291  34.868  1.00  0.00    -0.237 OA
ATOM     73  O   UNL A   1      47.388  27.395  35.918  1.00  0.00    -0.237 OA
ATOM     74  O   UNL A   1      47.095  25.294  34.657  1.00  0.00    -0.744 OA
ENDBRANCH  67  71
ENDBRANCH  50  64
BRANCH  51  75
ATOM     75  C   UNL A   1      37.287  33.123  30.346  1.00  0.00     0.023 A 
ATOM     76  C   UNL A   1      36.426  33.467  31.402  1.00  0.00     0.031 A 
ATOM     77  C   UNL A   1      36.824  33.332  29.033  1.00  0.00     0.131 A 
ATOM     78  C   UNL A   1      35.137  33.956  31.128  1.00  0.00     0.055 A 
ATOM     79  C   UNL A   1      35.571  33.887  28.766  1.00  0.00     0.041 A 
ATOM     80  F   UNL A   1      37.587  32.996  27.980  1.00  0.00    -0.206 F 
ATOM     81  C   UNL A   1      34.714  34.190  29.817  1.00  0.00     0.022 A 
BRANCH  78  82
ATOM     82  S   UNL A   1      33.973  34.180  32.502  1.00  0.00     0.124 S 
ATOM     83  O   UNL A   1      33.594  32.802  32.795  1.00  0.00    -0.237 OA
ATOM     84  O   UNL A   1      34.804  34.843  33.502  1.00  0.00    -0.237 OA
ATOM     85  O   UNL A   1      32.917  35.007  31.924  1.00  0.00    -0.744 OA
ENDBRANCH  78  82
ENDBRANCH  51  75
BRANCH  63  86
ATOM     86  C   UNL A   1      42.856  35.057  34.099  1.00  0.00     0.023 A 
ATOM     87  C   UNL A   1      43.235  36.279  33.513  1.00  0.00     0.031 A 
ATOM     88  C   UNL A   1      42.756  35.007  35.502  1.00  0.00     0.131 A 
ATOM     89  C   UNL A   1      43.550  37.380  34.327  1.00  0.00     0.055 A 
ATOM     90  C   UNL A   1      43.006  36.123  36.302  1.00  0.00     0.041 A 
ATOM     91  F   UNL A   1      42.403  33.869  36.122  1.00  0.00    -0.206 F 
ATOM     92  C   UNL A   1      43.419  37.316  35.715  1.00  0.00     0.022 A 
BRANCH  89  93
ATOM     93  S   UNL A   1      44.229  38.875  33.552  1.00  0.00     0.124 S 
ATOM     94  O   UNL A   1      43.035  39.698  33.382  1.00  0.00    -0.237 OA
ATOM     95  O   UNL A   1      45.187  39.337  34.551  1.00  0.00    -0.237 OA
ATOM     96  O   UNL A   1      44.821  38.378  32.310  1.00  0.00    -0.744 OA
ENDBRANCH  89  93
ENDBRANCH  63  86
ENDBRANCH  37  38
ENDBRANCH  30  32
ENDBRANCH  29  30
ENDBRANCH  28  29
ENDBRANCH  27  28
ENDBRANCH  26  27
ENDBRANCH  25  26
ENDBRANCH   1  25
TORSDOF 24
ENDMDL
MODEL 3
REMARK VINA RESULT:      -7.0      5.885     12.798
REMARK SMILES C[C@@H](C(=O)OCCOCCOCCOC(=O)c1ccc(-c2c3nc(c(-c4cc(S(=O)(=O)[O-])ccc4F)c4ccc([nH]4)c(-c4cc(S(=O)(=O)[O-])ccc4F)c4nc(c(-c5cc(S(=O)(=O)[O-])ccc5F)c5ccc2[nH]5)C=C4)C=C3)cc1)c1ccc(C[C@@H]2CCC[C@@H]2O)cc1F
REMARK SMILES IDX 9 1 8 2 7 3 6 4 5 5 3 6 4 7 2 8 1 9 80 10 81 11 92 12 82 13
REMARK SMILES IDX 91 14 93 15 83 16 84 17 85 18 86 19 89 20 87 21 88 22 90 23
REMARK SMILES IDX 10 25 11 26 12 27 13 28 14 29 15 30 16 31 17 32 18 33 79 34
REMARK SMILES IDX 19 35 78 36 20 37 21 38 22 39 72 40 23 41 77 42 71 43 73 44
REMARK SMILES IDX 24 45 76 46 70 47 69 48 25 50 57 51 37 52 56 53 38 54 41 55
REMARK SMILES IDX 55 56 74 57 39 58 40 59 54 61 75 62 42 63 26 64 27 65 35 66
REMARK SMILES IDX 28 67 34 68 36 69 33 70 29 71 30 72 31 73 32 74 58 75 59 76
REMARK SMILES IDX 67 77 60 78 66 79 68 80 65 81 61 82 62 83 63 84 64 85 43 86
REMARK SMILES IDX 44 87 52 88 45 89 51 90 53 91 50 92 46 93 47 94 48 95 49 96
REMARK H PARENT 90 24 73 49 41 60
REMARK Flexibility Score: inf
ROOT
ATOM      1  C   UNL A   1      37.785  23.244  25.751  1.00  0.00     0.188 C 
ENDROOT
BRANCH   1   2
ATOM      2  O   UNL A   1      36.599  22.839  26.393  1.00  0.00    -0.376 OA
BRANCH   2   3
ATOM      3  C   UNL A   1      35.351  23.299  25.903  1.00  0.00     0.202 C 
BRANCH   3   4
ATOM      4  C   UNL A   1      35.111  24.611  25.127  1.00  0.00     0.261 C 
BRANCH   4   5
ATOM      5  O   UNL A   1      34.079  25.498  25.582  1.00  0.00    -0.463 OA
BRANCH   5   6
ATOM      6  C   UNL A   1      33.158  25.891  24.655  1.00  0.00     0.313 C 
ATOM      7  O   UNL A   1      33.336  26.816  23.868  1.00  0.00    -0.252 OA
BRANCH   6   8
ATOM      8  C   UNL A   1      31.837  25.115  24.722  1.00  0.00     0.129 C 
ATOM      9  C   UNL A   1      30.965  25.343  25.968  1.00  0.00     0.025 C 
BRANCH   8  10
ATOM     10  C   UNL A   1      31.919  23.625  24.410  1.00  0.00     0.002 A 
ATOM     11  C   UNL A   1      31.642  22.711  25.435  1.00  0.00     0.008 A 
ATOM     12  C   UNL A   1      32.294  23.087  23.177  1.00  0.00     0.127 A 
ATOM     13  C   UNL A   1      31.779  21.331  25.237  1.00  0.00     0.004 A 
ATOM     14  C   UNL A   1      32.485  21.715  22.995  1.00  0.00     0.043 A 
ATOM     15  F   UNL A   1      32.467  23.875  22.112  1.00  0.00    -0.207 F 
ATOM     16  C   UNL A   1      32.270  20.809  24.038  1.00  0.00    -0.045 A 
BRANCH  16  17
ATOM     17  C   UNL A   1      32.438  19.321  23.797  1.00  0.00     0.041 C 
BRANCH  17  18
ATOM     18  C   UNL A   1      33.626  18.513  24.386  1.00  0.00     0.022 C 
ATOM     19  C   UNL A   1      34.237  17.435  23.489  1.00  0.00     0.007 C 
ATOM     20  C   UNL A   1      33.391  17.722  25.674  1.00  0.00     0.117 C 
ATOM     21  C   UNL A   1      33.608  16.102  23.926  1.00  0.00     0.003 C 
ATOM     22  C   UNL A   1      32.824  16.397  25.200  1.00  0.00     0.032 C 
BRANCH  20  23
ATOM     23  O   UNL A   1      32.534  18.357  26.579  1.00  0.00    -0.393 OA
ATOM     24  H   UNL A   1      32.923  18.331  27.466  1.00  0.00     0.210 HD
ENDBRANCH  20  23
ENDBRANCH  17  18
ENDBRANCH  16  17
ENDBRANCH   8  10
ENDBRANCH   6   8
ENDBRANCH   5   6
ENDBRANCH   4   5
ENDBRANCH   3   4
ENDBRANCH   2   3
ENDBRANCH   1   2
BRANCH   1  25
ATOM     25  C   UNL A   1      38.605  24.354  26.425  1.00  0.00     0.188 C 
BRANCH  25  26
ATOM     26  O   UNL A   1      39.430  24.062  27.535  1.00  0.00    -0.376 OA
BRANCH  26  27
ATOM     27  C   UNL A   1      40.004  25.145  28.246  1.00  0.00     0.202 C 
BRANCH  27  28
ATOM     28  C   UNL A   1      41.528  25.361  28.316  1.00  0.00     0.261 C 
BRANCH  28  29
ATOM     29  O   UNL A   1      42.339  24.213  28.609  1.00  0.00    -0.460 OA
BRANCH  29  30
ATOM     30  C   UNL A   1      43.128  23.776  27.595  1.00  0.00     0.338 C 
ATOM     31  O   UNL A   1      42.955  22.772  26.913  1.00  0.00    -0.246 OA
BRANCH  30  32
ATOM     32  C   UNL A   1      44.163  24.784  27.294  1.00  0.00     0.060 A 
ATOM     33  C   UNL A   1      44.933  25.297  28.342  1.00  0.00     0.016 A 
ATOM     34  C   UNL A   1      44.335  25.273  25.999  1.00  0.00     0.016 A 
ATOM     35  C   UNL A   1      45.872  26.298  28.095  1.00  0.00     0.010 A 
ATOM     36  C   UNL A   1      45.249  26.313  25.765  1.00  0.00     0.010 A 
ATOM     37  C   UNL A   1      46.005  26.857  26.818  1.00  0.00    -0.014 A 
BRANCH  37  38
ATOM     38  C   UNL A   1      46.780  28.120  26.633  1.00  0.00     0.031 A 
ATOM     39  C   UNL A   1      48.244  28.027  26.280  1.00  0.00     0.074 A 
ATOM     40  C   UNL A   1      46.196  29.333  26.671  1.00  0.00     0.049 A 
ATOM     41  N   UNL A   1      49.125  28.980  26.109  1.00  0.00    -0.248 NA
ATOM     42  C   UNL A   1      48.779  26.672  26.076  1.00  0.00     0.031 C 
ATOM     43  C   UNL A   1      44.772  29.567  26.889  1.00  0.00     0.029 A 
ATOM     44  N   UNL A   1      46.718  30.593  26.490  1.00  0.00    -0.354 N 
ATOM     45  C   UNL A   1      50.331  28.342  25.833  1.00  0.00     0.074 A 
ATOM     46  C   UNL A   1      50.059  26.919  25.846  1.00  0.00     0.031 C 
ATOM     47  C   UNL A   1      44.526  30.885  26.782  1.00  0.00     0.029 A 
ATOM     48  C   UNL A   1      45.784  31.601  26.571  1.00  0.00     0.049 A 
ATOM     49  H   UNL A   1      47.674  30.759  26.319  1.00  0.00     0.167 HD
ATOM     50  C   UNL A   1      51.551  28.890  25.606  1.00  0.00     0.034 A 
ATOM     51  C   UNL A   1      45.927  32.944  26.515  1.00  0.00     0.034 A 
ATOM     52  C   UNL A   1      51.813  30.310  25.596  1.00  0.00     0.049 A 
ATOM     53  C   UNL A   1      47.314  33.531  26.353  1.00  0.00     0.074 A 
ATOM     54  C   UNL A   1      53.021  30.960  25.402  1.00  0.00     0.029 A 
ATOM     55  N   UNL A   1      50.862  31.302  25.794  1.00  0.00    -0.354 N 
ATOM     56  N   UNL A   1      48.459  32.917  26.161  1.00  0.00    -0.248 NA
ATOM     57  C   UNL A   1      47.428  34.996  26.419  1.00  0.00     0.031 C 
ATOM     58  C   UNL A   1      52.816  32.334  25.565  1.00  0.00     0.029 A 
ATOM     59  C   UNL A   1      51.462  32.553  25.762  1.00  0.00     0.049 A 
ATOM     60  H   UNL A   1      49.901  31.141  25.936  1.00  0.00     0.167 HD
ATOM     61  C   UNL A   1      49.422  33.922  26.071  1.00  0.00     0.074 A 
ATOM     62  C   UNL A   1      48.721  35.182  26.198  1.00  0.00     0.031 C 
ATOM     63  C   UNL A   1      50.766  33.812  25.904  1.00  0.00     0.034 A 
BRANCH  50  64
ATOM     64  C   UNL A   1      52.715  27.941  25.441  1.00  0.00     0.023 A 
ATOM     65  C   UNL A   1      53.522  27.551  26.523  1.00  0.00     0.031 A 
ATOM     66  C   UNL A   1      53.042  27.447  24.164  1.00  0.00     0.131 A 
ATOM     67  C   UNL A   1      54.657  26.757  26.298  1.00  0.00     0.055 A 
ATOM     68  C   UNL A   1      54.122  26.585  23.961  1.00  0.00     0.041 A 
ATOM     69  F   UNL A   1      52.325  27.804  23.088  1.00  0.00    -0.206 F 
ATOM     70  C   UNL A   1      54.948  26.249  25.029  1.00  0.00     0.022 A 
BRANCH  67  71
ATOM     71  S   UNL A   1      55.839  26.534  27.655  1.00  0.00     0.124 S 
ATOM     72  O   UNL A   1      55.132  25.578  28.506  1.00  0.00    -0.237 OA
ATOM     73  O   UNL A   1      57.018  26.023  26.965  1.00  0.00    -0.237 OA
ATOM     74  O   UNL A   1      55.974  27.876  28.217  1.00  0.00    -0.744 OA
ENDBRANCH  67  71
ENDBRANCH  50  64
BRANCH  51  75
ATOM     75  C   UNL A   1      44.748  33.848  26.701  1.00  0.00     0.023 A 
ATOM     76  C   UNL A   1      44.213  34.107  27.975  1.00  0.00     0.031 A 
ATOM     77  C   UNL A   1      44.087  34.405  25.591  1.00  0.00     0.131 A 
ATOM     78  C   UNL A   1      43.032  34.860  28.101  1.00  0.00     0.055 A 
ATOM     79  C   UNL A   1      42.956  35.213  25.727  1.00  0.00     0.041 A 
ATOM     80  F   UNL A   1      44.532  34.170  24.345  1.00  0.00    -0.206 F 
ATOM     81  C   UNL A   1      42.414  35.433  26.987  1.00  0.00     0.022 A 
BRANCH  78  82
ATOM     82  S   UNL A   1      42.244  34.989  29.732  1.00  0.00     0.124 S 
ATOM     83  O   UNL A   1      42.463  33.651  30.272  1.00  0.00    -0.237 OA
ATOM     84  O   UNL A   1      43.007  36.065  30.355  1.00  0.00    -0.237 OA
ATOM     85  O   UNL A   1      40.855  35.313  29.415  1.00  0.00    -0.744 OA
ENDBRANCH  78  82
ENDBRANCH  51  75
BRANCH  63  86
ATOM     86  C   UNL A   1      51.567  35.092  25.807  1.00  0.00     0.023 A 
ATOM     87  C   UNL A   1      51.883  35.863  26.940  1.00  0.00     0.031 A 
ATOM     88  C   UNL A   1      52.026  35.547  24.557  1.00  0.00     0.131 A 
ATOM     89  C   UNL A   1      52.585  37.072  26.794  1.00  0.00     0.055 A 
ATOM     90  C   UNL A   1      52.780  36.714  24.426  1.00  0.00     0.041 A 
ATOM     91  F   UNL A   1      51.754  34.857  23.437  1.00  0.00    -0.206 F 
ATOM     92  C   UNL A   1      53.052  37.491  25.547  1.00  0.00     0.022 A 
BRANCH  89  93
ATOM     93  S   UNL A   1      52.798  38.141  28.245  1.00  0.00     0.124 S 
ATOM     94  O   UNL A   1      54.115  37.738  28.729  1.00  0.00    -0.237 OA
ATOM     95  O   UNL A   1      52.711  39.477  27.665  1.00  0.00    -0.237 OA
ATOM     96  O   UNL A   1      51.680  37.769  29.112  1.00  0.00    -0.744 OA
ENDBRANCH  89  93
ENDBRANCH  63  86
ENDBRANCH  37  38
ENDBRANCH  30  32
ENDBRANCH  29  30
ENDBRANCH  28  29
ENDBRANCH  27  28
ENDBRANCH  26  27
ENDBRANCH  25  26
ENDBRANCH   1  25
TORSDOF 24
ENDMDL
