MODEL 1
REMARK VINA RESULT:     -10.5      0.000      0.000
REMARK SMILES Cc1cc(C)c2c(OCCCC(=O)OCCOCCOCCOC(=O)c3ccc(-c4c5nc(c(-c6cc(S(=O)(=O)[O-])ccc6F)c6ccc([nH]6)c(-c6cc(S(=O)(=O)[O-])ccc6F)c6nc(c(-c7cc(S(=O)(=O)[O-])ccc7F)c7ccc4[nH]7)C=C6)C=C5)cc3)nsc2n1
REMARK SMILES IDX 18 1 17 2 16 3 15 4 14 5 12 6 13 7 11 8 10 9 9 10 8 11 7 12
REMARK SMILES IDX 1 13 2 14 3 15 92 16 4 17 91 18 5 19 6 20 90 21 89 22 19 23
REMARK SMILES IDX 20 24 21 25 22 26 23 27 24 28 25 29 26 30 27 31 88 32 28 33
REMARK SMILES IDX 87 34 29 35 30 36 31 37 81 38 32 39 86 40 80 41 82 42 33 43
REMARK SMILES IDX 85 44 79 45 78 46 34 48 66 49 46 50 65 51 47 52 50 53 64 54
REMARK SMILES IDX 83 55 48 56 49 57 63 59 84 60 51 61 35 62 36 63 44 64 37 65
REMARK SMILES IDX 43 66 45 67 42 68 38 69 39 70 40 71 41 72 67 73 68 74 76 75
REMARK SMILES IDX 69 76 75 77 77 78 74 79 70 80 71 81 72 82 73 83 52 84 53 85
REMARK SMILES IDX 61 86 54 87 60 88 62 89 59 90 55 91 56 92 57 93 58 94
REMARK H PARENT 82 47 50 58
REMARK Flexibility Score: inf
ROOT
ATOM      1  C   UNL A   1      32.902  29.330  24.886  1.00  0.00     0.188 C 
ENDROOT
BRANCH   1   2
ATOM      2  O   UNL A   1      31.805  29.019  24.045  1.00  0.00    -0.376 OA
BRANCH   2   3
ATOM      3  C   UNL A   1      32.113  28.727  22.693  1.00  0.00     0.202 C 
BRANCH   3   4
ATOM      4  C   UNL A   1      33.555  28.343  22.324  1.00  0.00     0.261 C 
BRANCH   4   5
ATOM      5  O   UNL A   1      33.962  26.959  22.563  1.00  0.00    -0.463 OA
BRANCH   5   6
ATOM      6  C   UNL A   1      33.193  25.967  22.057  1.00  0.00     0.305 C 
ATOM      7  O   UNL A   1      33.278  25.609  20.883  1.00  0.00    -0.252 OA
BRANCH   6   8
ATOM      8  C   UNL A   1      32.133  25.327  22.974  1.00  0.00     0.126 C 
BRANCH   8   9
ATOM      9  C   UNL A   1      31.879  25.514  24.482  1.00  0.00     0.053 C 
BRANCH   9  10
ATOM     10  C   UNL A   1      30.732  24.880  25.296  1.00  0.00     0.232 C 
BRANCH  10  11
ATOM     11  O   UNL A   1      30.663  23.488  25.581  1.00  0.00    -0.477 OA
BRANCH  11  12
ATOM     12  C   UNL A   1      31.732  22.866  26.118  1.00  0.00     0.235 A 
ATOM     13  C   UNL A   1      36.898  21.809  24.583  1.00  0.00     0.067 C 
ATOM     14  C   UNL A   1      35.462  21.614  24.984  1.00  0.00     0.039 A 
ATOM     15  C   UNL A   1      34.504  21.358  24.010  1.00  0.00     0.027 A 
ATOM     16  N   UNL A   1      35.151  21.875  26.263  1.00  0.00    -0.240 NA
ATOM     17  C   UNL A   1      33.137  21.629  24.232  1.00  0.00    -0.034 A 
ATOM     18  C   UNL A   1      33.842  22.109  26.463  1.00  0.00     0.147 A 
ATOM     19  C   UNL A   1      32.158  21.459  23.102  1.00  0.00     0.045 C 
ATOM     20  C   UNL A   1      32.823  22.152  25.510  1.00  0.00     0.078 A 
ATOM     21  S   UNL A   1      33.204  22.457  28.001  1.00  0.00    -0.012 S 
ATOM     22  N   UNL A   1      31.727  22.953  27.447  1.00  0.00    -0.153 NA
ENDBRANCH  11  12
ENDBRANCH  10  11
ENDBRANCH   9  10
ENDBRANCH   8   9
ENDBRANCH   6   8
ENDBRANCH   5   6
ENDBRANCH   4   5
ENDBRANCH   3   4
ENDBRANCH   2   3
ENDBRANCH   1   2
BRANCH   1  23
ATOM     23  C   UNL A   1      32.620  30.162  26.157  1.00  0.00     0.188 C 
BRANCH  23  24
ATOM     24  O   UNL A   1      33.503  29.997  27.252  1.00  0.00    -0.376 OA
BRANCH  24  25
ATOM     25  C   UNL A   1      34.166  31.075  27.901  1.00  0.00     0.202 C 
BRANCH  25  26
ATOM     26  C   UNL A   1      35.595  31.055  28.443  1.00  0.00     0.261 C 
BRANCH  26  27
ATOM     27  O   UNL A   1      36.095  29.790  28.784  1.00  0.00    -0.460 OA
BRANCH  27  28
ATOM     28  C   UNL A   1      37.230  29.823  29.515  1.00  0.00     0.338 C 
ATOM     29  O   UNL A   1      37.415  30.418  30.553  1.00  0.00    -0.246 OA
BRANCH  28  30
ATOM     30  C   UNL A   1      38.188  28.936  28.849  1.00  0.00     0.060 A 
ATOM     31  C   UNL A   1      38.671  27.854  29.577  1.00  0.00     0.016 A 
ATOM     32  C   UNL A   1      38.735  29.321  27.614  1.00  0.00     0.016 A 
ATOM     33  C   UNL A   1      39.915  27.382  29.239  1.00  0.00     0.010 A 
ATOM     34  C   UNL A   1      39.975  28.855  27.284  1.00  0.00     0.010 A 
ATOM     35  C   UNL A   1      40.596  28.005  28.186  1.00  0.00    -0.014 A 
BRANCH  35  36
ATOM     36  C   UNL A   1      41.985  27.688  27.976  1.00  0.00     0.031 A 
ATOM     37  C   UNL A   1      42.122  26.396  27.293  1.00  0.00     0.074 A 
ATOM     38  C   UNL A   1      42.992  28.495  28.362  1.00  0.00     0.049 A 
ATOM     39  N   UNL A   1      42.290  25.260  27.877  1.00  0.00    -0.248 NA
ATOM     40  C   UNL A   1      41.739  26.295  25.877  1.00  0.00     0.031 C 
ATOM     41  C   UNL A   1      42.932  29.849  28.918  1.00  0.00     0.029 A 
ATOM     42  N   UNL A   1      44.330  28.258  28.300  1.00  0.00    -0.354 N 
ATOM     43  C   UNL A   1      42.368  24.342  26.849  1.00  0.00     0.074 A 
ATOM     44  C   UNL A   1      41.752  24.970  25.712  1.00  0.00     0.031 C 
ATOM     45  C   UNL A   1      44.180  30.381  28.956  1.00  0.00     0.029 A 
ATOM     46  C   UNL A   1      45.141  29.362  28.562  1.00  0.00     0.049 A 
ATOM     47  H   UNL A   1      44.698  27.371  28.086  1.00  0.00     0.167 HD
ATOM     48  C   UNL A   1      43.255  23.317  26.945  1.00  0.00     0.034 A 
ATOM     49  C   UNL A   1      46.504  29.410  28.501  1.00  0.00     0.034 A 
ATOM     50  C   UNL A   1      43.665  23.115  28.322  1.00  0.00     0.049 A 
ATOM     51  C   UNL A   1      46.959  28.016  28.738  1.00  0.00     0.074 A 
ATOM     52  C   UNL A   1      42.998  22.839  29.501  1.00  0.00     0.029 A 
ATOM     53  N   UNL A   1      44.890  23.620  28.697  1.00  0.00    -0.354 N 
ATOM     54  N   UNL A   1      46.776  27.399  29.874  1.00  0.00    -0.248 NA
ATOM     55  C   UNL A   1      47.132  27.154  27.579  1.00  0.00     0.031 C 
ATOM     56  C   UNL A   1      43.660  23.617  30.498  1.00  0.00     0.029 A 
ATOM     57  C   UNL A   1      44.747  24.262  29.904  1.00  0.00     0.049 A 
ATOM     58  H   UNL A   1      45.728  23.535  28.188  1.00  0.00     0.167 HD
ATOM     59  C   UNL A   1      46.371  26.120  29.521  1.00  0.00     0.074 A 
ATOM     60  C   UNL A   1      46.690  26.002  28.097  1.00  0.00     0.031 C 
ATOM     61  C   UNL A   1      45.557  25.388  30.336  1.00  0.00     0.034 A 
BRANCH  48  62
ATOM     62  C   UNL A   1      44.078  22.832  25.777  1.00  0.00     0.023 A 
ATOM     63  C   UNL A   1      44.070  21.449  25.528  1.00  0.00     0.031 A 
ATOM     64  C   UNL A   1      45.072  23.577  25.095  1.00  0.00     0.131 A 
ATOM     65  C   UNL A   1      45.058  20.860  24.724  1.00  0.00     0.055 A 
ATOM     66  C   UNL A   1      46.016  22.991  24.251  1.00  0.00     0.041 A 
ATOM     67  F   UNL A   1      45.255  24.889  25.269  1.00  0.00    -0.206 F 
ATOM     68  C   UNL A   1      46.032  21.621  24.083  1.00  0.00     0.022 A 
BRANCH  65  69
ATOM     69  S   UNL A   1      45.122  19.056  24.641  1.00  0.00     0.124 S 
ATOM     70  O   UNL A   1      45.035  18.828  23.203  1.00  0.00    -0.237 OA
ATOM     71  O   UNL A   1      46.412  18.773  25.263  1.00  0.00    -0.237 OA
ATOM     72  O   UNL A   1      43.954  18.642  25.415  1.00  0.00    -0.744 OA
ENDBRANCH  65  69
ENDBRANCH  48  62
BRANCH  49  73
ATOM     73  C   UNL A   1      47.370  30.447  27.851  1.00  0.00     0.023 A 
ATOM     74  C   UNL A   1      46.832  31.574  27.176  1.00  0.00     0.031 A 
ATOM     75  C   UNL A   1      48.756  30.486  28.115  1.00  0.00     0.131 A 
ATOM     76  C   UNL A   1      47.661  32.670  26.822  1.00  0.00     0.055 A 
ATOM     77  C   UNL A   1      49.566  31.574  27.771  1.00  0.00     0.041 A 
ATOM     78  F   UNL A   1      49.363  29.504  28.797  1.00  0.00    -0.206 F 
ATOM     79  C   UNL A   1      49.020  32.677  27.135  1.00  0.00     0.022 A 
BRANCH  76  80
ATOM     80  S   UNL A   1      46.965  34.169  26.039  1.00  0.00     0.124 S 
ATOM     81  O   UNL A   1      48.053  34.591  25.164  1.00  0.00    -0.237 OA
ATOM     82  O   UNL A   1      45.767  33.660  25.382  1.00  0.00    -0.237 OA
ATOM     83  O   UNL A   1      46.708  35.059  27.172  1.00  0.00    -0.744 OA
ENDBRANCH  76  80
ENDBRANCH  49  73
BRANCH  61  84
ATOM     84  C   UNL A   1      45.347  25.856  31.763  1.00  0.00     0.023 A 
ATOM     85  C   UNL A   1      46.251  25.654  32.835  1.00  0.00     0.031 A 
ATOM     86  C   UNL A   1      44.245  26.699  31.987  1.00  0.00     0.131 A 
ATOM     87  C   UNL A   1      46.030  26.305  34.070  1.00  0.00     0.055 A 
ATOM     88  C   UNL A   1      44.045  27.355  33.199  1.00  0.00     0.041 A 
ATOM     89  F   UNL A   1      43.371  26.946  30.997  1.00  0.00    -0.206 F 
ATOM     90  C   UNL A   1      44.939  27.163  34.245  1.00  0.00     0.022 A 
BRANCH  87  91
ATOM     91  S   UNL A   1      47.192  26.092  35.461  1.00  0.00     0.124 S 
ATOM     92  O   UNL A   1      48.170  27.152  35.242  1.00  0.00    -0.237 OA
ATOM     93  O   UNL A   1      46.332  26.244  36.630  1.00  0.00    -0.237 OA
ATOM     94  O   UNL A   1      47.714  24.735  35.269  1.00  0.00    -0.744 OA
ENDBRANCH  87  91
ENDBRANCH  61  84
ENDBRANCH  35  36
ENDBRANCH  28  30
ENDBRANCH  27  28
ENDBRANCH  26  27
ENDBRANCH  25  26
ENDBRANCH  24  25
ENDBRANCH  23  24
ENDBRANCH   1  23
TORSDOF 24
ENDMDL
MODEL 2
REMARK VINA RESULT:     -10.4      1.559      2.133
REMARK SMILES Cc1cc(C)c2c(OCCCC(=O)OCCOCCOCCOC(=O)c3ccc(-c4c5nc(c(-c6cc(S(=O)(=O)[O-])ccc6F)c6ccc([nH]6)c(-c6cc(S(=O)(=O)[O-])ccc6F)c6nc(c(-c7cc(S(=O)(=O)[O-])ccc7F)c7ccc4[nH]7)C=C6)C=C5)cc3)nsc2n1
REMARK SMILES IDX 18 1 17 2 16 3 15 4 14 5 12 6 13 7 11 8 10 9 9 10 8 11 7 12
REMARK SMILES IDX 1 13 2 14 3 15 92 16 4 17 91 18 5 19 6 20 90 21 89 22 19 23
REMARK SMILES IDX 20 24 21 25 22 26 23 27 24 28 25 29 26 30 27 31 88 32 28 33
REMARK SMILES IDX 87 34 29 35 30 36 31 37 81 38 32 39 86 40 80 41 82 42 33 43
REMARK SMILES IDX 85 44 79 45 78 46 34 48 66 49 46 50 65 51 47 52 50 53 64 54
REMARK SMILES IDX 83 55 48 56 49 57 63 59 84 60 51 61 35 62 36 63 44 64 37 65
REMARK SMILES IDX 43 66 45 67 42 68 38 69 39 70 40 71 41 72 67 73 68 74 76 75
REMARK SMILES IDX 69 76 75 77 77 78 74 79 70 80 71 81 72 82 73 83 52 84 53 85
REMARK SMILES IDX 61 86 54 87 60 88 62 89 59 90 55 91 56 92 57 93 58 94
REMARK H PARENT 82 47 50 58
REMARK Flexibility Score: inf
ROOT
ATOM      1  C   UNL A   1      32.476  28.997  24.038  1.00  0.00     0.188 C 
ENDROOT
BRANCH   1   2
ATOM      2  O   UNL A   1      31.221  29.138  23.398  1.00  0.00    -0.376 OA
BRANCH   2   3
ATOM      3  C   UNL A   1      30.712  27.984  22.753  1.00  0.00     0.202 C 
BRANCH   3   4
ATOM      4  C   UNL A   1      31.575  26.712  22.712  1.00  0.00     0.261 C 
BRANCH   4   5
ATOM      5  O   UNL A   1      31.160  25.593  23.556  1.00  0.00    -0.463 OA
BRANCH   5   6
ATOM      6  C   UNL A   1      30.835  25.847  24.846  1.00  0.00     0.305 C 
ATOM      7  O   UNL A   1      29.690  26.144  25.184  1.00  0.00    -0.252 OA
BRANCH   6   8
ATOM      8  C   UNL A   1      31.960  25.832  25.898  1.00  0.00     0.126 C 
BRANCH   8   9
ATOM      9  C   UNL A   1      33.487  25.936  25.722  1.00  0.00     0.053 C 
BRANCH   9  10
ATOM     10  C   UNL A   1      34.327  25.233  24.635  1.00  0.00     0.232 C 
BRANCH  10  11
ATOM     11  O   UNL A   1      34.978  23.986  24.847  1.00  0.00    -0.477 OA
BRANCH  11  12
ATOM     12  C   UNL A   1      34.315  22.986  25.461  1.00  0.00     0.235 A 
ATOM     13  C   UNL A   1      32.681  17.909  24.149  1.00  0.00     0.067 C 
ATOM     14  C   UNL A   1      32.648  19.363  24.531  1.00  0.00     0.039 A 
ATOM     15  C   UNL A   1      32.392  20.324  23.560  1.00  0.00     0.027 A 
ATOM     16  N   UNL A   1      33.047  19.672  25.774  1.00  0.00    -0.240 NA
ATOM     17  C   UNL A   1      32.799  21.665  23.724  1.00  0.00    -0.034 A 
ATOM     18  C   UNL A   1      33.411  20.958  25.922  1.00  0.00     0.147 A 
ATOM     19  C   UNL A   1      32.615  22.636  22.590  1.00  0.00     0.045 C 
ATOM     20  C   UNL A   1      33.458  21.953  24.944  1.00  0.00     0.078 A 
ATOM     21  S   UNL A   1      33.948  21.587  27.408  1.00  0.00    -0.012 S 
ATOM     22  N   UNL A   1      34.520  23.005  26.777  1.00  0.00    -0.153 NA
ENDBRANCH  11  12
ENDBRANCH  10  11
ENDBRANCH   9  10
ENDBRANCH   8   9
ENDBRANCH   6   8
ENDBRANCH   5   6
ENDBRANCH   4   5
ENDBRANCH   3   4
ENDBRANCH   2   3
ENDBRANCH   1   2
BRANCH   1  23
ATOM     23  C   UNL A   1      32.660  29.675  25.415  1.00  0.00     0.188 C 
BRANCH  23  24
ATOM     24  O   UNL A   1      33.860  29.404  26.118  1.00  0.00    -0.376 OA
BRANCH  24  25
ATOM     25  C   UNL A   1      34.139  29.897  27.423  1.00  0.00     0.202 C 
BRANCH  25  26
ATOM     26  C   UNL A   1      35.497  30.382  27.928  1.00  0.00     0.261 C 
BRANCH  26  27
ATOM     27  O   UNL A   1      36.141  29.535  28.842  1.00  0.00    -0.460 OA
BRANCH  27  28
ATOM     28  C   UNL A   1      37.366  29.961  29.221  1.00  0.00     0.338 C 
ATOM     29  O   UNL A   1      37.624  30.901  29.937  1.00  0.00    -0.246 OA
BRANCH  28  30
ATOM     30  C   UNL A   1      38.335  29.017  28.654  1.00  0.00     0.060 A 
ATOM     31  C   UNL A   1      38.867  28.057  29.508  1.00  0.00     0.016 A 
ATOM     32  C   UNL A   1      38.840  29.245  27.365  1.00  0.00     0.016 A 
ATOM     33  C   UNL A   1      40.116  27.578  29.204  1.00  0.00     0.010 A 
ATOM     34  C   UNL A   1      40.085  28.773  27.066  1.00  0.00     0.010 A 
ATOM     35  C   UNL A   1      40.754  28.069  28.057  1.00  0.00    -0.014 A 
BRANCH  35  36
ATOM     36  C   UNL A   1      42.146  27.764  27.854  1.00  0.00     0.031 A 
ATOM     37  C   UNL A   1      42.299  26.450  27.218  1.00  0.00     0.074 A 
ATOM     38  C   UNL A   1      43.143  28.599  28.207  1.00  0.00     0.049 A 
ATOM     39  N   UNL A   1      42.485  25.339  27.843  1.00  0.00    -0.248 NA
ATOM     40  C   UNL A   1      41.913  26.292  25.808  1.00  0.00     0.031 C 
ATOM     41  C   UNL A   1      43.065  29.972  28.714  1.00  0.00     0.029 A 
ATOM     42  N   UNL A   1      44.484  28.379  28.149  1.00  0.00    -0.354 N 
ATOM     43  C   UNL A   1      42.573  24.385  26.849  1.00  0.00     0.074 A 
ATOM     44  C   UNL A   1      41.944  24.962  25.692  1.00  0.00     0.031 C 
ATOM     45  C   UNL A   1      44.306  30.522  28.728  1.00  0.00     0.029 A 
ATOM     46  C   UNL A   1      45.280  29.503  28.368  1.00  0.00     0.049 A 
ATOM     47  H   UNL A   1      44.864  27.489  27.967  1.00  0.00     0.167 HD
ATOM     48  C   UNL A   1      43.474  23.377  26.979  1.00  0.00     0.034 A 
ATOM     49  C   UNL A   1      46.642  29.567  28.300  1.00  0.00     0.034 A 
ATOM     50  C   UNL A   1      43.891  23.231  28.361  1.00  0.00     0.049 A 
ATOM     51  C   UNL A   1      47.117  28.190  28.586  1.00  0.00     0.074 A 
ATOM     52  C   UNL A   1      43.231  22.989  29.552  1.00  0.00     0.029 A 
ATOM     53  N   UNL A   1      45.110  23.766  28.714  1.00  0.00    -0.354 N 
ATOM     54  N   UNL A   1      46.946  27.611  29.745  1.00  0.00    -0.248 NA
ATOM     55  C   UNL A   1      47.299  27.288  27.459  1.00  0.00     0.031 C 
ATOM     56  C   UNL A   1      43.885  23.813  30.517  1.00  0.00     0.029 A 
ATOM     57  C   UNL A   1      44.961  24.450  29.896  1.00  0.00     0.049 A 
ATOM     58  H   UNL A   1      45.947  23.675  28.204  1.00  0.00     0.167 HD
ATOM     59  C   UNL A   1      46.558  26.316  29.440  1.00  0.00     0.074 A 
ATOM     60  C   UNL A   1      46.874  26.150  28.020  1.00  0.00     0.031 C 
ATOM     61  C   UNL A   1      45.757  25.602  30.284  1.00  0.00     0.034 A 
BRANCH  48  62
ATOM     62  C   UNL A   1      44.301  22.860  25.826  1.00  0.00     0.023 A 
ATOM     63  C   UNL A   1      44.170  21.497  25.516  1.00  0.00     0.031 A 
ATOM     64  C   UNL A   1      45.393  23.531  25.223  1.00  0.00     0.131 A 
ATOM     65  C   UNL A   1      45.132  20.846  24.729  1.00  0.00     0.055 A 
ATOM     66  C   UNL A   1      46.314  22.890  24.394  1.00  0.00     0.041 A 
ATOM     67  F   UNL A   1      45.694  24.810  25.463  1.00  0.00    -0.206 F 
ATOM     68  C   UNL A   1      46.205  21.532  24.165  1.00  0.00     0.022 A 
BRANCH  65  69
ATOM     69  S   UNL A   1      45.025  19.050  24.566  1.00  0.00     0.124 S 
ATOM     70  O   UNL A   1      43.811  18.761  25.319  1.00  0.00    -0.237 OA
ATOM     71  O   UNL A   1      44.943  18.884  23.118  1.00  0.00    -0.237 OA
ATOM     72  O   UNL A   1      46.269  18.583  25.175  1.00  0.00    -0.744 OA
ENDBRANCH  65  69
ENDBRANCH  48  62
BRANCH  49  73
ATOM     73  C   UNL A   1      47.491  30.592  27.609  1.00  0.00     0.023 A 
ATOM     74  C   UNL A   1      46.947  31.770  27.034  1.00  0.00     0.031 A 
ATOM     75  C   UNL A   1      48.897  30.558  27.739  1.00  0.00     0.131 A 
ATOM     76  C   UNL A   1      47.790  32.842  26.644  1.00  0.00     0.055 A 
ATOM     77  C   UNL A   1      49.722  31.623  27.361  1.00  0.00     0.041 A 
ATOM     78  F   UNL A   1      49.517  29.521  28.320  1.00  0.00    -0.206 F 
ATOM     79  C   UNL A   1      49.172  32.775  26.824  1.00  0.00     0.022 A 
BRANCH  76  80
ATOM     80  S   UNL A   1      47.097  34.402  25.991  1.00  0.00     0.124 S 
ATOM     81  O   UNL A   1      45.998  33.926  25.158  1.00  0.00    -0.237 OA
ATOM     82  O   UNL A   1      46.725  35.120  27.204  1.00  0.00    -0.237 OA
ATOM     83  O   UNL A   1      48.215  34.991  25.252  1.00  0.00    -0.744 OA
ENDBRANCH  76  80
ENDBRANCH  49  73
BRANCH  61  84
ATOM     84  C   UNL A   1      45.545  26.119  31.694  1.00  0.00     0.023 A 
ATOM     85  C   UNL A   1      44.357  26.718  32.179  1.00  0.00     0.031 A 
ATOM     86  C   UNL A   1      46.556  25.824  32.625  1.00  0.00     0.131 A 
ATOM     87  C   UNL A   1      44.219  26.983  33.561  1.00  0.00     0.055 A 
ATOM     88  C   UNL A   1      46.406  26.066  33.988  1.00  0.00     0.041 A 
ATOM     89  F   UNL A   1      47.693  25.232  32.223  1.00  0.00    -0.206 F 
ATOM     90  C   UNL A   1      45.235  26.644  34.462  1.00  0.00     0.022 A 
BRANCH  87  91
ATOM     91  S   UNL A   1      42.689  27.723  34.224  1.00  0.00     0.124 S 
ATOM     92  O   UNL A   1      42.153  26.669  35.078  1.00  0.00    -0.237 OA
ATOM     93  O   UNL A   1      43.175  28.918  34.908  1.00  0.00    -0.237 OA
ATOM     94  O   UNL A   1      41.891  27.997  33.025  1.00  0.00    -0.744 OA
ENDBRANCH  87  91
ENDBRANCH  61  84
ENDBRANCH  35  36
ENDBRANCH  28  30
ENDBRANCH  27  28
ENDBRANCH  26  27
ENDBRANCH  25  26
ENDBRANCH  24  25
ENDBRANCH  23  24
ENDBRANCH   1  23
TORSDOF 24
ENDMDL
MODEL 3
REMARK VINA RESULT:      -9.9      2.877      8.684
REMARK SMILES Cc1cc(C)c2c(OCCCC(=O)OCCOCCOCCOC(=O)c3ccc(-c4c5nc(c(-c6cc(S(=O)(=O)[O-])ccc6F)c6ccc([nH]6)c(-c6cc(S(=O)(=O)[O-])ccc6F)c6nc(c(-c7cc(S(=O)(=O)[O-])ccc7F)c7ccc4[nH]7)C=C6)C=C5)cc3)nsc2n1
REMARK SMILES IDX 18 1 17 2 16 3 15 4 14 5 12 6 13 7 11 8 10 9 9 10 8 11 7 12
REMARK SMILES IDX 1 13 2 14 3 15 92 16 4 17 91 18 5 19 6 20 90 21 89 22 19 23
REMARK SMILES IDX 20 24 21 25 22 26 23 27 24 28 25 29 26 30 27 31 88 32 28 33
REMARK SMILES IDX 87 34 29 35 30 36 31 37 81 38 32 39 86 40 80 41 82 42 33 43
REMARK SMILES IDX 85 44 79 45 78 46 34 48 66 49 46 50 65 51 47 52 50 53 64 54
REMARK SMILES IDX 83 55 48 56 49 57 63 59 84 60 51 61 35 62 36 63 44 64 37 65
REMARK SMILES IDX 43 66 45 67 42 68 38 69 39 70 40 71 41 72 67 73 68 74 76 75
REMARK SMILES IDX 69 76 75 77 77 78 74 79 70 80 71 81 72 82 73 83 52 84 53 85
REMARK SMILES IDX 61 86 54 87 60 88 62 89 59 90 55 91 56 92 57 93 58 94
REMARK H PARENT 82 47 50 58
REMARK Flexibility Score: inf
ROOT
ATOM      1  C   UNL A   1      42.262  19.343  27.432  1.00  0.00     0.188 C 
ENDROOT
BRANCH   1   2
ATOM      2  O   UNL A   1      42.464  20.653  26.933  1.00  0.00    -0.376 OA
BRANCH   2   3
ATOM      3  C   UNL A   1      41.423  21.190  26.136  1.00  0.00     0.202 C 
BRANCH   3   4
ATOM      4  C   UNL A   1      40.038  21.405  26.768  1.00  0.00     0.261 C 
BRANCH   4   5
ATOM      5  O   UNL A   1      39.130  22.332  26.094  1.00  0.00    -0.463 OA
BRANCH   5   6
ATOM      6  C   UNL A   1      38.110  21.818  25.368  1.00  0.00     0.305 C 
ATOM      7  O   UNL A   1      38.031  20.617  25.111  1.00  0.00    -0.252 OA
BRANCH   6   8
ATOM      8  C   UNL A   1      37.063  22.791  24.793  1.00  0.00     0.126 C 
BRANCH   8   9
ATOM      9  C   UNL A   1      36.240  22.711  23.493  1.00  0.00     0.053 C 
BRANCH   9  10
ATOM     10  C   UNL A   1      34.925  23.463  23.202  1.00  0.00     0.232 C 
BRANCH  10  11
ATOM     11  O   UNL A   1      33.901  23.636  24.175  1.00  0.00    -0.477 OA
BRANCH  11  12
ATOM     12  C   UNL A   1      33.535  22.594  24.948  1.00  0.00     0.235 A 
ATOM     13  C   UNL A   1      33.321  17.133  24.412  1.00  0.00     0.067 C 
ATOM     14  C   UNL A   1      32.900  18.564  24.594  1.00  0.00     0.039 A 
ATOM     15  C   UNL A   1      32.388  19.274  23.513  1.00  0.00     0.027 A 
ATOM     16  N   UNL A   1      33.209  19.142  25.765  1.00  0.00    -0.240 NA
ATOM     17  C   UNL A   1      32.420  20.684  23.475  1.00  0.00    -0.034 A 
ATOM     18  C   UNL A   1      33.214  20.486  25.720  1.00  0.00     0.147 A 
ATOM     19  C   UNL A   1      31.974  21.399  22.229  1.00  0.00     0.045 C 
ATOM     20  C   UNL A   1      32.985  21.308  24.614  1.00  0.00     0.078 A 
ATOM     21  S   UNL A   1      33.570  21.441  27.081  1.00  0.00    -0.012 S 
ATOM     22  N   UNL A   1      33.736  22.855  26.239  1.00  0.00    -0.153 NA
ENDBRANCH  11  12
ENDBRANCH  10  11
ENDBRANCH   9  10
ENDBRANCH   8   9
ENDBRANCH   6   8
ENDBRANCH   5   6
ENDBRANCH   4   5
ENDBRANCH   3   4
ENDBRANCH   2   3
ENDBRANCH   1   2
BRANCH   1  23
ATOM     23  C   UNL A   1      42.642  18.159  26.515  1.00  0.00     0.188 C 
BRANCH  23  24
ATOM     24  O   UNL A   1      44.007  18.023  26.159  1.00  0.00    -0.376 OA
BRANCH  24  25
ATOM     25  C   UNL A   1      44.565  18.541  24.958  1.00  0.00     0.202 C 
BRANCH  25  26
ATOM     26  C   UNL A   1      45.591  19.669  24.858  1.00  0.00     0.261 C 
BRANCH  26  27
ATOM     27  O   UNL A   1      45.120  20.869  24.305  1.00  0.00    -0.460 OA
BRANCH  27  28
ATOM     28  C   UNL A   1      45.805  21.964  24.699  1.00  0.00     0.338 C 
ATOM     29  O   UNL A   1      46.935  22.271  24.392  1.00  0.00    -0.246 OA
BRANCH  28  30
ATOM     30  C   UNL A   1      44.890  22.762  25.521  1.00  0.00     0.060 A 
ATOM     31  C   UNL A   1      43.876  23.450  24.864  1.00  0.00     0.016 A 
ATOM     32  C   UNL A   1      45.191  22.971  26.876  1.00  0.00     0.016 A 
ATOM     33  C   UNL A   1      43.405  24.589  25.468  1.00  0.00     0.010 A 
ATOM     34  C   UNL A   1      44.727  24.107  27.472  1.00  0.00     0.010 A 
ATOM     35  C   UNL A   1      43.960  24.965  26.699  1.00  0.00    -0.014 A 
BRANCH  35  36
ATOM     36  C   UNL A   1      43.656  26.270  27.226  1.00  0.00     0.031 A 
ATOM     37  C   UNL A   1      44.691  27.236  26.838  1.00  0.00     0.074 A 
ATOM     38  C   UNL A   1      42.559  26.531  27.962  1.00  0.00     0.049 A 
ATOM     39  N   UNL A   1      45.719  27.549  27.549  1.00  0.00    -0.248 NA
ATOM     40  C   UNL A   1      44.774  27.667  25.435  1.00  0.00     0.031 C 
ATOM     41  C   UNL A   1      41.422  25.659  28.271  1.00  0.00     0.029 A 
ATOM     42  N   UNL A   1      42.221  27.692  28.585  1.00  0.00    -0.354 N 
ATOM     43  C   UNL A   1      46.399  28.484  26.794  1.00  0.00     0.074 A 
ATOM     44  C   UNL A   1      45.950  28.300  25.440  1.00  0.00     0.031 C 
ATOM     45  C   UNL A   1      40.436  26.387  28.852  1.00  0.00     0.029 A 
ATOM     46  C   UNL A   1      40.921  27.739  29.087  1.00  0.00     0.049 A 
ATOM     47  H   UNL A   1      42.850  28.444  28.673  1.00  0.00     0.167 HD
ATOM     48  C   UNL A   1      46.977  29.543  27.418  1.00  0.00     0.034 A 
ATOM     49  C   UNL A   1      40.315  28.803  29.691  1.00  0.00     0.034 A 
ATOM     50  C   UNL A   1      47.152  29.277  28.833  1.00  0.00     0.049 A 
ATOM     51  C   UNL A   1      41.419  29.612  30.267  1.00  0.00     0.074 A 
ATOM     52  C   UNL A   1      47.812  28.304  29.562  1.00  0.00     0.029 A 
ATOM     53  N   UNL A   1      46.239  29.836  29.700  1.00  0.00    -0.354 N 
ATOM     54  N   UNL A   1      42.185  29.174  31.231  1.00  0.00    -0.248 NA
ATOM     55  C   UNL A   1      41.995  30.660  29.439  1.00  0.00     0.031 C 
ATOM     56  C   UNL A   1      46.953  28.014  30.664  1.00  0.00     0.029 A 
ATOM     57  C   UNL A   1      45.857  28.878  30.607  1.00  0.00     0.049 A 
ATOM     58  H   UNL A   1      45.915  30.764  29.673  1.00  0.00     0.167 HD
ATOM     59  C   UNL A   1      43.467  29.556  30.865  1.00  0.00     0.074 A 
ATOM     60  C   UNL A   1      43.278  30.540  29.797  1.00  0.00     0.031 C 
ATOM     61  C   UNL A   1      44.557  28.833  31.255  1.00  0.00     0.034 A 
BRANCH  48  62
ATOM     62  C   UNL A   1      46.945  30.944  26.856  1.00  0.00     0.023 A 
ATOM     63  C   UNL A   1      48.157  31.653  26.856  1.00  0.00     0.031 A 
ATOM     64  C   UNL A   1      45.780  31.710  26.602  1.00  0.00     0.131 A 
ATOM     65  C   UNL A   1      48.172  33.048  26.705  1.00  0.00     0.055 A 
ATOM     66  C   UNL A   1      45.808  33.090  26.395  1.00  0.00     0.041 A 
ATOM     67  F   UNL A   1      44.546  31.201  26.629  1.00  0.00    -0.206 F 
ATOM     68  C   UNL A   1      47.005  33.773  26.475  1.00  0.00     0.022 A 
BRANCH  65  69
ATOM     69  S   UNL A   1      49.739  33.914  26.949  1.00  0.00     0.124 S 
ATOM     70  O   UNL A   1      50.678  32.802  27.026  1.00  0.00    -0.237 OA
ATOM     71  O   UNL A   1      49.814  34.742  25.750  1.00  0.00    -0.237 OA
ATOM     72  O   UNL A   1      49.527  34.646  28.196  1.00  0.00    -0.744 OA
ENDBRANCH  65  69
ENDBRANCH  48  62
BRANCH  49  73
ATOM     73  C   UNL A   1      38.947  29.362  29.436  1.00  0.00     0.023 A 
ATOM     74  C   UNL A   1      38.228  30.092  30.418  1.00  0.00     0.031 A 
ATOM     75  C   UNL A   1      38.432  29.417  28.123  1.00  0.00     0.131 A 
ATOM     76  C   UNL A   1      37.075  30.842  30.066  1.00  0.00     0.055 A 
ATOM     77  C   UNL A   1      37.301  30.166  27.780  1.00  0.00     0.041 A 
ATOM     78  F   UNL A   1      39.060  28.814  27.103  1.00  0.00    -0.206 F 
ATOM     79  C   UNL A   1      36.625  30.892  28.746  1.00  0.00     0.022 A 
BRANCH  76  80
ATOM     80  S   UNL A   1      36.195  31.862  31.300  1.00  0.00     0.124 S 
ATOM     81  O   UNL A   1      34.954  32.184  30.604  1.00  0.00    -0.237 OA
ATOM     82  O   UNL A   1      36.083  30.960  32.440  1.00  0.00    -0.237 OA
ATOM     83  O   UNL A   1      37.094  32.999  31.508  1.00  0.00    -0.744 OA
ENDBRANCH  76  80
ENDBRANCH  49  73
BRANCH  61  84
ATOM     84  C   UNL A   1      44.384  27.789  32.341  1.00  0.00     0.023 A 
ATOM     85  C   UNL A   1      44.319  26.389  32.131  1.00  0.00     0.031 A 
ATOM     86  C   UNL A   1      44.463  28.249  33.666  1.00  0.00     0.131 A 
ATOM     87  C   UNL A   1      44.350  25.513  33.240  1.00  0.00     0.055 A 
ATOM     88  C   UNL A   1      44.515  27.380  34.754  1.00  0.00     0.041 A 
ATOM     89  F   UNL A   1      44.553  29.565  33.921  1.00  0.00    -0.206 F 
ATOM     90  C   UNL A   1      44.462  26.007  34.544  1.00  0.00     0.022 A 
BRANCH  87  91
ATOM     91  S   UNL A   1      44.300  23.704  33.005  1.00  0.00     0.124 S 
ATOM     92  O   UNL A   1      43.113  23.304  33.751  1.00  0.00    -0.237 OA
ATOM     93  O   UNL A   1      44.223  23.566  31.553  1.00  0.00    -0.237 OA
ATOM     94  O   UNL A   1      45.566  23.246  33.586  1.00  0.00    -0.744 OA
ENDBRANCH  87  91
ENDBRANCH  61  84
ENDBRANCH  35  36
ENDBRANCH  28  30
ENDBRANCH  27  28
ENDBRANCH  26  27
ENDBRANCH  25  26
ENDBRANCH  24  25
ENDBRANCH  23  24
ENDBRANCH   1  23
TORSDOF 24
ENDMDL
