MODEL 1
REMARK VINA RESULT:     -11.6      0.000      0.000
REMARK SMILES C[C@@H](C(=O)OCCOCCOCCOC(=O)c1ccc(-c2c3nc(c(-c4cc(S(=O)(=O)[O-])ccc4F)c4ccc([nH]4)c(-c4cc(S(=O)(=O)[O-])ccc4F)c4nc(c(-c5cc(S(=O)(=O)[O-])ccc5F)c5ccc2[nH]5)C=C4)C=C3)cc1)c1ccc2c3cc(Cl)ccc3n(C(=O)c3ccc(Cl)cc3)c2c1
REMARK SMILES IDX 9 1 8 2 7 3 6 4 5 5 3 6 4 7 2 8 1 9 80 10 81 11 102 12 82 13
REMARK SMILES IDX 101 14 83 15 91 16 84 17 90 18 85 19 89 20 86 21 88 22 87 23
REMARK SMILES IDX 92 24 93 25 94 26 95 27 100 28 96 29 99 30 97 31 98 32 10 33
REMARK SMILES IDX 11 34 12 35 13 36 14 37 15 38 16 39 17 40 18 41 79 42 19 43
REMARK SMILES IDX 78 44 20 45 21 46 22 47 72 48 23 49 77 50 71 51 73 52 24 53
REMARK SMILES IDX 76 54 70 55 69 56 25 58 57 59 37 60 56 61 38 62 41 63 55 64
REMARK SMILES IDX 74 65 39 66 40 67 54 69 75 70 42 71 26 72 27 73 35 74 28 75
REMARK SMILES IDX 34 76 36 77 33 78 29 79 30 80 31 81 32 82 58 83 59 84 67 85
REMARK SMILES IDX 60 86 66 87 68 88 65 89 61 90 62 91 63 92 64 93 43 94 44 95
REMARK SMILES IDX 52 96 45 97 51 98 53 99 50 100 46 101 47 102 48 103 49 104
REMARK H PARENT 73 57 41 68
REMARK Flexibility Score: inf
ROOT
ATOM      1  C   UNL A   1      29.530  28.726  22.954  1.00  0.00     0.188 C 
ENDROOT
BRANCH   1   2
ATOM      2  O   UNL A   1      30.307  28.108  21.930  1.00  0.00    -0.376 OA
BRANCH   2   3
ATOM      3  C   UNL A   1      30.945  26.866  22.215  1.00  0.00     0.202 C 
BRANCH   3   4
ATOM      4  C   UNL A   1      31.684  26.702  23.553  1.00  0.00     0.261 C 
BRANCH   4   5
ATOM      5  O   UNL A   1      30.926  26.035  24.585  1.00  0.00    -0.463 OA
BRANCH   5   6
ATOM      6  C   UNL A   1      31.344  26.248  25.863  1.00  0.00     0.313 C 
ATOM      7  O   UNL A   1      30.664  26.823  26.708  1.00  0.00    -0.252 OA
BRANCH   6   8
ATOM      8  C   UNL A   1      32.745  25.693  26.174  1.00  0.00     0.126 C 
ATOM      9  C   UNL A   1      33.932  26.513  25.656  1.00  0.00     0.025 C 
BRANCH   8  10
ATOM     10  C   UNL A   1      32.832  24.178  25.966  1.00  0.00    -0.032 A 
ATOM     11  C   UNL A   1      31.781  23.283  26.178  1.00  0.00     0.005 A 
ATOM     12  C   UNL A   1      34.065  23.659  25.531  1.00  0.00     0.032 A 
ATOM     13  C   UNL A   1      31.938  21.908  25.934  1.00  0.00     0.011 A 
ATOM     14  C   UNL A   1      34.234  22.273  25.321  1.00  0.00     0.057 A 
ATOM     15  C   UNL A   1      33.176  21.393  25.492  1.00  0.00     0.008 A 
ATOM     16  N   UNL A   1      35.354  21.544  24.891  1.00  0.00    -0.276 N 
ATOM     17  C   UNL A   1      33.643  20.091  25.154  1.00  0.00     0.009 A 
ATOM     18  C   UNL A   1      35.005  20.190  24.833  1.00  0.00     0.057 A 
ATOM     19  C   UNL A   1      33.011  18.827  25.133  1.00  0.00     0.031 A 
ATOM     20  C   UNL A   1      35.768  19.029  24.596  1.00  0.00     0.029 A 
ATOM     21  C   UNL A   1      33.754  17.692  24.817  1.00  0.00     0.041 A 
ATOM     22  C   UNL A   1      35.116  17.788  24.568  1.00  0.00     0.023 A 
ATOM     23  Cl  UNL A   1      32.972  16.160  24.750  1.00  0.00    -0.084 Cl
BRANCH  16  24
ATOM     24  C   UNL A   1      36.603  22.162  24.625  1.00  0.00     0.262 C 
ATOM     25  O   UNL A   1      36.856  22.350  23.432  1.00  0.00    -0.268 OA
BRANCH  24  26
ATOM     26  C   UNL A   1      37.703  22.513  25.573  1.00  0.00     0.040 A 
ATOM     27  C   UNL A   1      37.737  23.852  26.022  1.00  0.00     0.015 A 
ATOM     28  C   UNL A   1      38.763  21.672  25.924  1.00  0.00     0.015 A 
ATOM     29  C   UNL A   1      38.787  24.336  26.802  1.00  0.00     0.021 A 
ATOM     30  C   UNL A   1      39.803  22.150  26.739  1.00  0.00     0.021 A 
ATOM     31  C   UNL A   1      39.817  23.479  27.163  1.00  0.00     0.041 A 
ATOM     32  Cl  UNL A   1      41.128  24.079  28.102  1.00  0.00    -0.084 Cl
ENDBRANCH  24  26
ENDBRANCH  16  24
ENDBRANCH   8  10
ENDBRANCH   6   8
ENDBRANCH   5   6
ENDBRANCH   4   5
ENDBRANCH   3   4
ENDBRANCH   2   3
ENDBRANCH   1   2
BRANCH   1  33
ATOM     33  C   UNL A   1      30.143  29.913  23.718  1.00  0.00     0.188 C 
BRANCH  33  34
ATOM     34  O   UNL A   1      31.038  29.539  24.745  1.00  0.00    -0.376 OA
BRANCH  34  35
ATOM     35  C   UNL A   1      31.367  30.509  25.722  1.00  0.00     0.202 C 
BRANCH  35  36
ATOM     36  C   UNL A   1      32.042  30.043  27.024  1.00  0.00     0.261 C 
BRANCH  36  37
ATOM     37  O   UNL A   1      33.470  30.185  27.100  1.00  0.00    -0.460 OA
BRANCH  37  38
ATOM     38  C   UNL A   1      33.941  31.353  27.603  1.00  0.00     0.338 C 
ATOM     39  O   UNL A   1      33.296  32.362  27.807  1.00  0.00    -0.246 OA
BRANCH  38  40
ATOM     40  C   UNL A   1      35.326  31.119  28.086  1.00  0.00     0.060 A 
ATOM     41  C   UNL A   1      35.703  29.814  28.426  1.00  0.00     0.016 A 
ATOM     42  C   UNL A   1      36.250  32.163  28.192  1.00  0.00     0.016 A 
ATOM     43  C   UNL A   1      36.998  29.554  28.882  1.00  0.00     0.010 A 
ATOM     44  C   UNL A   1      37.544  31.902  28.668  1.00  0.00     0.010 A 
ATOM     45  C   UNL A   1      37.924  30.596  29.023  1.00  0.00    -0.014 A 
BRANCH  45  46
ATOM     46  C   UNL A   1      39.216  30.338  29.714  1.00  0.00     0.031 A 
ATOM     47  C   UNL A   1      39.412  30.905  31.093  1.00  0.00     0.074 A 
ATOM     48  C   UNL A   1      40.182  29.584  29.157  1.00  0.00     0.049 A 
ATOM     49  N   UNL A   1      40.460  30.856  31.874  1.00  0.00    -0.248 NA
ATOM     50  C   UNL A   1      38.260  31.615  31.669  1.00  0.00     0.031 C 
ATOM     51  C   UNL A   1      40.081  28.894  27.873  1.00  0.00     0.029 A 
ATOM     52  N   UNL A   1      41.442  29.267  29.610  1.00  0.00    -0.354 N 
ATOM     53  C   UNL A   1      40.096  31.529  33.035  1.00  0.00     0.074 A 
ATOM     54  C   UNL A   1      38.737  31.990  32.845  1.00  0.00     0.031 C 
ATOM     55  C   UNL A   1      41.237  28.245  27.636  1.00  0.00     0.029 A 
ATOM     56  C   UNL A   1      42.176  28.508  28.726  1.00  0.00     0.049 A 
ATOM     57  H   UNL A   1      41.787  29.558  30.484  1.00  0.00     0.167 HD
ATOM     58  C   UNL A   1      40.828  31.750  34.156  1.00  0.00     0.034 A 
ATOM     59  C   UNL A   1      43.461  28.093  28.786  1.00  0.00     0.034 A 
ATOM     60  C   UNL A   1      42.197  31.328  34.320  1.00  0.00     0.049 A 
ATOM     61  C   UNL A   1      44.298  28.457  29.996  1.00  0.00     0.074 A 
ATOM     62  C   UNL A   1      43.043  31.547  35.393  1.00  0.00     0.029 A 
ATOM     63  N   UNL A   1      42.929  30.615  33.378  1.00  0.00    -0.354 N 
ATOM     64  N   UNL A   1      43.951  29.116  31.079  1.00  0.00    -0.248 NA
ATOM     65  C   UNL A   1      45.702  28.018  29.992  1.00  0.00     0.031 C 
ATOM     66  C   UNL A   1      44.307  31.043  35.066  1.00  0.00     0.029 A 
ATOM     67  C   UNL A   1      44.227  30.424  33.829  1.00  0.00     0.049 A 
ATOM     68  H   UNL A   1      42.578  30.292  32.517  1.00  0.00     0.167 HD
ATOM     69  C   UNL A   1      45.083  29.134  31.894  1.00  0.00     0.074 A 
ATOM     70  C   UNL A   1      46.116  28.408  31.188  1.00  0.00     0.031 C 
ATOM     71  C   UNL A   1      45.255  29.703  33.116  1.00  0.00     0.034 A 
BRANCH  58  72
ATOM     72  C   UNL A   1      40.177  32.563  35.247  1.00  0.00     0.023 A 
ATOM     73  C   UNL A   1      39.432  31.959  36.275  1.00  0.00     0.031 A 
ATOM     74  C   UNL A   1      40.255  33.967  35.225  1.00  0.00     0.131 A 
ATOM     75  C   UNL A   1      38.728  32.759  37.189  1.00  0.00     0.055 A 
ATOM     76  C   UNL A   1      39.624  34.754  36.189  1.00  0.00     0.041 A 
ATOM     77  F   UNL A   1      40.928  34.599  34.251  1.00  0.00    -0.206 F 
ATOM     78  C   UNL A   1      38.841  34.151  37.169  1.00  0.00     0.022 A 
BRANCH  75  79
ATOM     79  S   UNL A   1      37.531  31.961  38.293  1.00  0.00     0.124 S 
ATOM     80  O   UNL A   1      36.368  32.833  38.148  1.00  0.00    -0.237 OA
ATOM     81  O   UNL A   1      37.406  30.628  37.715  1.00  0.00    -0.237 OA
ATOM     82  O   UNL A   1      38.182  32.017  39.601  1.00  0.00    -0.744 OA
ENDBRANCH  75  79
ENDBRANCH  58  72
BRANCH  59  83
ATOM     83  C   UNL A   1      44.070  27.322  27.659  1.00  0.00     0.023 A 
ATOM     84  C   UNL A   1      44.210  25.925  27.722  1.00  0.00     0.031 A 
ATOM     85  C   UNL A   1      44.598  27.976  26.531  1.00  0.00     0.131 A 
ATOM     86  C   UNL A   1      44.889  25.235  26.705  1.00  0.00     0.055 A 
ATOM     87  C   UNL A   1      45.229  27.280  25.497  1.00  0.00     0.041 A 
ATOM     88  F   UNL A   1      44.511  29.311  26.418  1.00  0.00    -0.206 F 
ATOM     89  C   UNL A   1      45.390  25.902  25.587  1.00  0.00     0.022 A 
BRANCH  86  90
ATOM     90  S   UNL A   1      45.165  23.454  26.904  1.00  0.00     0.124 S 
ATOM     91  O   UNL A   1      44.188  22.895  25.978  1.00  0.00    -0.237 OA
ATOM     92  O   UNL A   1      46.566  23.329  26.512  1.00  0.00    -0.237 OA
ATOM     93  O   UNL A   1      44.892  23.223  28.321  1.00  0.00    -0.744 OA
ENDBRANCH  86  90
ENDBRANCH  59  83
BRANCH  71  94
ATOM     94  C   UNL A   1      46.598  29.525  33.791  1.00  0.00     0.023 A 
ATOM     95  C   UNL A   1      46.862  28.449  34.657  1.00  0.00     0.031 A 
ATOM     96  C   UNL A   1      47.637  30.443  33.550  1.00  0.00     0.131 A 
ATOM     97  C   UNL A   1      48.111  28.348  35.292  1.00  0.00     0.055 A 
ATOM     98  C   UNL A   1      48.898  30.301  34.131  1.00  0.00     0.041 A 
ATOM     99  F   UNL A   1      47.446  31.492  32.734  1.00  0.00    -0.206 F 
ATOM    100  C   UNL A   1      49.136  29.256  35.018  1.00  0.00     0.022 A 
BRANCH  97 101
ATOM    101  S   UNL A   1      48.351  27.067  36.553  1.00  0.00     0.124 S 
ATOM    102  O   UNL A   1      48.392  25.850  35.748  1.00  0.00    -0.237 OA
ATOM    103  O   UNL A   1      49.612  27.466  37.169  1.00  0.00    -0.237 OA
ATOM    104  O   UNL A   1      47.174  27.202  37.410  1.00  0.00    -0.744 OA
ENDBRANCH  97 101
ENDBRANCH  71  94
ENDBRANCH  45  46
ENDBRANCH  38  40
ENDBRANCH  37  38
ENDBRANCH  36  37
ENDBRANCH  35  36
ENDBRANCH  34  35
ENDBRANCH  33  34
ENDBRANCH   1  33
TORSDOF 23
ENDMDL
MODEL 2
REMARK VINA RESULT:     -11.5      1.865      2.227
REMARK SMILES C[C@@H](C(=O)OCCOCCOCCOC(=O)c1ccc(-c2c3nc(c(-c4cc(S(=O)(=O)[O-])ccc4F)c4ccc([nH]4)c(-c4cc(S(=O)(=O)[O-])ccc4F)c4nc(c(-c5cc(S(=O)(=O)[O-])ccc5F)c5ccc2[nH]5)C=C4)C=C3)cc1)c1ccc2c3cc(Cl)ccc3n(C(=O)c3ccc(Cl)cc3)c2c1
REMARK SMILES IDX 9 1 8 2 7 3 6 4 5 5 3 6 4 7 2 8 1 9 80 10 81 11 102 12 82 13
REMARK SMILES IDX 101 14 83 15 91 16 84 17 90 18 85 19 89 20 86 21 88 22 87 23
REMARK SMILES IDX 92 24 93 25 94 26 95 27 100 28 96 29 99 30 97 31 98 32 10 33
REMARK SMILES IDX 11 34 12 35 13 36 14 37 15 38 16 39 17 40 18 41 79 42 19 43
REMARK SMILES IDX 78 44 20 45 21 46 22 47 72 48 23 49 77 50 71 51 73 52 24 53
REMARK SMILES IDX 76 54 70 55 69 56 25 58 57 59 37 60 56 61 38 62 41 63 55 64
REMARK SMILES IDX 74 65 39 66 40 67 54 69 75 70 42 71 26 72 27 73 35 74 28 75
REMARK SMILES IDX 34 76 36 77 33 78 29 79 30 80 31 81 32 82 58 83 59 84 67 85
REMARK SMILES IDX 60 86 66 87 68 88 65 89 61 90 62 91 63 92 64 93 43 94 44 95
REMARK SMILES IDX 52 96 45 97 51 98 53 99 50 100 46 101 47 102 48 103 49 104
REMARK H PARENT 73 57 41 68
REMARK Flexibility Score: inf
ROOT
ATOM      1  C   UNL A   1      29.286  28.804  22.972  1.00  0.00     0.188 C 
ENDROOT
BRANCH   1   2
ATOM      2  O   UNL A   1      30.117  28.174  21.999  1.00  0.00    -0.376 OA
BRANCH   2   3
ATOM      3  C   UNL A   1      30.711  26.920  22.321  1.00  0.00     0.202 C 
BRANCH   3   4
ATOM      4  C   UNL A   1      31.597  26.819  23.573  1.00  0.00     0.261 C 
BRANCH   4   5
ATOM      5  O   UNL A   1      30.970  26.183  24.707  1.00  0.00    -0.463 OA
BRANCH   5   6
ATOM      6  C   UNL A   1      31.436  26.555  25.931  1.00  0.00     0.313 C 
ATOM      7  O   UNL A   1      30.832  27.318  26.680  1.00  0.00    -0.252 OA
BRANCH   6   8
ATOM      8  C   UNL A   1      32.786  25.926  26.315  1.00  0.00     0.126 C 
ATOM      9  C   UNL A   1      34.042  26.688  25.873  1.00  0.00     0.025 C 
BRANCH   8  10
ATOM     10  C   UNL A   1      32.808  24.411  26.098  1.00  0.00    -0.032 A 
ATOM     11  C   UNL A   1      31.740  23.552  26.368  1.00  0.00     0.005 A 
ATOM     12  C   UNL A   1      33.994  23.851  25.589  1.00  0.00     0.032 A 
ATOM     13  C   UNL A   1      31.834  22.173  26.110  1.00  0.00     0.011 A 
ATOM     14  C   UNL A   1      34.101  22.461  25.366  1.00  0.00     0.057 A 
ATOM     15  C   UNL A   1      33.025  21.618  25.595  1.00  0.00     0.008 A 
ATOM     16  N   UNL A   1      35.168  21.696  24.868  1.00  0.00    -0.276 N 
ATOM     17  C   UNL A   1      33.425  20.303  25.227  1.00  0.00     0.009 A 
ATOM     18  C   UNL A   1      34.769  20.355  24.827  1.00  0.00     0.057 A 
ATOM     19  C   UNL A   1      32.749  19.061  25.238  1.00  0.00     0.031 A 
ATOM     20  C   UNL A   1      35.474  19.169  24.542  1.00  0.00     0.029 A 
ATOM     21  C   UNL A   1      33.431  17.902  24.876  1.00  0.00     0.041 A 
ATOM     22  C   UNL A   1      34.779  17.952  24.548  1.00  0.00     0.023 A 
ATOM     23  Cl  UNL A   1      32.593  16.400  24.849  1.00  0.00    -0.084 Cl
BRANCH  16  24
ATOM     24  C   UNL A   1      36.420  22.271  24.533  1.00  0.00     0.262 C 
ATOM     25  O   UNL A   1      36.480  22.788  23.414  1.00  0.00    -0.268 OA
BRANCH  24  26
ATOM     26  C   UNL A   1      37.707  22.239  25.290  1.00  0.00     0.040 A 
ATOM     27  C   UNL A   1      38.385  21.000  25.319  1.00  0.00     0.015 A 
ATOM     28  C   UNL A   1      38.205  23.281  26.078  1.00  0.00     0.015 A 
ATOM     29  C   UNL A   1      39.525  20.806  26.099  1.00  0.00     0.021 A 
ATOM     30  C   UNL A   1      39.373  23.096  26.838  1.00  0.00     0.021 A 
ATOM     31  C   UNL A   1      40.019  21.860  26.854  1.00  0.00     0.041 A 
ATOM     32  Cl  UNL A   1      41.409  21.618  27.839  1.00  0.00    -0.084 Cl
ENDBRANCH  24  26
ENDBRANCH  16  24
ENDBRANCH   8  10
ENDBRANCH   6   8
ENDBRANCH   5   6
ENDBRANCH   4   5
ENDBRANCH   3   4
ENDBRANCH   2   3
ENDBRANCH   1   2
BRANCH   1  33
ATOM     33  C   UNL A   1      29.762  30.132  23.588  1.00  0.00     0.188 C 
BRANCH  33  34
ATOM     34  O   UNL A   1      30.753  29.985  24.584  1.00  0.00    -0.376 OA
BRANCH  34  35
ATOM     35  C   UNL A   1      30.996  31.082  25.443  1.00  0.00     0.202 C 
BRANCH  35  36
ATOM     36  C   UNL A   1      31.680  30.820  26.796  1.00  0.00     0.261 C 
BRANCH  36  37
ATOM     37  O   UNL A   1      33.116  30.873  26.818  1.00  0.00    -0.460 OA
BRANCH  37  38
ATOM     38  C   UNL A   1      33.678  31.941  27.438  1.00  0.00     0.338 C 
ATOM     39  O   UNL A   1      33.151  33.016  27.641  1.00  0.00    -0.246 OA
BRANCH  38  40
ATOM     40  C   UNL A   1      34.963  31.499  28.038  1.00  0.00     0.060 A 
ATOM     41  C   UNL A   1      35.108  30.149  28.384  1.00  0.00     0.016 A 
ATOM     42  C   UNL A   1      36.018  32.392  28.249  1.00  0.00     0.016 A 
ATOM     43  C   UNL A   1      36.303  29.695  28.949  1.00  0.00     0.010 A 
ATOM     44  C   UNL A   1      37.209  31.936  28.834  1.00  0.00     0.010 A 
ATOM     45  C   UNL A   1      37.357  30.585  29.194  1.00  0.00    -0.014 A 
BRANCH  45  46
ATOM     46  C   UNL A   1      38.527  30.132  29.993  1.00  0.00     0.031 A 
ATOM     47  C   UNL A   1      38.674  30.648  31.398  1.00  0.00     0.074 A 
ATOM     48  C   UNL A   1      39.421  29.250  29.508  1.00  0.00     0.049 A 
ATOM     49  N   UNL A   1      39.625  30.436  32.270  1.00  0.00    -0.248 NA
ATOM     50  C   UNL A   1      37.589  31.513  31.884  1.00  0.00     0.031 C 
ATOM     51  C   UNL A   1      39.341  28.598  28.203  1.00  0.00     0.029 A 
ATOM     52  N   UNL A   1      40.573  28.746  30.065  1.00  0.00    -0.354 N 
ATOM     53  C   UNL A   1      39.256  31.142  33.410  1.00  0.00     0.074 A 
ATOM     54  C   UNL A   1      38.002  31.800  33.108  1.00  0.00     0.031 C 
ATOM     55  C   UNL A   1      40.407  27.789  28.055  1.00  0.00     0.029 A 
ATOM     56  C   UNL A   1      41.268  27.897  29.233  1.00  0.00     0.049 A 
ATOM     57  H   UNL A   1      40.874  28.972  30.974  1.00  0.00     0.167 HD
ATOM     58  C   UNL A   1      39.904  31.239  34.597  1.00  0.00     0.034 A 
ATOM     59  C   UNL A   1      42.467  27.296  29.399  1.00  0.00     0.034 A 
ATOM     60  C   UNL A   1      41.175  30.618  34.874  1.00  0.00     0.049 A 
ATOM     61  C   UNL A   1      43.231  27.519  30.689  1.00  0.00     0.074 A 
ATOM     62  C   UNL A   1      41.940  30.698  36.025  1.00  0.00     0.029 A 
ATOM     63  N   UNL A   1      41.881  29.817  33.986  1.00  0.00    -0.354 N 
ATOM     64  N   UNL A   1      42.885  28.209  31.751  1.00  0.00    -0.248 NA
ATOM     65  C   UNL A   1      44.551  26.878  30.801  1.00  0.00     0.031 C 
ATOM     66  C   UNL A   1      43.142  30.017  35.802  1.00  0.00     0.029 A 
ATOM     67  C   UNL A   1      43.089  29.431  34.548  1.00  0.00     0.049 A 
ATOM     68  H   UNL A   1      41.569  29.559  33.089  1.00  0.00     0.167 HD
ATOM     69  C   UNL A   1      43.926  28.051  32.667  1.00  0.00     0.074 A 
ATOM     70  C   UNL A   1      44.904  27.189  32.039  1.00  0.00     0.031 C 
ATOM     71  C   UNL A   1      44.063  28.574  33.914  1.00  0.00     0.034 A 
BRANCH  58  72
ATOM     72  C   UNL A   1      39.279  32.126  35.645  1.00  0.00     0.023 A 
ATOM     73  C   UNL A   1      39.643  33.477  35.783  1.00  0.00     0.031 A 
ATOM     74  C   UNL A   1      38.349  31.597  36.557  1.00  0.00     0.131 A 
ATOM     75  C   UNL A   1      39.142  34.228  36.858  1.00  0.00     0.055 A 
ATOM     76  C   UNL A   1      37.787  32.374  37.571  1.00  0.00     0.041 A 
ATOM     77  F   UNL A   1      37.986  30.307  36.491  1.00  0.00    -0.206 F 
ATOM     78  C   UNL A   1      38.197  33.694  37.736  1.00  0.00     0.022 A 
BRANCH  75  79
ATOM     79  S   UNL A   1      39.872  35.855  37.190  1.00  0.00     0.124 S 
ATOM     80  O   UNL A   1      39.703  36.523  35.902  1.00  0.00    -0.237 OA
ATOM     81  O   UNL A   1      39.045  36.356  38.282  1.00  0.00    -0.237 OA
ATOM     82  O   UNL A   1      41.255  35.544  37.546  1.00  0.00    -0.744 OA
ENDBRANCH  75  79
ENDBRANCH  58  72
BRANCH  59  83
ATOM     83  C   UNL A   1      43.061  26.457  28.312  1.00  0.00     0.023 A 
ATOM     84  C   UNL A   1      44.114  26.935  27.515  1.00  0.00     0.031 A 
ATOM     85  C   UNL A   1      42.532  25.192  27.999  1.00  0.00     0.131 A 
ATOM     86  C   UNL A   1      44.579  26.178  26.428  1.00  0.00     0.055 A 
ATOM     87  C   UNL A   1      43.030  24.419  26.946  1.00  0.00     0.041 A 
ATOM     88  F   UNL A   1      41.513  24.686  28.713  1.00  0.00    -0.206 F 
ATOM     89  C   UNL A   1      44.051  24.918  26.145  1.00  0.00     0.022 A 
BRANCH  86  90
ATOM     90  S   UNL A   1      45.841  26.901  25.346  1.00  0.00     0.124 S 
ATOM     91  O   UNL A   1      46.282  25.740  24.583  1.00  0.00    -0.237 OA
ATOM     92  O   UNL A   1      45.063  27.895  24.610  1.00  0.00    -0.237 OA
ATOM     93  O   UNL A   1      46.821  27.446  26.282  1.00  0.00    -0.744 OA
ENDBRANCH  86  90
ENDBRANCH  59  83
BRANCH  71  94
ATOM     94  C   UNL A   1      45.298  28.192  34.703  1.00  0.00     0.023 A 
ATOM     95  C   UNL A   1      45.328  27.063  35.539  1.00  0.00     0.031 A 
ATOM     96  C   UNL A   1      46.467  28.968  34.603  1.00  0.00     0.131 A 
ATOM     97  C   UNL A   1      46.483  26.771  36.283  1.00  0.00     0.055 A 
ATOM     98  C   UNL A   1      47.634  28.636  35.293  1.00  0.00     0.041 A 
ATOM     99  F   UNL A   1      46.500  30.060  33.822  1.00  0.00    -0.206 F 
ATOM    100  C   UNL A   1      47.643  27.540  36.150  1.00  0.00     0.022 A 
BRANCH  97 101
ATOM    101  S   UNL A   1      46.424  25.428  37.501  1.00  0.00     0.124 S 
ATOM    102  O   UNL A   1      46.799  26.117  38.732  1.00  0.00    -0.237 OA
ATOM    103  O   UNL A   1      45.036  24.988  37.415  1.00  0.00    -0.237 OA
ATOM    104  O   UNL A   1      47.410  24.469  37.005  1.00  0.00    -0.744 OA
ENDBRANCH  97 101
ENDBRANCH  71  94
ENDBRANCH  45  46
ENDBRANCH  38  40
ENDBRANCH  37  38
ENDBRANCH  36  37
ENDBRANCH  35  36
ENDBRANCH  34  35
ENDBRANCH  33  34
ENDBRANCH   1  33
TORSDOF 23
ENDMDL
MODEL 3
REMARK VINA RESULT:     -11.0      5.372     10.374
REMARK SMILES C[C@@H](C(=O)OCCOCCOCCOC(=O)c1ccc(-c2c3nc(c(-c4cc(S(=O)(=O)[O-])ccc4F)c4ccc([nH]4)c(-c4cc(S(=O)(=O)[O-])ccc4F)c4nc(c(-c5cc(S(=O)(=O)[O-])ccc5F)c5ccc2[nH]5)C=C4)C=C3)cc1)c1ccc2c3cc(Cl)ccc3n(C(=O)c3ccc(Cl)cc3)c2c1
REMARK SMILES IDX 9 1 8 2 7 3 6 4 5 5 3 6 4 7 2 8 1 9 80 10 81 11 102 12 82 13
REMARK SMILES IDX 101 14 83 15 91 16 84 17 90 18 85 19 89 20 86 21 88 22 87 23
REMARK SMILES IDX 92 24 93 25 94 26 95 27 100 28 96 29 99 30 97 31 98 32 10 33
REMARK SMILES IDX 11 34 12 35 13 36 14 37 15 38 16 39 17 40 18 41 79 42 19 43
REMARK SMILES IDX 78 44 20 45 21 46 22 47 72 48 23 49 77 50 71 51 73 52 24 53
REMARK SMILES IDX 76 54 70 55 69 56 25 58 57 59 37 60 56 61 38 62 41 63 55 64
REMARK SMILES IDX 74 65 39 66 40 67 54 69 75 70 42 71 26 72 27 73 35 74 28 75
REMARK SMILES IDX 34 76 36 77 33 78 29 79 30 80 31 81 32 82 58 83 59 84 67 85
REMARK SMILES IDX 60 86 66 87 68 88 65 89 61 90 62 91 63 92 64 93 43 94 44 95
REMARK SMILES IDX 52 96 45 97 51 98 53 99 50 100 46 101 47 102 48 103 49 104
REMARK H PARENT 73 57 41 68
REMARK Flexibility Score: inf
ROOT
ATOM      1  C   UNL A   1      44.969  20.286  25.026  1.00  0.00     0.188 C 
ENDROOT
BRANCH   1   2
ATOM      2  O   UNL A   1      43.634  19.900  24.706  1.00  0.00    -0.376 OA
BRANCH   2   3
ATOM      3  C   UNL A   1      42.670  19.847  25.754  1.00  0.00     0.202 C 
BRANCH   3   4
ATOM      4  C   UNL A   1      42.486  21.079  26.655  1.00  0.00     0.261 C 
BRANCH   4   5
ATOM      5  O   UNL A   1      41.641  22.110  26.103  1.00  0.00    -0.463 OA
BRANCH   5   6
ATOM      6  C   UNL A   1      40.761  22.686  26.969  1.00  0.00     0.313 C 
ATOM      7  O   UNL A   1      40.920  22.691  28.187  1.00  0.00    -0.252 OA
BRANCH   6   8
ATOM      8  C   UNL A   1      39.549  23.350  26.296  1.00  0.00     0.126 C 
ATOM      9  C   UNL A   1      39.020  24.630  26.956  1.00  0.00     0.025 C 
BRANCH   8  10
ATOM     10  C   UNL A   1      38.491  22.332  25.861  1.00  0.00    -0.032 A 
ATOM     11  C   UNL A   1      38.764  21.024  25.455  1.00  0.00     0.005 A 
ATOM     12  C   UNL A   1      37.149  22.754  25.873  1.00  0.00     0.032 A 
ATOM     13  C   UNL A   1      37.728  20.143  25.100  1.00  0.00     0.011 A 
ATOM     14  C   UNL A   1      36.112  21.881  25.480  1.00  0.00     0.057 A 
ATOM     15  C   UNL A   1      36.383  20.570  25.119  1.00  0.00     0.008 A 
ATOM     16  N   UNL A   1      34.723  22.081  25.419  1.00  0.00    -0.276 N 
ATOM     17  C   UNL A   1      35.140  19.938  24.834  1.00  0.00     0.009 A 
ATOM     18  C   UNL A   1      34.125  20.897  24.974  1.00  0.00     0.057 A 
ATOM     19  C   UNL A   1      34.807  18.625  24.432  1.00  0.00     0.031 A 
ATOM     20  C   UNL A   1      32.798  20.588  24.614  1.00  0.00     0.029 A 
ATOM     21  C   UNL A   1      33.480  18.304  24.156  1.00  0.00     0.041 A 
ATOM     22  C   UNL A   1      32.492  19.276  24.230  1.00  0.00     0.023 A 
ATOM     23  Cl  UNL A   1      33.073  16.693  23.709  1.00  0.00    -0.084 Cl
BRANCH  16  24
ATOM     24  C   UNL A   1      34.124  23.327  25.734  1.00  0.00     0.262 C 
ATOM     25  O   UNL A   1      33.486  23.354  26.790  1.00  0.00    -0.268 OA
BRANCH  24  26
ATOM     26  C   UNL A   1      34.056  24.576  24.917  1.00  0.00     0.040 A 
ATOM     27  C   UNL A   1      34.010  25.791  25.635  1.00  0.00     0.015 A 
ATOM     28  C   UNL A   1      33.891  24.623  23.529  1.00  0.00     0.015 A 
ATOM     29  C   UNL A   1      33.814  27.014  24.994  1.00  0.00     0.021 A 
ATOM     30  C   UNL A   1      33.728  25.859  22.879  1.00  0.00     0.021 A 
ATOM     31  C   UNL A   1      33.678  27.044  23.614  1.00  0.00     0.041 A 
ATOM     32  Cl  UNL A   1      33.409  28.547  22.821  1.00  0.00    -0.084 Cl
ENDBRANCH  24  26
ENDBRANCH  16  24
ENDBRANCH   8  10
ENDBRANCH   6   8
ENDBRANCH   5   6
ENDBRANCH   4   5
ENDBRANCH   3   4
ENDBRANCH   2   3
ENDBRANCH   1   2
BRANCH   1  33
ATOM     33  C   UNL A   1      45.557  21.525  24.327  1.00  0.00     0.188 C 
BRANCH  33  34
ATOM     34  O   UNL A   1      46.399  22.308  25.149  1.00  0.00    -0.376 OA
BRANCH  34  35
ATOM     35  C   UNL A   1      45.801  23.321  25.934  1.00  0.00     0.202 C 
BRANCH  35  36
ATOM     36  C   UNL A   1      44.518  23.994  25.415  1.00  0.00     0.261 C 
BRANCH  36  37
ATOM     37  O   UNL A   1      43.869  24.923  26.299  1.00  0.00    -0.460 OA
BRANCH  37  38
ATOM     38  C   UNL A   1      42.955  25.757  25.744  1.00  0.00     0.338 C 
ATOM     39  O   UNL A   1      42.045  25.439  25.004  1.00  0.00    -0.246 OA
BRANCH  38  40
ATOM     40  C   UNL A   1      43.105  27.091  26.380  1.00  0.00     0.060 A 
ATOM     41  C   UNL A   1      43.944  27.207  27.496  1.00  0.00     0.016 A 
ATOM     42  C   UNL A   1      42.442  28.217  25.884  1.00  0.00     0.016 A 
ATOM     43  C   UNL A   1      44.112  28.446  28.120  1.00  0.00     0.010 A 
ATOM     44  C   UNL A   1      42.598  29.456  26.525  1.00  0.00     0.010 A 
ATOM     45  C   UNL A   1      43.429  29.577  27.653  1.00  0.00    -0.014 A 
BRANCH  45  46
ATOM     46  C   UNL A   1      43.447  30.827  28.457  1.00  0.00     0.031 A 
ATOM     47  C   UNL A   1      44.490  31.864  28.139  1.00  0.00     0.074 A 
ATOM     48  C   UNL A   1      42.539  31.067  29.422  1.00  0.00     0.049 A 
ATOM     49  N   UNL A   1      44.736  33.006  28.725  1.00  0.00    -0.248 NA
ATOM     50  C   UNL A   1      45.364  31.569  26.995  1.00  0.00     0.031 C 
ATOM     51  C   UNL A   1      41.419  30.193  29.763  1.00  0.00     0.029 A 
ATOM     52  N   UNL A   1      42.414  32.126  30.290  1.00  0.00    -0.354 N 
ATOM     53  C   UNL A   1      45.796  33.570  28.022  1.00  0.00     0.074 A 
ATOM     54  C   UNL A   1      46.152  32.632  26.978  1.00  0.00     0.031 C 
ATOM     55  C   UNL A   1      40.728  30.747  30.776  1.00  0.00     0.029 A 
ATOM     56  C   UNL A   1      41.379  31.991  31.188  1.00  0.00     0.049 A 
ATOM     57  H   UNL A   1      43.011  32.908  30.272  1.00  0.00     0.167 HD
ATOM     58  C   UNL A   1      46.419  34.756  28.229  1.00  0.00     0.034 A 
ATOM     59  C   UNL A   1      41.016  32.771  32.229  1.00  0.00     0.034 A 
ATOM     60  C   UNL A   1      46.089  35.664  29.300  1.00  0.00     0.049 A 
ATOM     61  C   UNL A   1      41.806  34.033  32.516  1.00  0.00     0.074 A 
ATOM     62  C   UNL A   1      46.694  36.865  29.629  1.00  0.00     0.029 A 
ATOM     63  N   UNL A   1      45.075  35.465  30.229  1.00  0.00    -0.354 N 
ATOM     64  N   UNL A   1      42.823  34.544  31.860  1.00  0.00    -0.248 NA
ATOM     65  C   UNL A   1      41.397  34.823  33.687  1.00  0.00     0.031 C 
ATOM     66  C   UNL A   1      46.104  37.347  30.802  1.00  0.00     0.029 A 
ATOM     67  C   UNL A   1      45.066  36.499  31.154  1.00  0.00     0.049 A 
ATOM     68  H   UNL A   1      44.453  34.702  30.230  1.00  0.00     0.167 HD
ATOM     69  C   UNL A   1      43.145  35.731  32.518  1.00  0.00     0.074 A 
ATOM     70  C   UNL A   1      42.206  35.869  33.610  1.00  0.00     0.031 C 
ATOM     71  C   UNL A   1      44.130  36.627  32.245  1.00  0.00     0.034 A 
BRANCH  58  72
ATOM     72  C   UNL A   1      47.582  35.083  27.326  1.00  0.00     0.023 A 
ATOM     73  C   UNL A   1      48.886  34.639  27.608  1.00  0.00     0.031 A 
ATOM     74  C   UNL A   1      47.393  35.901  26.197  1.00  0.00     0.131 A 
ATOM     75  C   UNL A   1      49.960  35.082  26.820  1.00  0.00     0.055 A 
ATOM     76  C   UNL A   1      48.453  36.265  25.366  1.00  0.00     0.041 A 
ATOM     77  F   UNL A   1      46.176  36.377  25.895  1.00  0.00    -0.206 F 
ATOM     78  C   UNL A   1      49.749  35.870  25.686  1.00  0.00     0.022 A 
BRANCH  75  79
ATOM     79  S   UNL A   1      51.648  34.754  27.396  1.00  0.00     0.124 S 
ATOM     80  O   UNL A   1      52.439  35.546  26.457  1.00  0.00    -0.237 OA
ATOM     81  O   UNL A   1      51.613  35.239  28.770  1.00  0.00    -0.237 OA
ATOM     82  O   UNL A   1      51.785  33.306  27.247  1.00  0.00    -0.744 OA
ENDBRANCH  75  79
ENDBRANCH  58  72
BRANCH  59  83
ATOM     83  C   UNL A   1      39.878  32.382  33.119  1.00  0.00     0.023 A 
ATOM     84  C   UNL A   1      38.585  32.893  32.915  1.00  0.00     0.031 A 
ATOM     85  C   UNL A   1      40.080  31.555  34.238  1.00  0.00     0.131 A 
ATOM     86  C   UNL A   1      37.559  32.606  33.829  1.00  0.00     0.055 A 
ATOM     87  C   UNL A   1      39.045  31.231  35.119  1.00  0.00     0.041 A 
ATOM     88  F   UNL A   1      41.297  31.049  34.498  1.00  0.00    -0.206 F 
ATOM     89  C   UNL A   1      37.777  31.770  34.924  1.00  0.00     0.022 A 
BRANCH  86  90
ATOM     90  S   UNL A   1      35.947  33.403  33.598  1.00  0.00     0.124 S 
ATOM     91  O   UNL A   1      36.325  34.664  32.971  1.00  0.00    -0.237 OA
ATOM     92  O   UNL A   1      35.263  32.440  32.739  1.00  0.00    -0.237 OA
ATOM     93  O   UNL A   1      35.421  33.510  34.956  1.00  0.00    -0.744 OA
ENDBRANCH  86  90
ENDBRANCH  59  83
BRANCH  71  94
ATOM     94  C   UNL A   1      44.216  37.862  33.117  1.00  0.00     0.023 A 
ATOM     95  C   UNL A   1      43.467  39.020  32.846  1.00  0.00     0.031 A 
ATOM     96  C   UNL A   1      45.055  37.871  34.246  1.00  0.00     0.131 A 
ATOM     97  C   UNL A   1      43.611  40.156  33.660  1.00  0.00     0.055 A 
ATOM     98  C   UNL A   1      45.145  38.979  35.090  1.00  0.00     0.041 A 
ATOM     99  F   UNL A   1      45.797  36.796  34.556  1.00  0.00    -0.206 F 
ATOM    100  C   UNL A   1      44.431  40.135  34.792  1.00  0.00     0.022 A 
BRANCH  97 101
ATOM    101  S   UNL A   1      42.787  41.696  33.169  1.00  0.00     0.124 S 
ATOM    102  O   UNL A   1      43.920  42.576  32.902  1.00  0.00    -0.237 OA
ATOM    103  O   UNL A   1      42.015  41.279  32.003  1.00  0.00    -0.237 OA
ATOM    104  O   UNL A   1      41.991  42.050  34.344  1.00  0.00    -0.744 OA
ENDBRANCH  97 101
ENDBRANCH  71  94
ENDBRANCH  45  46
ENDBRANCH  38  40
ENDBRANCH  37  38
ENDBRANCH  36  37
ENDBRANCH  35  36
ENDBRANCH  34  35
ENDBRANCH  33  34
ENDBRANCH   1  33
TORSDOF 23
ENDMDL
