MODEL 1
REMARK VINA RESULT:      -8.9      0.000      0.000
REMARK SMILES C/C=C/C[C@@H](C(=O)OCCOCCOCCOC(=O)c1ccc(-c2c3nc(c(-c4cc(S(=O)(=O)[O-])ccc4F)c4ccc([nH]4)c(-c4cc(S(=O)(=O)[O-])ccc4F)c4nc(c(-c5cc(S(=O)(=O)[O-])ccc5F)c5ccc2[nH]5)C=C4)C=C3)cc1)c1cccc(Cl)c1
REMARK SMILES IDX 13 1 12 2 11 3 10 4 9 5 8 6 6 7 7 8 5 9 4 10 3 11 1 12 2 13
REMARK SMILES IDX 83 14 84 15 89 16 85 17 87 18 86 19 88 20 14 21 15 22 16 23
REMARK SMILES IDX 17 24 18 25 19 26 20 27 21 28 82 29 22 30 81 31 23 32 24 33
REMARK SMILES IDX 25 34 75 35 26 36 80 37 74 38 76 39 27 40 79 41 73 42 72 43
REMARK SMILES IDX 28 45 60 46 40 47 59 48 41 49 44 50 58 51 77 52 42 53 43 54
REMARK SMILES IDX 57 56 78 57 45 58 29 59 30 60 38 61 31 62 37 63 39 64 36 65
REMARK SMILES IDX 32 66 33 67 34 68 35 69 61 70 62 71 70 72 63 73 69 74 71 75
REMARK SMILES IDX 68 76 64 77 65 78 66 79 67 80 46 81 47 82 55 83 48 84 54 85
REMARK SMILES IDX 56 86 53 87 49 88 50 89 51 90 52 91
REMARK H PARENT 76 44 44 55
REMARK Flexibility Score: inf
ROOT
ATOM      1  C   UNL A   1      35.371  33.677  28.356  1.00  0.00     0.188 C 
ENDROOT
BRANCH   1   2
ATOM      2  C   UNL A   1      35.015  32.583  29.373  1.00  0.00     0.188 C 
BRANCH   2   3
ATOM      3  O   UNL A   1      35.463  31.255  29.126  1.00  0.00    -0.376 OA
BRANCH   3   4
ATOM      4  C   UNL A   1      35.423  30.780  27.783  1.00  0.00     0.202 C 
BRANCH   4   5
ATOM      5  C   UNL A   1      34.608  29.508  27.484  1.00  0.00     0.261 C 
BRANCH   5   6
ATOM      6  O   UNL A   1      33.177  29.711  27.406  1.00  0.00    -0.463 OA
BRANCH   6   7
ATOM      7  C   UNL A   1      32.618  29.684  26.167  1.00  0.00     0.313 C 
ATOM      8  O   UNL A   1      31.916  30.594  25.732  1.00  0.00    -0.252 OA
BRANCH   7   9
ATOM      9  C   UNL A   1      32.995  28.461  25.304  1.00  0.00     0.133 C 
BRANCH   9  10
ATOM     10  C   UNL A   1      33.394  28.699  23.819  1.00  0.00     0.047 C 
BRANCH  10  11
ATOM     11  C   UNL A   1      33.650  27.534  22.903  1.00  0.00    -0.030 C 
ATOM     12  C   UNL A   1      32.916  25.835  21.211  1.00  0.00     0.035 C 
ATOM     13  C   UNL A   1      32.677  26.911  22.219  1.00  0.00    -0.035 C 
ENDBRANCH  10  11
ENDBRANCH   9  10
BRANCH   9  14
ATOM     14  C   UNL A   1      32.014  27.267  25.431  1.00  0.00    -0.032 A 
ATOM     15  C   UNL A   1      32.346  26.061  26.074  1.00  0.00     0.005 A 
ATOM     16  C   UNL A   1      30.739  27.332  24.827  1.00  0.00     0.025 A 
ATOM     17  C   UNL A   1      31.441  24.991  26.139  1.00  0.00     0.002 A 
ATOM     18  C   UNL A   1      29.840  26.261  24.890  1.00  0.00     0.041 A 
ATOM     19  C   UNL A   1      30.184  25.091  25.547  1.00  0.00     0.020 A 
ATOM     20  Cl  UNL A   1      28.303  26.403  24.130  1.00  0.00    -0.084 Cl
ENDBRANCH   9  14
ENDBRANCH   7   9
ENDBRANCH   6   7
ENDBRANCH   5   6
ENDBRANCH   4   5
ENDBRANCH   3   4
ENDBRANCH   2   3
ENDBRANCH   1   2
BRANCH   1  21
ATOM     21  O   UNL A   1      34.269  34.454  27.935  1.00  0.00    -0.376 OA
BRANCH  21  22
ATOM     22  C   UNL A   1      34.124  35.745  28.501  1.00  0.00     0.202 C 
BRANCH  22  23
ATOM     23  C   UNL A   1      32.955  35.917  29.487  1.00  0.00     0.261 C 
BRANCH  23  24
ATOM     24  O   UNL A   1      32.865  34.940  30.540  1.00  0.00    -0.460 OA
BRANCH  24  25
ATOM     25  C   UNL A   1      32.937  35.403  31.812  1.00  0.00     0.338 C 
ATOM     26  O   UNL A   1      32.065  36.023  32.401  1.00  0.00    -0.246 OA
BRANCH  25  27
ATOM     27  C   UNL A   1      34.122  34.784  32.461  1.00  0.00     0.060 A 
ATOM     28  C   UNL A   1      35.384  35.363  32.254  1.00  0.00     0.016 A 
ATOM     29  C   UNL A   1      33.993  33.670  33.294  1.00  0.00     0.016 A 
ATOM     30  C   UNL A   1      36.523  34.798  32.832  1.00  0.00     0.010 A 
ATOM     31  C   UNL A   1      35.139  33.092  33.856  1.00  0.00     0.010 A 
ATOM     32  C   UNL A   1      36.415  33.626  33.592  1.00  0.00    -0.014 A 
BRANCH  32  33
ATOM     33  C   UNL A   1      37.637  32.828  33.888  1.00  0.00     0.031 A 
ATOM     34  C   UNL A   1      38.416  33.172  35.134  1.00  0.00     0.074 A 
ATOM     35  C   UNL A   1      38.034  31.803  33.111  1.00  0.00     0.049 A 
ATOM     36  N   UNL A   1      39.528  32.659  35.593  1.00  0.00    -0.248 NA
ATOM     37  C   UNL A   1      37.864  34.252  35.968  1.00  0.00     0.031 C 
ATOM     38  C   UNL A   1      37.350  31.340  31.906  1.00  0.00     0.029 A 
ATOM     39  N   UNL A   1      39.121  30.968  33.221  1.00  0.00    -0.354 N 
ATOM     40  C   UNL A   1      39.814  33.358  36.762  1.00  0.00     0.074 A 
ATOM     41  C   UNL A   1      38.779  34.358  36.917  1.00  0.00     0.031 C 
ATOM     42  C   UNL A   1      38.038  30.308  31.382  1.00  0.00     0.029 A 
ATOM     43  C   UNL A   1      39.232  30.061  32.192  1.00  0.00     0.049 A 
ATOM     44  H   UNL A   1      39.761  31.016  33.967  1.00  0.00     0.167 HD
ATOM     45  C   UNL A   1      40.837  33.179  37.633  1.00  0.00     0.034 A 
ATOM     46  C   UNL A   1      40.198  29.155  31.922  1.00  0.00     0.034 A 
ATOM     47  C   UNL A   1      41.866  32.182  37.469  1.00  0.00     0.049 A 
ATOM     48  C   UNL A   1      41.369  29.021  32.873  1.00  0.00     0.074 A 
ATOM     49  C   UNL A   1      42.937  31.909  38.300  1.00  0.00     0.029 A 
ATOM     50  N   UNL A   1      41.961  31.302  36.398  1.00  0.00    -0.354 N 
ATOM     51  N   UNL A   1      41.621  29.681  33.981  1.00  0.00    -0.248 NA
ATOM     52  C   UNL A   1      42.379  28.005  32.542  1.00  0.00     0.031 C 
ATOM     53  C   UNL A   1      43.725  30.925  37.694  1.00  0.00     0.029 A 
ATOM     54  C   UNL A   1      43.091  30.510  36.533  1.00  0.00     0.049 A 
ATOM     55  H   UNL A   1      41.320  31.248  35.654  1.00  0.00     0.167 HD
ATOM     56  C   UNL A   1      42.793  29.127  34.497  1.00  0.00     0.074 A 
ATOM     57  C   UNL A   1      43.185  28.070  33.590  1.00  0.00     0.031 C 
ATOM     58  C   UNL A   1      43.479  29.457  35.623  1.00  0.00     0.034 A 
BRANCH  45  59
ATOM     59  C   UNL A   1      40.925  34.124  38.808  1.00  0.00     0.023 A 
ATOM     60  C   UNL A   1      40.242  33.883  40.014  1.00  0.00     0.031 A 
ATOM     61  C   UNL A   1      41.697  35.296  38.713  1.00  0.00     0.131 A 
ATOM     62  C   UNL A   1      40.295  34.829  41.049  1.00  0.00     0.055 A 
ATOM     63  C   UNL A   1      41.813  36.191  39.777  1.00  0.00     0.041 A 
ATOM     64  F   UNL A   1      42.348  35.594  37.577  1.00  0.00    -0.206 F 
ATOM     65  C   UNL A   1      41.099  35.967  40.949  1.00  0.00     0.022 A 
BRANCH  62  66
ATOM     66  S   UNL A   1      39.192  34.622  42.475  1.00  0.00     0.124 S 
ATOM     67  O   UNL A   1      38.146  33.771  41.917  1.00  0.00    -0.237 OA
ATOM     68  O   UNL A   1      40.066  33.999  43.462  1.00  0.00    -0.237 OA
ATOM     69  O   UNL A   1      38.774  35.988  42.786  1.00  0.00    -0.744 OA
ENDBRANCH  62  66
ENDBRANCH  45  59
BRANCH  46  70
ATOM     70  C   UNL A   1      40.142  28.323  30.681  1.00  0.00     0.023 A 
ATOM     71  C   UNL A   1      40.907  28.645  29.547  1.00  0.00     0.031 A 
ATOM     72  C   UNL A   1      39.247  27.243  30.581  1.00  0.00     0.131 A 
ATOM     73  C   UNL A   1      40.717  27.938  28.348  1.00  0.00     0.055 A 
ATOM     74  C   UNL A   1      39.109  26.501  29.407  1.00  0.00     0.041 A 
ATOM     75  F   UNL A   1      38.483  26.894  31.629  1.00  0.00    -0.206 F 
ATOM     76  C   UNL A   1      39.835  26.858  28.275  1.00  0.00     0.022 A 
BRANCH  73  77
ATOM     77  S   UNL A   1      41.554  28.524  26.847  1.00  0.00     0.124 S 
ATOM     78  O   UNL A   1      42.093  27.282  26.306  1.00  0.00    -0.237 OA
ATOM     79  O   UNL A   1      40.450  29.123  26.103  1.00  0.00    -0.237 OA
ATOM     80  O   UNL A   1      42.545  29.469  27.356  1.00  0.00    -0.744 OA
ENDBRANCH  73  77
ENDBRANCH  46  70
BRANCH  58  81
ATOM     81  C   UNL A   1      44.688  28.615  35.973  1.00  0.00     0.023 A 
ATOM     82  C   UNL A   1      44.580  27.413  36.696  1.00  0.00     0.031 A 
ATOM     83  C   UNL A   1      45.976  29.043  35.603  1.00  0.00     0.131 A 
ATOM     84  C   UNL A   1      45.739  26.729  37.097  1.00  0.00     0.055 A 
ATOM     85  C   UNL A   1      47.120  28.317  35.936  1.00  0.00     0.041 A 
ATOM     86  F   UNL A   1      46.147  30.182  34.913  1.00  0.00    -0.206 F 
ATOM     87  C   UNL A   1      47.008  27.163  36.705  1.00  0.00     0.022 A 
BRANCH  84  88
ATOM     88  S   UNL A   1      45.575  25.344  38.258  1.00  0.00     0.124 S 
ATOM     89  O   UNL A   1      46.628  24.442  37.803  1.00  0.00    -0.237 OA
ATOM     90  O   UNL A   1      45.802  25.990  39.546  1.00  0.00    -0.237 OA
ATOM     91  O   UNL A   1      44.211  24.869  38.035  1.00  0.00    -0.744 OA
ENDBRANCH  84  88
ENDBRANCH  58  81
ENDBRANCH  32  33
ENDBRANCH  25  27
ENDBRANCH  24  25
ENDBRANCH  23  24
ENDBRANCH  22  23
ENDBRANCH  21  22
ENDBRANCH   1  21
TORSDOF 23
ENDMDL
MODEL 2
REMARK VINA RESULT:      -8.8      2.444      3.224
REMARK SMILES C/C=C/C[C@@H](C(=O)OCCOCCOCCOC(=O)c1ccc(-c2c3nc(c(-c4cc(S(=O)(=O)[O-])ccc4F)c4ccc([nH]4)c(-c4cc(S(=O)(=O)[O-])ccc4F)c4nc(c(-c5cc(S(=O)(=O)[O-])ccc5F)c5ccc2[nH]5)C=C4)C=C3)cc1)c1cccc(Cl)c1
REMARK SMILES IDX 13 1 12 2 11 3 10 4 9 5 8 6 6 7 7 8 5 9 4 10 3 11 1 12 2 13
REMARK SMILES IDX 83 14 84 15 89 16 85 17 87 18 86 19 88 20 14 21 15 22 16 23
REMARK SMILES IDX 17 24 18 25 19 26 20 27 21 28 82 29 22 30 81 31 23 32 24 33
REMARK SMILES IDX 25 34 75 35 26 36 80 37 74 38 76 39 27 40 79 41 73 42 72 43
REMARK SMILES IDX 28 45 60 46 40 47 59 48 41 49 44 50 58 51 77 52 42 53 43 54
REMARK SMILES IDX 57 56 78 57 45 58 29 59 30 60 38 61 31 62 37 63 39 64 36 65
REMARK SMILES IDX 32 66 33 67 34 68 35 69 61 70 62 71 70 72 63 73 69 74 71 75
REMARK SMILES IDX 68 76 64 77 65 78 66 79 67 80 46 81 47 82 55 83 48 84 54 85
REMARK SMILES IDX 56 86 53 87 49 88 50 89 51 90 52 91
REMARK H PARENT 76 44 44 55
REMARK Flexibility Score: inf
ROOT
ATOM      1  C   UNL A   1      34.555  33.693  28.077  1.00  0.00     0.188 C 
ENDROOT
BRANCH   1   2
ATOM      2  C   UNL A   1      33.603  32.529  27.767  1.00  0.00     0.188 C 
BRANCH   2   3
ATOM      3  O   UNL A   1      32.332  32.826  27.200  1.00  0.00    -0.376 OA
BRANCH   3   4
ATOM      4  C   UNL A   1      31.545  31.735  26.728  1.00  0.00     0.202 C 
BRANCH   4   5
ATOM      5  C   UNL A   1      32.135  30.316  26.827  1.00  0.00     0.261 C 
BRANCH   5   6
ATOM      6  O   UNL A   1      32.837  29.869  25.643  1.00  0.00    -0.463 OA
BRANCH   6   7
ATOM      7  C   UNL A   1      33.781  28.906  25.812  1.00  0.00     0.313 C 
ATOM      8  O   UNL A   1      34.553  28.891  26.768  1.00  0.00    -0.252 OA
BRANCH   7   9
ATOM      9  C   UNL A   1      33.763  27.777  24.760  1.00  0.00     0.133 C 
BRANCH   9  10
ATOM     10  C   UNL A   1      33.015  28.028  23.419  1.00  0.00     0.047 C 
BRANCH  10  11
ATOM     11  C   UNL A   1      33.284  27.156  22.222  1.00  0.00    -0.030 C 
ATOM     12  C   UNL A   1      32.616  25.408  20.554  1.00  0.00     0.035 C 
ATOM     13  C   UNL A   1      32.435  26.203  21.805  1.00  0.00    -0.035 C 
ENDBRANCH  10  11
ENDBRANCH   9  10
BRANCH   9  14
ATOM     14  C   UNL A   1      33.418  26.378  25.335  1.00  0.00    -0.032 A 
ATOM     15  C   UNL A   1      32.163  26.056  25.879  1.00  0.00     0.005 A 
ATOM     16  C   UNL A   1      34.410  25.374  25.388  1.00  0.00     0.025 A 
ATOM     17  C   UNL A   1      31.902  24.787  26.419  1.00  0.00     0.002 A 
ATOM     18  C   UNL A   1      34.147  24.110  25.931  1.00  0.00     0.041 A 
ATOM     19  C   UNL A   1      32.895  23.811  26.444  1.00  0.00     0.020 A 
ATOM     20  Cl  UNL A   1      35.399  22.930  25.970  1.00  0.00    -0.084 Cl
ENDBRANCH   9  14
ENDBRANCH   7   9
ENDBRANCH   6   7
ENDBRANCH   5   6
ENDBRANCH   4   5
ENDBRANCH   3   4
ENDBRANCH   2   3
ENDBRANCH   1   2
BRANCH   1  21
ATOM     21  O   UNL A   1      34.023  34.968  27.782  1.00  0.00    -0.376 OA
BRANCH  21  22
ATOM     22  C   UNL A   1      34.050  35.943  28.810  1.00  0.00     0.202 C 
BRANCH  22  23
ATOM     23  C   UNL A   1      32.960  35.810  29.889  1.00  0.00     0.261 C 
BRANCH  23  24
ATOM     24  O   UNL A   1      33.083  34.687  30.781  1.00  0.00    -0.460 OA
BRANCH  24  25
ATOM     25  C   UNL A   1      33.882  34.851  31.864  1.00  0.00     0.338 C 
ATOM     26  O   UNL A   1      33.583  35.437  32.894  1.00  0.00    -0.246 OA
BRANCH  25  27
ATOM     27  C   UNL A   1      35.060  33.959  31.708  1.00  0.00     0.060 A 
ATOM     28  C   UNL A   1      34.956  32.624  32.129  1.00  0.00     0.016 A 
ATOM     29  C   UNL A   1      36.242  34.416  31.120  1.00  0.00     0.016 A 
ATOM     30  C   UNL A   1      36.049  31.761  32.015  1.00  0.00     0.010 A 
ATOM     31  C   UNL A   1      37.343  33.555  31.026  1.00  0.00     0.010 A 
ATOM     32  C   UNL A   1      37.267  32.237  31.515  1.00  0.00    -0.014 A 
BRANCH  32  33
ATOM     33  C   UNL A   1      38.510  31.446  31.737  1.00  0.00     0.031 A 
ATOM     34  C   UNL A   1      39.320  31.744  32.974  1.00  0.00     0.074 A 
ATOM     35  C   UNL A   1      38.898  30.466  30.900  1.00  0.00     0.049 A 
ATOM     36  N   UNL A   1      40.453  31.227  33.376  1.00  0.00    -0.248 NA
ATOM     37  C   UNL A   1      38.778  32.774  33.875  1.00  0.00     0.031 C 
ATOM     38  C   UNL A   1      38.185  30.048  29.695  1.00  0.00     0.029 A 
ATOM     39  N   UNL A   1      40.000  29.644  30.939  1.00  0.00    -0.354 N 
ATOM     40  C   UNL A   1      40.763  31.875  34.568  1.00  0.00     0.074 A 
ATOM     41  C   UNL A   1      39.719  32.850  34.800  1.00  0.00     0.031 C 
ATOM     42  C   UNL A   1      38.873  29.054  29.103  1.00  0.00     0.029 A 
ATOM     43  C   UNL A   1      40.094  28.788  29.865  1.00  0.00     0.049 A 
ATOM     44  H   UNL A   1      40.661  29.667  31.667  1.00  0.00     0.167 HD
ATOM     45  C   UNL A   1      41.815  31.672  35.399  1.00  0.00     0.034 A 
ATOM     46  C   UNL A   1      41.064  27.912  29.524  1.00  0.00     0.034 A 
ATOM     47  C   UNL A   1      42.853  30.701  35.158  1.00  0.00     0.049 A 
ATOM     48  C   UNL A   1      42.266  27.752  30.433  1.00  0.00     0.074 A 
ATOM     49  C   UNL A   1      43.953  30.406  35.943  1.00  0.00     0.029 A 
ATOM     50  N   UNL A   1      42.929  29.874  34.044  1.00  0.00    -0.354 N 
ATOM     51  N   UNL A   1      42.541  28.363  31.563  1.00  0.00    -0.248 NA
ATOM     52  C   UNL A   1      43.279  26.769  30.025  1.00  0.00     0.031 C 
ATOM     53  C   UNL A   1      44.737  29.464  35.268  1.00  0.00     0.029 A 
ATOM     54  C   UNL A   1      44.074  29.094  34.108  1.00  0.00     0.049 A 
ATOM     55  H   UNL A   1      42.267  29.845  33.317  1.00  0.00     0.167 HD
ATOM     56  C   UNL A   1      43.735  27.804  32.018  1.00  0.00     0.074 A 
ATOM     57  C   UNL A   1      44.116  26.798  31.051  1.00  0.00     0.031 C 
ATOM     58  C   UNL A   1      44.450  28.092  33.137  1.00  0.00     0.034 A 
BRANCH  45  59
ATOM     59  C   UNL A   1      41.924  32.562  36.615  1.00  0.00     0.023 A 
ATOM     60  C   UNL A   1      41.125  32.369  37.756  1.00  0.00     0.031 A 
ATOM     61  C   UNL A   1      42.836  33.632  36.624  1.00  0.00     0.131 A 
ATOM     62  C   UNL A   1      41.211  33.269  38.830  1.00  0.00     0.055 A 
ATOM     63  C   UNL A   1      42.976  34.473  37.729  1.00  0.00     0.041 A 
ATOM     64  F   UNL A   1      43.604  33.884  35.552  1.00  0.00    -0.206 F 
ATOM     65  C   UNL A   1      42.151  34.302  38.836  1.00  0.00     0.022 A 
BRANCH  62  66
ATOM     66  S   UNL A   1      39.984  33.154  40.162  1.00  0.00     0.124 S 
ATOM     67  O   UNL A   1      40.816  32.760  41.295  1.00  0.00    -0.237 OA
ATOM     68  O   UNL A   1      39.440  34.507  40.207  1.00  0.00    -0.237 OA
ATOM     69  O   UNL A   1      39.060  32.125  39.689  1.00  0.00    -0.744 OA
ENDBRANCH  62  66
ENDBRANCH  45  59
BRANCH  46  70
ATOM     70  C   UNL A   1      40.984  27.139  28.247  1.00  0.00     0.023 A 
ATOM     71  C   UNL A   1      40.679  25.767  28.237  1.00  0.00     0.031 A 
ATOM     72  C   UNL A   1      41.304  27.747  27.019  1.00  0.00     0.131 A 
ATOM     73  C   UNL A   1      40.763  25.039  27.039  1.00  0.00     0.055 A 
ATOM     74  C   UNL A   1      41.322  27.033  25.820  1.00  0.00     0.041 A 
ATOM     75  F   UNL A   1      41.612  29.053  26.968  1.00  0.00    -0.206 F 
ATOM     76  C   UNL A   1      41.067  25.665  25.828  1.00  0.00     0.022 A 
BRANCH  73  77
ATOM     77  S   UNL A   1      40.586  23.233  27.101  1.00  0.00     0.124 S 
ATOM     78  O   UNL A   1      39.184  23.061  26.735  1.00  0.00    -0.237 OA
ATOM     79  O   UNL A   1      41.566  22.800  26.110  1.00  0.00    -0.237 OA
ATOM     80  O   UNL A   1      40.916  22.905  28.486  1.00  0.00    -0.744 OA
ENDBRANCH  73  77
ENDBRANCH  46  70
BRANCH  58  81
ATOM     81  C   UNL A   1      45.681  27.254  33.411  1.00  0.00     0.023 A 
ATOM     82  C   UNL A   1      45.614  26.020  34.082  1.00  0.00     0.031 A 
ATOM     83  C   UNL A   1      46.951  27.719  33.022  1.00  0.00     0.131 A 
ATOM     84  C   UNL A   1      46.794  25.337  34.416  1.00  0.00     0.055 A 
ATOM     85  C   UNL A   1      48.116  26.996  33.286  1.00  0.00     0.041 A 
ATOM     86  F   UNL A   1      47.084  28.891  32.380  1.00  0.00    -0.206 F 
ATOM     87  C   UNL A   1      48.043  25.808  34.005  1.00  0.00     0.022 A 
BRANCH  84  88
ATOM     88  S   UNL A   1      46.687  23.898  35.517  1.00  0.00     0.124 S 
ATOM     89  O   UNL A   1      45.674  23.084  34.853  1.00  0.00    -0.237 OA
ATOM     90  O   UNL A   1      48.049  23.377  35.479  1.00  0.00    -0.237 OA
ATOM     91  O   UNL A   1      46.279  24.475  36.796  1.00  0.00    -0.744 OA
ENDBRANCH  84  88
ENDBRANCH  58  81
ENDBRANCH  32  33
ENDBRANCH  25  27
ENDBRANCH  24  25
ENDBRANCH  23  24
ENDBRANCH  22  23
ENDBRANCH  21  22
ENDBRANCH   1  21
TORSDOF 23
ENDMDL
MODEL 3
REMARK VINA RESULT:      -8.7      1.088      7.869
REMARK SMILES C/C=C/C[C@@H](C(=O)OCCOCCOCCOC(=O)c1ccc(-c2c3nc(c(-c4cc(S(=O)(=O)[O-])ccc4F)c4ccc([nH]4)c(-c4cc(S(=O)(=O)[O-])ccc4F)c4nc(c(-c5cc(S(=O)(=O)[O-])ccc5F)c5ccc2[nH]5)C=C4)C=C3)cc1)c1cccc(Cl)c1
REMARK SMILES IDX 13 1 12 2 11 3 10 4 9 5 8 6 6 7 7 8 5 9 4 10 3 11 1 12 2 13
REMARK SMILES IDX 83 14 84 15 89 16 85 17 87 18 86 19 88 20 14 21 15 22 16 23
REMARK SMILES IDX 17 24 18 25 19 26 20 27 21 28 82 29 22 30 81 31 23 32 24 33
REMARK SMILES IDX 25 34 75 35 26 36 80 37 74 38 76 39 27 40 79 41 73 42 72 43
REMARK SMILES IDX 28 45 60 46 40 47 59 48 41 49 44 50 58 51 77 52 42 53 43 54
REMARK SMILES IDX 57 56 78 57 45 58 29 59 30 60 38 61 31 62 37 63 39 64 36 65
REMARK SMILES IDX 32 66 33 67 34 68 35 69 61 70 62 71 70 72 63 73 69 74 71 75
REMARK SMILES IDX 68 76 64 77 65 78 66 79 67 80 46 81 47 82 55 83 48 84 54 85
REMARK SMILES IDX 56 86 53 87 49 88 50 89 51 90 52 91
REMARK H PARENT 76 44 44 55
REMARK Flexibility Score: inf
ROOT
ATOM      1  C   UNL A   1      34.865  33.879  28.506  1.00  0.00     0.188 C 
ENDROOT
BRANCH   1   2
ATOM      2  C   UNL A   1      34.792  32.578  29.319  1.00  0.00     0.188 C 
BRANCH   2   3
ATOM      3  O   UNL A   1      35.050  31.346  28.653  1.00  0.00    -0.376 OA
BRANCH   3   4
ATOM      4  C   UNL A   1      34.227  31.008  27.541  1.00  0.00     0.202 C 
BRANCH   4   5
ATOM      5  C   UNL A   1      33.854  29.528  27.336  1.00  0.00     0.261 C 
BRANCH   5   6
ATOM      6  O   UNL A   1      32.432  29.262  27.293  1.00  0.00    -0.463 OA
BRANCH   6   7
ATOM      7  C   UNL A   1      32.051  27.981  27.044  1.00  0.00     0.313 C 
ATOM      8  O   UNL A   1      31.066  27.465  27.566  1.00  0.00    -0.252 OA
BRANCH   7   9
ATOM      9  C   UNL A   1      32.897  27.239  25.988  1.00  0.00     0.133 C 
BRANCH   9  10
ATOM     10  C   UNL A   1      32.805  27.706  24.506  1.00  0.00     0.047 C 
BRANCH  10  11
ATOM     11  C   UNL A   1      31.503  27.612  23.757  1.00  0.00    -0.030 C 
ATOM     12  C   UNL A   1      29.319  28.562  22.976  1.00  0.00     0.035 C 
ATOM     13  C   UNL A   1      30.563  28.569  23.802  1.00  0.00    -0.035 C 
ENDBRANCH  10  11
ENDBRANCH   9  10
BRANCH   9  14
ATOM     14  C   UNL A   1      32.828  25.693  26.089  1.00  0.00    -0.032 A 
ATOM     15  C   UNL A   1      33.897  24.849  25.741  1.00  0.00     0.005 A 
ATOM     16  C   UNL A   1      31.627  25.065  26.484  1.00  0.00     0.025 A 
ATOM     17  C   UNL A   1      33.783  23.452  25.816  1.00  0.00     0.002 A 
ATOM     18  C   UNL A   1      31.514  23.671  26.554  1.00  0.00     0.041 A 
ATOM     19  C   UNL A   1      32.590  22.861  26.225  1.00  0.00     0.020 A 
ATOM     20  Cl  UNL A   1      30.022  22.966  27.041  1.00  0.00    -0.084 Cl
ENDBRANCH   9  14
ENDBRANCH   7   9
ENDBRANCH   6   7
ENDBRANCH   5   6
ENDBRANCH   4   5
ENDBRANCH   3   4
ENDBRANCH   2   3
ENDBRANCH   1   2
BRANCH   1  21
ATOM     21  O   UNL A   1      33.630  34.554  28.385  1.00  0.00    -0.376 OA
BRANCH  21  22
ATOM     22  C   UNL A   1      33.594  35.923  28.746  1.00  0.00     0.202 C 
BRANCH  22  23
ATOM     23  C   UNL A   1      32.670  36.282  29.924  1.00  0.00     0.261 C 
BRANCH  23  24
ATOM     24  O   UNL A   1      32.544  35.287  30.957  1.00  0.00    -0.460 OA
BRANCH  24  25
ATOM     25  C   UNL A   1      33.062  35.597  32.171  1.00  0.00     0.338 C 
ATOM     26  O   UNL A   1      32.498  36.228  33.052  1.00  0.00    -0.246 OA
BRANCH  25  27
ATOM     27  C   UNL A   1      34.301  34.799  32.360  1.00  0.00     0.060 A 
ATOM     28  C   UNL A   1      34.207  33.545  32.983  1.00  0.00     0.016 A 
ATOM     29  C   UNL A   1      35.536  35.258  31.898  1.00  0.00     0.016 A 
ATOM     30  C   UNL A   1      35.353  32.775  33.196  1.00  0.00     0.010 A 
ATOM     31  C   UNL A   1      36.687  34.495  32.130  1.00  0.00     0.010 A 
ATOM     32  C   UNL A   1      36.609  33.270  32.821  1.00  0.00    -0.014 A 
BRANCH  32  33
ATOM     33  C   UNL A   1      37.840  32.639  33.370  1.00  0.00     0.031 A 
ATOM     34  C   UNL A   1      38.482  31.533  32.568  1.00  0.00     0.074 A 
ATOM     35  C   UNL A   1      38.408  33.048  34.520  1.00  0.00     0.049 A 
ATOM     36  N   UNL A   1      39.530  30.800  32.843  1.00  0.00    -0.248 NA
ATOM     37  C   UNL A   1      37.841  31.206  31.284  1.00  0.00     0.031 C 
ATOM     38  C   UNL A   1      37.916  34.132  35.368  1.00  0.00     0.029 A 
ATOM     39  N   UNL A   1      39.525  32.590  35.177  1.00  0.00    -0.354 N 
ATOM     40  C   UNL A   1      39.669  29.921  31.773  1.00  0.00     0.074 A 
ATOM     41  C   UNL A   1      38.573  30.187  30.866  1.00  0.00     0.031 C 
ATOM     42  C   UNL A   1      38.723  34.249  36.439  1.00  0.00     0.029 A 
ATOM     43  C   UNL A   1      39.768  33.227  36.374  1.00  0.00     0.049 A 
ATOM     44  H   UNL A   1      40.098  31.872  34.824  1.00  0.00     0.167 HD
ATOM     45  C   UNL A   1      40.625  28.985  31.558  1.00  0.00     0.034 A 
ATOM     46  C   UNL A   1      40.707  32.993  37.316  1.00  0.00     0.034 A 
ATOM     47  C   UNL A   1      41.713  28.725  32.470  1.00  0.00     0.049 A 
ATOM     48  C   UNL A   1      41.725  31.894  37.087  1.00  0.00     0.074 A 
ATOM     49  C   UNL A   1      42.742  27.810  32.339  1.00  0.00     0.029 A 
ATOM     50  N   UNL A   1      41.907  29.369  33.684  1.00  0.00    -0.354 N 
ATOM     51  N   UNL A   1      41.851  31.077  36.065  1.00  0.00    -0.248 NA
ATOM     52  C   UNL A   1      42.737  31.698  38.135  1.00  0.00     0.031 C 
ATOM     53  C   UNL A   1      43.509  27.841  33.509  1.00  0.00     0.029 A 
ATOM     54  C   UNL A   1      43.020  28.847  34.327  1.00  0.00     0.049 A 
ATOM     55  H   UNL A   1      41.339  30.091  34.038  1.00  0.00     0.167 HD
ATOM     56  C   UNL A   1      42.982  30.306  36.332  1.00  0.00     0.074 A 
ATOM     57  C   UNL A   1      43.508  30.766  37.598  1.00  0.00     0.031 C 
ATOM     58  C   UNL A   1      43.540  29.310  35.593  1.00  0.00     0.034 A 
BRANCH  45  59
ATOM     59  C   UNL A   1      40.501  28.133  30.317  1.00  0.00     0.023 A 
ATOM     60  C   UNL A   1      41.375  28.272  29.224  1.00  0.00     0.031 A 
ATOM     61  C   UNL A   1      39.478  27.172  30.223  1.00  0.00     0.131 A 
ATOM     62  C   UNL A   1      41.171  27.510  28.064  1.00  0.00     0.055 A 
ATOM     63  C   UNL A   1      39.332  26.359  29.099  1.00  0.00     0.041 A 
ATOM     64  F   UNL A   1      38.595  27.015  31.222  1.00  0.00    -0.206 F 
ATOM     65  C   UNL A   1      40.173  26.534  28.005  1.00  0.00     0.022 A 
BRANCH  62  66
ATOM     66  S   UNL A   1      42.140  27.904  26.582  1.00  0.00     0.124 S 
ATOM     67  O   UNL A   1      41.341  27.277  25.532  1.00  0.00    -0.237 OA
ATOM     68  O   UNL A   1      42.152  29.362  26.591  1.00  0.00    -0.237 OA
ATOM     69  O   UNL A   1      43.430  27.267  26.836  1.00  0.00    -0.744 OA
ENDBRANCH  62  66
ENDBRANCH  45  59
BRANCH  46  70
ATOM     70  C   UNL A   1      40.723  33.773  38.591  1.00  0.00     0.023 A 
ATOM     71  C   UNL A   1      39.874  33.446  39.662  1.00  0.00     0.031 A 
ATOM     72  C   UNL A   1      41.526  34.921  38.720  1.00  0.00     0.131 A 
ATOM     73  C   UNL A   1      39.802  34.289  40.783  1.00  0.00     0.055 A 
ATOM     74  C   UNL A   1      41.500  35.720  39.865  1.00  0.00     0.041 A 
ATOM     75  F   UNL A   1      42.351  35.288  37.726  1.00  0.00    -0.206 F 
ATOM     76  C   UNL A   1      40.620  35.415  40.898  1.00  0.00     0.022 A 
BRANCH  73  77
ATOM     77  S   UNL A   1      38.535  33.961  42.042  1.00  0.00     0.124 S 
ATOM     78  O   UNL A   1      38.292  32.535  41.851  1.00  0.00    -0.237 OA
ATOM     79  O   UNL A   1      39.229  34.335  43.271  1.00  0.00    -0.237 OA
ATOM     80  O   UNL A   1      37.435  34.841  41.656  1.00  0.00    -0.744 OA
ENDBRANCH  73  77
ENDBRANCH  46  70
BRANCH  58  81
ATOM     81  C   UNL A   1      44.828  28.701  36.106  1.00  0.00     0.023 A 
ATOM     82  C   UNL A   1      44.841  27.574  36.947  1.00  0.00     0.031 A 
ATOM     83  C   UNL A   1      46.065  29.284  35.773  1.00  0.00     0.131 A 
ATOM     84  C   UNL A   1      46.053  27.118  37.490  1.00  0.00     0.055 A 
ATOM     85  C   UNL A   1      47.273  28.777  36.251  1.00  0.00     0.041 A 
ATOM     86  F   UNL A   1      46.120  30.363  34.976  1.00  0.00    -0.206 F 
ATOM     87  C   UNL A   1      47.271  27.701  37.132  1.00  0.00     0.022 A 
BRANCH  84  88
ATOM     88  S   UNL A   1      46.004  25.843  38.781  1.00  0.00     0.124 S 
ATOM     89  O   UNL A   1      47.237  26.109  39.514  1.00  0.00    -0.237 OA
ATOM     90  O   UNL A   1      44.765  26.159  39.482  1.00  0.00    -0.237 OA
ATOM     91  O   UNL A   1      45.988  24.591  38.026  1.00  0.00    -0.744 OA
ENDBRANCH  84  88
ENDBRANCH  58  81
ENDBRANCH  32  33
ENDBRANCH  25  27
ENDBRANCH  24  25
ENDBRANCH  23  24
ENDBRANCH  22  23
ENDBRANCH  21  22
ENDBRANCH   1  21
TORSDOF 23
ENDMDL
