MODEL 1
REMARK VINA RESULT:     -10.7      0.000      0.000
REMARK SMILES Cc1cc(Cl)cc2c1O[C@H](C(F)(F)F)C(C(=O)OCCOCCOCCOC(=O)c1ccc(-c3c4nc(c(-c5cc(S(=O)(=O)[O-])ccc5F)c5ccc([nH]5)c(-c5cc(S(=O)(=O)[O-])ccc5F)c5nc(c(-c6cc(S(=O)(=O)[O-])ccc6F)c6ccc3[nH]6)C=C5)C=C4)cc1)=C2
REMARK SMILES IDX 23 1 22 2 21 3 20 4 19 5 18 6 16 7 17 8 15 9 1 10 2 11 3 12
REMARK SMILES IDX 8 13 4 14 7 15 9 16 5 17 6 18 93 19 10 20 11 21 12 22 13 23
REMARK SMILES IDX 14 24 24 25 25 26 26 27 27 28 28 29 29 30 30 31 31 32 92 33
REMARK SMILES IDX 32 34 91 35 33 36 34 37 35 38 85 39 36 40 90 41 84 42 86 43
REMARK SMILES IDX 37 44 89 45 83 46 82 47 38 49 70 50 50 51 69 52 51 53 54 54
REMARK SMILES IDX 68 55 87 56 52 57 53 58 67 60 88 61 55 62 39 63 40 64 48 65
REMARK SMILES IDX 41 66 47 67 49 68 46 69 42 70 43 71 44 72 45 73 71 74 72 75
REMARK SMILES IDX 80 76 73 77 79 78 81 79 78 80 74 81 75 82 76 83 77 84 56 85
REMARK SMILES IDX 57 86 65 87 58 88 64 89 66 90 63 91 59 92 60 93 61 94 62 95
REMARK H PARENT 86 48 54 59
REMARK Flexibility Score: inf
ROOT
ATOM      1  C   UNL A   1      37.499  21.961  25.455  1.00  0.00     0.188 C 
ENDROOT
BRANCH   1   2
ATOM      2  C   UNL A   1      36.013  22.262  25.746  1.00  0.00     0.188 C 
BRANCH   2   3
ATOM      3  O   UNL A   1      35.166  21.270  26.300  1.00  0.00    -0.376 OA
BRANCH   3   4
ATOM      4  C   UNL A   1      33.840  21.122  25.823  1.00  0.00     0.202 C 
BRANCH   4   5
ATOM      5  C   UNL A   1      32.668  21.619  26.671  1.00  0.00     0.261 C 
BRANCH   5   6
ATOM      6  O   UNL A   1      32.780  23.007  27.020  1.00  0.00    -0.460 OA
BRANCH   6   7
ATOM      7  C   UNL A   1      31.672  23.748  26.784  1.00  0.00     0.338 C 
ATOM      8  O   UNL A   1      30.537  23.505  27.164  1.00  0.00    -0.246 OA
BRANCH   7   9
ATOM      9  C   UNL A   1      32.044  24.984  26.073  1.00  0.00     0.087 C 
ATOM     10  C   UNL A   1      33.196  28.574  22.561  1.00  0.00     0.048 C 
ATOM     11  C   UNL A   1      32.780  28.546  24.005  1.00  0.00    -0.007 A 
ATOM     12  C   UNL A   1      32.505  29.765  24.645  1.00  0.00     0.027 A 
ATOM     13  C   UNL A   1      32.587  27.347  24.711  1.00  0.00     0.131 A 
ATOM     14  C   UNL A   1      32.069  29.787  25.968  1.00  0.00     0.042 A 
ATOM     15  C   UNL A   1      32.121  27.374  26.032  1.00  0.00     0.019 A 
ATOM     16  O   UNL A   1      32.865  26.184  24.047  1.00  0.00    -0.475 OA
ATOM     17  Cl  UNL A   1      31.736  31.290  26.730  1.00  0.00    -0.084 Cl
ATOM     18  C   UNL A   1      31.878  28.598  26.666  1.00  0.00     0.032 A 
ATOM     19  C   UNL A   1      31.832  26.132  26.728  1.00  0.00     0.027 C 
ATOM     20  C   UNL A   1      32.614  24.905  24.686  1.00  0.00     0.316 C 
BRANCH  20  21
ATOM     21  C   UNL A   1      31.744  24.066  23.737  1.00  0.00     0.430 C 
ATOM     22  F   UNL A   1      30.428  24.181  24.048  1.00  0.00    -0.167 F 
ATOM     23  F   UNL A   1      31.867  24.468  22.450  1.00  0.00    -0.167 F 
ATOM     24  F   UNL A   1      32.057  22.752  23.783  1.00  0.00    -0.167 F 
ENDBRANCH  20  21
ENDBRANCH   7   9
ENDBRANCH   6   7
ENDBRANCH   5   6
ENDBRANCH   4   5
ENDBRANCH   3   4
ENDBRANCH   2   3
ENDBRANCH   1   2
BRANCH   1  25
ATOM     25  O   UNL A   1      37.880  20.938  24.561  1.00  0.00    -0.376 OA
BRANCH  25  26
ATOM     26  C   UNL A   1      38.129  19.620  25.022  1.00  0.00     0.202 C 
BRANCH  26  27
ATOM     27  C   UNL A   1      39.262  19.254  25.990  1.00  0.00     0.261 C 
BRANCH  27  28
ATOM     28  O   UNL A   1      40.592  19.412  25.492  1.00  0.00    -0.460 OA
BRANCH  28  29
ATOM     29  C   UNL A   1      41.536  19.603  26.448  1.00  0.00     0.338 C 
ATOM     30  O   UNL A   1      42.363  18.799  26.839  1.00  0.00    -0.246 OA
BRANCH  29  31
ATOM     31  C   UNL A   1      41.541  21.025  26.834  1.00  0.00     0.060 A 
ATOM     32  C   UNL A   1      41.202  21.976  25.863  1.00  0.00     0.016 A 
ATOM     33  C   UNL A   1      41.913  21.417  28.121  1.00  0.00     0.016 A 
ATOM     34  C   UNL A   1      41.256  23.333  26.172  1.00  0.00     0.010 A 
ATOM     35  C   UNL A   1      41.998  22.778  28.419  1.00  0.00     0.010 A 
ATOM     36  C   UNL A   1      41.699  23.740  27.438  1.00  0.00    -0.014 A 
BRANCH  36  37
ATOM     37  C   UNL A   1      42.067  25.158  27.656  1.00  0.00     0.031 A 
ATOM     38  C   UNL A   1      43.439  25.604  27.230  1.00  0.00     0.074 A 
ATOM     39  C   UNL A   1      41.200  26.036  28.187  1.00  0.00     0.049 A 
ATOM     40  N   UNL A   1      44.015  26.767  27.372  1.00  0.00    -0.248 NA
ATOM     41  C   UNL A   1      44.270  24.597  26.546  1.00  0.00     0.031 C 
ATOM     42  C   UNL A   1      39.821  25.740  28.570  1.00  0.00     0.029 A 
ATOM     43  N   UNL A   1      41.356  27.365  28.492  1.00  0.00    -0.354 N 
ATOM     44  C   UNL A   1      45.270  26.639  26.788  1.00  0.00     0.074 A 
ATOM     45  C   UNL A   1      45.384  25.275  26.318  1.00  0.00     0.031 C 
ATOM     46  C   UNL A   1      39.256  26.858  29.062  1.00  0.00     0.029 A 
ATOM     47  C   UNL A   1      40.245  27.936  29.065  1.00  0.00     0.049 A 
ATOM     48  H   UNL A   1      42.187  27.863  28.315  1.00  0.00     0.167 HD
ATOM     49  C   UNL A   1      46.239  27.574  26.649  1.00  0.00     0.034 A 
ATOM     50  C   UNL A   1      40.061  29.177  29.559  1.00  0.00     0.034 A 
ATOM     51  C   UNL A   1      46.129  28.922  27.142  1.00  0.00     0.049 A 
ATOM     52  C   UNL A   1      41.202  30.165  29.513  1.00  0.00     0.074 A 
ATOM     53  C   UNL A   1      47.060  29.942  27.074  1.00  0.00     0.029 A 
ATOM     54  N   UNL A   1      45.022  29.436  27.803  1.00  0.00    -0.354 N 
ATOM     55  N   UNL A   1      42.402  30.019  29.001  1.00  0.00    -0.248 NA
ATOM     56  C   UNL A   1      40.967  31.482  30.124  1.00  0.00     0.031 C 
ATOM     57  C   UNL A   1      46.541  31.052  27.746  1.00  0.00     0.029 A 
ATOM     58  C   UNL A   1      45.259  30.747  28.176  1.00  0.00     0.049 A 
ATOM     59  H   UNL A   1      44.190  28.940  27.980  1.00  0.00     0.167 HD
ATOM     60  C   UNL A   1      43.058  31.229  29.214  1.00  0.00     0.074 A 
ATOM     61  C   UNL A   1      42.119  32.098  29.894  1.00  0.00     0.031 C 
ATOM     62  C   UNL A   1      44.321  31.591  28.875  1.00  0.00     0.034 A 
BRANCH  49  63
ATOM     63  C   UNL A   1      47.516  27.150  25.979  1.00  0.00     0.023 A 
ATOM     64  C   UNL A   1      48.501  26.425  26.673  1.00  0.00     0.031 A 
ATOM     65  C   UNL A   1      47.756  27.481  24.635  1.00  0.00     0.131 A 
ATOM     66  C   UNL A   1      49.701  26.091  26.029  1.00  0.00     0.055 A 
ATOM     67  C   UNL A   1      48.926  27.092  23.983  1.00  0.00     0.041 A 
ATOM     68  F   UNL A   1      46.857  28.194  23.938  1.00  0.00    -0.206 F 
ATOM     69  C   UNL A   1      49.910  26.399  24.681  1.00  0.00     0.022 A 
BRANCH  66  70
ATOM     70  S   UNL A   1      51.024  25.320  26.999  1.00  0.00     0.124 S 
ATOM     71  O   UNL A   1      50.279  24.340  27.786  1.00  0.00    -0.237 OA
ATOM     72  O   UNL A   1      51.901  24.777  25.969  1.00  0.00    -0.237 OA
ATOM     73  O   UNL A   1      51.580  26.433  27.766  1.00  0.00    -0.744 OA
ENDBRANCH  66  70
ENDBRANCH  49  63
BRANCH  50  74
ATOM     74  C   UNL A   1      38.765  29.552  30.190  1.00  0.00     0.023 A 
ATOM     75  C   UNL A   1      37.814  30.314  29.494  1.00  0.00     0.031 A 
ATOM     76  C   UNL A   1      38.477  29.183  31.515  1.00  0.00     0.131 A 
ATOM     77  C   UNL A   1      36.629  30.706  30.136  1.00  0.00     0.055 A 
ATOM     78  C   UNL A   1      37.279  29.541  32.137  1.00  0.00     0.041 A 
ATOM     79  F   UNL A   1      39.356  28.457  32.224  1.00  0.00    -0.206 F 
ATOM     80  C   UNL A   1      36.349  30.314  31.447  1.00  0.00     0.022 A 
BRANCH  77  81
ATOM     81  S   UNL A   1      35.463  31.771  29.243  1.00  0.00     0.124 S 
ATOM     82  O   UNL A   1      34.688  32.345  30.337  1.00  0.00    -0.237 OA
ATOM     83  O   UNL A   1      36.359  32.686  28.543  1.00  0.00    -0.237 OA
ATOM     84  O   UNL A   1      34.737  30.837  28.385  1.00  0.00    -0.744 OA
ENDBRANCH  77  81
ENDBRANCH  50  74
BRANCH  62  85
ATOM     85  C   UNL A   1      44.759  32.992  29.218  1.00  0.00     0.023 A 
ATOM     86  C   UNL A   1      44.571  34.057  28.322  1.00  0.00     0.031 A 
ATOM     87  C   UNL A   1      45.330  33.268  30.472  1.00  0.00     0.131 A 
ATOM     88  C   UNL A   1      44.979  35.351  28.683  1.00  0.00     0.055 A 
ATOM     89  C   UNL A   1      45.691  34.563  30.844  1.00  0.00     0.041 A 
ATOM     90  F   UNL A   1      45.525  32.285  31.365  1.00  0.00    -0.206 F 
ATOM     91  C   UNL A   1      45.522  35.613  29.944  1.00  0.00     0.022 A 
BRANCH  88  92
ATOM     92  S   UNL A   1      44.827  36.686  27.466  1.00  0.00     0.124 S 
ATOM     93  O   UNL A   1      46.045  36.518  26.679  1.00  0.00    -0.237 OA
ATOM     94  O   UNL A   1      43.579  36.353  26.786  1.00  0.00    -0.237 OA
ATOM     95  O   UNL A   1      44.780  37.895  28.286  1.00  0.00    -0.744 OA
ENDBRANCH  88  92
ENDBRANCH  62  85
ENDBRANCH  36  37
ENDBRANCH  29  31
ENDBRANCH  28  29
ENDBRANCH  27  28
ENDBRANCH  26  27
ENDBRANCH  25  26
ENDBRANCH   1  25
TORSDOF 21
ENDMDL
MODEL 2
REMARK VINA RESULT:     -10.6      1.937      2.304
REMARK SMILES Cc1cc(Cl)cc2c1O[C@H](C(F)(F)F)C(C(=O)OCCOCCOCCOC(=O)c1ccc(-c3c4nc(c(-c5cc(S(=O)(=O)[O-])ccc5F)c5ccc([nH]5)c(-c5cc(S(=O)(=O)[O-])ccc5F)c5nc(c(-c6cc(S(=O)(=O)[O-])ccc6F)c6ccc3[nH]6)C=C5)C=C4)cc1)=C2
REMARK SMILES IDX 23 1 22 2 21 3 20 4 19 5 18 6 16 7 17 8 15 9 1 10 2 11 3 12
REMARK SMILES IDX 8 13 4 14 7 15 9 16 5 17 6 18 93 19 10 20 11 21 12 22 13 23
REMARK SMILES IDX 14 24 24 25 25 26 26 27 27 28 28 29 29 30 30 31 31 32 92 33
REMARK SMILES IDX 32 34 91 35 33 36 34 37 35 38 85 39 36 40 90 41 84 42 86 43
REMARK SMILES IDX 37 44 89 45 83 46 82 47 38 49 70 50 50 51 69 52 51 53 54 54
REMARK SMILES IDX 68 55 87 56 52 57 53 58 67 60 88 61 55 62 39 63 40 64 48 65
REMARK SMILES IDX 41 66 47 67 49 68 46 69 42 70 43 71 44 72 45 73 71 74 72 75
REMARK SMILES IDX 80 76 73 77 79 78 81 79 78 80 74 81 75 82 76 83 77 84 56 85
REMARK SMILES IDX 57 86 65 87 58 88 64 89 66 90 63 91 59 92 60 93 61 94 62 95
REMARK H PARENT 86 48 54 59
REMARK Flexibility Score: inf
ROOT
ATOM      1  C   UNL A   1      36.760  22.083  24.483  1.00  0.00     0.188 C 
ENDROOT
BRANCH   1   2
ATOM      2  C   UNL A   1      35.235  22.273  24.329  1.00  0.00     0.188 C 
BRANCH   2   3
ATOM      3  O   UNL A   1      34.329  21.324  24.862  1.00  0.00    -0.376 OA
BRANCH   3   4
ATOM      4  C   UNL A   1      33.317  21.738  25.765  1.00  0.00     0.202 C 
BRANCH   4   5
ATOM      5  C   UNL A   1      31.857  21.758  25.313  1.00  0.00     0.261 C 
BRANCH   5   6
ATOM      6  O   UNL A   1      31.317  23.086  25.226  1.00  0.00    -0.460 OA
BRANCH   6   7
ATOM      7  C   UNL A   1      31.706  23.792  24.138  1.00  0.00     0.338 C 
ATOM      8  O   UNL A   1      32.115  23.338  23.082  1.00  0.00    -0.246 OA
BRANCH   7   9
ATOM      9  C   UNL A   1      31.460  25.227  24.365  1.00  0.00     0.087 C 
ATOM     10  C   UNL A   1      31.736  30.189  25.728  1.00  0.00     0.048 C 
ATOM     11  C   UNL A   1      30.952  29.362  24.747  1.00  0.00    -0.007 A 
ATOM     12  C   UNL A   1      30.110  30.024  23.839  1.00  0.00     0.027 A 
ATOM     13  C   UNL A   1      31.086  27.967  24.660  1.00  0.00     0.131 A 
ATOM     14  C   UNL A   1      29.400  29.305  22.880  1.00  0.00     0.042 A 
ATOM     15  C   UNL A   1      30.391  27.252  23.675  1.00  0.00     0.019 A 
ATOM     16  O   UNL A   1      31.919  27.366  25.564  1.00  0.00    -0.475 OA
ATOM     17  Cl  UNL A   1      28.378  30.137  21.778  1.00  0.00    -0.084 Cl
ATOM     18  C   UNL A   1      29.535  27.923  22.795  1.00  0.00     0.032 A 
ATOM     19  C   UNL A   1      30.605  25.823  23.526  1.00  0.00     0.027 C 
ATOM     20  C   UNL A   1      32.168  25.938  25.484  1.00  0.00     0.316 C 
BRANCH  20  21
ATOM     21  C   UNL A   1      33.688  25.725  25.449  1.00  0.00     0.430 C 
ATOM     22  F   UNL A   1      34.350  26.838  25.854  1.00  0.00    -0.167 F 
ATOM     23  F   UNL A   1      34.079  24.728  26.279  1.00  0.00    -0.167 F 
ATOM     24  F   UNL A   1      34.134  25.418  24.210  1.00  0.00    -0.167 F 
ENDBRANCH  20  21
ENDBRANCH   7   9
ENDBRANCH   6   7
ENDBRANCH   5   6
ENDBRANCH   4   5
ENDBRANCH   3   4
ENDBRANCH   2   3
ENDBRANCH   1   2
BRANCH   1  25
ATOM     25  O   UNL A   1      37.295  21.116  25.361  1.00  0.00    -0.376 OA
BRANCH  25  26
ATOM     26  C   UNL A   1      37.848  19.907  24.868  1.00  0.00     0.202 C 
BRANCH  26  27
ATOM     27  C   UNL A   1      39.081  19.223  25.475  1.00  0.00     0.261 C 
BRANCH  27  28
ATOM     28  O   UNL A   1      39.605  19.811  26.667  1.00  0.00    -0.460 OA
BRANCH  28  29
ATOM     29  C   UNL A   1      40.904  20.193  26.585  1.00  0.00     0.338 C 
ATOM     30  O   UNL A   1      41.822  19.580  26.071  1.00  0.00    -0.246 OA
BRANCH  29  31
ATOM     31  C   UNL A   1      41.021  21.584  27.058  1.00  0.00     0.060 A 
ATOM     32  C   UNL A   1      40.371  22.589  26.330  1.00  0.00     0.016 A 
ATOM     33  C   UNL A   1      41.793  21.896  28.179  1.00  0.00     0.016 A 
ATOM     34  C   UNL A   1      40.510  23.922  26.710  1.00  0.00     0.010 A 
ATOM     35  C   UNL A   1      41.956  23.235  28.540  1.00  0.00     0.010 A 
ATOM     36  C   UNL A   1      41.340  24.253  27.790  1.00  0.00    -0.014 A 
BRANCH  36  37
ATOM     37  C   UNL A   1      41.745  25.664  27.987  1.00  0.00     0.031 A 
ATOM     38  C   UNL A   1      43.109  26.079  27.507  1.00  0.00     0.074 A 
ATOM     39  C   UNL A   1      40.916  26.562  28.543  1.00  0.00     0.049 A 
ATOM     40  N   UNL A   1      43.713  27.232  27.621  1.00  0.00    -0.248 NA
ATOM     41  C   UNL A   1      43.894  25.053  26.798  1.00  0.00     0.031 C 
ATOM     42  C   UNL A   1      39.546  26.296  28.979  1.00  0.00     0.029 A 
ATOM     43  N   UNL A   1      41.110  27.890  28.835  1.00  0.00    -0.354 N 
ATOM     44  C   UNL A   1      44.943  27.075  26.992  1.00  0.00     0.074 A 
ATOM     45  C   UNL A   1      45.011  25.707  26.525  1.00  0.00     0.031 C 
ATOM     46  C   UNL A   1      39.023  27.428  29.486  1.00  0.00     0.029 A 
ATOM     47  C   UNL A   1      40.033  28.486  29.446  1.00  0.00     0.049 A 
ATOM     48  H   UNL A   1      41.944  28.370  28.625  1.00  0.00     0.167 HD
ATOM     49  C   UNL A   1      45.924  27.990  26.812  1.00  0.00     0.034 A 
ATOM     50  C   UNL A   1      39.893  29.733  29.939  1.00  0.00     0.034 A 
ATOM     51  C   UNL A   1      45.860  29.341  27.301  1.00  0.00     0.049 A 
ATOM     52  C   UNL A   1      41.051  30.697  29.845  1.00  0.00     0.074 A 
ATOM     53  C   UNL A   1      46.809  30.342  27.192  1.00  0.00     0.029 A 
ATOM     54  N   UNL A   1      44.789  29.881  27.999  1.00  0.00    -0.354 N 
ATOM     55  N   UNL A   1      42.228  30.524  29.290  1.00  0.00    -0.248 NA
ATOM     56  C   UNL A   1      40.865  32.021  30.457  1.00  0.00     0.031 C 
ATOM     57  C   UNL A   1      46.338  31.466  27.877  1.00  0.00     0.029 A 
ATOM     58  C   UNL A   1      45.067  31.189  28.356  1.00  0.00     0.049 A 
ATOM     59  H   UNL A   1      43.954  29.403  28.210  1.00  0.00     0.167 HD
ATOM     60  C   UNL A   1      42.915  31.721  29.472  1.00  0.00     0.074 A 
ATOM     61  C   UNL A   1      42.020  32.612  30.181  1.00  0.00     0.031 C 
ATOM     62  C   UNL A   1      44.172  32.056  29.084  1.00  0.00     0.034 A 
BRANCH  49  63
ATOM     63  C   UNL A   1      47.167  27.536  26.098  1.00  0.00     0.023 A 
ATOM     64  C   UNL A   1      48.294  27.081  26.805  1.00  0.00     0.031 A 
ATOM     65  C   UNL A   1      47.229  27.566  24.695  1.00  0.00     0.131 A 
ATOM     66  C   UNL A   1      49.453  26.714  26.105  1.00  0.00     0.055 A 
ATOM     67  C   UNL A   1      48.364  27.141  24.002  1.00  0.00     0.041 A 
ATOM     68  F   UNL A   1      46.189  28.016  23.975  1.00  0.00    -0.206 F 
ATOM     69  C   UNL A   1      49.487  26.719  24.708  1.00  0.00     0.022 A 
BRANCH  66  70
ATOM     70  S   UNL A   1      50.947  26.309  27.048  1.00  0.00     0.124 S 
ATOM     71  O   UNL A   1      51.930  27.204  26.443  1.00  0.00    -0.237 OA
ATOM     72  O   UNL A   1      50.556  26.624  28.417  1.00  0.00    -0.237 OA
ATOM     73  O   UNL A   1      51.151  24.888  26.771  1.00  0.00    -0.744 OA
ENDBRANCH  66  70
ENDBRANCH  49  63
BRANCH  50  74
ATOM     74  C   UNL A   1      38.629  30.138  30.615  1.00  0.00     0.023 A 
ATOM     75  C   UNL A   1      37.643  30.866  29.933  1.00  0.00     0.031 A 
ATOM     76  C   UNL A   1      38.407  29.830  31.969  1.00  0.00     0.131 A 
ATOM     77  C   UNL A   1      36.490  31.288  30.614  1.00  0.00     0.055 A 
ATOM     78  C   UNL A   1      37.241  30.218  32.632  1.00  0.00     0.041 A 
ATOM     79  F   UNL A   1      39.322  29.138  32.666  1.00  0.00    -0.206 F 
ATOM     80  C   UNL A   1      36.277  30.958  31.954  1.00  0.00     0.022 A 
BRANCH  77  81
ATOM     81  S   UNL A   1      35.279  32.311  29.731  1.00  0.00     0.124 S 
ATOM     82  O   UNL A   1      34.393  32.722  30.814  1.00  0.00    -0.237 OA
ATOM     83  O   UNL A   1      36.121  33.357  29.159  1.00  0.00    -0.237 OA
ATOM     84  O   UNL A   1      34.696  31.386  28.761  1.00  0.00    -0.744 OA
ENDBRANCH  77  81
ENDBRANCH  50  74
BRANCH  62  85
ATOM     85  C   UNL A   1      44.651  33.449  29.402  1.00  0.00     0.023 A 
ATOM     86  C   UNL A   1      45.371  33.725  30.576  1.00  0.00     0.031 A 
ATOM     87  C   UNL A   1      44.421  34.501  28.498  1.00  0.00     0.131 A 
ATOM     88  C   UNL A   1      45.812  35.033  30.831  1.00  0.00     0.055 A 
ATOM     89  C   UNL A   1      44.903  35.789  28.734  1.00  0.00     0.041 A 
ATOM     90  F   UNL A   1      43.743  34.287  27.359  1.00  0.00    -0.206 F 
ATOM     91  C   UNL A   1      45.598  36.061  29.910  1.00  0.00     0.022 A 
BRANCH  88  92
ATOM     92  S   UNL A   1      46.641  35.383  32.405  1.00  0.00     0.124 S 
ATOM     93  O   UNL A   1      47.583  36.431  32.025  1.00  0.00    -0.237 OA
ATOM     94  O   UNL A   1      45.533  35.802  33.259  1.00  0.00    -0.237 OA
ATOM     95  O   UNL A   1      47.249  34.103  32.766  1.00  0.00    -0.744 OA
ENDBRANCH  88  92
ENDBRANCH  62  85
ENDBRANCH  36  37
ENDBRANCH  29  31
ENDBRANCH  28  29
ENDBRANCH  27  28
ENDBRANCH  26  27
ENDBRANCH  25  26
ENDBRANCH   1  25
TORSDOF 21
ENDMDL
MODEL 3
REMARK VINA RESULT:     -10.4      4.814      8.080
REMARK SMILES Cc1cc(Cl)cc2c1O[C@H](C(F)(F)F)C(C(=O)OCCOCCOCCOC(=O)c1ccc(-c3c4nc(c(-c5cc(S(=O)(=O)[O-])ccc5F)c5ccc([nH]5)c(-c5cc(S(=O)(=O)[O-])ccc5F)c5nc(c(-c6cc(S(=O)(=O)[O-])ccc6F)c6ccc3[nH]6)C=C5)C=C4)cc1)=C2
REMARK SMILES IDX 23 1 22 2 21 3 20 4 19 5 18 6 16 7 17 8 15 9 1 10 2 11 3 12
REMARK SMILES IDX 8 13 4 14 7 15 9 16 5 17 6 18 93 19 10 20 11 21 12 22 13 23
REMARK SMILES IDX 14 24 24 25 25 26 26 27 27 28 28 29 29 30 30 31 31 32 92 33
REMARK SMILES IDX 32 34 91 35 33 36 34 37 35 38 85 39 36 40 90 41 84 42 86 43
REMARK SMILES IDX 37 44 89 45 83 46 82 47 38 49 70 50 50 51 69 52 51 53 54 54
REMARK SMILES IDX 68 55 87 56 52 57 53 58 67 60 88 61 55 62 39 63 40 64 48 65
REMARK SMILES IDX 41 66 47 67 49 68 46 69 42 70 43 71 44 72 45 73 71 74 72 75
REMARK SMILES IDX 80 76 73 77 79 78 81 79 78 80 74 81 75 82 76 83 77 84 56 85
REMARK SMILES IDX 57 86 65 87 58 88 64 89 66 90 63 91 59 92 60 93 61 94 62 95
REMARK H PARENT 86 48 54 59
REMARK Flexibility Score: inf
ROOT
ATOM      1  C   UNL A   1      32.828  27.078  25.785  1.00  0.00     0.188 C 
ENDROOT
BRANCH   1   2
ATOM      2  C   UNL A   1      34.241  26.470  25.648  1.00  0.00     0.188 C 
BRANCH   2   3
ATOM      3  O   UNL A   1      34.497  25.133  26.041  1.00  0.00    -0.376 OA
BRANCH   3   4
ATOM      4  C   UNL A   1      35.463  24.362  25.347  1.00  0.00     0.202 C 
BRANCH   4   5
ATOM      5  C   UNL A   1      35.107  23.731  24.000  1.00  0.00     0.261 C 
BRANCH   5   6
ATOM      6  O   UNL A   1      34.421  24.637  23.123  1.00  0.00    -0.460 OA
BRANCH   6   7
ATOM      7  C   UNL A   1      33.436  24.080  22.381  1.00  0.00     0.338 C 
ATOM      8  O   UNL A   1      33.526  23.089  21.674  1.00  0.00    -0.246 OA
BRANCH   7   9
ATOM      9  C   UNL A   1      32.167  24.789  22.628  1.00  0.00     0.087 C 
ATOM     10  C   UNL A   1      27.563  26.341  24.343  1.00  0.00     0.048 C 
ATOM     11  C   UNL A   1      28.713  26.946  23.587  1.00  0.00    -0.007 A 
ATOM     12  C   UNL A   1      28.678  28.321  23.305  1.00  0.00     0.027 A 
ATOM     13  C   UNL A   1      29.847  26.203  23.219  1.00  0.00     0.131 A 
ATOM     14  C   UNL A   1      29.742  28.936  22.650  1.00  0.00     0.042 A 
ATOM     15  C   UNL A   1      30.927  26.834  22.586  1.00  0.00     0.019 A 
ATOM     16  O   UNL A   1      29.838  24.868  23.517  1.00  0.00    -0.475 OA
ATOM     17  Cl  UNL A   1      29.678  30.620  22.317  1.00  0.00    -0.084 Cl
ATOM     18  C   UNL A   1      30.865  28.199  22.287  1.00  0.00     0.032 A 
ATOM     19  C   UNL A   1      32.136  26.084  22.292  1.00  0.00     0.027 C 
ATOM     20  C   UNL A   1      31.008  24.054  23.238  1.00  0.00     0.316 C 
BRANCH  20  21
ATOM     21  C   UNL A   1      31.390  23.319  24.531  1.00  0.00     0.430 C 
ATOM     22  F   UNL A   1      32.098  24.123  25.362  1.00  0.00    -0.167 F 
ATOM     23  F   UNL A   1      30.298  22.919  25.227  1.00  0.00    -0.167 F 
ATOM     24  F   UNL A   1      32.142  22.221  24.292  1.00  0.00    -0.167 F 
ENDBRANCH  20  21
ENDBRANCH   7   9
ENDBRANCH   6   7
ENDBRANCH   5   6
ENDBRANCH   4   5
ENDBRANCH   3   4
ENDBRANCH   2   3
ENDBRANCH   1   2
BRANCH   1  25
ATOM     25  O   UNL A   1      32.632  28.366  26.327  1.00  0.00    -0.376 OA
BRANCH  25  26
ATOM     26  C   UNL A   1      31.863  29.339  25.639  1.00  0.00     0.202 C 
BRANCH  26  27
ATOM     27  C   UNL A   1      31.807  30.820  26.038  1.00  0.00     0.261 C 
BRANCH  27  28
ATOM     28  O   UNL A   1      32.276  31.138  27.349  1.00  0.00    -0.460 OA
BRANCH  28  29
ATOM     29  C   UNL A   1      33.097  32.218  27.410  1.00  0.00     0.338 C 
ATOM     30  O   UNL A   1      32.790  33.386  27.256  1.00  0.00    -0.246 OA
BRANCH  29  31
ATOM     31  C   UNL A   1      34.421  31.782  27.886  1.00  0.00     0.060 A 
ATOM     32  C   UNL A   1      34.590  30.435  28.233  1.00  0.00     0.016 A 
ATOM     33  C   UNL A   1      35.468  32.694  28.026  1.00  0.00     0.016 A 
ATOM     34  C   UNL A   1      35.810  29.998  28.746  1.00  0.00     0.010 A 
ATOM     35  C   UNL A   1      36.679  32.262  28.570  1.00  0.00     0.010 A 
ATOM     36  C   UNL A   1      36.844  30.920  28.959  1.00  0.00    -0.014 A 
BRANCH  36  37
ATOM     37  C   UNL A   1      38.002  30.531  29.796  1.00  0.00     0.031 A 
ATOM     38  C   UNL A   1      39.009  29.581  29.207  1.00  0.00     0.074 A 
ATOM     39  C   UNL A   1      38.177  31.031  31.030  1.00  0.00     0.049 A 
ATOM     40  N   UNL A   1      40.066  29.046  29.758  1.00  0.00    -0.248 NA
ATOM     41  C   UNL A   1      38.795  29.187  27.804  1.00  0.00     0.031 C 
ATOM     42  C   UNL A   1      37.310  32.013  31.678  1.00  0.00     0.029 A 
ATOM     43  N   UNL A   1      39.154  30.778  31.961  1.00  0.00    -0.354 N 
ATOM     44  C   UNL A   1      40.648  28.260  28.769  1.00  0.00     0.074 A 
ATOM     45  C   UNL A   1      39.810  28.365  27.595  1.00  0.00     0.031 C 
ATOM     46  C   UNL A   1      37.795  32.278  32.905  1.00  0.00     0.029 A 
ATOM     47  C   UNL A   1      38.981  31.457  33.143  1.00  0.00     0.049 A 
ATOM     48  H   UNL A   1      39.909  30.167  31.795  1.00  0.00     0.167 HD
ATOM     49  C   UNL A   1      41.782  27.524  28.832  1.00  0.00     0.034 A 
ATOM     50  C   UNL A   1      39.686  31.398  34.291  1.00  0.00     0.034 A 
ATOM     51  C   UNL A   1      42.597  27.405  30.012  1.00  0.00     0.049 A 
ATOM     52  C   UNL A   1      40.872  30.468  34.381  1.00  0.00     0.074 A 
ATOM     53  C   UNL A   1      43.753  26.668  30.189  1.00  0.00     0.029 A 
ATOM     54  N   UNL A   1      42.336  28.035  31.221  1.00  0.00    -0.354 N 
ATOM     55  N   UNL A   1      41.387  29.693  33.455  1.00  0.00    -0.248 NA
ATOM     56  C   UNL A   1      41.564  30.395  35.677  1.00  0.00     0.031 C 
ATOM     57  C   UNL A   1      44.157  26.802  31.521  1.00  0.00     0.029 A 
ATOM     58  C   UNL A   1      43.291  27.676  32.158  1.00  0.00     0.049 A 
ATOM     59  H   UNL A   1      41.583  28.646  31.389  1.00  0.00     0.167 HD
ATOM     60  C   UNL A   1      42.471  29.054  34.051  1.00  0.00     0.074 A 
ATOM     61  C   UNL A   1      42.542  29.539  35.414  1.00  0.00     0.031 C 
ATOM     62  C   UNL A   1      43.333  28.151  33.519  1.00  0.00     0.034 A 
BRANCH  49  63
ATOM     63  C   UNL A   1      42.174  26.756  27.601  1.00  0.00     0.023 A 
ATOM     64  C   UNL A   1      41.912  25.379  27.483  1.00  0.00     0.031 A 
ATOM     65  C   UNL A   1      42.823  27.404  26.537  1.00  0.00     0.131 A 
ATOM     66  C   UNL A   1      42.338  24.686  26.340  1.00  0.00     0.055 A 
ATOM     67  C   UNL A   1      43.189  26.721  25.377  1.00  0.00     0.041 A 
ATOM     68  F   UNL A   1      43.118  28.711  26.613  1.00  0.00    -0.206 F 
ATOM     69  C   UNL A   1      42.954  25.353  25.276  1.00  0.00     0.022 A 
BRANCH  66  70
ATOM     70  S   UNL A   1      42.152  22.884  26.296  1.00  0.00     0.124 S 
ATOM     71  O   UNL A   1      42.685  22.565  24.974  1.00  0.00    -0.237 OA
ATOM     72  O   UNL A   1      42.959  22.452  27.430  1.00  0.00    -0.237 OA
ATOM     73  O   UNL A   1      40.711  22.685  26.446  1.00  0.00    -0.744 OA
ENDBRANCH  66  70
ENDBRANCH  49  63
BRANCH  50  74
ATOM     74  C   UNL A   1      39.267  32.201  35.474  1.00  0.00     0.023 A 
ATOM     75  C   UNL A   1      39.734  33.511  35.662  1.00  0.00     0.031 A 
ATOM     76  C   UNL A   1      38.421  31.653  36.453  1.00  0.00     0.131 A 
ATOM     77  C   UNL A   1      39.373  34.221  36.818  1.00  0.00     0.055 A 
ATOM     78  C   UNL A   1      38.032  32.377  37.581  1.00  0.00     0.041 A 
ATOM     79  F   UNL A   1      37.950  30.403  36.320  1.00  0.00    -0.206 F 
ATOM     80  C   UNL A   1      38.516  33.668  37.771  1.00  0.00     0.022 A 
BRANCH  77  81
ATOM     81  S   UNL A   1      40.071  35.875  37.080  1.00  0.00     0.124 S 
ATOM     82  O   UNL A   1      39.701  36.552  35.842  1.00  0.00    -0.237 OA
ATOM     83  O   UNL A   1      39.373  36.314  38.284  1.00  0.00    -0.237 OA
ATOM     84  O   UNL A   1      41.499  35.619  37.251  1.00  0.00    -0.744 OA
ENDBRANCH  77  81
ENDBRANCH  50  74
BRANCH  62  85
ATOM     85  C   UNL A   1      44.439  27.639  34.406  1.00  0.00     0.023 A 
ATOM     86  C   UNL A   1      44.320  26.420  35.094  1.00  0.00     0.031 A 
ATOM     87  C   UNL A   1      45.641  28.359  34.527  1.00  0.00     0.131 A 
ATOM     88  C   UNL A   1      45.378  25.969  35.899  1.00  0.00     0.055 A 
ATOM     89  C   UNL A   1      46.706  27.882  35.291  1.00  0.00     0.041 A 
ATOM     90  F   UNL A   1      45.806  29.526  33.885  1.00  0.00    -0.206 F 
ATOM     91  C   UNL A   1      46.575  26.683  35.987  1.00  0.00     0.022 A 
BRANCH  88  92
ATOM     92  S   UNL A   1      45.154  24.449  36.862  1.00  0.00     0.124 S 
ATOM     93  O   UNL A   1      44.291  23.661  35.989  1.00  0.00    -0.237 OA
ATOM     94  O   UNL A   1      46.524  23.964  37.010  1.00  0.00    -0.237 OA
ATOM     95  O   UNL A   1      44.527  24.915  38.098  1.00  0.00    -0.744 OA
ENDBRANCH  88  92
ENDBRANCH  62  85
ENDBRANCH  36  37
ENDBRANCH  29  31
ENDBRANCH  28  29
ENDBRANCH  27  28
ENDBRANCH  26  27
ENDBRANCH  25  26
ENDBRANCH   1  25
TORSDOF 21
ENDMDL
