MODEL 1
REMARK VINA RESULT:      -6.9      0.000      0.000
REMARK SMILES CC1(CNS(=O)(=O)Cc2ccc(C(=O)OCCOCCOCCOC(=O)c3ccc(-c4c5nc(c(-c6cc(S(=O)(=O)[O-])ccc6F)c6ccc([nH]6)c(-c6cc(S(=O)(=O)[O-])ccc6F)c6nc(c(-c7cc(S(=O)(=O)[O-])ccc7F)c7ccc4[nH]7)C=C6)C=C5)cc3)cc2)COC1
REMARK SMILES IDX 19 1 18 2 17 3 16 4 15 5 13 6 14 7 12 8 9 9 10 10 91 11
REMARK SMILES IDX 11 12 90 13 8 14 5 15 6 16 7 17 4 18 3 20 2 21 1 22 92 23
REMARK SMILES IDX 94 24 93 25 20 26 21 27 22 28 23 29 24 30 25 31 26 32 27 33
REMARK SMILES IDX 28 34 89 35 29 36 88 37 30 38 31 39 32 40 82 41 33 42 87 43
REMARK SMILES IDX 81 44 83 45 34 46 86 47 80 48 79 49 35 51 67 52 47 53 66 54
REMARK SMILES IDX 48 55 51 56 65 57 84 58 49 59 50 60 64 62 85 63 52 64 36 65
REMARK SMILES IDX 37 66 45 67 38 68 44 69 46 70 43 71 39 72 40 73 41 74 42 75
REMARK SMILES IDX 68 76 69 77 77 78 70 79 76 80 78 81 75 82 71 83 72 84 73 85
REMARK SMILES IDX 74 86 53 87 54 88 62 89 55 90 61 91 63 92 60 93 56 94 57 95
REMARK SMILES IDX 58 96 59 97
REMARK H PARENT 4 19 83 50 51 61
REMARK Flexibility Score: inf
ROOT
ATOM      1  C   UNL A   1      36.975  33.530  30.855  1.00  0.00     0.188 C 
ENDROOT
BRANCH   1   2
ATOM      2  O   UNL A   1      38.157  34.301  31.000  1.00  0.00    -0.376 OA
BRANCH   2   3
ATOM      3  C   UNL A   1      38.866  34.310  32.230  1.00  0.00     0.202 C 
BRANCH   3   4
ATOM      4  C   UNL A   1      40.397  34.450  32.305  1.00  0.00     0.261 C 
BRANCH   4   5
ATOM      5  O   UNL A   1      41.146  33.779  31.284  1.00  0.00    -0.460 OA
BRANCH   5   6
ATOM      6  C   UNL A   1      42.289  34.399  30.904  1.00  0.00     0.338 C 
ATOM      7  O   UNL A   1      42.645  35.527  31.214  1.00  0.00    -0.246 OA
BRANCH   6   8
ATOM      8  C   UNL A   1      43.168  33.457  30.177  1.00  0.00     0.060 A 
ATOM      9  C   UNL A   1      44.688  31.614  28.669  1.00  0.00    -0.032 A 
ATOM     10  C   UNL A   1      44.093  32.739  28.063  1.00  0.00     0.006 A 
ATOM     11  C   UNL A   1      44.558  31.476  30.060  1.00  0.00     0.006 A 
ATOM     12  C   UNL A   1      43.334  33.645  28.804  1.00  0.00     0.016 A 
ATOM     13  C   UNL A   1      43.816  32.397  30.814  1.00  0.00     0.016 A 
BRANCH   9  14
ATOM     14  C   UNL A   1      45.248  30.570  27.725  1.00  0.00     0.189 C 
BRANCH  14  15
ATOM     15  S   UNL A   1      44.317  29.054  27.516  1.00  0.00     0.215 S 
ATOM     16  O   UNL A   1      44.380  28.663  26.124  1.00  0.00    -0.212 OA
ATOM     17  O   UNL A   1      43.031  29.156  28.174  1.00  0.00    -0.212 OA
BRANCH  15  18
ATOM     18  N   UNL A   1      45.188  27.903  28.384  1.00  0.00    -0.214 NA
ATOM     19  H   UNL A   1      45.880  28.399  28.946  1.00  0.00     0.141 HD
BRANCH  18  20
ATOM     20  C   UNL A   1      45.905  26.872  27.599  1.00  0.00     0.110 C 
BRANCH  20  21
ATOM     21  C   UNL A   1      47.417  26.939  27.829  1.00  0.00     0.028 C 
ATOM     22  C   UNL A   1      48.045  25.595  28.171  1.00  0.00     0.018 C 
ATOM     23  C   UNL A   1      47.806  28.092  28.779  1.00  0.00     0.170 C 
ATOM     24  C   UNL A   1      48.170  27.782  26.782  1.00  0.00     0.170 C 
ATOM     25  O   UNL A   1      48.105  28.949  27.642  1.00  0.00    -0.380 OA
ENDBRANCH  20  21
ENDBRANCH  18  20
ENDBRANCH  15  18
ENDBRANCH  14  15
ENDBRANCH   9  14
ENDBRANCH   6   8
ENDBRANCH   5   6
ENDBRANCH   4   5
ENDBRANCH   3   4
ENDBRANCH   2   3
ENDBRANCH   1   2
BRANCH   1  26
ATOM     26  C   UNL A   1      35.605  34.153  31.189  1.00  0.00     0.188 C 
BRANCH  26  27
ATOM     27  O   UNL A   1      34.582  33.861  30.268  1.00  0.00    -0.376 OA
BRANCH  27  28
ATOM     28  C   UNL A   1      34.886  33.154  29.078  1.00  0.00     0.202 C 
BRANCH  28  29
ATOM     29  C   UNL A   1      33.866  32.490  28.127  1.00  0.00     0.261 C 
BRANCH  29  30
ATOM     30  O   UNL A   1      33.673  31.075  28.190  1.00  0.00    -0.460 OA
BRANCH  30  31
ATOM     31  C   UNL A   1      34.455  30.333  27.368  1.00  0.00     0.338 C 
ATOM     32  O   UNL A   1      34.233  30.059  26.202  1.00  0.00    -0.246 OA
BRANCH  31  33
ATOM     33  C   UNL A   1      35.740  30.069  28.047  1.00  0.00     0.060 A 
ATOM     34  C   UNL A   1      36.925  30.229  27.317  1.00  0.00     0.016 A 
ATOM     35  C   UNL A   1      35.778  29.633  29.373  1.00  0.00     0.016 A 
ATOM     36  C   UNL A   1      38.151  29.909  27.898  1.00  0.00     0.010 A 
ATOM     37  C   UNL A   1      37.009  29.297  29.949  1.00  0.00     0.010 A 
ATOM     38  C   UNL A   1      38.197  29.395  29.200  1.00  0.00    -0.014 A 
BRANCH  38  39
ATOM     39  C   UNL A   1      39.455  28.770  29.686  1.00  0.00     0.031 A 
ATOM     40  C   UNL A   1      40.124  29.360  30.900  1.00  0.00     0.074 A 
ATOM     41  C   UNL A   1      39.962  27.668  29.104  1.00  0.00     0.049 A 
ATOM     42  N   UNL A   1      41.222  28.993  31.509  1.00  0.00    -0.248 NA
ATOM     43  C   UNL A   1      39.461  30.526  31.505  1.00  0.00     0.031 C 
ATOM     44  C   UNL A   1      39.382  26.977  27.955  1.00  0.00     0.029 A 
ATOM     45  N   UNL A   1      41.083  26.936  29.407  1.00  0.00    -0.354 N 
ATOM     46  C   UNL A   1      41.384  29.884  32.566  1.00  0.00     0.074 A 
ATOM     47  C   UNL A   1      40.295  30.835  32.484  1.00  0.00     0.031 C 
ATOM     48  C   UNL A   1      40.155  25.920  27.647  1.00  0.00     0.029 A 
ATOM     49  C   UNL A   1      41.303  25.881  28.552  1.00  0.00     0.049 A 
ATOM     50  H   UNL A   1      41.675  27.146  30.165  1.00  0.00     0.167 HD
ATOM     51  C   UNL A   1      42.344  29.901  33.524  1.00  0.00     0.034 A 
ATOM     52  C   UNL A   1      42.324  25.001  28.494  1.00  0.00     0.034 A 
ATOM     53  C   UNL A   1      43.435  28.958  33.583  1.00  0.00     0.049 A 
ATOM     54  C   UNL A   1      43.432  25.095  29.519  1.00  0.00     0.074 A 
ATOM     55  C   UNL A   1      44.458  28.882  34.512  1.00  0.00     0.029 A 
ATOM     56  N   UNL A   1      43.655  27.934  32.669  1.00  0.00    -0.354 N 
ATOM     57  N   UNL A   1      43.568  25.933  30.521  1.00  0.00    -0.248 NA
ATOM     58  C   UNL A   1      44.515  24.109  29.412  1.00  0.00     0.031 C 
ATOM     59  C   UNL A   1      45.338  27.868  34.114  1.00  0.00     0.029 A 
ATOM     60  C   UNL A   1      44.814  27.246  32.993  1.00  0.00     0.049 A 
ATOM     61  H   UNL A   1      43.072  27.728  31.903  1.00  0.00     0.167 HD
ATOM     62  C   UNL A   1      44.733  25.550  31.184  1.00  0.00     0.074 A 
ATOM     63  C   UNL A   1      45.245  24.392  30.479  1.00  0.00     0.031 C 
ATOM     64  C   UNL A   1      45.326  26.098  32.277  1.00  0.00     0.034 A 
BRANCH  51  65
ATOM     65  C   UNL A   1      42.282  31.012  34.545  1.00  0.00     0.023 A 
ATOM     66  C   UNL A   1      42.818  32.287  34.290  1.00  0.00     0.031 A 
ATOM     67  C   UNL A   1      41.711  30.784  35.810  1.00  0.00     0.131 A 
ATOM     68  C   UNL A   1      42.843  33.254  35.306  1.00  0.00     0.055 A 
ATOM     69  C   UNL A   1      41.659  31.779  36.787  1.00  0.00     0.041 A 
ATOM     70  F   UNL A   1      41.208  29.579  36.125  1.00  0.00    -0.206 F 
ATOM     71  C   UNL A   1      42.242  33.019  36.544  1.00  0.00     0.022 A 
BRANCH  68  72
ATOM     72  S   UNL A   1      43.814  34.764  35.041  1.00  0.00     0.124 S 
ATOM     73  O   UNL A   1      44.858  34.286  34.136  1.00  0.00    -0.237 OA
ATOM     74  O   UNL A   1      42.832  35.672  34.460  1.00  0.00    -0.237 OA
ATOM     75  O   UNL A   1      44.275  35.114  36.382  1.00  0.00    -0.744 OA
ENDBRANCH  68  72
ENDBRANCH  51  65
BRANCH  52  76
ATOM     76  C   UNL A   1      42.381  23.971  27.414  1.00  0.00     0.023 A 
ATOM     77  C   UNL A   1      41.814  22.699  27.588  1.00  0.00     0.031 A 
ATOM     78  C   UNL A   1      43.071  24.225  26.215  1.00  0.00     0.131 A 
ATOM     79  C   UNL A   1      41.992  21.712  26.606  1.00  0.00     0.055 A 
ATOM     80  C   UNL A   1      43.193  23.259  25.214  1.00  0.00     0.041 A 
ATOM     81  F   UNL A   1      43.639  25.421  25.997  1.00  0.00    -0.206 F 
ATOM     82  C   UNL A   1      42.663  21.988  25.413  1.00  0.00     0.022 A 
BRANCH  79  83
ATOM     83  S   UNL A   1      41.413  20.027  26.952  1.00  0.00     0.124 S 
ATOM     84  O   UNL A   1      40.353  19.870  25.962  1.00  0.00    -0.237 OA
ATOM     85  O   UNL A   1      42.621  19.241  26.728  1.00  0.00    -0.237 OA
ATOM     86  O   UNL A   1      40.967  20.100  28.342  1.00  0.00    -0.744 OA
ENDBRANCH  79  83
ENDBRANCH  52  76
BRANCH  64  87
ATOM     87  C   UNL A   1      46.566  25.413  32.808  1.00  0.00     0.023 A 
ATOM     88  C   UNL A   1      46.496  24.396  33.778  1.00  0.00     0.031 A 
ATOM     89  C   UNL A   1      47.839  25.809  32.363  1.00  0.00     0.131 A 
ATOM     90  C   UNL A   1      47.676  23.875  34.332  1.00  0.00     0.055 A 
ATOM     91  C   UNL A   1      49.008  25.228  32.859  1.00  0.00     0.041 A 
ATOM     92  F   UNL A   1      47.973  26.775  31.440  1.00  0.00    -0.206 F 
ATOM     93  C   UNL A   1      48.932  24.270  33.864  1.00  0.00     0.022 A 
BRANCH  90  94
ATOM     94  S   UNL A   1      47.549  22.779  35.773  1.00  0.00     0.124 S 
ATOM     95  O   UNL A   1      47.539  23.732  36.877  1.00  0.00    -0.237 OA
ATOM     96  O   UNL A   1      46.293  22.080  35.522  1.00  0.00    -0.237 OA
ATOM     97  O   UNL A   1      48.750  21.950  35.679  1.00  0.00    -0.744 OA
ENDBRANCH  90  94
ENDBRANCH  64  87
ENDBRANCH  38  39
ENDBRANCH  31  33
ENDBRANCH  30  31
ENDBRANCH  29  30
ENDBRANCH  28  29
ENDBRANCH  27  28
ENDBRANCH  26  27
ENDBRANCH   1  26
TORSDOF 25
ENDMDL
MODEL 2
REMARK VINA RESULT:      -6.9      4.974     12.257
REMARK SMILES CC1(CNS(=O)(=O)Cc2ccc(C(=O)OCCOCCOCCOC(=O)c3ccc(-c4c5nc(c(-c6cc(S(=O)(=O)[O-])ccc6F)c6ccc([nH]6)c(-c6cc(S(=O)(=O)[O-])ccc6F)c6nc(c(-c7cc(S(=O)(=O)[O-])ccc7F)c7ccc4[nH]7)C=C6)C=C5)cc3)cc2)COC1
REMARK SMILES IDX 19 1 18 2 17 3 16 4 15 5 13 6 14 7 12 8 9 9 10 10 91 11
REMARK SMILES IDX 11 12 90 13 8 14 5 15 6 16 7 17 4 18 3 20 2 21 1 22 92 23
REMARK SMILES IDX 94 24 93 25 20 26 21 27 22 28 23 29 24 30 25 31 26 32 27 33
REMARK SMILES IDX 28 34 89 35 29 36 88 37 30 38 31 39 32 40 82 41 33 42 87 43
REMARK SMILES IDX 81 44 83 45 34 46 86 47 80 48 79 49 35 51 67 52 47 53 66 54
REMARK SMILES IDX 48 55 51 56 65 57 84 58 49 59 50 60 64 62 85 63 52 64 36 65
REMARK SMILES IDX 37 66 45 67 38 68 44 69 46 70 43 71 39 72 40 73 41 74 42 75
REMARK SMILES IDX 68 76 69 77 77 78 70 79 76 80 78 81 75 82 71 83 72 84 73 85
REMARK SMILES IDX 74 86 53 87 54 88 62 89 55 90 61 91 63 92 60 93 56 94 57 95
REMARK SMILES IDX 58 96 59 97
REMARK H PARENT 4 19 83 50 51 61
REMARK Flexibility Score: inf
ROOT
ATOM      1  C   UNL A   1      42.479  19.075  25.805  1.00  0.00     0.188 C 
ENDROOT
BRANCH   1   2
ATOM      2  O   UNL A   1      42.180  19.372  27.160  1.00  0.00    -0.376 OA
BRANCH   2   3
ATOM      3  C   UNL A   1      41.516  20.579  27.504  1.00  0.00     0.202 C 
BRANCH   3   4
ATOM      4  C   UNL A   1      41.092  21.622  26.454  1.00  0.00     0.261 C 
BRANCH   4   5
ATOM      5  O   UNL A   1      39.700  21.649  26.115  1.00  0.00    -0.460 OA
BRANCH   5   6
ATOM      6  C   UNL A   1      39.092  22.850  26.268  1.00  0.00     0.338 C 
ATOM      7  O   UNL A   1      39.615  23.891  26.640  1.00  0.00    -0.246 OA
BRANCH   6   8
ATOM      8  C   UNL A   1      37.705  22.794  25.756  1.00  0.00     0.060 A 
ATOM      9  C   UNL A   1      35.130  22.734  24.593  1.00  0.00    -0.032 A 
ATOM     10  C   UNL A   1      36.152  21.869  24.152  1.00  0.00     0.006 A 
ATOM     11  C   UNL A   1      35.415  23.581  25.676  1.00  0.00     0.006 A 
ATOM     12  C   UNL A   1      37.426  21.903  24.719  1.00  0.00     0.016 A 
ATOM     13  C   UNL A   1      36.688  23.604  26.265  1.00  0.00     0.016 A 
BRANCH   9  14
ATOM     14  C   UNL A   1      33.889  22.792  23.727  1.00  0.00     0.189 C 
BRANCH  14  15
ATOM     15  S   UNL A   1      32.689  21.475  23.905  1.00  0.00     0.215 S 
ATOM     16  O   UNL A   1      32.120  21.192  22.605  1.00  0.00    -0.212 OA
ATOM     17  O   UNL A   1      31.814  21.738  25.029  1.00  0.00    -0.212 OA
BRANCH  15  18
ATOM     18  N   UNL A   1      33.603  20.129  24.339  1.00  0.00    -0.214 NA
ATOM     19  H   UNL A   1      34.006  19.741  23.485  1.00  0.00     0.141 HD
BRANCH  18  20
ATOM     20  C   UNL A   1      32.894  19.032  25.036  1.00  0.00     0.110 C 
BRANCH  20  21
ATOM     21  C   UNL A   1      33.094  17.690  24.329  1.00  0.00     0.028 C 
ATOM     22  C   UNL A   1      32.668  17.697  22.868  1.00  0.00     0.018 C 
ATOM     23  C   UNL A   1      32.534  16.512  25.157  1.00  0.00     0.170 C 
ATOM     24  C   UNL A   1      34.452  17.025  24.628  1.00  0.00     0.170 C 
ATOM     25  O   UNL A   1      33.859  16.242  25.696  1.00  0.00    -0.380 OA
ENDBRANCH  20  21
ENDBRANCH  18  20
ENDBRANCH  15  18
ENDBRANCH  14  15
ENDBRANCH   9  14
ENDBRANCH   6   8
ENDBRANCH   5   6
ENDBRANCH   4   5
ENDBRANCH   3   4
ENDBRANCH   2   3
ENDBRANCH   1   2
BRANCH   1  26
ATOM     26  C   UNL A   1      43.947  18.935  25.356  1.00  0.00     0.188 C 
BRANCH  26  27
ATOM     27  O   UNL A   1      44.325  19.782  24.297  1.00  0.00    -0.376 OA
BRANCH  27  28
ATOM     28  C   UNL A   1      44.797  21.089  24.576  1.00  0.00     0.202 C 
BRANCH  28  29
ATOM     29  C   UNL A   1      44.314  22.394  23.905  1.00  0.00     0.261 C 
BRANCH  29  30
ATOM     30  O   UNL A   1      44.120  23.560  24.709  1.00  0.00    -0.460 OA
BRANCH  30  31
ATOM     31  C   UNL A   1      45.215  24.335  24.904  1.00  0.00     0.338 C 
ATOM     32  O   UNL A   1      46.298  24.218  24.358  1.00  0.00    -0.246 OA
BRANCH  31  33
ATOM     33  C   UNL A   1      44.834  25.492  25.740  1.00  0.00     0.060 A 
ATOM     34  C   UNL A   1      44.406  26.663  25.103  1.00  0.00     0.016 A 
ATOM     35  C   UNL A   1      44.932  25.438  27.132  1.00  0.00     0.016 A 
ATOM     36  C   UNL A   1      44.119  27.802  25.854  1.00  0.00     0.010 A 
ATOM     37  C   UNL A   1      44.659  26.587  27.884  1.00  0.00     0.010 A 
ATOM     38  C   UNL A   1      44.290  27.786  27.244  1.00  0.00    -0.014 A 
BRANCH  38  39
ATOM     39  C   UNL A   1      44.288  29.073  27.988  1.00  0.00     0.031 A 
ATOM     40  C   UNL A   1      43.002  29.525  28.629  1.00  0.00     0.074 A 
ATOM     41  C   UNL A   1      45.412  29.796  28.144  1.00  0.00     0.049 A 
ATOM     42  N   UNL A   1      42.751  30.604  29.325  1.00  0.00    -0.248 NA
ATOM     43  C   UNL A   1      41.842  28.637  28.456  1.00  0.00     0.031 C 
ATOM     44  C   UNL A   1      46.726  29.440  27.612  1.00  0.00     0.029 A 
ATOM     45  N   UNL A   1      45.624  30.983  28.802  1.00  0.00    -0.354 N 
ATOM     46  C   UNL A   1      41.405  30.527  29.671  1.00  0.00     0.074 A 
ATOM     47  C   UNL A   1      40.886  29.318  29.067  1.00  0.00     0.031 C 
ATOM     48  C   UNL A   1      47.609  30.392  27.963  1.00  0.00     0.029 A 
ATOM     49  C   UNL A   1      46.917  31.442  28.710  1.00  0.00     0.049 A 
ATOM     50  H   UNL A   1      44.916  31.461  29.292  1.00  0.00     0.167 HD
ATOM     51  C   UNL A   1      40.672  31.378  30.431  1.00  0.00     0.034 A 
ATOM     52  C   UNL A   1      47.472  32.587  29.160  1.00  0.00     0.034 A 
ATOM     53  C   UNL A   1      41.198  32.589  31.012  1.00  0.00     0.049 A 
ATOM     54  C   UNL A   1      46.613  33.565  29.929  1.00  0.00     0.074 A 
ATOM     55  C   UNL A   1      40.545  33.520  31.802  1.00  0.00     0.029 A 
ATOM     56  N   UNL A   1      42.500  33.050  30.855  1.00  0.00    -0.354 N 
ATOM     57  N   UNL A   1      45.345  33.475  30.261  1.00  0.00    -0.248 NA
ATOM     58  C   UNL A   1      47.269  34.791  30.399  1.00  0.00     0.031 C 
ATOM     59  C   UNL A   1      41.426  34.578  32.053  1.00  0.00     0.029 A 
ATOM     60  C   UNL A   1      42.659  34.265  31.504  1.00  0.00     0.049 A 
ATOM     61  H   UNL A   1      43.207  32.580  30.357  1.00  0.00     0.167 HD
ATOM     62  C   UNL A   1      45.064  34.617  31.009  1.00  0.00     0.074 A 
ATOM     63  C   UNL A   1      46.302  35.365  31.098  1.00  0.00     0.031 C 
ATOM     64  C   UNL A   1      43.894  35.012  31.577  1.00  0.00     0.034 A 
BRANCH  51  65
ATOM     65  C   UNL A   1      39.210  31.049  30.623  1.00  0.00     0.023 A 
ATOM     66  C   UNL A   1      38.215  31.569  29.777  1.00  0.00     0.031 A 
ATOM     67  C   UNL A   1      38.800  30.233  31.692  1.00  0.00     0.131 A 
ATOM     68  C   UNL A   1      36.861  31.333  30.059  1.00  0.00     0.055 A 
ATOM     69  C   UNL A   1      37.456  29.930  31.915  1.00  0.00     0.041 A 
ATOM     70  F   UNL A   1      39.700  29.730  32.553  1.00  0.00    -0.206 F 
ATOM     71  C   UNL A   1      36.475  30.494  31.106  1.00  0.00     0.022 A 
BRANCH  68  72
ATOM     72  S   UNL A   1      35.609  32.269  29.137  1.00  0.00     0.124 S 
ATOM     73  O   UNL A   1      35.005  31.222  28.316  1.00  0.00    -0.237 OA
ATOM     74  O   UNL A   1      34.771  32.808  30.202  1.00  0.00    -0.237 OA
ATOM     75  O   UNL A   1      36.394  33.256  28.399  1.00  0.00    -0.744 OA
ENDBRANCH  68  72
ENDBRANCH  51  65
BRANCH  52  76
ATOM     76  C   UNL A   1      48.903  32.903  28.874  1.00  0.00     0.023 A 
ATOM     77  C   UNL A   1      49.279  33.593  27.711  1.00  0.00     0.031 A 
ATOM     78  C   UNL A   1      49.923  32.453  29.730  1.00  0.00     0.131 A 
ATOM     79  C   UNL A   1      50.639  33.766  27.408  1.00  0.00     0.055 A 
ATOM     80  C   UNL A   1      51.274  32.681  29.455  1.00  0.00     0.041 A 
ATOM     81  F   UNL A   1      49.622  31.781  30.853  1.00  0.00    -0.206 F 
ATOM     82  C   UNL A   1      51.638  33.329  28.280  1.00  0.00     0.022 A 
BRANCH  79  83
ATOM     83  S   UNL A   1      51.087  34.489  25.805  1.00  0.00     0.124 S 
ATOM     84  O   UNL A   1      52.293  33.741  25.469  1.00  0.00    -0.237 OA
ATOM     85  O   UNL A   1      49.906  34.196  25.000  1.00  0.00    -0.237 OA
ATOM     86  O   UNL A   1      51.293  35.903  26.115  1.00  0.00    -0.744 OA
ENDBRANCH  79  83
ENDBRANCH  52  76
BRANCH  64  87
ATOM     87  C   UNL A   1      43.918  36.287  32.393  1.00  0.00     0.023 A 
ATOM     88  C   UNL A   1      44.107  36.275  33.787  1.00  0.00     0.031 A 
ATOM     89  C   UNL A   1      43.711  37.530  31.769  1.00  0.00     0.131 A 
ATOM     90  C   UNL A   1      43.997  37.469  34.518  1.00  0.00     0.055 A 
ATOM     91  C   UNL A   1      43.686  38.724  32.493  1.00  0.00     0.041 A 
ATOM     92  F   UNL A   1      43.523  37.608  30.442  1.00  0.00    -0.206 F 
ATOM     93  C   UNL A   1      43.808  38.696  33.878  1.00  0.00     0.022 A 
BRANCH  90  94
ATOM     94  S   UNL A   1      43.962  37.376  36.330  1.00  0.00     0.124 S 
ATOM     95  O   UNL A   1      42.628  36.840  36.580  1.00  0.00    -0.237 OA
ATOM     96  O   UNL A   1      45.075  36.478  36.618  1.00  0.00    -0.237 OA
ATOM     97  O   UNL A   1      44.161  38.764  36.747  1.00  0.00    -0.744 OA
ENDBRANCH  90  94
ENDBRANCH  64  87
ENDBRANCH  38  39
ENDBRANCH  31  33
ENDBRANCH  30  31
ENDBRANCH  29  30
ENDBRANCH  28  29
ENDBRANCH  27  28
ENDBRANCH  26  27
ENDBRANCH   1  26
TORSDOF 25
ENDMDL
MODEL 3
REMARK VINA RESULT:      -6.8      4.505     11.625
REMARK SMILES CC1(CNS(=O)(=O)Cc2ccc(C(=O)OCCOCCOCCOC(=O)c3ccc(-c4c5nc(c(-c6cc(S(=O)(=O)[O-])ccc6F)c6ccc([nH]6)c(-c6cc(S(=O)(=O)[O-])ccc6F)c6nc(c(-c7cc(S(=O)(=O)[O-])ccc7F)c7ccc4[nH]7)C=C6)C=C5)cc3)cc2)COC1
REMARK SMILES IDX 19 1 18 2 17 3 16 4 15 5 13 6 14 7 12 8 9 9 10 10 91 11
REMARK SMILES IDX 11 12 90 13 8 14 5 15 6 16 7 17 4 18 3 20 2 21 1 22 92 23
REMARK SMILES IDX 94 24 93 25 20 26 21 27 22 28 23 29 24 30 25 31 26 32 27 33
REMARK SMILES IDX 28 34 89 35 29 36 88 37 30 38 31 39 32 40 82 41 33 42 87 43
REMARK SMILES IDX 81 44 83 45 34 46 86 47 80 48 79 49 35 51 67 52 47 53 66 54
REMARK SMILES IDX 48 55 51 56 65 57 84 58 49 59 50 60 64 62 85 63 52 64 36 65
REMARK SMILES IDX 37 66 45 67 38 68 44 69 46 70 43 71 39 72 40 73 41 74 42 75
REMARK SMILES IDX 68 76 69 77 77 78 70 79 76 80 78 81 75 82 71 83 72 84 73 85
REMARK SMILES IDX 74 86 53 87 54 88 62 89 55 90 61 91 63 92 60 93 56 94 57 95
REMARK SMILES IDX 58 96 59 97
REMARK H PARENT 4 19 83 50 51 61
REMARK Flexibility Score: inf
ROOT
ATOM      1  C   UNL A   1      42.873  19.238  25.666  1.00  0.00     0.188 C 
ENDROOT
BRANCH   1   2
ATOM      2  O   UNL A   1      42.489  19.303  27.031  1.00  0.00    -0.376 OA
BRANCH   2   3
ATOM      3  C   UNL A   1      41.640  20.343  27.492  1.00  0.00     0.202 C 
BRANCH   3   4
ATOM      4  C   UNL A   1      41.007  21.379  26.545  1.00  0.00     0.261 C 
BRANCH   4   5
ATOM      5  O   UNL A   1      39.581  21.331  26.416  1.00  0.00    -0.460 OA
BRANCH   5   6
ATOM      6  C   UNL A   1      38.961  22.536  26.398  1.00  0.00     0.338 C 
ATOM      7  O   UNL A   1      39.381  23.579  26.878  1.00  0.00    -0.246 OA
BRANCH   6   8
ATOM      8  C   UNL A   1      37.748  22.479  25.553  1.00  0.00     0.060 A 
ATOM      9  C   UNL A   1      35.335  22.484  24.083  1.00  0.00    -0.032 A 
ATOM     10  C   UNL A   1      36.004  23.685  24.394  1.00  0.00     0.006 A 
ATOM     11  C   UNL A   1      35.943  21.280  24.469  1.00  0.00     0.006 A 
ATOM     12  C   UNL A   1      37.190  23.686  25.128  1.00  0.00     0.016 A 
ATOM     13  C   UNL A   1      37.148  21.272  25.188  1.00  0.00     0.016 A 
BRANCH   9  14
ATOM     14  C   UNL A   1      33.933  22.629  23.527  1.00  0.00     0.189 C 
BRANCH  14  15
ATOM     15  S   UNL A   1      32.672  21.526  24.158  1.00  0.00     0.215 S 
ATOM     16  O   UNL A   1      31.840  21.098  23.053  1.00  0.00    -0.212 OA
ATOM     17  O   UNL A   1      32.056  22.087  25.342  1.00  0.00    -0.212 OA
BRANCH  15  18
ATOM     18  N   UNL A   1      33.522  20.169  24.680  1.00  0.00    -0.214 NA
ATOM     19  H   UNL A   1      34.236  19.964  23.980  1.00  0.00     0.141 HD
BRANCH  18  20
ATOM     20  C   UNL A   1      32.740  18.930  24.897  1.00  0.00     0.110 C 
BRANCH  20  21
ATOM     21  C   UNL A   1      33.293  17.763  24.075  1.00  0.00     0.028 C 
ATOM     22  C   UNL A   1      32.819  17.753  22.629  1.00  0.00     0.018 C 
ATOM     23  C   UNL A   1      33.138  16.415  24.813  1.00  0.00     0.170 C 
ATOM     24  C   UNL A   1      34.797  17.506  24.289  1.00  0.00     0.170 C 
ATOM     25  O   UNL A   1      34.506  16.506  25.300  1.00  0.00    -0.380 OA
ENDBRANCH  20  21
ENDBRANCH  18  20
ENDBRANCH  15  18
ENDBRANCH  14  15
ENDBRANCH   9  14
ENDBRANCH   6   8
ENDBRANCH   5   6
ENDBRANCH   4   5
ENDBRANCH   3   4
ENDBRANCH   2   3
ENDBRANCH   1   2
BRANCH   1  26
ATOM     26  C   UNL A   1      44.327  19.552  25.262  1.00  0.00     0.188 C 
BRANCH  26  27
ATOM     27  O   UNL A   1      44.461  20.464  24.198  1.00  0.00    -0.376 OA
BRANCH  27  28
ATOM     28  C   UNL A   1      44.717  21.831  24.470  1.00  0.00     0.202 C 
BRANCH  28  29
ATOM     29  C   UNL A   1      43.663  22.960  24.533  1.00  0.00     0.261 C 
BRANCH  29  30
ATOM     30  O   UNL A   1      43.495  23.688  25.751  1.00  0.00    -0.460 OA
BRANCH  30  31
ATOM     31  C   UNL A   1      43.096  24.977  25.621  1.00  0.00     0.338 C 
ATOM     32  O   UNL A   1      42.586  25.487  24.639  1.00  0.00    -0.246 OA
BRANCH  31  33
ATOM     33  C   UNL A   1      43.184  25.635  26.941  1.00  0.00     0.060 A 
ATOM     34  C   UNL A   1      42.237  25.301  27.917  1.00  0.00     0.016 A 
ATOM     35  C   UNL A   1      44.162  26.597  27.202  1.00  0.00     0.016 A 
ATOM     36  C   UNL A   1      42.237  25.962  29.144  1.00  0.00     0.010 A 
ATOM     37  C   UNL A   1      44.150  27.271  28.429  1.00  0.00     0.010 A 
ATOM     38  C   UNL A   1      43.162  26.985  29.390  1.00  0.00    -0.014 A 
BRANCH  38  39
ATOM     39  C   UNL A   1      42.954  27.883  30.556  1.00  0.00     0.031 A 
ATOM     40  C   UNL A   1      43.743  27.618  31.812  1.00  0.00     0.074 A 
ATOM     41  C   UNL A   1      42.131  28.945  30.486  1.00  0.00     0.049 A 
ATOM     42  N   UNL A   1      43.735  28.259  32.952  1.00  0.00    -0.248 NA
ATOM     43  C   UNL A   1      44.663  26.472  31.771  1.00  0.00     0.031 C 
ATOM     44  C   UNL A   1      41.349  29.333  29.313  1.00  0.00     0.029 A 
ATOM     45  N   UNL A   1      41.819  29.894  31.428  1.00  0.00    -0.354 N 
ATOM     46  C   UNL A   1      44.645  27.591  33.767  1.00  0.00     0.074 A 
ATOM     47  C   UNL A   1      45.150  26.471  33.001  1.00  0.00     0.031 C 
ATOM     48  C   UNL A   1      40.644  30.440  29.607  1.00  0.00     0.029 A 
ATOM     49  C   UNL A   1      40.894  30.817  30.998  1.00  0.00     0.049 A 
ATOM     50  H   UNL A   1      42.219  29.913  32.328  1.00  0.00     0.167 HD
ATOM     51  C   UNL A   1      45.034  27.892  35.031  1.00  0.00     0.034 A 
ATOM     52  C   UNL A   1      40.303  31.835  31.658  1.00  0.00     0.034 A 
ATOM     53  C   UNL A   1      44.510  29.001  35.789  1.00  0.00     0.049 A 
ATOM     54  C   UNL A   1      40.686  32.097  33.097  1.00  0.00     0.074 A 
ATOM     55  C   UNL A   1      44.837  29.398  37.074  1.00  0.00     0.029 A 
ATOM     56  N   UNL A   1      43.535  29.885  35.340  1.00  0.00    -0.354 N 
ATOM     57  N   UNL A   1      41.558  31.467  33.852  1.00  0.00    -0.248 NA
ATOM     58  C   UNL A   1      40.016  33.220  33.764  1.00  0.00     0.031 C 
ATOM     59  C   UNL A   1      44.005  30.467  37.429  1.00  0.00     0.029 A 
ATOM     60  C   UNL A   1      43.227  30.802  36.333  1.00  0.00     0.049 A 
ATOM     61  H   UNL A   1      43.124  29.863  34.446  1.00  0.00     0.167 HD
ATOM     62  C   UNL A   1      41.564  32.143  35.072  1.00  0.00     0.074 A 
ATOM     63  C   UNL A   1      40.628  33.241  34.938  1.00  0.00     0.031 C 
ATOM     64  C   UNL A   1      42.281  31.887  36.198  1.00  0.00     0.034 A 
BRANCH  51  65
ATOM     65  C   UNL A   1      46.034  26.967  35.685  1.00  0.00     0.023 A 
ATOM     66  C   UNL A   1      45.631  25.884  36.485  1.00  0.00     0.031 A 
ATOM     67  C   UNL A   1      47.414  27.193  35.536  1.00  0.00     0.131 A 
ATOM     68  C   UNL A   1      46.590  25.120  37.168  1.00  0.00     0.055 A 
ATOM     69  C   UNL A   1      48.366  26.375  36.146  1.00  0.00     0.041 A 
ATOM     70  F   UNL A   1      47.863  28.228  34.807  1.00  0.00    -0.206 F 
ATOM     71  C   UNL A   1      47.956  25.340  36.981  1.00  0.00     0.022 A 
BRANCH  68  72
ATOM     72  S   UNL A   1      46.023  23.941  38.426  1.00  0.00     0.124 S 
ATOM     73  O   UNL A   1      44.758  24.542  38.842  1.00  0.00    -0.237 OA
ATOM     74  O   UNL A   1      45.922  22.699  37.669  1.00  0.00    -0.237 OA
ATOM     75  O   UNL A   1      47.083  23.978  39.431  1.00  0.00    -0.744 OA
ENDBRANCH  68  72
ENDBRANCH  51  65
BRANCH  52  76
ATOM     76  C   UNL A   1      39.260  32.670  30.992  1.00  0.00     0.023 A 
ATOM     77  C   UNL A   1      37.893  32.400  31.157  1.00  0.00     0.031 A 
ATOM     78  C   UNL A   1      39.623  33.713  30.119  1.00  0.00     0.131 A 
ATOM     79  C   UNL A   1      36.941  33.123  30.420  1.00  0.00     0.055 A 
ATOM     80  C   UNL A   1      38.670  34.470  29.435  1.00  0.00     0.041 A 
ATOM     81  F   UNL A   1      40.916  34.011  29.918  1.00  0.00    -0.206 F 
ATOM     82  C   UNL A   1      37.320  34.166  29.573  1.00  0.00     0.022 A 
BRANCH  79  83
ATOM     83  S   UNL A   1      35.201  32.615  30.513  1.00  0.00     0.124 S 
ATOM     84  O   UNL A   1      35.050  31.852  29.279  1.00  0.00    -0.237 OA
ATOM     85  O   UNL A   1      35.178  31.843  31.750  1.00  0.00    -0.237 OA
ATOM     86  O   UNL A   1      34.478  33.884  30.557  1.00  0.00    -0.744 OA
ENDBRANCH  79  83
ENDBRANCH  52  76
BRANCH  64  87
ATOM     87  C   UNL A   1      42.117  32.848  37.355  1.00  0.00     0.023 A 
ATOM     88  C   UNL A   1      41.187  32.619  38.386  1.00  0.00     0.031 A 
ATOM     89  C   UNL A   1      42.876  34.031  37.406  1.00  0.00     0.131 A 
ATOM     90  C   UNL A   1      40.981  33.597  39.372  1.00  0.00     0.055 A 
ATOM     91  C   UNL A   1      42.723  34.962  38.436  1.00  0.00     0.041 A 
ATOM     92  F   UNL A   1      43.777  34.309  36.450  1.00  0.00    -0.206 F 
ATOM     93  C   UNL A   1      41.757  34.758  39.415  1.00  0.00     0.022 A 
BRANCH  90  94
ATOM     94  S   UNL A   1      39.585  33.398  40.514  1.00  0.00     0.124 S 
ATOM     95  O   UNL A   1      38.887  34.669  40.363  1.00  0.00    -0.237 OA
ATOM     96  O   UNL A   1      38.904  32.227  39.971  1.00  0.00    -0.237 OA
ATOM     97  O   UNL A   1      40.230  33.194  41.811  1.00  0.00    -0.744 OA
ENDBRANCH  90  94
ENDBRANCH  64  87
ENDBRANCH  38  39
ENDBRANCH  31  33
ENDBRANCH  30  31
ENDBRANCH  29  30
ENDBRANCH  28  29
ENDBRANCH  27  28
ENDBRANCH  26  27
ENDBRANCH   1  26
TORSDOF 25
ENDMDL
