MODEL 1
REMARK VINA RESULT:      -6.3      0.000      0.000
REMARK SMILES O=C(OCCOCCOCCOC(=O)c1ccc(-c2c3nc(c(-c4cc(S(=O)(=O)[O-])ccc4F)c4ccc([nH]4)c(-c4cc(S(=O)(=O)[O-])ccc4F)c4nc(c(-c5cc(S(=O)(=O)[O-])ccc5F)c5ccc2[nH]5)C=C4)C=C3)cc1)C1=Cc2cc(Cl)cc(C#Cc3ccccc3)c2O[C@@H]1C(F)(F)F
REMARK SMILES IDX 8 1 7 2 6 3 5 4 4 5 3 6 2 7 1 8 78 9 79 10 96 11 80 12 95 13
REMARK SMILES IDX 81 14 94 15 82 16 85 17 83 18 84 19 97 20 98 21 99 22 100 23
REMARK SMILES IDX 86 24 87 25 88 26 89 27 93 28 90 29 92 30 91 31 9 32 10 33
REMARK SMILES IDX 11 34 12 35 13 36 14 37 15 38 16 39 77 40 17 41 76 42 18 43
REMARK SMILES IDX 19 44 20 45 70 46 21 47 75 48 69 49 71 50 22 51 74 52 68 53
REMARK SMILES IDX 67 54 23 56 55 57 35 58 54 59 36 60 39 61 53 62 72 63 37 64
REMARK SMILES IDX 38 65 52 67 73 68 40 69 24 70 25 71 33 72 26 73 32 74 34 75
REMARK SMILES IDX 31 76 27 77 28 78 29 79 30 80 56 81 57 82 65 83 58 84 64 85
REMARK SMILES IDX 66 86 63 87 59 88 60 89 61 90 62 91 41 92 42 93 50 94 43 95
REMARK SMILES IDX 49 96 51 97 48 98 44 99 45 100 46 101 47 102
REMARK H PARENT 71 55 39 66
REMARK Flexibility Score: inf
ROOT
ATOM      1  C   UNL A   1      47.636  20.462  35.461  1.00  0.00     0.188 C 
ENDROOT
BRANCH   1   2
ATOM      2  C   UNL A   1      47.644  20.655  36.982  1.00  0.00     0.188 C 
BRANCH   2   3
ATOM      3  O   UNL A   1      47.890  21.964  37.651  1.00  0.00    -0.376 OA
BRANCH   3   4
ATOM      4  C   UNL A   1      49.044  22.358  38.852  1.00  0.00     0.202 C 
BRANCH   4   5
ATOM      5  C   UNL A   1      48.911  24.049  40.209  1.00  0.00     0.261 C 
BRANCH   5   6
ATOM      6  O   UNL A   1      48.571  25.482  39.834  1.00  0.00    -0.460 OA
BRANCH   6   7
ATOM      7  C   UNL A   1      47.281  25.618  39.494  1.00  0.00     0.338 C 
ATOM      8  O   UNL A   1      46.317  25.102  40.000  1.00  0.00    -0.246 OA
BRANCH   7   9
ATOM      9  C   UNL A   1      47.507  26.123  38.150  1.00  0.00     0.087 C 
ATOM     10  C   UNL A   1      47.088  25.240  37.066  1.00  0.00     0.027 C 
ATOM     11  C   UNL A   1      46.705  27.823  38.539  1.00  0.00     0.316 C 
ATOM     12  C   UNL A   1      45.579  25.453  36.110  1.00  0.00     0.020 A 
ATOM     13  O   UNL A   1      44.979  28.006  37.633  1.00  0.00    -0.474 OA
ATOM     14  C   UNL A   1      45.256  24.489  35.194  1.00  0.00     0.032 A 
ATOM     15  C   UNL A   1      44.466  26.761  36.394  1.00  0.00     0.143 A 
ATOM     16  C   UNL A   1      44.035  24.687  34.538  1.00  0.00     0.043 A 
ATOM     17  C   UNL A   1      43.292  26.877  35.683  1.00  0.00     0.069 A 
ATOM     18  Cl  UNL A   1      43.574  23.489  33.370  1.00  0.00    -0.084 Cl
ATOM     19  C   UNL A   1      43.126  25.803  34.757  1.00  0.00     0.041 A 
BRANCH  11  20
ATOM     20  C   UNL A   1      48.183  28.629  38.362  1.00  0.00     0.430 C 
ATOM     21  F   UNL A   1      49.076  28.693  39.348  1.00  0.00    -0.167 F 
ATOM     22  F   UNL A   1      48.837  28.063  37.312  1.00  0.00    -0.167 F 
ATOM     23  F   UNL A   1      48.006  29.936  37.992  1.00  0.00    -0.167 F 
ENDBRANCH  11  20
BRANCH  17  24
ATOM     24  C   UNL A   1      42.295  27.900  35.692  1.00  0.00    -0.058 C 
ATOM     25  C   UNL A   1      41.632  28.910  35.704  1.00  0.00    -0.062 C 
BRANCH  25  26
ATOM     26  C   UNL A   1      40.941  30.174  35.756  1.00  0.00     0.025 A 
ATOM     27  C   UNL A   1      39.850  30.419  34.919  1.00  0.00     0.017 A 
ATOM     28  C   UNL A   1      41.361  31.189  36.624  1.00  0.00     0.017 A 
ATOM     29  C   UNL A   1      39.183  31.650  34.968  1.00  0.00     0.001 A 
ATOM     30  C   UNL A   1      40.703  32.421  36.668  1.00  0.00     0.001 A 
ATOM     31  C   UNL A   1      39.609  32.650  35.842  1.00  0.00     0.000 A 
ENDBRANCH  25  26
ENDBRANCH  17  24
ENDBRANCH   7   9
ENDBRANCH   6   7
ENDBRANCH   5   6
ENDBRANCH   4   5
ENDBRANCH   3   4
ENDBRANCH   2   3
ENDBRANCH   1   2
BRANCH   1  32
ATOM     32  O   UNL A   1      48.835  20.567  34.736  1.00  0.00    -0.376 OA
BRANCH  32  33
ATOM     33  C   UNL A   1      50.021  20.675  35.507  1.00  0.00     0.202 C 
BRANCH  33  34
ATOM     34  C   UNL A   1      51.140  21.553  34.957  1.00  0.00     0.261 C 
BRANCH  34  35
ATOM     35  O   UNL A   1      50.765  22.267  33.770  1.00  0.00    -0.460 OA
BRANCH  35  36
ATOM     36  C   UNL A   1      51.084  23.583  33.721  1.00  0.00     0.338 C 
ATOM     37  O   UNL A   1      52.176  24.088  33.902  1.00  0.00    -0.246 OA
BRANCH  36  38
ATOM     38  C   UNL A   1      49.894  24.319  33.267  1.00  0.00     0.060 A 
ATOM     39  C   UNL A   1      50.037  25.411  32.400  1.00  0.00     0.016 A 
ATOM     40  C   UNL A   1      48.635  23.924  33.720  1.00  0.00     0.016 A 
ATOM     41  C   UNL A   1      48.909  26.103  31.963  1.00  0.00     0.010 A 
ATOM     42  C   UNL A   1      47.512  24.648  33.325  1.00  0.00     0.010 A 
ATOM     43  C   UNL A   1      47.650  25.752  32.466  1.00  0.00    -0.014 A 
BRANCH  43  44
ATOM     44  C   UNL A   1      46.524  26.702  32.341  1.00  0.00     0.031 A 
ATOM     45  C   UNL A   1      45.584  26.493  31.187  1.00  0.00     0.074 A 
ATOM     46  C   UNL A   1      46.350  27.717  33.203  1.00  0.00     0.049 A 
ATOM     47  N   UNL A   1      44.571  27.218  30.796  1.00  0.00    -0.248 NA
ATOM     48  C   UNL A   1      45.835  25.304  30.354  1.00  0.00     0.031 C 
ATOM     49  C   UNL A   1      47.177  27.977  34.379  1.00  0.00     0.029 A 
ATOM     50  N   UNL A   1      45.420  28.725  33.212  1.00  0.00    -0.354 N 
ATOM     51  C   UNL A   1      44.066  26.575  29.672  1.00  0.00     0.074 A 
ATOM     52  C   UNL A   1      44.908  25.428  29.419  1.00  0.00     0.031 C 
ATOM     53  C   UNL A   1      46.721  29.085  34.992  1.00  0.00     0.029 A 
ATOM     54  C   UNL A   1      45.600  29.633  34.229  1.00  0.00     0.049 A 
ATOM     55  H   UNL A   1      44.691  28.791  32.553  1.00  0.00     0.167 HD
ATOM     56  C   UNL A   1      42.990  26.912  28.922  1.00  0.00     0.034 A 
ATOM     57  C   UNL A   1      44.948  30.787  34.486  1.00  0.00     0.034 A 
ATOM     58  C   UNL A   1      42.189  28.082  29.172  1.00  0.00     0.049 A 
ATOM     59  C   UNL A   1      43.818  31.201  33.569  1.00  0.00     0.074 A 
ATOM     60  C   UNL A   1      41.077  28.525  28.482  1.00  0.00     0.029 A 
ATOM     61  N   UNL A   1      42.431  29.009  30.179  1.00  0.00    -0.354 N 
ATOM     62  N   UNL A   1      43.334  30.581  32.515  1.00  0.00    -0.248 NA
ATOM     63  C   UNL A   1      43.143  32.469  33.878  1.00  0.00     0.031 C 
ATOM     64  C   UNL A   1      40.705  29.765  29.008  1.00  0.00     0.029 A 
ATOM     65  C   UNL A   1      41.514  30.044  30.099  1.00  0.00     0.049 A 
ATOM     66  H   UNL A   1      43.148  28.940  30.849  1.00  0.00     0.167 HD
ATOM     67  C   UNL A   1      42.274  31.365  32.064  1.00  0.00     0.074 A 
ATOM     68  C   UNL A   1      42.183  32.494  32.966  1.00  0.00     0.031 C 
ATOM     69  C   UNL A   1      41.444  31.168  31.006  1.00  0.00     0.034 A 
BRANCH  56  70
ATOM     70  C   UNL A   1      42.674  26.039  27.734  1.00  0.00     0.023 A 
ATOM     71  C   UNL A   1      41.942  24.846  27.863  1.00  0.00     0.031 A 
ATOM     72  C   UNL A   1      43.149  26.384  26.457  1.00  0.00     0.131 A 
ATOM     73  C   UNL A   1      41.773  24.004  26.755  1.00  0.00     0.055 A 
ATOM     74  C   UNL A   1      42.897  25.588  25.338  1.00  0.00     0.041 A 
ATOM     75  F   UNL A   1      43.885  27.491  26.275  1.00  0.00    -0.206 F 
ATOM     76  C   UNL A   1      42.218  24.382  25.486  1.00  0.00     0.022 A 
BRANCH  73  77
ATOM     77  S   UNL A   1      41.113  22.337  27.027  1.00  0.00     0.124 S 
ATOM     78  O   UNL A   1      41.265  22.193  28.473  1.00  0.00    -0.237 OA
ATOM     79  O   UNL A   1      39.746  22.454  26.537  1.00  0.00    -0.237 OA
ATOM     80  O   UNL A   1      41.993  21.485  26.228  1.00  0.00    -0.744 OA
ENDBRANCH  73  77
ENDBRANCH  56  70
BRANCH  57  81
ATOM     81  C   UNL A   1      45.361  31.658  35.627  1.00  0.00     0.023 A 
ATOM     82  C   UNL A   1      44.916  31.405  36.935  1.00  0.00     0.031 A 
ATOM     83  C   UNL A   1      46.152  32.802  35.414  1.00  0.00     0.131 A 
ATOM     84  C   UNL A   1      45.219  32.310  37.966  1.00  0.00     0.055 A 
ATOM     85  C   UNL A   1      46.508  33.661  36.455  1.00  0.00     0.041 A 
ATOM     86  F   UNL A   1      46.591  33.106  34.182  1.00  0.00    -0.206 F 
ATOM     87  C   UNL A   1      46.029  33.425  37.739  1.00  0.00     0.022 A 
BRANCH  84  88
ATOM     88  S   UNL A   1      44.437  32.075  39.586  1.00  0.00     0.124 S 
ATOM     89  O   UNL A   1      43.239  32.897  39.458  1.00  0.00    -0.237 OA
ATOM     90  O   UNL A   1      44.226  30.632  39.617  1.00  0.00    -0.237 OA
ATOM     91  O   UNL A   1      45.440  32.577  40.524  1.00  0.00    -0.744 OA
ENDBRANCH  84  88
ENDBRANCH  57  81
BRANCH  69  92
ATOM     92  C   UNL A   1      40.328  32.166  30.801  1.00  0.00     0.023 A 
ATOM     93  C   UNL A   1      39.022  31.932  31.267  1.00  0.00     0.031 A 
ATOM     94  C   UNL A   1      40.581  33.377  30.130  1.00  0.00     0.131 A 
ATOM     95  C   UNL A   1      38.008  32.863  30.997  1.00  0.00     0.055 A 
ATOM     96  C   UNL A   1      39.586  34.336  29.938  1.00  0.00     0.041 A 
ATOM     97  F   UNL A   1      41.807  33.654  29.656  1.00  0.00    -0.206 F 
ATOM     98  C   UNL A   1      38.288  34.075  30.360  1.00  0.00     0.022 A 
BRANCH  95  99
ATOM     99  S   UNL A   1      36.294  32.416  31.385  1.00  0.00     0.124 S 
ATOM    100  O   UNL A   1      35.969  31.497  30.299  1.00  0.00    -0.237 OA
ATOM    101  O   UNL A   1      36.417  31.818  32.710  1.00  0.00    -0.237 OA
ATOM    102  O   UNL A   1      35.589  33.696  31.345  1.00  0.00    -0.744 OA
ENDBRANCH  95  99
ENDBRANCH  69  92
ENDBRANCH  43  44
ENDBRANCH  36  38
ENDBRANCH  35  36
ENDBRANCH  34  35
ENDBRANCH  33  34
ENDBRANCH  32  33
ENDBRANCH   1  32
TORSDOF 23
ENDMDL
MODEL 2
REMARK VINA RESULT:      -6.3      5.104      9.413
REMARK SMILES O=C(OCCOCCOCCOC(=O)c1ccc(-c2c3nc(c(-c4cc(S(=O)(=O)[O-])ccc4F)c4ccc([nH]4)c(-c4cc(S(=O)(=O)[O-])ccc4F)c4nc(c(-c5cc(S(=O)(=O)[O-])ccc5F)c5ccc2[nH]5)C=C4)C=C3)cc1)C1=Cc2cc(Cl)cc(C#Cc3ccccc3)c2O[C@@H]1C(F)(F)F
REMARK SMILES IDX 8 1 7 2 6 3 5 4 4 5 3 6 2 7 1 8 78 9 79 10 96 11 80 12 95 13
REMARK SMILES IDX 81 14 94 15 82 16 85 17 83 18 84 19 97 20 98 21 99 22 100 23
REMARK SMILES IDX 86 24 87 25 88 26 89 27 93 28 90 29 92 30 91 31 9 32 10 33
REMARK SMILES IDX 11 34 12 35 13 36 14 37 15 38 16 39 77 40 17 41 76 42 18 43
REMARK SMILES IDX 19 44 20 45 70 46 21 47 75 48 69 49 71 50 22 51 74 52 68 53
REMARK SMILES IDX 67 54 23 56 55 57 35 58 54 59 36 60 39 61 53 62 72 63 37 64
REMARK SMILES IDX 38 65 52 67 73 68 40 69 24 70 25 71 33 72 26 73 32 74 34 75
REMARK SMILES IDX 31 76 27 77 28 78 29 79 30 80 56 81 57 82 65 83 58 84 64 85
REMARK SMILES IDX 66 86 63 87 59 88 60 89 61 90 62 91 41 92 42 93 50 94 43 95
REMARK SMILES IDX 49 96 51 97 48 98 44 99 45 100 46 101 47 102
REMARK H PARENT 71 55 39 66
REMARK Flexibility Score: inf
ROOT
ATOM      1  C   UNL A   1      51.629  26.054  39.412  1.00  0.00     0.188 C 
ENDROOT
BRANCH   1   2
ATOM      2  C   UNL A   1      51.251  24.877  40.321  1.00  0.00     0.188 C 
BRANCH   2   3
ATOM      3  O   UNL A   1      50.394  23.738  39.889  1.00  0.00    -0.376 OA
BRANCH   3   4
ATOM      4  C   UNL A   1      50.386  22.123  40.454  1.00  0.00     0.202 C 
BRANCH   4   5
ATOM      5  C   UNL A   1      48.937  20.606  39.891  1.00  0.00     0.261 C 
BRANCH   5   6
ATOM      6  O   UNL A   1      47.430  20.785  39.803  1.00  0.00    -0.460 OA
BRANCH   6   7
ATOM      7  C   UNL A   1      46.861  19.858  39.021  1.00  0.00     0.338 C 
ATOM      8  O   UNL A   1      47.147  18.692  38.914  1.00  0.00    -0.246 OA
BRANCH   7   9
ATOM      9  C   UNL A   1      46.219  20.778  38.097  1.00  0.00     0.087 C 
ATOM     10  C   UNL A   1      46.130  22.163  38.546  1.00  0.00     0.027 C 
ATOM     11  C   UNL A   1      47.271  20.184  36.605  1.00  0.00     0.316 C 
ATOM     12  C   UNL A   1      47.208  23.486  37.976  1.00  0.00     0.020 A 
ATOM     13  O   UNL A   1      48.565  21.553  36.073  1.00  0.00    -0.474 OA
ATOM     14  C   UNL A   1      47.082  24.716  38.562  1.00  0.00     0.032 A 
ATOM     15  C   UNL A   1      48.472  23.227  36.808  1.00  0.00     0.143 A 
ATOM     16  C   UNL A   1      48.000  25.676  38.115  1.00  0.00     0.043 A 
ATOM     17  C   UNL A   1      49.317  24.244  36.422  1.00  0.00     0.069 A 
ATOM     18  Cl  UNL A   1      47.888  27.253  38.832  1.00  0.00    -0.084 Cl
ATOM     19  C   UNL A   1      49.032  25.460  37.112  1.00  0.00     0.041 A 
BRANCH  11  20
ATOM     20  C   UNL A   1      45.916  19.526  35.833  1.00  0.00     0.430 C 
ATOM     21  F   UNL A   1      44.970  18.870  36.503  1.00  0.00    -0.167 F 
ATOM     22  F   UNL A   1      45.276  20.539  35.191  1.00  0.00    -0.167 F 
ATOM     23  F   UNL A   1      46.274  18.659  34.835  1.00  0.00    -0.167 F 
ENDBRANCH  11  20
BRANCH  17  24
ATOM     24  C   UNL A   1      50.348  24.273  35.433  1.00  0.00    -0.058 C 
ATOM     25  C   UNL A   1      51.276  24.089  34.681  1.00  0.00    -0.062 C 
BRANCH  25  26
ATOM     26  C   UNL A   1      52.422  23.783  33.862  1.00  0.00     0.025 A 
ATOM     27  C   UNL A   1      53.082  24.797  33.163  1.00  0.00     0.017 A 
ATOM     28  C   UNL A   1      52.882  22.468  33.730  1.00  0.00     0.017 A 
ATOM     29  C   UNL A   1      54.193  24.497  32.363  1.00  0.00     0.001 A 
ATOM     30  C   UNL A   1      53.984  22.165  32.925  1.00  0.00     0.001 A 
ATOM     31  C   UNL A   1      54.643  23.182  32.245  1.00  0.00     0.000 A 
ENDBRANCH  25  26
ENDBRANCH  17  24
ENDBRANCH   7   9
ENDBRANCH   6   7
ENDBRANCH   5   6
ENDBRANCH   4   5
ENDBRANCH   3   4
ENDBRANCH   2   3
ENDBRANCH   1   2
BRANCH   1  32
ATOM     32  O   UNL A   1      52.178  27.220  39.969  1.00  0.00    -0.376 OA
BRANCH  32  33
ATOM     33  C   UNL A   1      52.943  28.030  39.091  1.00  0.00     0.202 C 
BRANCH  33  34
ATOM     34  C   UNL A   1      52.554  29.500  38.970  1.00  0.00     0.261 C 
BRANCH  34  35
ATOM     35  O   UNL A   1      51.630  29.753  37.904  1.00  0.00    -0.460 OA
BRANCH  35  36
ATOM     36  C   UNL A   1      52.118  30.379  36.806  1.00  0.00     0.338 C 
ATOM     37  O   UNL A   1      52.947  31.268  36.767  1.00  0.00    -0.246 OA
BRANCH  36  38
ATOM     38  C   UNL A   1      51.574  29.699  35.619  1.00  0.00     0.060 A 
ATOM     39  C   UNL A   1      50.703  30.384  34.760  1.00  0.00     0.016 A 
ATOM     40  C   UNL A   1      51.926  28.372  35.373  1.00  0.00     0.016 A 
ATOM     41  C   UNL A   1      50.195  29.743  33.632  1.00  0.00     0.010 A 
ATOM     42  C   UNL A   1      51.377  27.715  34.275  1.00  0.00     0.010 A 
ATOM     43  C   UNL A   1      50.493  28.391  33.417  1.00  0.00    -0.014 A 
BRANCH  43  44
ATOM     44  C   UNL A   1      49.662  27.602  32.483  1.00  0.00     0.031 A 
ATOM     45  C   UNL A   1      50.135  27.517  31.059  1.00  0.00     0.074 A 
ATOM     46  C   UNL A   1      48.529  26.998  32.875  1.00  0.00     0.049 A 
ATOM     47  N   UNL A   1      49.563  26.965  30.023  1.00  0.00    -0.248 NA
ATOM     48  C   UNL A   1      51.429  28.157  30.767  1.00  0.00     0.031 C 
ATOM     49  C   UNL A   1      48.010  26.981  34.241  1.00  0.00     0.029 A 
ATOM     50  N   UNL A   1      47.603  26.290  32.151  1.00  0.00    -0.354 N 
ATOM     51  C   UNL A   1      50.426  27.194  28.957  1.00  0.00     0.074 A 
ATOM     52  C   UNL A   1      51.536  27.969  29.462  1.00  0.00     0.031 C 
ATOM     53  C   UNL A   1      46.848  26.301  34.254  1.00  0.00     0.029 A 
ATOM     54  C   UNL A   1      46.522  25.874  32.893  1.00  0.00     0.049 A 
ATOM     55  H   UNL A   1      47.705  26.095  31.191  1.00  0.00     0.167 HD
ATOM     56  C   UNL A   1      50.302  26.785  27.672  1.00  0.00     0.034 A 
ATOM     57  C   UNL A   1      45.391  25.250  32.503  1.00  0.00     0.034 A 
ATOM     58  C   UNL A   1      49.166  26.046  27.185  1.00  0.00     0.049 A 
ATOM     59  C   UNL A   1      45.224  24.900  31.040  1.00  0.00     0.074 A 
ATOM     60  C   UNL A   1      48.931  25.578  25.907  1.00  0.00     0.029 A 
ATOM     61  N   UNL A   1      48.064  25.687  27.952  1.00  0.00    -0.354 N 
ATOM     62  N   UNL A   1      46.051  25.105  30.037  1.00  0.00    -0.248 NA
ATOM     63  C   UNL A   1      43.974  24.232  30.656  1.00  0.00     0.031 C 
ATOM     64  C   UNL A   1      47.649  25.023  25.876  1.00  0.00     0.029 A 
ATOM     65  C   UNL A   1      47.127  25.043  27.161  1.00  0.00     0.049 A 
ATOM     66  H   UNL A   1      47.964  25.866  28.914  1.00  0.00     0.167 HD
ATOM     67  C   UNL A   1      45.435  24.554  28.916  1.00  0.00     0.074 A 
ATOM     68  C   UNL A   1      44.176  23.998  29.368  1.00  0.00     0.031 C 
ATOM     69  C   UNL A   1      45.872  24.502  27.630  1.00  0.00     0.034 A 
BRANCH  56  70
ATOM     70  C   UNL A   1      51.388  27.194  26.709  1.00  0.00     0.023 A 
ATOM     71  C   UNL A   1      52.532  26.403  26.502  1.00  0.00     0.031 A 
ATOM     72  C   UNL A   1      51.298  28.414  26.018  1.00  0.00     0.131 A 
ATOM     73  C   UNL A   1      53.572  26.876  25.690  1.00  0.00     0.055 A 
ATOM     74  C   UNL A   1      52.294  28.836  25.136  1.00  0.00     0.041 A 
ATOM     75  F   UNL A   1      50.248  29.229  26.200  1.00  0.00    -0.206 F 
ATOM     76  C   UNL A   1      53.448  28.072  24.980  1.00  0.00     0.022 A 
BRANCH  73  77
ATOM     77  S   UNL A   1      55.154  25.989  25.705  1.00  0.00     0.124 S 
ATOM     78  O   UNL A   1      55.403  25.857  27.138  1.00  0.00    -0.237 OA
ATOM     79  O   UNL A   1      54.832  24.756  24.997  1.00  0.00    -0.237 OA
ATOM     80  O   UNL A   1      56.062  26.895  25.004  1.00  0.00    -0.744 OA
ENDBRANCH  73  77
ENDBRANCH  56  70
BRANCH  57  81
ATOM     81  C   UNL A   1      44.308  24.947  33.485  1.00  0.00     0.023 A 
ATOM     82  C   UNL A   1      43.549  25.973  34.073  1.00  0.00     0.031 A 
ATOM     83  C   UNL A   1      44.061  23.627  33.906  1.00  0.00     0.131 A 
ATOM     84  C   UNL A   1      42.622  25.669  35.083  1.00  0.00     0.055 A 
ATOM     85  C   UNL A   1      43.089  23.323  34.861  1.00  0.00     0.041 A 
ATOM     86  F   UNL A   1      44.768  22.606  33.393  1.00  0.00    -0.206 F 
ATOM     87  C   UNL A   1      42.372  24.349  35.467  1.00  0.00     0.022 A 
BRANCH  84  88
ATOM     88  S   UNL A   1      41.831  27.035  35.978  1.00  0.00     0.124 S 
ATOM     89  O   UNL A   1      42.985  27.714  36.558  1.00  0.00    -0.237 OA
ATOM     90  O   UNL A   1      41.142  27.744  34.906  1.00  0.00    -0.237 OA
ATOM     91  O   UNL A   1      40.960  26.356  36.935  1.00  0.00    -0.744 OA
ENDBRANCH  84  88
ENDBRANCH  57  81
BRANCH  69  92
ATOM     92  C   UNL A   1      45.007  23.769  26.630  1.00  0.00     0.023 A 
ATOM     93  C   UNL A   1      45.156  22.394  26.380  1.00  0.00     0.031 A 
ATOM     94  C   UNL A   1      44.011  24.464  25.918  1.00  0.00     0.131 A 
ATOM     95  C   UNL A   1      44.369  21.774  25.398  1.00  0.00     0.055 A 
ATOM     96  C   UNL A   1      43.176  23.823  25.002  1.00  0.00     0.041 A 
ATOM     97  F   UNL A   1      43.826  25.781  26.109  1.00  0.00    -0.206 F 
ATOM     98  C   UNL A   1      43.363  22.473  24.727  1.00  0.00     0.022 A 
BRANCH  95  99
ATOM     99  S   UNL A   1      44.760  20.068  24.923  1.00  0.00     0.124 S 
ATOM    100  O   UNL A   1      44.537  20.098  23.481  1.00  0.00    -0.237 OA
ATOM    101  O   UNL A   1      46.149  19.933  25.350  1.00  0.00    -0.237 OA
ATOM    102  O   UNL A   1      43.797  19.272  25.683  1.00  0.00    -0.744 OA
ENDBRANCH  95  99
ENDBRANCH  69  92
ENDBRANCH  43  44
ENDBRANCH  36  38
ENDBRANCH  35  36
ENDBRANCH  34  35
ENDBRANCH  33  34
ENDBRANCH  32  33
ENDBRANCH   1  32
TORSDOF 23
ENDMDL
MODEL 3
REMARK VINA RESULT:      -6.2      7.883     14.656
REMARK SMILES O=C(OCCOCCOCCOC(=O)c1ccc(-c2c3nc(c(-c4cc(S(=O)(=O)[O-])ccc4F)c4ccc([nH]4)c(-c4cc(S(=O)(=O)[O-])ccc4F)c4nc(c(-c5cc(S(=O)(=O)[O-])ccc5F)c5ccc2[nH]5)C=C4)C=C3)cc1)C1=Cc2cc(Cl)cc(C#Cc3ccccc3)c2O[C@@H]1C(F)(F)F
REMARK SMILES IDX 8 1 7 2 6 3 5 4 4 5 3 6 2 7 1 8 78 9 79 10 96 11 80 12 95 13
REMARK SMILES IDX 81 14 94 15 82 16 85 17 83 18 84 19 97 20 98 21 99 22 100 23
REMARK SMILES IDX 86 24 87 25 88 26 89 27 93 28 90 29 92 30 91 31 9 32 10 33
REMARK SMILES IDX 11 34 12 35 13 36 14 37 15 38 16 39 77 40 17 41 76 42 18 43
REMARK SMILES IDX 19 44 20 45 70 46 21 47 75 48 69 49 71 50 22 51 74 52 68 53
REMARK SMILES IDX 67 54 23 56 55 57 35 58 54 59 36 60 39 61 53 62 72 63 37 64
REMARK SMILES IDX 38 65 52 67 73 68 40 69 24 70 25 71 33 72 26 73 32 74 34 75
REMARK SMILES IDX 31 76 27 77 28 78 29 79 30 80 56 81 57 82 65 83 58 84 64 85
REMARK SMILES IDX 66 86 63 87 59 88 60 89 61 90 62 91 41 92 42 93 50 94 43 95
REMARK SMILES IDX 49 96 51 97 48 98 44 99 45 100 46 101 47 102
REMARK H PARENT 71 55 39 66
REMARK Flexibility Score: inf
ROOT
ATOM      1  C   UNL A   1      49.936  35.666  26.369  1.00  0.00     0.188 C 
ENDROOT
BRANCH   1   2
ATOM      2  C   UNL A   1      50.983  36.784  26.288  1.00  0.00     0.188 C 
BRANCH   2   3
ATOM      3  O   UNL A   1      50.703  38.208  26.628  1.00  0.00    -0.376 OA
BRANCH   3   4
ATOM      4  C   UNL A   1      49.561  38.844  27.732  1.00  0.00     0.202 C 
BRANCH   4   5
ATOM      5  C   UNL A   1      47.419  38.489  27.662  1.00  0.00     0.261 C 
BRANCH   5   6
ATOM      6  O   UNL A   1      46.330  39.548  27.589  1.00  0.00    -0.460 OA
BRANCH   6   7
ATOM      7  C   UNL A   1      45.125  39.011  27.350  1.00  0.00     0.338 C 
ATOM      8  O   UNL A   1      44.859  38.038  26.691  1.00  0.00    -0.246 OA
BRANCH   7   9
ATOM      9  C   UNL A   1      44.339  40.183  27.695  1.00  0.00     0.087 C 
ATOM     10  C   UNL A   1      45.104  41.366  28.075  1.00  0.00     0.027 C 
ATOM     11  C   UNL A   1      43.252  40.050  26.119  1.00  0.00     0.316 C 
ATOM     12  C   UNL A   1      45.394  42.776  26.995  1.00  0.00     0.020 A 
ATOM     13  O   UNL A   1      43.671  41.488  24.858  1.00  0.00    -0.474 OA
ATOM     14  C   UNL A   1      46.220  43.770  27.444  1.00  0.00     0.032 A 
ATOM     15  C   UNL A   1      44.769  42.859  25.373  1.00  0.00     0.143 A 
ATOM     16  C   UNL A   1      46.453  44.801  26.524  1.00  0.00     0.043 A 
ATOM     17  C   UNL A   1      45.045  43.926  24.547  1.00  0.00     0.069 A 
ATOM     18  Cl  UNL A   1      47.500  46.085  27.041  1.00  0.00    -0.084 Cl
ATOM     19  C   UNL A   1      45.898  44.879  25.180  1.00  0.00     0.041 A 
BRANCH  11  20
ATOM     20  C   UNL A   1      41.870  39.690  27.027  1.00  0.00     0.430 C 
ATOM     21  F   UNL A   1      40.956  40.612  27.322  1.00  0.00    -0.167 F 
ATOM     22  F   UNL A   1      41.198  38.702  26.377  1.00  0.00    -0.167 F 
ATOM     23  F   UNL A   1      42.192  39.144  28.242  1.00  0.00    -0.167 F 
ENDBRANCH  11  20
BRANCH  17  24
ATOM     24  C   UNL A   1      44.573  44.233  23.234  1.00  0.00    -0.058 C 
ATOM     25  C   UNL A   1      44.119  44.268  22.114  1.00  0.00    -0.062 C 
BRANCH  25  26
ATOM     26  C   UNL A   1      43.589  44.188  20.776  1.00  0.00     0.025 A 
ATOM     27  C   UNL A   1      44.224  44.850  19.724  1.00  0.00     0.017 A 
ATOM     28  C   UNL A   1      42.419  43.469  20.508  1.00  0.00     0.017 A 
ATOM     29  C   UNL A   1      43.705  44.774  18.424  1.00  0.00     0.001 A 
ATOM     30  C   UNL A   1      41.893  43.400  19.214  1.00  0.00     0.001 A 
ATOM     31  C   UNL A   1      42.541  44.050  18.170  1.00  0.00     0.000 A 
ENDBRANCH  25  26
ENDBRANCH  17  24
ENDBRANCH   7   9
ENDBRANCH   6   7
ENDBRANCH   5   6
ENDBRANCH   4   5
ENDBRANCH   3   4
ENDBRANCH   2   3
ENDBRANCH   1   2
BRANCH   1  32
ATOM     32  O   UNL A   1      48.792  35.718  25.557  1.00  0.00    -0.376 OA
BRANCH  32  33
ATOM     33  C   UNL A   1      47.897  34.623  25.668  1.00  0.00     0.202 C 
BRANCH  33  34
ATOM     34  C   UNL A   1      46.417  34.894  25.421  1.00  0.00     0.261 C 
BRANCH  34  35
ATOM     35  O   UNL A   1      45.553  34.067  26.212  1.00  0.00    -0.460 OA
BRANCH  35  36
ATOM     36  C   UNL A   1      44.255  34.448  26.302  1.00  0.00     0.338 C 
ATOM     37  O   UNL A   1      43.498  34.722  25.390  1.00  0.00    -0.246 OA
BRANCH  36  38
ATOM     38  C   UNL A   1      43.851  34.343  27.713  1.00  0.00     0.060 A 
ATOM     39  C   UNL A   1      43.600  33.085  28.276  1.00  0.00     0.016 A 
ATOM     40  C   UNL A   1      43.711  35.508  28.469  1.00  0.00     0.016 A 
ATOM     41  C   UNL A   1      43.225  32.986  29.615  1.00  0.00     0.010 A 
ATOM     42  C   UNL A   1      43.285  35.413  29.791  1.00  0.00     0.010 A 
ATOM     43  C   UNL A   1      43.019  34.155  30.359  1.00  0.00    -0.014 A 
BRANCH  43  44
ATOM     44  C   UNL A   1      42.248  34.090  31.620  1.00  0.00     0.031 A 
ATOM     45  C   UNL A   1      43.025  33.821  32.877  1.00  0.00     0.074 A 
ATOM     46  C   UNL A   1      40.915  34.247  31.647  1.00  0.00     0.049 A 
ATOM     47  N   UNL A   1      42.597  33.634  34.096  1.00  0.00    -0.248 NA
ATOM     48  C   UNL A   1      44.489  33.742  32.730  1.00  0.00     0.031 C 
ATOM     49  C   UNL A   1      40.077  34.558  30.491  1.00  0.00     0.029 A 
ATOM     50  N   UNL A   1      40.032  34.156  32.692  1.00  0.00    -0.354 N 
ATOM     51  C   UNL A   1      43.737  33.413  34.860  1.00  0.00     0.074 A 
ATOM     52  C   UNL A   1      44.869  33.446  33.962  1.00  0.00     0.031 C 
ATOM     53  C   UNL A   1      38.794  34.621  30.892  1.00  0.00     0.029 A 
ATOM     54  C   UNL A   1      38.717  34.313  32.320  1.00  0.00     0.049 A 
ATOM     55  H   UNL A   1      40.313  33.994  33.622  1.00  0.00     0.167 HD
ATOM     56  C   UNL A   1      43.829  33.206  36.195  1.00  0.00     0.034 A 
ATOM     57  C   UNL A   1      37.588  34.191  33.050  1.00  0.00     0.034 A 
ATOM     58  C   UNL A   1      42.682  33.139  37.064  1.00  0.00     0.049 A 
ATOM     59  C   UNL A   1      37.709  33.850  34.520  1.00  0.00     0.074 A 
ATOM     60  C   UNL A   1      42.651  32.936  38.430  1.00  0.00     0.029 A 
ATOM     61  N   UNL A   1      41.362  33.252  36.645  1.00  0.00    -0.354 N 
ATOM     62  N   UNL A   1      38.791  33.656  35.241  1.00  0.00    -0.248 NA
ATOM     63  C   UNL A   1      36.456  33.715  35.274  1.00  0.00     0.031 C 
ATOM     64  C   UNL A   1      41.314  32.828  38.822  1.00  0.00     0.029 A 
ATOM     65  C   UNL A   1      40.508  33.077  37.721  1.00  0.00     0.049 A 
ATOM     66  H   UNL A   1      41.076  33.428  35.720  1.00  0.00     0.167 HD
ATOM     67  C   UNL A   1      38.347  33.418  36.540  1.00  0.00     0.074 A 
ATOM     68  C   UNL A   1      36.902  33.504  36.504  1.00  0.00     0.031 C 
ATOM     69  C   UNL A   1      39.066  33.159  37.664  1.00  0.00     0.034 A 
BRANCH  56  70
ATOM     70  C   UNL A   1      45.205  32.971  36.767  1.00  0.00     0.023 A 
ATOM     71  C   UNL A   1      45.668  31.681  37.077  1.00  0.00     0.031 A 
ATOM     72  C   UNL A   1      46.050  34.059  37.045  1.00  0.00     0.131 A 
ATOM     73  C   UNL A   1      46.905  31.517  37.717  1.00  0.00     0.055 A 
ATOM     74  C   UNL A   1      47.320  33.882  37.595  1.00  0.00     0.041 A 
ATOM     75  F   UNL A   1      45.649  35.317  36.804  1.00  0.00    -0.206 F 
ATOM     76  C   UNL A   1      47.748  32.606  37.949  1.00  0.00     0.022 A 
BRANCH  73  77
ATOM     77  S   UNL A   1      47.322  29.885  38.390  1.00  0.00     0.124 S 
ATOM     78  O   UNL A   1      46.539  29.003  37.527  1.00  0.00    -0.237 OA
ATOM     79  O   UNL A   1      48.767  29.831  38.216  1.00  0.00    -0.237 OA
ATOM     80  O   UNL A   1      46.860  29.957  39.775  1.00  0.00    -0.744 OA
ENDBRANCH  73  77
ENDBRANCH  56  70
BRANCH  57  81
ATOM     81  C   UNL A   1      36.247  34.348  32.413  1.00  0.00     0.023 A 
ATOM     82  C   UNL A   1      35.471  35.500  32.619  1.00  0.00     0.031 A 
ATOM     83  C   UNL A   1      35.688  33.312  31.641  1.00  0.00     0.131 A 
ATOM     84  C   UNL A   1      34.165  35.568  32.109  1.00  0.00     0.055 A 
ATOM     85  C   UNL A   1      34.414  33.413  31.077  1.00  0.00     0.041 A 
ATOM     86  F   UNL A   1      36.374  32.179  31.424  1.00  0.00    -0.206 F 
ATOM     87  C   UNL A   1      33.638  34.541  31.323  1.00  0.00     0.022 A 
BRANCH  84  88
ATOM     88  S   UNL A   1      33.114  36.967  32.591  1.00  0.00     0.124 S 
ATOM     89  O   UNL A   1      31.779  36.396  32.450  1.00  0.00    -0.237 OA
ATOM     90  O   UNL A   1      33.559  37.228  33.955  1.00  0.00    -0.237 OA
ATOM     91  O   UNL A   1      33.457  38.001  31.617  1.00  0.00    -0.744 OA
ENDBRANCH  84  88
ENDBRANCH  57  81
BRANCH  69  92
ATOM     92  C   UNL A   1      38.302  33.008  38.960  1.00  0.00     0.023 A 
ATOM     93  C   UNL A   1      38.366  33.973  39.980  1.00  0.00     0.031 A 
ATOM     94  C   UNL A   1      37.491  31.878  39.171  1.00  0.00     0.131 A 
ATOM     95  C   UNL A   1      37.686  33.756  41.188  1.00  0.00     0.055 A 
ATOM     96  C   UNL A   1      36.752  31.708  40.342  1.00  0.00     0.041 A 
ATOM     97  F   UNL A   1      37.396  30.919  38.235  1.00  0.00    -0.206 F 
ATOM     98  C   UNL A   1      36.859  32.644  41.365  1.00  0.00     0.022 A 
BRANCH  95  99
ATOM     99  S   UNL A   1      37.993  34.887  42.571  1.00  0.00     0.124 S 
ATOM    100  O   UNL A   1      39.011  34.168  43.329  1.00  0.00    -0.237 OA
ATOM    101  O   UNL A   1      38.442  36.099  41.893  1.00  0.00    -0.237 OA
ATOM    102  O   UNL A   1      36.689  34.990  43.225  1.00  0.00    -0.744 OA
ENDBRANCH  95  99
ENDBRANCH  69  92
ENDBRANCH  43  44
ENDBRANCH  36  38
ENDBRANCH  35  36
ENDBRANCH  34  35
ENDBRANCH  33  34
ENDBRANCH  32  33
ENDBRANCH   1  32
TORSDOF 23
ENDMDL
