MODEL 1
REMARK VINA RESULT:     -10.7      0.000      0.000
REMARK SMILES Cc1nn(C)c(=O)c(C(=O)N2CC[C@@H](C(=O)OCCOCCOCCOC(=O)c3ccc(-c4c5nc(c(-c6cc(S(=O)(=O)[O-])ccc6F)c6ccc([nH]6)c(-c6cc(S(=O)(=O)[O-])ccc6F)c6nc(c(-c7cc(S(=O)(=O)[O-])ccc7F)c7ccc4[nH]7)C=C6)C=C5)cc3)[C@@H]2C)c1C
REMARK SMILES IDX 22 1 21 2 20 3 19 4 18 5 17 6 15 7 16 8 14 9 11 10 12 11
REMARK SMILES IDX 92 12 13 13 93 14 9 15 10 16 8 17 1 18 2 19 3 20 94 21 4 22
REMARK SMILES IDX 95 23 5 24 6 25 7 26 23 27 24 28 25 29 26 30 27 31 28 32
REMARK SMILES IDX 29 33 30 34 91 35 31 36 90 37 32 38 33 39 34 40 84 41 35 42
REMARK SMILES IDX 89 43 83 44 85 45 36 46 88 47 82 48 81 49 37 51 69 52 49 53
REMARK SMILES IDX 68 54 50 55 53 56 67 57 86 58 51 59 52 60 66 62 87 63 54 64
REMARK SMILES IDX 38 65 39 66 47 67 40 68 46 69 48 70 45 71 41 72 42 73 43 74
REMARK SMILES IDX 44 75 70 76 71 77 79 78 72 79 78 80 80 81 77 82 73 83 74 84
REMARK SMILES IDX 75 85 76 86 55 87 56 88 64 89 57 90 63 91 65 92 62 93 58 94
REMARK SMILES IDX 59 95 60 96 61 97
REMARK H PARENT 85 50 53 61
REMARK Flexibility Score: inf
ROOT
ATOM      1  C   UNL A   1      36.968  21.927  24.561  1.00  0.00     0.188 C 
ENDROOT
BRANCH   1   2
ATOM      2  C   UNL A   1      35.525  21.403  24.531  1.00  0.00     0.188 C 
BRANCH   2   3
ATOM      3  O   UNL A   1      34.996  20.815  25.713  1.00  0.00    -0.376 OA
BRANCH   3   4
ATOM      4  C   UNL A   1      33.692  20.246  25.673  1.00  0.00     0.202 C 
BRANCH   4   5
ATOM      5  C   UNL A   1      32.941  20.190  24.330  1.00  0.00     0.261 C 
BRANCH   5   6
ATOM      6  O   UNL A   1      32.048  21.301  24.065  1.00  0.00    -0.463 OA
BRANCH   6   7
ATOM      7  C   UNL A   1      32.220  21.938  22.881  1.00  0.00     0.311 C 
ATOM      8  O   UNL A   1      32.130  21.372  21.795  1.00  0.00    -0.252 OA
BRANCH   7   9
ATOM      9  C   UNL A   1      32.533  23.432  22.956  1.00  0.00     0.123 C 
ATOM     10  N   UNL A   1      31.627  25.142  24.371  1.00  0.00    -0.335 N 
ATOM     11  C   UNL A   1      33.016  24.998  24.753  1.00  0.00     0.121 C 
ATOM     12  C   UNL A   1      31.426  24.518  23.055  1.00  0.00     0.096 C 
ATOM     13  C   UNL A   1      33.392  23.636  24.216  1.00  0.00     0.039 C 
ATOM     14  C   UNL A   1      31.644  25.585  21.962  1.00  0.00     0.032 C 
BRANCH  10  15
ATOM     15  C   UNL A   1      30.782  25.865  25.192  1.00  0.00     0.260 C 
ATOM     16  O   UNL A   1      30.002  25.276  25.946  1.00  0.00    -0.269 OA
BRANCH  15  17
ATOM     17  C   UNL A   1      30.673  27.358  25.108  1.00  0.00     0.111 A 
ATOM     18  C   UNL A   1      32.087  30.633  26.379  1.00  0.00     0.069 C 
ATOM     19  C   UNL A   1      31.453  29.620  25.449  1.00  0.00     0.062 A 
ATOM     20  N   UNL A   1      30.960  30.088  24.350  1.00  0.00    -0.175 NA
ATOM     21  C   UNL A   1      31.483  28.173  25.814  1.00  0.00    -0.010 A 
ATOM     22  N   UNL A   1      30.294  29.215  23.539  1.00  0.00    -0.232 N 
ATOM     23  C   UNL A   1      32.526  27.784  26.813  1.00  0.00     0.047 C 
ATOM     24  C   UNL A   1      29.873  29.758  22.260  1.00  0.00     0.178 C 
ATOM     25  C   UNL A   1      29.927  27.929  23.930  1.00  0.00     0.279 A 
ATOM     26  O   UNL A   1      29.084  27.268  23.328  1.00  0.00    -0.267 OA
ENDBRANCH  15  17
ENDBRANCH  10  15
ENDBRANCH   7   9
ENDBRANCH   6   7
ENDBRANCH   5   6
ENDBRANCH   4   5
ENDBRANCH   3   4
ENDBRANCH   2   3
ENDBRANCH   1   2
BRANCH   1  27
ATOM     27  O   UNL A   1      37.848  21.208  25.391  1.00  0.00    -0.376 OA
BRANCH  27  28
ATOM     28  C   UNL A   1      38.311  19.933  24.979  1.00  0.00     0.202 C 
BRANCH  28  29
ATOM     29  C   UNL A   1      39.522  19.243  25.634  1.00  0.00     0.261 C 
BRANCH  29  30
ATOM     30  O   UNL A   1      40.064  19.832  26.822  1.00  0.00    -0.460 OA
BRANCH  30  31
ATOM     31  C   UNL A   1      41.396  20.085  26.838  1.00  0.00     0.338 C 
ATOM     32  O   UNL A   1      42.278  19.356  26.415  1.00  0.00    -0.246 OA
BRANCH  31  33
ATOM     33  C   UNL A   1      41.552  21.519  27.183  1.00  0.00     0.060 A 
ATOM     34  C   UNL A   1      40.982  22.484  26.339  1.00  0.00     0.016 A 
ATOM     35  C   UNL A   1      42.184  21.904  28.367  1.00  0.00     0.016 A 
ATOM     36  C   UNL A   1      41.038  23.835  26.678  1.00  0.00     0.010 A 
ATOM     37  C   UNL A   1      42.275  23.261  28.687  1.00  0.00     0.010 A 
ATOM     38  C   UNL A   1      41.720  24.234  27.835  1.00  0.00    -0.014 A 
BRANCH  38  39
ATOM     39  C   UNL A   1      42.062  25.663  28.028  1.00  0.00     0.031 A 
ATOM     40  C   UNL A   1      43.396  26.137  27.520  1.00  0.00     0.074 A 
ATOM     41  C   UNL A   1      41.207  26.535  28.591  1.00  0.00     0.049 A 
ATOM     42  N   UNL A   1      43.962  27.309  27.631  1.00  0.00    -0.248 NA
ATOM     43  C   UNL A   1      44.197  25.144  26.785  1.00  0.00     0.031 C 
ATOM     44  C   UNL A   1      39.850  26.225  29.035  1.00  0.00     0.029 A 
ATOM     45  N   UNL A   1      41.358  27.869  28.873  1.00  0.00    -0.354 N 
ATOM     46  C   UNL A   1      45.180  27.200  26.970  1.00  0.00     0.074 A 
ATOM     47  C   UNL A   1      45.293  25.833  26.509  1.00  0.00     0.031 C 
ATOM     48  C   UNL A   1      39.287  27.345  29.523  1.00  0.00     0.029 A 
ATOM     49  C   UNL A   1      40.257  28.438  29.468  1.00  0.00     0.049 A 
ATOM     50  H   UNL A   1      42.179  28.374  28.668  1.00  0.00     0.167 HD
ATOM     51  C   UNL A   1      46.114  28.155  26.750  1.00  0.00     0.034 A 
ATOM     52  C   UNL A   1      40.065  29.691  29.930  1.00  0.00     0.034 A 
ATOM     53  C   UNL A   1      46.005  29.507  27.230  1.00  0.00     0.049 A 
ATOM     54  C   UNL A   1      41.183  30.700  29.821  1.00  0.00     0.074 A 
ATOM     55  C   UNL A   1      46.914  30.542  27.101  1.00  0.00     0.029 A 
ATOM     56  N   UNL A   1      44.921  30.014  27.934  1.00  0.00    -0.354 N 
ATOM     57  N   UNL A   1      42.361  30.569  29.258  1.00  0.00    -0.248 NA
ATOM     58  C   UNL A   1      40.947  32.022  30.419  1.00  0.00     0.031 C 
ATOM     59  C   UNL A   1      46.408  31.655  27.781  1.00  0.00     0.029 A 
ATOM     60  C   UNL A   1      45.152  31.337  28.271  1.00  0.00     0.049 A 
ATOM     61  H   UNL A   1      44.108  29.507  28.161  1.00  0.00     0.167 HD
ATOM     62  C   UNL A   1      42.997  31.799  29.411  1.00  0.00     0.074 A 
ATOM     63  C   UNL A   1      42.072  32.660  30.120  1.00  0.00     0.031 C 
ATOM     64  C   UNL A   1      44.229  32.182  28.992  1.00  0.00     0.034 A 
BRANCH  51  65
ATOM     65  C   UNL A   1      47.346  27.745  25.988  1.00  0.00     0.023 A 
ATOM     66  C   UNL A   1      47.457  27.974  24.606  1.00  0.00     0.031 A 
ATOM     67  C   UNL A   1      48.404  27.091  26.640  1.00  0.00     0.131 A 
ATOM     68  C   UNL A   1      48.575  27.495  23.909  1.00  0.00     0.055 A 
ATOM     69  C   UNL A   1      49.549  26.684  25.953  1.00  0.00     0.041 A 
ATOM     70  F   UNL A   1      48.339  26.824  27.954  1.00  0.00    -0.206 F 
ATOM     71  C   UNL A   1      49.633  26.874  24.576  1.00  0.00     0.022 A 
BRANCH  68  72
ATOM     72  S   UNL A   1      48.566  27.586  22.098  1.00  0.00     0.124 S 
ATOM     73  O   UNL A   1      49.687  28.489  21.844  1.00  0.00    -0.237 OA
ATOM     74  O   UNL A   1      48.768  26.194  21.711  1.00  0.00    -0.237 OA
ATOM     75  O   UNL A   1      47.249  28.136  21.789  1.00  0.00    -0.744 OA
ENDBRANCH  68  72
ENDBRANCH  51  65
BRANCH  52  76
ATOM     76  C   UNL A   1      38.763  30.065  30.550  1.00  0.00     0.023 A 
ATOM     77  C   UNL A   1      37.799  30.773  29.818  1.00  0.00     0.031 A 
ATOM     78  C   UNL A   1      38.463  29.717  31.879  1.00  0.00     0.131 A 
ATOM     79  C   UNL A   1      36.579  31.119  30.421  1.00  0.00     0.055 A 
ATOM     80  C   UNL A   1      37.235  30.033  32.464  1.00  0.00     0.041 A 
ATOM     81  F   UNL A   1      39.354  29.040  32.622  1.00  0.00    -0.206 F 
ATOM     82  C   UNL A   1      36.285  30.740  31.733  1.00  0.00     0.022 A 
BRANCH  79  83
ATOM     83  S   UNL A   1      35.377  32.083  29.464  1.00  0.00     0.124 S 
ATOM     84  O   UNL A   1      34.399  32.436  30.486  1.00  0.00    -0.237 OA
ATOM     85  O   UNL A   1      36.199  33.176  28.956  1.00  0.00    -0.237 OA
ATOM     86  O   UNL A   1      34.912  31.136  28.453  1.00  0.00    -0.744 OA
ENDBRANCH  79  83
ENDBRANCH  52  76
BRANCH  64  87
ATOM     87  C   UNL A   1      44.656  33.603  29.263  1.00  0.00     0.023 A 
ATOM     88  C   UNL A   1      44.592  34.592  28.267  1.00  0.00     0.031 A 
ATOM     89  C   UNL A   1      45.065  33.984  30.554  1.00  0.00     0.131 A 
ATOM     90  C   UNL A   1      44.953  35.913  28.572  1.00  0.00     0.055 A 
ATOM     91  C   UNL A   1      45.376  35.309  30.864  1.00  0.00     0.041 A 
ATOM     92  F   UNL A   1      45.137  33.079  31.542  1.00  0.00    -0.206 F 
ATOM     93  C   UNL A   1      45.326  36.282  29.869  1.00  0.00     0.022 A 
BRANCH  90  94
ATOM     94  S   UNL A   1      44.957  37.146  27.243  1.00  0.00     0.124 S 
ATOM     95  O   UNL A   1      43.531  37.305  26.975  1.00  0.00    -0.237 OA
ATOM     96  O   UNL A   1      45.618  38.285  27.871  1.00  0.00    -0.237 OA
ATOM     97  O   UNL A   1      45.720  36.500  26.177  1.00  0.00    -0.744 OA
ENDBRANCH  90  94
ENDBRANCH  64  87
ENDBRANCH  38  39
ENDBRANCH  31  33
ENDBRANCH  30  31
ENDBRANCH  29  30
ENDBRANCH  28  29
ENDBRANCH  27  28
ENDBRANCH   1  27
TORSDOF 22
ENDMDL
MODEL 2
REMARK VINA RESULT:     -10.6      1.689      2.315
REMARK SMILES Cc1nn(C)c(=O)c(C(=O)N2CC[C@@H](C(=O)OCCOCCOCCOC(=O)c3ccc(-c4c5nc(c(-c6cc(S(=O)(=O)[O-])ccc6F)c6ccc([nH]6)c(-c6cc(S(=O)(=O)[O-])ccc6F)c6nc(c(-c7cc(S(=O)(=O)[O-])ccc7F)c7ccc4[nH]7)C=C6)C=C5)cc3)[C@@H]2C)c1C
REMARK SMILES IDX 22 1 21 2 20 3 19 4 18 5 17 6 15 7 16 8 14 9 11 10 12 11
REMARK SMILES IDX 92 12 13 13 93 14 9 15 10 16 8 17 1 18 2 19 3 20 94 21 4 22
REMARK SMILES IDX 95 23 5 24 6 25 7 26 23 27 24 28 25 29 26 30 27 31 28 32
REMARK SMILES IDX 29 33 30 34 91 35 31 36 90 37 32 38 33 39 34 40 84 41 35 42
REMARK SMILES IDX 89 43 83 44 85 45 36 46 88 47 82 48 81 49 37 51 69 52 49 53
REMARK SMILES IDX 68 54 50 55 53 56 67 57 86 58 51 59 52 60 66 62 87 63 54 64
REMARK SMILES IDX 38 65 39 66 47 67 40 68 46 69 48 70 45 71 41 72 42 73 43 74
REMARK SMILES IDX 44 75 70 76 71 77 79 78 72 79 78 80 80 81 77 82 73 83 74 84
REMARK SMILES IDX 75 85 76 86 55 87 56 88 64 89 57 90 63 91 65 92 62 93 58 94
REMARK SMILES IDX 59 95 60 96 61 97
REMARK H PARENT 85 50 53 61
REMARK Flexibility Score: inf
ROOT
ATOM      1  C   UNL A   1      36.830  22.549  25.085  1.00  0.00     0.188 C 
ENDROOT
BRANCH   1   2
ATOM      2  C   UNL A   1      35.352  22.456  25.491  1.00  0.00     0.188 C 
BRANCH   2   3
ATOM      3  O   UNL A   1      35.034  21.879  26.751  1.00  0.00    -0.376 OA
BRANCH   3   4
ATOM      4  C   UNL A   1      33.725  21.359  26.959  1.00  0.00     0.202 C 
BRANCH   4   5
ATOM      5  C   UNL A   1      32.842  21.048  25.737  1.00  0.00     0.261 C 
BRANCH   5   6
ATOM      6  O   UNL A   1      31.635  21.844  25.616  1.00  0.00    -0.463 OA
BRANCH   6   7
ATOM      7  C   UNL A   1      31.690  22.886  24.752  1.00  0.00     0.311 C 
ATOM      8  O   UNL A   1      31.594  22.754  23.535  1.00  0.00    -0.252 OA
BRANCH   7   9
ATOM      9  C   UNL A   1      31.874  24.271  25.372  1.00  0.00     0.123 C 
ATOM     10  N   UNL A   1      31.802  26.446  24.366  1.00  0.00    -0.335 N 
ATOM     11  C   UNL A   1      30.664  26.378  25.258  1.00  0.00     0.121 C 
ATOM     12  C   UNL A   1      32.747  25.375  24.714  1.00  0.00     0.096 C 
ATOM     13  C   UNL A   1      30.471  24.894  25.474  1.00  0.00     0.039 C 
ATOM     14  C   UNL A   1      33.758  25.922  25.744  1.00  0.00     0.032 C 
BRANCH  10  15
ATOM     15  C   UNL A   1      31.869  27.480  23.450  1.00  0.00     0.260 C 
ATOM     16  O   UNL A   1      32.413  27.300  22.356  1.00  0.00    -0.269 OA
BRANCH  15  17
ATOM     17  C   UNL A   1      31.424  28.872  23.785  1.00  0.00     0.111 A 
ATOM     18  C   UNL A   1      28.603  31.375  23.452  1.00  0.00     0.069 C 
ATOM     19  C   UNL A   1      29.789  30.635  24.031  1.00  0.00     0.062 A 
ATOM     20  N   UNL A   1      30.335  31.165  25.076  1.00  0.00    -0.175 NA
ATOM     21  C   UNL A   1      30.214  29.341  23.419  1.00  0.00    -0.010 A 
ATOM     22  N   UNL A   1      31.466  30.574  25.560  1.00  0.00    -0.232 N 
ATOM     23  C   UNL A   1      29.175  28.648  22.596  1.00  0.00     0.047 C 
ATOM     24  C   UNL A   1      31.967  31.127  26.807  1.00  0.00     0.178 C 
ATOM     25  C   UNL A   1      32.177  29.592  24.873  1.00  0.00     0.279 A 
ATOM     26  O   UNL A   1      33.332  29.286  25.160  1.00  0.00    -0.267 OA
ENDBRANCH  15  17
ENDBRANCH  10  15
ENDBRANCH   7   9
ENDBRANCH   6   7
ENDBRANCH   5   6
ENDBRANCH   4   5
ENDBRANCH   3   4
ENDBRANCH   2   3
ENDBRANCH   1   2
BRANCH   1  27
ATOM     27  O   UNL A   1      37.686  21.638  25.731  1.00  0.00    -0.376 OA
BRANCH  27  28
ATOM     28  C   UNL A   1      37.943  20.379  25.135  1.00  0.00     0.202 C 
BRANCH  28  29
ATOM     29  C   UNL A   1      39.173  19.526  25.504  1.00  0.00     0.261 C 
BRANCH  29  30
ATOM     30  O   UNL A   1      39.871  19.849  26.713  1.00  0.00    -0.460 OA
BRANCH  30  31
ATOM     31  C   UNL A   1      41.199  20.105  26.614  1.00  0.00     0.338 C 
ATOM     32  O   UNL A   1      42.034  19.402  26.069  1.00  0.00    -0.246 OA
BRANCH  31  33
ATOM     33  C   UNL A   1      41.390  21.518  27.018  1.00  0.00     0.060 A 
ATOM     34  C   UNL A   1      40.864  22.533  26.204  1.00  0.00     0.016 A 
ATOM     35  C   UNL A   1      42.011  21.837  28.228  1.00  0.00     0.016 A 
ATOM     36  C   UNL A   1      40.953  23.867  26.599  1.00  0.00     0.010 A 
ATOM     37  C   UNL A   1      42.135  23.177  28.603  1.00  0.00     0.010 A 
ATOM     38  C   UNL A   1      41.625  24.199  27.782  1.00  0.00    -0.014 A 
BRANCH  38  39
ATOM     39  C   UNL A   1      42.005  25.609  28.039  1.00  0.00     0.031 A 
ATOM     40  C   UNL A   1      43.381  26.049  27.619  1.00  0.00     0.074 A 
ATOM     41  C   UNL A   1      41.150  26.493  28.582  1.00  0.00     0.049 A 
ATOM     42  N   UNL A   1      43.979  27.196  27.797  1.00  0.00    -0.248 NA
ATOM     43  C   UNL A   1      44.186  25.050  26.897  1.00  0.00     0.031 C 
ATOM     44  C   UNL A   1      39.761  26.220  28.942  1.00  0.00     0.029 A 
ATOM     45  N   UNL A   1      41.332  27.813  28.914  1.00  0.00    -0.354 N 
ATOM     46  C   UNL A   1      45.228  27.062  27.200  1.00  0.00     0.074 A 
ATOM     47  C   UNL A   1      45.318  25.707  26.702  1.00  0.00     0.031 C 
ATOM     48  C   UNL A   1      39.211  27.345  29.434  1.00  0.00     0.029 A 
ATOM     49  C   UNL A   1      40.220  28.404  29.466  1.00  0.00     0.049 A 
ATOM     50  H   UNL A   1      42.180  28.293  28.770  1.00  0.00     0.167 HD
ATOM     51  C   UNL A   1      46.205  27.989  27.062  1.00  0.00     0.034 A 
ATOM     52  C   UNL A   1      40.046  29.648  29.957  1.00  0.00     0.034 A 
ATOM     53  C   UNL A   1      46.116  29.330  27.578  1.00  0.00     0.049 A 
ATOM     54  C   UNL A   1      41.202  30.619  29.940  1.00  0.00     0.074 A 
ATOM     55  C   UNL A   1      47.066  30.334  27.530  1.00  0.00     0.029 A 
ATOM     56  N   UNL A   1      45.013  29.854  28.237  1.00  0.00    -0.354 N 
ATOM     57  N   UNL A   1      42.404  30.462  29.438  1.00  0.00    -0.248 NA
ATOM     58  C   UNL A   1      40.979  31.930  30.566  1.00  0.00     0.031 C 
ATOM     59  C   UNL A   1      46.562  31.444  28.216  1.00  0.00     0.029 A 
ATOM     60  C   UNL A   1      45.270  31.157  28.628  1.00  0.00     0.049 A 
ATOM     61  H   UNL A   1      44.172  29.370  28.404  1.00  0.00     0.167 HD
ATOM     62  C   UNL A   1      43.073  31.663  29.664  1.00  0.00     0.074 A 
ATOM     63  C   UNL A   1      42.141  32.536  30.348  1.00  0.00     0.031 C 
ATOM     64  C   UNL A   1      44.339  32.013  29.325  1.00  0.00     0.034 A 
BRANCH  51  65
ATOM     65  C   UNL A   1      47.462  27.558  26.354  1.00  0.00     0.023 A 
ATOM     66  C   UNL A   1      47.637  27.782  24.978  1.00  0.00     0.031 A 
ATOM     67  C   UNL A   1      48.480  26.889  27.053  1.00  0.00     0.131 A 
ATOM     68  C   UNL A   1      48.776  27.283  24.331  1.00  0.00     0.055 A 
ATOM     69  C   UNL A   1      49.647  26.462  26.417  1.00  0.00     0.041 A 
ATOM     70  F   UNL A   1      48.354  26.626  28.363  1.00  0.00    -0.206 F 
ATOM     71  C   UNL A   1      49.794  26.647  25.045  1.00  0.00     0.022 A 
BRANCH  68  72
ATOM     72  S   UNL A   1      48.848  27.368  22.521  1.00  0.00     0.124 S 
ATOM     73  O   UNL A   1      47.875  28.422  22.239  1.00  0.00    -0.237 OA
ATOM     74  O   UNL A   1      50.245  27.707  22.276  1.00  0.00    -0.237 OA
ATOM     75  O   UNL A   1      48.446  26.028  22.099  1.00  0.00    -0.744 OA
ENDBRANCH  68  72
ENDBRANCH  51  65
BRANCH  52  76
ATOM     76  C   UNL A   1      38.726  30.050  30.517  1.00  0.00     0.023 A 
ATOM     77  C   UNL A   1      37.781  30.711  29.718  1.00  0.00     0.031 A 
ATOM     78  C   UNL A   1      38.389  29.776  31.854  1.00  0.00     0.131 A 
ATOM     79  C   UNL A   1      36.543  31.085  30.265  1.00  0.00     0.055 A 
ATOM     80  C   UNL A   1      37.143  30.119  32.384  1.00  0.00     0.041 A 
ATOM     81  F   UNL A   1      39.259  29.147  32.659  1.00  0.00    -0.206 F 
ATOM     82  C   UNL A   1      36.213  30.780  31.588  1.00  0.00     0.022 A 
BRANCH  79  83
ATOM     83  S   UNL A   1      35.367  31.988  29.221  1.00  0.00     0.124 S 
ATOM     84  O   UNL A   1      36.235  32.967  28.576  1.00  0.00    -0.237 OA
ATOM     85  O   UNL A   1      34.843  30.930  28.365  1.00  0.00    -0.237 OA
ATOM     86  O   UNL A   1      34.413  32.537  30.183  1.00  0.00    -0.744 OA
ENDBRANCH  79  83
ENDBRANCH  52  76
BRANCH  64  87
ATOM     87  C   UNL A   1      44.799  33.409  29.663  1.00  0.00     0.023 A 
ATOM     88  C   UNL A   1      45.495  33.687  30.850  1.00  0.00     0.031 A 
ATOM     89  C   UNL A   1      44.597  34.460  28.749  1.00  0.00     0.131 A 
ATOM     90  C   UNL A   1      45.948  34.990  31.105  1.00  0.00     0.055 A 
ATOM     91  C   UNL A   1      45.092  35.743  28.986  1.00  0.00     0.041 A 
ATOM     92  F   UNL A   1      43.942  34.247  27.597  1.00  0.00    -0.206 F 
ATOM     93  C   UNL A   1      45.768  36.016  30.172  1.00  0.00     0.022 A 
BRANCH  90  94
ATOM     94  S   UNL A   1      46.755  35.339  32.691  1.00  0.00     0.124 S 
ATOM     95  O   UNL A   1      47.852  34.377  32.689  1.00  0.00    -0.237 OA
ATOM     96  O   UNL A   1      47.137  36.740  32.549  1.00  0.00    -0.237 OA
ATOM     97  O   UNL A   1      45.706  35.082  33.675  1.00  0.00    -0.744 OA
ENDBRANCH  90  94
ENDBRANCH  64  87
ENDBRANCH  38  39
ENDBRANCH  31  33
ENDBRANCH  30  31
ENDBRANCH  29  30
ENDBRANCH  28  29
ENDBRANCH  27  28
ENDBRANCH   1  27
TORSDOF 22
ENDMDL
MODEL 3
REMARK VINA RESULT:     -10.6      5.815      9.919
REMARK SMILES Cc1nn(C)c(=O)c(C(=O)N2CC[C@@H](C(=O)OCCOCCOCCOC(=O)c3ccc(-c4c5nc(c(-c6cc(S(=O)(=O)[O-])ccc6F)c6ccc([nH]6)c(-c6cc(S(=O)(=O)[O-])ccc6F)c6nc(c(-c7cc(S(=O)(=O)[O-])ccc7F)c7ccc4[nH]7)C=C6)C=C5)cc3)[C@@H]2C)c1C
REMARK SMILES IDX 22 1 21 2 20 3 19 4 18 5 17 6 15 7 16 8 14 9 11 10 12 11
REMARK SMILES IDX 92 12 13 13 93 14 9 15 10 16 8 17 1 18 2 19 3 20 94 21 4 22
REMARK SMILES IDX 95 23 5 24 6 25 7 26 23 27 24 28 25 29 26 30 27 31 28 32
REMARK SMILES IDX 29 33 30 34 91 35 31 36 90 37 32 38 33 39 34 40 84 41 35 42
REMARK SMILES IDX 89 43 83 44 85 45 36 46 88 47 82 48 81 49 37 51 69 52 49 53
REMARK SMILES IDX 68 54 50 55 53 56 67 57 86 58 51 59 52 60 66 62 87 63 54 64
REMARK SMILES IDX 38 65 39 66 47 67 40 68 46 69 48 70 45 71 41 72 42 73 43 74
REMARK SMILES IDX 44 75 70 76 71 77 79 78 72 79 78 80 80 81 77 82 73 83 74 84
REMARK SMILES IDX 75 85 76 86 55 87 56 88 64 89 57 90 63 91 65 92 62 93 58 94
REMARK SMILES IDX 59 95 60 96 61 97
REMARK H PARENT 85 50 53 61
REMARK Flexibility Score: inf
ROOT
ATOM      1  C   UNL A   1      35.382  32.602  28.190  1.00  0.00     0.188 C 
ENDROOT
BRANCH   1   2
ATOM      2  C   UNL A   1      34.401  31.421  28.215  1.00  0.00     0.188 C 
BRANCH   2   3
ATOM      3  O   UNL A   1      34.114  30.757  26.990  1.00  0.00    -0.376 OA
BRANCH   3   4
ATOM      4  C   UNL A   1      34.065  29.335  26.974  1.00  0.00     0.202 C 
BRANCH   4   5
ATOM      5  C   UNL A   1      32.770  28.626  27.414  1.00  0.00     0.261 C 
BRANCH   5   6
ATOM      6  O   UNL A   1      31.751  28.490  26.391  1.00  0.00    -0.463 OA
BRANCH   6   7
ATOM      7  C   UNL A   1      31.412  27.224  26.049  1.00  0.00     0.311 C 
ATOM      8  O   UNL A   1      31.134  26.357  26.874  1.00  0.00    -0.252 OA
BRANCH   7   9
ATOM      9  C   UNL A   1      31.382  26.911  24.554  1.00  0.00     0.123 C 
ATOM     10  N   UNL A   1      32.385  25.116  23.320  1.00  0.00    -0.335 N 
ATOM     11  C   UNL A   1      30.954  24.920  23.224  1.00  0.00     0.121 C 
ATOM     12  C   UNL A   1      32.650  26.494  23.758  1.00  0.00     0.096 C 
ATOM     13  C   UNL A   1      30.406  25.736  24.372  1.00  0.00     0.039 C 
ATOM     14  C   UNL A   1      32.799  27.390  22.510  1.00  0.00     0.032 C 
BRANCH  10  15
ATOM     15  C   UNL A   1      33.225  24.089  22.932  1.00  0.00     0.260 C 
ATOM     16  O   UNL A   1      33.704  24.080  21.794  1.00  0.00    -0.269 OA
BRANCH  15  17
ATOM     17  C   UNL A   1      33.477  22.894  23.802  1.00  0.00     0.111 A 
ATOM     18  C   UNL A   1      32.651  19.237  24.338  1.00  0.00     0.069 C 
ATOM     19  C   UNL A   1      33.431  20.535  24.325  1.00  0.00     0.062 A 
ATOM     20  N   UNL A   1      34.557  20.527  24.960  1.00  0.00    -0.175 NA
ATOM     21  C   UNL A   1      32.903  21.699  23.555  1.00  0.00    -0.010 A 
ATOM     22  N   UNL A   1      35.234  21.709  25.050  1.00  0.00    -0.232 N 
ATOM     23  C   UNL A   1      31.907  21.366  22.489  1.00  0.00     0.047 C 
ATOM     24  C   UNL A   1      36.551  21.621  25.658  1.00  0.00     0.178 C 
ATOM     25  C   UNL A   1      34.683  22.940  24.703  1.00  0.00     0.279 A 
ATOM     26  O   UNL A   1      35.170  24.010  25.062  1.00  0.00    -0.267 OA
ENDBRANCH  15  17
ENDBRANCH  10  15
ENDBRANCH   7   9
ENDBRANCH   6   7
ENDBRANCH   5   6
ENDBRANCH   4   5
ENDBRANCH   3   4
ENDBRANCH   2   3
ENDBRANCH   1   2
BRANCH   1  27
ATOM     27  O   UNL A   1      34.799  33.857  27.936  1.00  0.00    -0.376 OA
BRANCH  27  28
ATOM     28  C   UNL A   1      33.454  34.092  28.315  1.00  0.00     0.202 C 
BRANCH  28  29
ATOM     29  C   UNL A   1      33.003  35.399  28.995  1.00  0.00     0.261 C 
BRANCH  29  30
ATOM     30  O   UNL A   1      33.720  35.827  30.160  1.00  0.00    -0.460 OA
BRANCH  30  31
ATOM     31  C   UNL A   1      33.506  35.140  31.309  1.00  0.00     0.338 C 
ATOM     32  O   UNL A   1      32.433  34.981  31.869  1.00  0.00    -0.246 OA
BRANCH  31  33
ATOM     33  C   UNL A   1      34.746  34.377  31.586  1.00  0.00     0.060 A 
ATOM     34  C   UNL A   1      34.646  33.125  32.210  1.00  0.00     0.016 A 
ATOM     35  C   UNL A   1      35.988  34.857  31.163  1.00  0.00     0.016 A 
ATOM     36  C   UNL A   1      35.786  32.346  32.408  1.00  0.00     0.010 A 
ATOM     37  C   UNL A   1      37.134  34.093  31.397  1.00  0.00     0.010 A 
ATOM     38  C   UNL A   1      37.042  32.844  32.039  1.00  0.00    -0.014 A 
BRANCH  38  39
ATOM     39  C   UNL A   1      38.270  32.178  32.535  1.00  0.00     0.031 A 
ATOM     40  C   UNL A   1      38.867  31.091  31.684  1.00  0.00     0.074 A 
ATOM     41  C   UNL A   1      38.873  32.548  33.679  1.00  0.00     0.049 A 
ATOM     42  N   UNL A   1      39.884  30.309  31.925  1.00  0.00    -0.248 NA
ATOM     43  C   UNL A   1      38.222  30.863  30.380  1.00  0.00     0.031 C 
ATOM     44  C   UNL A   1      38.452  33.648  34.542  1.00  0.00     0.029 A 
ATOM     45  N   UNL A   1      39.984  32.035  34.301  1.00  0.00    -0.354 N 
ATOM     46  C   UNL A   1      40.010  29.502  30.799  1.00  0.00     0.074 A 
ATOM     47  C   UNL A   1      38.932  29.856  29.900  1.00  0.00     0.031 C 
ATOM     48  C   UNL A   1      39.305  33.736  35.579  1.00  0.00     0.029 A 
ATOM     49  C   UNL A   1      40.303  32.671  35.477  1.00  0.00     0.049 A 
ATOM     50  H   UNL A   1      40.505  31.282  33.939  1.00  0.00     0.167 HD
ATOM     51  C   UNL A   1      40.947  28.563  30.529  1.00  0.00     0.034 A 
ATOM     52  C   UNL A   1      41.278  32.412  36.373  1.00  0.00     0.034 A 
ATOM     53  C   UNL A   1      42.004  28.202  31.437  1.00  0.00     0.049 A 
ATOM     54  C   UNL A   1      42.216  31.254  36.130  1.00  0.00     0.074 A 
ATOM     55  C   UNL A   1      42.980  27.234  31.280  1.00  0.00     0.029 A 
ATOM     56  N   UNL A   1      42.223  28.792  32.674  1.00  0.00    -0.354 N 
ATOM     57  N   UNL A   1      42.284  30.449  35.097  1.00  0.00    -0.248 NA
ATOM     58  C   UNL A   1      43.202  30.965  37.182  1.00  0.00     0.031 C 
ATOM     59  C   UNL A   1      43.749  27.196  32.447  1.00  0.00     0.029 A 
ATOM     60  C   UNL A   1      43.299  28.189  33.303  1.00  0.00     0.049 A 
ATOM     61  H   UNL A   1      41.691  29.530  33.050  1.00  0.00     0.167 HD
ATOM     62  C   UNL A   1      43.336  29.575  35.361  1.00  0.00     0.074 A 
ATOM     63  C   UNL A   1      43.874  29.950  36.653  1.00  0.00     0.031 C 
ATOM     64  C   UNL A   1      43.818  28.561  34.598  1.00  0.00     0.034 A 
BRANCH  51  65
ATOM     65  C   UNL A   1      40.836  27.844  29.211  1.00  0.00     0.023 A 
ATOM     66  C   UNL A   1      41.721  28.119  28.154  1.00  0.00     0.031 A 
ATOM     67  C   UNL A   1      39.818  26.901  28.996  1.00  0.00     0.131 A 
ATOM     68  C   UNL A   1      41.532  27.503  26.910  1.00  0.00     0.055 A 
ATOM     69  C   UNL A   1      39.682  26.235  27.777  1.00  0.00     0.041 A 
ATOM     70  F   UNL A   1      38.930  26.620  29.962  1.00  0.00    -0.206 F 
ATOM     71  C   UNL A   1      40.534  26.544  26.721  1.00  0.00     0.022 A 
BRANCH  68  72
ATOM     72  S   UNL A   1      42.531  28.068  25.506  1.00  0.00     0.124 S 
ATOM     73  O   UNL A   1      41.734  29.187  25.009  1.00  0.00    -0.237 OA
ATOM     74  O   UNL A   1      43.798  28.418  26.140  1.00  0.00    -0.237 OA
ATOM     75  O   UNL A   1      42.575  26.902  24.627  1.00  0.00    -0.744 OA
ENDBRANCH  68  72
ENDBRANCH  51  65
BRANCH  52  76
ATOM     76  C   UNL A   1      41.414  33.256  37.591  1.00  0.00     0.023 A 
ATOM     77  C   UNL A   1      40.713  32.939  38.764  1.00  0.00     0.031 A 
ATOM     78  C   UNL A   1      42.248  34.388  37.604  1.00  0.00     0.131 A 
ATOM     79  C   UNL A   1      40.852  33.749  39.903  1.00  0.00     0.055 A 
ATOM     80  C   UNL A   1      42.410  35.171  38.748  1.00  0.00     0.041 A 
ATOM     81  F   UNL A   1      42.939  34.734  36.506  1.00  0.00    -0.206 F 
ATOM     82  C   UNL A   1      41.706  34.854  39.906  1.00  0.00     0.022 A 
BRANCH  79  83
ATOM     83  S   UNL A   1      39.887  33.343  41.383  1.00  0.00     0.124 S 
ATOM     84  O   UNL A   1      40.683  33.964  42.436  1.00  0.00    -0.237 OA
ATOM     85  O   UNL A   1      38.602  33.970  41.092  1.00  0.00    -0.237 OA
ATOM     86  O   UNL A   1      39.875  31.882  41.389  1.00  0.00    -0.744 OA
ENDBRANCH  79  83
ENDBRANCH  52  76
BRANCH  64  87
ATOM     87  C   UNL A   1      45.004  27.790  35.118  1.00  0.00     0.023 A 
ATOM     88  C   UNL A   1      44.847  26.677  35.961  1.00  0.00     0.031 A 
ATOM     89  C   UNL A   1      46.306  28.133  34.707  1.00  0.00     0.131 A 
ATOM     90  C   UNL A   1      45.974  25.957  36.384  1.00  0.00     0.055 A 
ATOM     91  C   UNL A   1      47.418  27.385  35.092  1.00  0.00     0.041 A 
ATOM     92  F   UNL A   1      46.511  29.184  33.897  1.00  0.00    -0.206 F 
ATOM     93  C   UNL A   1      47.257  26.292  35.940  1.00  0.00     0.022 A 
BRANCH  90  94
ATOM     94  S   UNL A   1      45.748  24.588  37.551  1.00  0.00     0.124 S 
ATOM     95  O   UNL A   1      46.601  24.995  38.662  1.00  0.00    -0.237 OA
ATOM     96  O   UNL A   1      44.311  24.624  37.805  1.00  0.00    -0.237 OA
ATOM     97  O   UNL A   1      46.214  23.420  36.806  1.00  0.00    -0.744 OA
ENDBRANCH  90  94
ENDBRANCH  64  87
ENDBRANCH  38  39
ENDBRANCH  31  33
ENDBRANCH  30  31
ENDBRANCH  29  30
ENDBRANCH  28  29
ENDBRANCH  27  28
ENDBRANCH   1  27
TORSDOF 22
ENDMDL
