MODEL 1
REMARK VINA RESULT:     -11.1      0.000      0.000
REMARK SMILES [NH3+][C@H]1CN(C(=O)OCC2c3ccccc3-c3ccccc32)C[C@@H]1C(=O)OCCOCCOCCOC(=O)c1ccc(-c2c3nc(c(-c4cc(S(=O)(=O)[O-])ccc4F)c4ccc([nH]4)c(-c4cc(S(=O)(=O)[O-])ccc4F)c4nc(c(-c5cc(S(=O)(=O)[O-])ccc5F)c5ccc2[nH]5)C=C4)C=C3)cc1
REMARK SMILES IDX 30 1 29 2 28 3 27 4 26 5 24 6 25 7 23 8 2 9 3 10 4 11 22 12
REMARK SMILES IDX 1 13 5 17 6 18 7 19 8 20 9 21 10 22 21 23 11 24 15 25 16 26
REMARK SMILES IDX 20 27 12 28 14 29 17 30 19 31 13 32 18 33 31 34 32 35 33 36
REMARK SMILES IDX 34 37 35 38 36 39 37 40 38 41 39 42 100 43 40 44 99 45 41 46
REMARK SMILES IDX 42 47 43 48 93 49 44 50 98 51 92 52 94 53 45 54 97 55 91 56
REMARK SMILES IDX 90 57 46 59 78 60 58 61 77 62 59 63 62 64 76 65 95 66 60 67
REMARK SMILES IDX 61 68 75 70 96 71 63 72 47 73 48 74 56 75 49 76 55 77 57 78
REMARK SMILES IDX 54 79 50 80 51 81 52 82 53 83 79 84 80 85 88 86 81 87 87 88
REMARK SMILES IDX 89 89 86 90 82 91 83 92 84 93 85 94 64 95 65 96 73 97 66 98
REMARK SMILES IDX 72 99 74 100 71 101 67 102 68 103 69 104 70 105
REMARK H PARENT 1 14 1 15 1 16 94 58 62 69
REMARK Flexibility Score: inf
ROOT
ATOM      1  C   UNL A   1      34.826  25.207  24.723  1.00  0.00     0.188 C 
ENDROOT
BRANCH   1   2
ATOM      2  O   UNL A   1      33.583  25.811  25.058  1.00  0.00    -0.376 OA
BRANCH   2   3
ATOM      3  C   UNL A   1      33.547  27.185  25.400  1.00  0.00     0.202 C 
BRANCH   3   4
ATOM      4  C   UNL A   1      32.317  27.714  26.157  1.00  0.00     0.261 C 
BRANCH   4   5
ATOM      5  O   UNL A   1      31.384  28.541  25.413  1.00  0.00    -0.463 OA
BRANCH   5   6
ATOM      6  C   UNL A   1      31.413  28.407  24.059  1.00  0.00     0.316 C 
ATOM      7  O   UNL A   1      32.217  28.993  23.339  1.00  0.00    -0.252 OA
BRANCH   6   8
ATOM      8  C   UNL A   1      30.404  27.433  23.463  1.00  0.00     0.178 C 
ATOM      9  C   UNL A   1      29.550  26.554  24.390  1.00  0.00     0.216 C 
ATOM     10  C   UNL A   1      30.220  25.161  24.359  1.00  0.00     0.188 C 
ATOM     11  N   UNL A   1      30.970  25.133  23.126  1.00  0.00    -0.301 N 
ATOM     12  C   UNL A   1      31.036  26.445  22.488  1.00  0.00     0.145 C 
BRANCH   9  13
ATOM     13  N   UNL A   1      28.180  26.469  23.835  1.00  0.00    -0.353 N 
ATOM     14  H   UNL A   1      28.172  25.820  23.048  1.00  0.00     0.344 HD
ATOM     15  H   UNL A   1      27.883  27.392  23.518  1.00  0.00     0.344 HD
ATOM     16  H   UNL A   1      27.540  26.136  24.556  1.00  0.00     0.344 HD
ENDBRANCH   9  13
BRANCH  11  17
ATOM     17  C   UNL A   1      31.692  24.077  22.630  1.00  0.00     0.410 C 
ATOM     18  O   UNL A   1      32.809  24.261  22.152  1.00  0.00    -0.224 OA
BRANCH  17  19
ATOM     19  O   UNL A   1      31.100  22.849  22.706  1.00  0.00    -0.448 OA
BRANCH  19  20
ATOM     20  C   UNL A   1      32.047  21.749  22.873  1.00  0.00     0.248 C 
BRANCH  20  21
ATOM     21  C   UNL A   1      31.802  20.809  24.089  1.00  0.00     0.088 C 
ATOM     22  C   UNL A   1      32.586  19.501  24.022  1.00  0.00    -0.029 A 
ATOM     23  C   UNL A   1      32.358  21.417  25.386  1.00  0.00    -0.029 A 
ATOM     24  C   UNL A   1      32.447  18.458  23.118  1.00  0.00     0.005 A 
ATOM     25  C   UNL A   1      33.633  19.517  24.961  1.00  0.00    -0.014 A 
ATOM     26  C   UNL A   1      33.421  20.618  25.867  1.00  0.00    -0.014 A 
ATOM     27  C   UNL A   1      31.924  22.524  26.104  1.00  0.00     0.005 A 
ATOM     28  C   UNL A   1      33.482  17.527  23.036  1.00  0.00     0.000 A 
ATOM     29  C   UNL A   1      34.662  18.596  24.882  1.00  0.00     0.009 A 
ATOM     30  C   UNL A   1      34.005  20.873  27.094  1.00  0.00     0.009 A 
ATOM     31  C   UNL A   1      32.539  22.796  27.333  1.00  0.00     0.000 A 
ATOM     32  C   UNL A   1      34.599  17.619  23.883  1.00  0.00     0.001 A 
ATOM     33  C   UNL A   1      33.556  21.970  27.828  1.00  0.00     0.001 A 
ENDBRANCH  20  21
ENDBRANCH  19  20
ENDBRANCH  17  19
ENDBRANCH  11  17
ENDBRANCH   6   8
ENDBRANCH   5   6
ENDBRANCH   4   5
ENDBRANCH   3   4
ENDBRANCH   2   3
ENDBRANCH   1   2
BRANCH   1  34
ATOM     34  C   UNL A   1      34.949  23.675  24.781  1.00  0.00     0.188 C 
BRANCH  34  35
ATOM     35  O   UNL A   1      35.501  23.104  23.614  1.00  0.00    -0.376 OA
BRANCH  35  36
ATOM     36  C   UNL A   1      36.895  22.886  23.628  1.00  0.00     0.202 C 
BRANCH  36  37
ATOM     37  C   UNL A   1      37.389  21.674  24.432  1.00  0.00     0.261 C 
BRANCH  37  38
ATOM     38  O   UNL A   1      37.752  21.936  25.803  1.00  0.00    -0.460 OA
BRANCH  38  39
ATOM     39  C   UNL A   1      39.058  21.797  26.133  1.00  0.00     0.338 C 
ATOM     40  O   UNL A   1      39.774  20.857  25.837  1.00  0.00    -0.246 OA
BRANCH  39  41
ATOM     41  C   UNL A   1      39.521  22.985  26.894  1.00  0.00     0.060 A 
ATOM     42  C   UNL A   1      38.907  24.220  26.704  1.00  0.00     0.016 A 
ATOM     43  C   UNL A   1      40.663  22.919  27.683  1.00  0.00     0.016 A 
ATOM     44  C   UNL A   1      39.493  25.404  27.153  1.00  0.00     0.010 A 
ATOM     45  C   UNL A   1      41.191  24.098  28.237  1.00  0.00     0.010 A 
ATOM     46  C   UNL A   1      40.650  25.364  27.927  1.00  0.00    -0.014 A 
BRANCH  46  47
ATOM     47  C   UNL A   1      41.347  26.623  28.327  1.00  0.00     0.031 A 
ATOM     48  C   UNL A   1      40.552  27.738  28.969  1.00  0.00     0.074 A 
ATOM     49  C   UNL A   1      42.678  26.778  28.156  1.00  0.00     0.049 A 
ATOM     50  N   UNL A   1      40.916  28.959  29.270  1.00  0.00    -0.248 NA
ATOM     51  C   UNL A   1      39.160  27.429  29.330  1.00  0.00     0.031 C 
ATOM     52  C   UNL A   1      43.600  25.759  27.651  1.00  0.00     0.029 A 
ATOM     53  N   UNL A   1      43.488  27.871  28.370  1.00  0.00    -0.354 N 
ATOM     54  C   UNL A   1      39.806  29.552  29.865  1.00  0.00     0.074 A 
ATOM     55  C   UNL A   1      38.740  28.581  29.832  1.00  0.00     0.031 C 
ATOM     56  C   UNL A   1      44.835  26.278  27.576  1.00  0.00     0.029 A 
ATOM     57  C   UNL A   1      44.783  27.690  27.935  1.00  0.00     0.049 A 
ATOM     58  H   UNL A   1      43.172  28.702  28.792  1.00  0.00     0.167 HD
ATOM     59  C   UNL A   1      39.682  30.790  30.401  1.00  0.00     0.034 A 
ATOM     60  C   UNL A   1      45.790  28.574  27.773  1.00  0.00     0.034 A 
ATOM     61  C   UNL A   1      40.717  31.788  30.346  1.00  0.00     0.049 A 
ATOM     62  C   UNL A   1      45.550  30.022  28.135  1.00  0.00     0.074 A 
ATOM     63  C   UNL A   1      40.666  33.106  30.762  1.00  0.00     0.029 A 
ATOM     64  N   UNL A   1      41.980  31.589  29.807  1.00  0.00    -0.354 N 
ATOM     65  N   UNL A   1      44.487  30.575  28.676  1.00  0.00    -0.248 NA
ATOM     66  C   UNL A   1      46.641  30.966  27.862  1.00  0.00     0.031 C 
ATOM     67  C   UNL A   1      41.863  33.727  30.390  1.00  0.00     0.029 A 
ATOM     68  C   UNL A   1      42.699  32.772  29.835  1.00  0.00     0.049 A 
ATOM     69  H   UNL A   1      42.315  30.732  29.456  1.00  0.00     0.167 HD
ATOM     70  C   UNL A   1      44.808  31.920  28.849  1.00  0.00     0.074 A 
ATOM     71  C   UNL A   1      46.162  32.090  28.371  1.00  0.00     0.031 C 
ATOM     72  C   UNL A   1      44.053  32.926  29.361  1.00  0.00     0.034 A 
BRANCH  59  73
ATOM     73  C   UNL A   1      38.355  31.159  31.017  1.00  0.00     0.023 A 
ATOM     74  C   UNL A   1      37.357  31.837  30.292  1.00  0.00     0.031 A 
ATOM     75  C   UNL A   1      38.079  30.806  32.350  1.00  0.00     0.131 A 
ATOM     76  C   UNL A   1      36.137  32.155  30.913  1.00  0.00     0.055 A 
ATOM     77  C   UNL A   1      36.847  31.080  32.945  1.00  0.00     0.041 A 
ATOM     78  F   UNL A   1      39.005  30.182  33.095  1.00  0.00    -0.206 F 
ATOM     79  C   UNL A   1      35.871  31.762  32.228  1.00  0.00     0.022 A 
BRANCH  76  80
ATOM     80  S   UNL A   1      34.904  33.136  30.011  1.00  0.00     0.124 S 
ATOM     81  O   UNL A   1      35.755  34.065  29.276  1.00  0.00    -0.237 OA
ATOM     82  O   UNL A   1      34.214  32.128  29.214  1.00  0.00    -0.237 OA
ATOM     83  O   UNL A   1      34.105  33.743  31.074  1.00  0.00    -0.744 OA
ENDBRANCH  76  80
ENDBRANCH  59  73
BRANCH  60  84
ATOM     84  C   UNL A   1      47.088  28.163  27.150  1.00  0.00     0.023 A 
ATOM     85  C   UNL A   1      47.220  28.051  25.757  1.00  0.00     0.031 A 
ATOM     86  C   UNL A   1      48.179  27.756  27.943  1.00  0.00     0.131 A 
ATOM     87  C   UNL A   1      48.374  27.470  25.205  1.00  0.00     0.055 A 
ATOM     88  C   UNL A   1      49.358  27.260  27.384  1.00  0.00     0.041 A 
ATOM     89  F   UNL A   1      48.110  27.821  29.282  1.00  0.00    -0.206 F 
ATOM     90  C   UNL A   1      49.451  27.092  26.007  1.00  0.00     0.022 A 
BRANCH  87  91
ATOM     91  S   UNL A   1      48.374  27.061  23.437  1.00  0.00     0.124 S 
ATOM     92  O   UNL A   1      47.891  25.685  23.454  1.00  0.00    -0.237 OA
ATOM     93  O   UNL A   1      47.456  28.056  22.896  1.00  0.00    -0.237 OA
ATOM     94  O   UNL A   1      49.773  27.227  23.049  1.00  0.00    -0.744 OA
ENDBRANCH  87  91
ENDBRANCH  60  84
BRANCH  72  95
ATOM     95  C   UNL A   1      44.705  34.280  29.498  1.00  0.00     0.023 A 
ATOM     96  C   UNL A   1      44.419  35.338  28.619  1.00  0.00     0.031 A 
ATOM     97  C   UNL A   1      45.638  34.510  30.526  1.00  0.00     0.131 A 
ATOM     98  C   UNL A   1      45.106  36.555  28.743  1.00  0.00     0.055 A 
ATOM     99  C   UNL A   1      46.263  35.745  30.691  1.00  0.00     0.041 A 
ATOM    100  F   UNL A   1      45.954  33.534  31.393  1.00  0.00    -0.206 F 
ATOM    101  C   UNL A   1      46.010  36.772  29.786  1.00  0.00     0.022 A 
BRANCH  98 102
ATOM    102  S   UNL A   1      44.881  37.817  27.460  1.00  0.00     0.124 S 
ATOM    103  O   UNL A   1      44.660  39.021  28.253  1.00  0.00    -0.237 OA
ATOM    104  O   UNL A   1      46.146  37.754  26.735  1.00  0.00    -0.237 OA
ATOM    105  O   UNL A   1      43.717  37.341  26.714  1.00  0.00    -0.744 OA
ENDBRANCH  98 102
ENDBRANCH  72  95
ENDBRANCH  46  47
ENDBRANCH  39  41
ENDBRANCH  38  39
ENDBRANCH  37  38
ENDBRANCH  36  37
ENDBRANCH  35  36
ENDBRANCH  34  35
ENDBRANCH   1  34
TORSDOF 25
ENDMDL
MODEL 2
REMARK VINA RESULT:     -11.1      1.887      8.438
REMARK SMILES [NH3+][C@H]1CN(C(=O)OCC2c3ccccc3-c3ccccc32)C[C@@H]1C(=O)OCCOCCOCCOC(=O)c1ccc(-c2c3nc(c(-c4cc(S(=O)(=O)[O-])ccc4F)c4ccc([nH]4)c(-c4cc(S(=O)(=O)[O-])ccc4F)c4nc(c(-c5cc(S(=O)(=O)[O-])ccc5F)c5ccc2[nH]5)C=C4)C=C3)cc1
REMARK SMILES IDX 30 1 29 2 28 3 27 4 26 5 24 6 25 7 23 8 2 9 3 10 4 11 22 12
REMARK SMILES IDX 1 13 5 17 6 18 7 19 8 20 9 21 10 22 21 23 11 24 15 25 16 26
REMARK SMILES IDX 20 27 12 28 14 29 17 30 19 31 13 32 18 33 31 34 32 35 33 36
REMARK SMILES IDX 34 37 35 38 36 39 37 40 38 41 39 42 100 43 40 44 99 45 41 46
REMARK SMILES IDX 42 47 43 48 93 49 44 50 98 51 92 52 94 53 45 54 97 55 91 56
REMARK SMILES IDX 90 57 46 59 78 60 58 61 77 62 59 63 62 64 76 65 95 66 60 67
REMARK SMILES IDX 61 68 75 70 96 71 63 72 47 73 48 74 56 75 49 76 55 77 57 78
REMARK SMILES IDX 54 79 50 80 51 81 52 82 53 83 79 84 80 85 88 86 81 87 87 88
REMARK SMILES IDX 89 89 86 90 82 91 83 92 84 93 85 94 64 95 65 96 73 97 66 98
REMARK SMILES IDX 72 99 74 100 71 101 67 102 68 103 69 104 70 105
REMARK H PARENT 1 14 1 15 1 16 94 58 62 69
REMARK Flexibility Score: inf
ROOT
ATOM      1  C   UNL A   1      35.906  21.385  25.105  1.00  0.00     0.188 C 
ENDROOT
BRANCH   1   2
ATOM      2  O   UNL A   1      35.506  22.125  26.251  1.00  0.00    -0.376 OA
BRANCH   2   3
ATOM      3  C   UNL A   1      34.639  23.236  26.094  1.00  0.00     0.202 C 
BRANCH   3   4
ATOM      4  C   UNL A   1      33.245  23.167  26.740  1.00  0.00     0.261 C 
BRANCH   4   5
ATOM      5  O   UNL A   1      32.150  23.797  26.026  1.00  0.00    -0.463 OA
BRANCH   5   6
ATOM      6  C   UNL A   1      31.264  22.956  25.425  1.00  0.00     0.316 C 
ATOM      7  O   UNL A   1      30.457  22.270  26.046  1.00  0.00    -0.252 OA
BRANCH   6   8
ATOM      8  C   UNL A   1      31.291  22.936  23.902  1.00  0.00     0.178 C 
ATOM      9  C   UNL A   1      32.379  22.138  23.166  1.00  0.00     0.216 C 
ATOM     10  C   UNL A   1      33.418  23.190  22.712  1.00  0.00     0.188 C 
ATOM     11  N   UNL A   1      32.696  24.440  22.681  1.00  0.00    -0.301 N 
ATOM     12  C   UNL A   1      31.375  24.332  23.293  1.00  0.00     0.145 C 
BRANCH   9  13
ATOM     13  N   UNL A   1      31.770  21.485  21.984  1.00  0.00    -0.353 N 
ATOM     14  H   UNL A   1      30.843  21.138  22.228  1.00  0.00     0.344 HD
ATOM     15  H   UNL A   1      32.357  20.706  21.686  1.00  0.00     0.344 HD
ATOM     16  H   UNL A   1      31.692  22.161  21.224  1.00  0.00     0.344 HD
ENDBRANCH   9  13
BRANCH  11  17
ATOM     17  C   UNL A   1      33.187  25.659  22.284  1.00  0.00     0.410 C 
ATOM     18  O   UNL A   1      33.504  25.846  21.113  1.00  0.00    -0.224 OA
BRANCH  17  19
ATOM     19  O   UNL A   1      33.291  26.614  23.254  1.00  0.00    -0.448 OA
BRANCH  19  20
ATOM     20  C   UNL A   1      32.463  27.792  23.009  1.00  0.00     0.248 C 
BRANCH  20  21
ATOM     21  C   UNL A   1      31.294  28.032  24.009  1.00  0.00     0.088 C 
ATOM     22  C   UNL A   1      31.719  28.743  25.291  1.00  0.00    -0.029 A 
ATOM     23  C   UNL A   1      30.273  29.032  23.444  1.00  0.00    -0.029 A 
ATOM     24  C   UNL A   1      32.555  28.280  26.296  1.00  0.00     0.005 A 
ATOM     25  C   UNL A   1      31.243  30.067  25.290  1.00  0.00    -0.014 A 
ATOM     26  C   UNL A   1      30.269  30.203  24.236  1.00  0.00    -0.014 A 
ATOM     27  C   UNL A   1      29.389  28.892  22.383  1.00  0.00     0.005 A 
ATOM     28  C   UNL A   1      33.069  29.214  27.195  1.00  0.00     0.000 A 
ATOM     29  C   UNL A   1      31.751  30.996  26.179  1.00  0.00     0.009 A 
ATOM     30  C   UNL A   1      29.340  31.205  24.021  1.00  0.00     0.009 A 
ATOM     31  C   UNL A   1      28.470  29.923  22.149  1.00  0.00     0.000 A 
ATOM     32  C   UNL A   1      32.701  30.568  27.112  1.00  0.00     0.001 A 
ATOM     33  C   UNL A   1      28.436  31.059  22.970  1.00  0.00     0.001 A 
ENDBRANCH  20  21
ENDBRANCH  19  20
ENDBRANCH  17  19
ENDBRANCH  11  17
ENDBRANCH   6   8
ENDBRANCH   5   6
ENDBRANCH   4   5
ENDBRANCH   3   4
ENDBRANCH   2   3
ENDBRANCH   1   2
BRANCH   1  34
ATOM     34  C   UNL A   1      37.377  20.956  24.973  1.00  0.00     0.188 C 
BRANCH  34  35
ATOM     35  O   UNL A   1      37.545  19.585  24.677  1.00  0.00    -0.376 OA
BRANCH  35  36
ATOM     36  C   UNL A   1      38.583  18.923  25.365  1.00  0.00     0.202 C 
BRANCH  36  37
ATOM     37  C   UNL A   1      39.650  19.815  26.016  1.00  0.00     0.261 C 
BRANCH  37  38
ATOM     38  O   UNL A   1      40.793  19.128  26.565  1.00  0.00    -0.460 OA
BRANCH  38  39
ATOM     39  C   UNL A   1      42.000  19.725  26.420  1.00  0.00     0.338 C 
ATOM     40  O   UNL A   1      43.029  19.179  26.062  1.00  0.00    -0.246 OA
BRANCH  39  41
ATOM     41  C   UNL A   1      41.894  21.173  26.730  1.00  0.00     0.060 A 
ATOM     42  C   UNL A   1      41.563  22.081  25.728  1.00  0.00     0.016 A 
ATOM     43  C   UNL A   1      42.271  21.660  27.976  1.00  0.00     0.016 A 
ATOM     44  C   UNL A   1      41.749  23.454  25.894  1.00  0.00     0.010 A 
ATOM     45  C   UNL A   1      42.347  23.048  28.184  1.00  0.00     0.010 A 
ATOM     46  C   UNL A   1      42.148  23.962  27.127  1.00  0.00    -0.014 A 
BRANCH  46  47
ATOM     47  C   UNL A   1      42.452  25.415  27.293  1.00  0.00     0.031 A 
ATOM     48  C   UNL A   1      43.796  25.946  26.848  1.00  0.00     0.074 A 
ATOM     49  C   UNL A   1      41.543  26.273  27.805  1.00  0.00     0.049 A 
ATOM     50  N   UNL A   1      44.325  27.132  27.019  1.00  0.00    -0.248 NA
ATOM     51  C   UNL A   1      44.656  25.017  26.100  1.00  0.00     0.031 C 
ATOM     52  C   UNL A   1      40.167  25.937  28.181  1.00  0.00     0.029 A 
ATOM     53  N   UNL A   1      41.648  27.609  28.120  1.00  0.00    -0.354 N 
ATOM     54  C   UNL A   1      45.565  27.090  26.388  1.00  0.00     0.074 A 
ATOM     55  C   UNL A   1      45.737  25.751  25.883  1.00  0.00     0.031 C 
ATOM     56  C   UNL A   1      39.570  27.025  28.692  1.00  0.00     0.029 A 
ATOM     57  C   UNL A   1      40.539  28.111  28.769  1.00  0.00     0.049 A 
ATOM     58  H   UNL A   1      42.439  28.153  27.905  1.00  0.00     0.167 HD
ATOM     59  C   UNL A   1      46.480  28.078  26.233  1.00  0.00     0.034 A 
ATOM     60  C   UNL A   1      40.351  29.280  29.415  1.00  0.00     0.034 A 
ATOM     61  C   UNL A   1      46.347  29.385  26.821  1.00  0.00     0.049 A 
ATOM     62  C   UNL A   1      41.487  30.277  29.456  1.00  0.00     0.074 A 
ATOM     63  C   UNL A   1      47.256  30.428  26.818  1.00  0.00     0.029 A 
ATOM     64  N   UNL A   1      45.250  29.815  27.553  1.00  0.00    -0.354 N 
ATOM     65  N   UNL A   1      42.664  30.216  28.875  1.00  0.00    -0.248 NA
ATOM     66  C   UNL A   1      41.272  31.498  30.243  1.00  0.00     0.031 C 
ATOM     67  C   UNL A   1      46.747  31.451  27.624  1.00  0.00     0.029 A 
ATOM     68  C   UNL A   1      45.478  31.088  28.046  1.00  0.00     0.049 A 
ATOM     69  H   UNL A   1      44.428  29.291  27.699  1.00  0.00     0.167 HD
ATOM     70  C   UNL A   1      43.305  31.414  29.191  1.00  0.00     0.074 A 
ATOM     71  C   UNL A   1      42.380  32.179  29.997  1.00  0.00     0.031 C 
ATOM     72  C   UNL A   1      44.544  31.845  28.843  1.00  0.00     0.034 A 
BRANCH  59  73
ATOM     73  C   UNL A   1      47.739  27.755  25.467  1.00  0.00     0.023 A 
ATOM     74  C   UNL A   1      47.836  27.942  24.075  1.00  0.00     0.031 A 
ATOM     75  C   UNL A   1      48.870  27.273  26.150  1.00  0.00     0.131 A 
ATOM     76  C   UNL A   1      49.034  27.627  23.410  1.00  0.00     0.055 A 
ATOM     77  C   UNL A   1      50.071  27.011  25.491  1.00  0.00     0.041 A 
ATOM     78  F   UNL A   1      48.824  27.053  27.473  1.00  0.00    -0.206 F 
ATOM     79  C   UNL A   1      50.157  27.184  24.115  1.00  0.00     0.022 A 
BRANCH  76  80
ATOM     80  S   UNL A   1      49.111  27.753  21.601  1.00  0.00     0.124 S 
ATOM     81  O   UNL A   1      47.717  27.523  21.235  1.00  0.00    -0.237 OA
ATOM     82  O   UNL A   1      49.614  29.106  21.395  1.00  0.00    -0.237 OA
ATOM     83  O   UNL A   1      50.031  26.682  21.222  1.00  0.00    -0.744 OA
ENDBRANCH  76  80
ENDBRANCH  59  73
BRANCH  60  84
ATOM     84  C   UNL A   1      39.087  29.554  30.169  1.00  0.00     0.023 A 
ATOM     85  C   UNL A   1      38.130  30.455  29.677  1.00  0.00     0.031 A 
ATOM     86  C   UNL A   1      38.876  29.015  31.454  1.00  0.00     0.131 A 
ATOM     87  C   UNL A   1      37.056  30.852  30.490  1.00  0.00     0.055 A 
ATOM     88  C   UNL A   1      37.760  29.348  32.224  1.00  0.00     0.041 A 
ATOM     89  F   UNL A   1      39.763  28.163  31.991  1.00  0.00    -0.206 F 
ATOM     90  C   UNL A   1      36.854  30.291  31.752  1.00  0.00     0.022 A 
BRANCH  87  91
ATOM     91  S   UNL A   1      36.023  32.239  29.941  1.00  0.00     0.124 S 
ATOM     92  O   UNL A   1      36.955  33.357  30.041  1.00  0.00    -0.237 OA
ATOM     93  O   UNL A   1      35.658  31.827  28.590  1.00  0.00    -0.237 OA
ATOM     94  O   UNL A   1      34.927  32.251  30.907  1.00  0.00    -0.744 OA
ENDBRANCH  87  91
ENDBRANCH  60  84
BRANCH  72  95
ATOM     95  C   UNL A   1      44.938  33.238  29.271  1.00  0.00     0.023 A 
ATOM     96  C   UNL A   1      44.529  34.380  28.563  1.00  0.00     0.031 A 
ATOM     97  C   UNL A   1      45.749  33.420  30.406  1.00  0.00     0.131 A 
ATOM     98  C   UNL A   1      44.983  35.647  28.958  1.00  0.00     0.055 A 
ATOM     99  C   UNL A   1      46.137  34.688  30.839  1.00  0.00     0.041 A 
ATOM    100  F   UNL A   1      46.175  32.364  31.119  1.00  0.00    -0.206 F 
ATOM    101  C   UNL A   1      45.767  35.810  30.104  1.00  0.00     0.022 A 
BRANCH  98 102
ATOM    102  S   UNL A   1      44.624  37.071  27.895  1.00  0.00     0.124 S 
ATOM    103  O   UNL A   1      45.581  36.889  26.809  1.00  0.00    -0.237 OA
ATOM    104  O   UNL A   1      43.222  36.858  27.550  1.00  0.00    -0.237 OA
ATOM    105  O   UNL A   1      44.880  38.220  28.763  1.00  0.00    -0.744 OA
ENDBRANCH  98 102
ENDBRANCH  72  95
ENDBRANCH  46  47
ENDBRANCH  39  41
ENDBRANCH  38  39
ENDBRANCH  37  38
ENDBRANCH  36  37
ENDBRANCH  35  36
ENDBRANCH  34  35
ENDBRANCH   1  34
TORSDOF 25
ENDMDL
MODEL 3
REMARK VINA RESULT:     -11.0      2.264      2.596
REMARK SMILES [NH3+][C@H]1CN(C(=O)OCC2c3ccccc3-c3ccccc32)C[C@@H]1C(=O)OCCOCCOCCOC(=O)c1ccc(-c2c3nc(c(-c4cc(S(=O)(=O)[O-])ccc4F)c4ccc([nH]4)c(-c4cc(S(=O)(=O)[O-])ccc4F)c4nc(c(-c5cc(S(=O)(=O)[O-])ccc5F)c5ccc2[nH]5)C=C4)C=C3)cc1
REMARK SMILES IDX 30 1 29 2 28 3 27 4 26 5 24 6 25 7 23 8 2 9 3 10 4 11 22 12
REMARK SMILES IDX 1 13 5 17 6 18 7 19 8 20 9 21 10 22 21 23 11 24 15 25 16 26
REMARK SMILES IDX 20 27 12 28 14 29 17 30 19 31 13 32 18 33 31 34 32 35 33 36
REMARK SMILES IDX 34 37 35 38 36 39 37 40 38 41 39 42 100 43 40 44 99 45 41 46
REMARK SMILES IDX 42 47 43 48 93 49 44 50 98 51 92 52 94 53 45 54 97 55 91 56
REMARK SMILES IDX 90 57 46 59 78 60 58 61 77 62 59 63 62 64 76 65 95 66 60 67
REMARK SMILES IDX 61 68 75 70 96 71 63 72 47 73 48 74 56 75 49 76 55 77 57 78
REMARK SMILES IDX 54 79 50 80 51 81 52 82 53 83 79 84 80 85 88 86 81 87 87 88
REMARK SMILES IDX 89 89 86 90 82 91 83 92 84 93 85 94 64 95 65 96 73 97 66 98
REMARK SMILES IDX 72 99 74 100 71 101 67 102 68 103 69 104 70 105
REMARK H PARENT 1 14 1 15 1 16 94 58 62 69
REMARK Flexibility Score: inf
ROOT
ATOM      1  C   UNL A   1      34.799  25.345  24.820  1.00  0.00     0.188 C 
ENDROOT
BRANCH   1   2
ATOM      2  O   UNL A   1      33.520  25.831  25.209  1.00  0.00    -0.376 OA
BRANCH   2   3
ATOM      3  C   UNL A   1      33.392  27.169  25.658  1.00  0.00     0.202 C 
BRANCH   3   4
ATOM      4  C   UNL A   1      32.023  27.630  26.185  1.00  0.00     0.261 C 
BRANCH   4   5
ATOM      5  O   UNL A   1      31.293  28.596  25.384  1.00  0.00    -0.463 OA
BRANCH   5   6
ATOM      6  C   UNL A   1      31.367  28.432  24.035  1.00  0.00     0.316 C 
ATOM      7  O   UNL A   1      32.193  29.004  23.329  1.00  0.00    -0.252 OA
BRANCH   6   8
ATOM      8  C   UNL A   1      30.377  27.445  23.428  1.00  0.00     0.178 C 
ATOM      9  C   UNL A   1      29.526  26.553  24.345  1.00  0.00     0.216 C 
ATOM     10  C   UNL A   1      30.216  25.169  24.321  1.00  0.00     0.188 C 
ATOM     11  N   UNL A   1      30.980  25.153  23.096  1.00  0.00    -0.301 N 
ATOM     12  C   UNL A   1      31.035  26.467  22.460  1.00  0.00     0.145 C 
BRANCH   9  13
ATOM     13  N   UNL A   1      28.163  26.449  23.775  1.00  0.00    -0.353 N 
ATOM     14  H   UNL A   1      27.987  25.485  23.492  1.00  0.00     0.344 HD
ATOM     15  H   UNL A   1      28.086  27.061  22.964  1.00  0.00     0.344 HD
ATOM     16  H   UNL A   1      27.479  26.727  24.478  1.00  0.00     0.344 HD
ENDBRANCH   9  13
BRANCH  11  17
ATOM     17  C   UNL A   1      31.723  24.108  22.608  1.00  0.00     0.410 C 
ATOM     18  O   UNL A   1      32.851  24.304  22.164  1.00  0.00    -0.224 OA
BRANCH  17  19
ATOM     19  O   UNL A   1      31.136  22.876  22.651  1.00  0.00    -0.448 OA
BRANCH  19  20
ATOM     20  C   UNL A   1      32.082  21.781  22.850  1.00  0.00     0.248 C 
BRANCH  20  21
ATOM     21  C   UNL A   1      31.818  20.857  24.075  1.00  0.00     0.088 C 
ATOM     22  C   UNL A   1      32.602  19.548  24.037  1.00  0.00    -0.029 A 
ATOM     23  C   UNL A   1      32.355  21.482  25.372  1.00  0.00    -0.029 A 
ATOM     24  C   UNL A   1      32.475  18.493  23.145  1.00  0.00     0.005 A 
ATOM     25  C   UNL A   1      33.634  19.575  24.992  1.00  0.00    -0.014 A 
ATOM     26  C   UNL A   1      33.409  20.688  25.880  1.00  0.00    -0.014 A 
ATOM     27  C   UNL A   1      31.911  22.598  26.068  1.00  0.00     0.005 A 
ATOM     28  C   UNL A   1      33.510  17.560  23.091  1.00  0.00     0.000 A 
ATOM     29  C   UNL A   1      34.663  18.652  24.941  1.00  0.00     0.009 A 
ATOM     30  C   UNL A   1      33.975  20.958  27.112  1.00  0.00     0.009 A 
ATOM     31  C   UNL A   1      32.507  22.887  27.303  1.00  0.00     0.000 A 
ATOM     32  C   UNL A   1      34.614  17.662  23.954  1.00  0.00     0.001 A 
ATOM     33  C   UNL A   1      33.516  22.066  27.825  1.00  0.00     0.001 A 
ENDBRANCH  20  21
ENDBRANCH  19  20
ENDBRANCH  17  19
ENDBRANCH  11  17
ENDBRANCH   6   8
ENDBRANCH   5   6
ENDBRANCH   4   5
ENDBRANCH   3   4
ENDBRANCH   2   3
ENDBRANCH   1   2
BRANCH   1  34
ATOM     34  C   UNL A   1      35.087  23.838  24.930  1.00  0.00     0.188 C 
BRANCH  34  35
ATOM     35  O   UNL A   1      35.360  23.220  23.690  1.00  0.00    -0.376 OA
BRANCH  35  36
ATOM     36  C   UNL A   1      36.678  22.752  23.506  1.00  0.00     0.202 C 
BRANCH  36  37
ATOM     37  C   UNL A   1      37.085  21.514  24.319  1.00  0.00     0.261 C 
BRANCH  37  38
ATOM     38  O   UNL A   1      37.470  21.760  25.687  1.00  0.00    -0.460 OA
BRANCH  38  39
ATOM     39  C   UNL A   1      38.758  21.506  26.020  1.00  0.00     0.338 C 
ATOM     40  O   UNL A   1      39.361  20.469  25.803  1.00  0.00    -0.246 OA
BRANCH  39  41
ATOM     41  C   UNL A   1      39.361  22.696  26.671  1.00  0.00     0.060 A 
ATOM     42  C   UNL A   1      38.957  23.976  26.302  1.00  0.00     0.016 A 
ATOM     43  C   UNL A   1      40.438  22.558  27.539  1.00  0.00     0.016 A 
ATOM     44  C   UNL A   1      39.695  25.106  26.654  1.00  0.00     0.010 A 
ATOM     45  C   UNL A   1      41.115  23.705  27.990  1.00  0.00     0.010 A 
ATOM     46  C   UNL A   1      40.792  24.989  27.504  1.00  0.00    -0.014 A 
BRANCH  46  47
ATOM     47  C   UNL A   1      41.655  26.171  27.806  1.00  0.00     0.031 A 
ATOM     48  C   UNL A   1      41.066  27.346  28.553  1.00  0.00     0.074 A 
ATOM     49  C   UNL A   1      42.958  26.202  27.452  1.00  0.00     0.049 A 
ATOM     50  N   UNL A   1      41.583  28.522  28.803  1.00  0.00    -0.248 NA
ATOM     51  C   UNL A   1      39.715  27.165  29.104  1.00  0.00     0.031 C 
ATOM     52  C   UNL A   1      43.700  25.107  26.822  1.00  0.00     0.029 A 
ATOM     53  N   UNL A   1      43.891  27.210  27.553  1.00  0.00    -0.354 N 
ATOM     54  C   UNL A   1      40.629  29.209  29.547  1.00  0.00     0.074 A 
ATOM     55  C   UNL A   1      39.480  28.344  29.661  1.00  0.00     0.031 C 
ATOM     56  C   UNL A   1      44.957  25.508  26.577  1.00  0.00     0.029 A 
ATOM     57  C   UNL A   1      45.090  26.913  26.942  1.00  0.00     0.049 A 
ATOM     58  H   UNL A   1      43.717  28.061  28.016  1.00  0.00     0.167 HD
ATOM     59  C   UNL A   1      40.698  30.445  30.098  1.00  0.00     0.034 A 
ATOM     60  C   UNL A   1      46.145  27.700  26.643  1.00  0.00     0.034 A 
ATOM     61  C   UNL A   1      41.807  31.341  29.901  1.00  0.00     0.049 A 
ATOM     62  C   UNL A   1      46.097  29.159  27.038  1.00  0.00     0.074 A 
ATOM     63  C   UNL A   1      41.941  32.652  30.322  1.00  0.00     0.029 A 
ATOM     64  N   UNL A   1      42.958  31.032  29.191  1.00  0.00    -0.354 N 
ATOM     65  N   UNL A   1      45.177  29.802  27.722  1.00  0.00    -0.248 NA
ATOM     66  C   UNL A   1      47.225  30.000  26.617  1.00  0.00     0.031 C 
ATOM     67  C   UNL A   1      43.128  33.163  29.789  1.00  0.00     0.029 A 
ATOM     68  C   UNL A   1      43.784  32.141  29.121  1.00  0.00     0.049 A 
ATOM     69  H   UNL A   1      43.158  30.152  28.796  1.00  0.00     0.167 HD
ATOM     70  C   UNL A   1      45.646  31.109  27.851  1.00  0.00     0.074 A 
ATOM     71  C   UNL A   1      46.931  31.157  27.190  1.00  0.00     0.031 C 
ATOM     72  C   UNL A   1      45.069  32.174  28.465  1.00  0.00     0.034 A 
BRANCH  59  73
ATOM     73  C   UNL A   1      39.510  30.929  30.892  1.00  0.00     0.023 A 
ATOM     74  C   UNL A   1      39.529  30.997  32.298  1.00  0.00     0.031 A 
ATOM     75  C   UNL A   1      38.346  31.349  30.224  1.00  0.00     0.131 A 
ATOM     76  C   UNL A   1      38.395  31.458  32.989  1.00  0.00     0.055 A 
ATOM     77  C   UNL A   1      37.243  31.854  30.914  1.00  0.00     0.041 A 
ATOM     78  F   UNL A   1      38.266  31.282  28.886  1.00  0.00    -0.206 F 
ATOM     79  C   UNL A   1      37.262  31.906  32.303  1.00  0.00     0.022 A 
BRANCH  76  80
ATOM     80  S   UNL A   1      38.382  31.427  34.804  1.00  0.00     0.124 S 
ATOM     81  O   UNL A   1      38.295  29.995  35.069  1.00  0.00    -0.237 OA
ATOM     82  O   UNL A   1      39.647  32.069  35.145  1.00  0.00    -0.237 OA
ATOM     83  O   UNL A   1      37.184  32.190  35.151  1.00  0.00    -0.744 OA
ENDBRANCH  76  80
ENDBRANCH  59  73
BRANCH  60  84
ATOM     84  C   UNL A   1      47.300  27.179  25.845  1.00  0.00     0.023 A 
ATOM     85  C   UNL A   1      48.363  26.504  26.465  1.00  0.00     0.031 A 
ATOM     86  C   UNL A   1      47.418  27.458  24.470  1.00  0.00     0.131 A 
ATOM     87  C   UNL A   1      49.526  26.206  25.736  1.00  0.00     0.055 A 
ATOM     88  C   UNL A   1      48.541  27.082  23.730  1.00  0.00     0.041 A 
ATOM     89  F   UNL A   1      46.445  28.117  23.821  1.00  0.00    -0.206 F 
ATOM     90  C   UNL A   1      49.615  26.473  24.369  1.00  0.00     0.022 A 
BRANCH  87  91
ATOM     91  S   UNL A   1      50.986  25.620  26.640  1.00  0.00     0.124 S 
ATOM     92  O   UNL A   1      51.876  25.242  25.547  1.00  0.00    -0.237 OA
ATOM     93  O   UNL A   1      51.369  26.805  27.398  1.00  0.00    -0.237 OA
ATOM     94  O   UNL A   1      50.470  24.509  27.437  1.00  0.00    -0.744 OA
ENDBRANCH  87  91
ENDBRANCH  60  84
BRANCH  72  95
ATOM     95  C   UNL A   1      45.860  33.458  28.512  1.00  0.00     0.023 A 
ATOM     96  C   UNL A   1      46.663  33.799  29.613  1.00  0.00     0.031 A 
ATOM     97  C   UNL A   1      45.797  34.361  27.435  1.00  0.00     0.131 A 
ATOM     98  C   UNL A   1      47.320  35.038  29.641  1.00  0.00     0.055 A 
ATOM     99  C   UNL A   1      46.512  35.559  27.436  1.00  0.00     0.041 A 
ATOM    100  F   UNL A   1      45.041  34.091  26.358  1.00  0.00    -0.206 F 
ATOM    101  C   UNL A   1      47.267  35.910  28.551  1.00  0.00     0.022 A 
BRANCH  98 102
ATOM    102  S   UNL A   1      48.161  35.543  31.166  1.00  0.00     0.124 S 
ATOM    103  O   UNL A   1      47.044  35.960  32.006  1.00  0.00    -0.237 OA
ATOM    104  O   UNL A   1      48.839  34.315  31.571  1.00  0.00    -0.237 OA
ATOM    105  O   UNL A   1      49.046  36.621  30.728  1.00  0.00    -0.744 OA
ENDBRANCH  98 102
ENDBRANCH  72  95
ENDBRANCH  46  47
ENDBRANCH  39  41
ENDBRANCH  38  39
ENDBRANCH  37  38
ENDBRANCH  36  37
ENDBRANCH  35  36
ENDBRANCH  34  35
ENDBRANCH   1  34
TORSDOF 25
ENDMDL
