MODEL 1
REMARK VINA RESULT:      -9.5      0.000      0.000
REMARK SMILES COc1ccc([C@@H]([NH3+])CC(=O)OCCOCCOCCOC(=O)c2ccc(-c3c4nc(c(-c5cc(S(=O)(=O)[O-])ccc5F)c5ccc([nH]5)c(-c5cc(S(=O)(=O)[O-])ccc5F)c5nc(c(-c6cc(S(=O)(=O)[O-])ccc6F)c6ccc3[nH]6)C=C5)C=C4)cc2)cc1
REMARK SMILES IDX 16 1 15 2 14 3 13 4 12 5 10 6 11 7 9 8 7 9 6 10 3 11 4 12
REMARK SMILES IDX 88 13 5 14 87 15 2 16 1 17 8 18 17 22 18 23 19 24 20 25
REMARK SMILES IDX 21 26 22 27 23 28 24 29 25 30 86 31 26 32 85 33 27 34 28 35
REMARK SMILES IDX 29 36 79 37 30 38 84 39 78 40 80 41 31 42 83 43 77 44 76 45
REMARK SMILES IDX 32 47 64 48 44 49 63 50 45 51 48 52 62 53 81 54 46 55 47 56
REMARK SMILES IDX 61 58 82 59 49 60 33 61 34 62 42 63 35 64 41 65 43 66 40 67
REMARK SMILES IDX 36 68 37 69 38 70 39 71 65 72 66 73 74 74 67 75 73 76 75 77
REMARK SMILES IDX 72 78 68 79 69 80 70 81 71 82 50 83 51 84 59 85 52 86 58 87
REMARK SMILES IDX 60 88 57 89 53 90 54 91 55 92 56 93
REMARK H PARENT 8 19 8 20 8 21 80 46 48 57
REMARK Flexibility Score: inf
ROOT
ATOM      1  C   UNL A   1      33.228  21.958  27.555  1.00  0.00     0.188 C 
ENDROOT
BRANCH   1   2
ATOM      2  O   UNL A   1      32.770  23.300  27.420  1.00  0.00    -0.376 OA
BRANCH   2   3
ATOM      3  C   UNL A   1      31.449  23.476  26.909  1.00  0.00     0.202 C 
BRANCH   3   4
ATOM      4  C   UNL A   1      31.185  22.975  25.479  1.00  0.00     0.261 C 
BRANCH   4   5
ATOM      5  O   UNL A   1      31.295  23.997  24.465  1.00  0.00    -0.463 OA
BRANCH   5   6
ATOM      6  C   UNL A   1      31.939  23.636  23.323  1.00  0.00     0.312 C 
ATOM      7  O   UNL A   1      31.800  22.551  22.767  1.00  0.00    -0.252 OA
BRANCH   6   8
ATOM      8  C   UNL A   1      32.778  24.734  22.697  1.00  0.00     0.192 C 
BRANCH   8   9
ATOM      9  C   UNL A   1      33.964  25.301  23.487  1.00  0.00     0.223 C 
BRANCH   9  10
ATOM     10  C   UNL A   1      33.680  26.578  24.248  1.00  0.00     0.010 A 
ATOM     11  C   UNL A   1      33.413  28.950  25.727  1.00  0.00     0.118 A 
ATOM     12  C   UNL A   1      33.278  28.968  24.340  1.00  0.00     0.047 A 
ATOM     13  C   UNL A   1      33.588  27.735  26.388  1.00  0.00     0.047 A 
ATOM     14  C   UNL A   1      33.406  27.790  23.602  1.00  0.00     0.014 A 
ATOM     15  C   UNL A   1      33.711  26.558  25.650  1.00  0.00     0.014 A 
BRANCH  11  16
ATOM     16  O   UNL A   1      33.313  30.159  26.362  1.00  0.00    -0.497 OA
ATOM     17  C   UNL A   1      31.972  30.625  26.498  1.00  0.00     0.278 C 
ENDBRANCH  11  16
ENDBRANCH   9  10
BRANCH   9  18
ATOM     18  N   UNL A   1      34.448  24.276  24.424  1.00  0.00    -0.351 N 
ATOM     19  H   UNL A   1      33.858  23.447  24.354  1.00  0.00     0.345 HD
ATOM     20  H   UNL A   1      34.410  24.640  25.376  1.00  0.00     0.345 HD
ATOM     21  H   UNL A   1      35.410  24.030  24.193  1.00  0.00     0.345 HD
ENDBRANCH   9  18
ENDBRANCH   8   9
ENDBRANCH   6   8
ENDBRANCH   5   6
ENDBRANCH   4   5
ENDBRANCH   3   4
ENDBRANCH   2   3
ENDBRANCH   1   2
BRANCH   1  22
ATOM     22  C   UNL A   1      34.524  21.606  26.818  1.00  0.00     0.188 C 
BRANCH  22  23
ATOM     23  O   UNL A   1      34.365  21.188  25.470  1.00  0.00    -0.376 OA
BRANCH  23  24
ATOM     24  C   UNL A   1      35.539  21.133  24.657  1.00  0.00     0.202 C 
BRANCH  24  25
ATOM     25  C   UNL A   1      36.782  20.451  25.261  1.00  0.00     0.261 C 
BRANCH  25  26
ATOM     26  O   UNL A   1      38.037  21.124  25.031  1.00  0.00    -0.460 OA
BRANCH  26  27
ATOM     27  C   UNL A   1      39.068  20.835  25.861  1.00  0.00     0.338 C 
ATOM     28  O   UNL A   1      39.594  19.742  25.999  1.00  0.00    -0.246 OA
BRANCH  27  29
ATOM     29  C   UNL A   1      39.647  22.109  26.371  1.00  0.00     0.060 A 
ATOM     30  C   UNL A   1      39.027  23.306  25.988  1.00  0.00     0.016 A 
ATOM     31  C   UNL A   1      40.728  22.142  27.259  1.00  0.00     0.016 A 
ATOM     32  C   UNL A   1      39.526  24.533  26.431  1.00  0.00     0.010 A 
ATOM     33  C   UNL A   1      41.230  23.375  27.702  1.00  0.00     0.010 A 
ATOM     34  C   UNL A   1      40.661  24.579  27.252  1.00  0.00    -0.014 A 
BRANCH  34  35
ATOM     35  C   UNL A   1      41.352  25.883  27.451  1.00  0.00     0.031 A 
ATOM     36  C   UNL A   1      40.658  26.946  28.265  1.00  0.00     0.074 A 
ATOM     37  C   UNL A   1      42.602  26.097  27.001  1.00  0.00     0.049 A 
ATOM     38  N   UNL A   1      41.087  28.125  28.638  1.00  0.00    -0.248 NA
ATOM     39  C   UNL A   1      39.295  26.632  28.721  1.00  0.00     0.031 C 
ATOM     40  C   UNL A   1      43.400  25.145  26.229  1.00  0.00     0.029 A 
ATOM     41  N   UNL A   1      43.429  27.186  27.141  1.00  0.00    -0.354 N 
ATOM     42  C   UNL A   1      40.052  28.689  29.378  1.00  0.00     0.074 A 
ATOM     43  C   UNL A   1      38.956  27.745  29.352  1.00  0.00     0.031 C 
ATOM     44  C   UNL A   1      44.604  25.687  25.976  1.00  0.00     0.029 A 
ATOM     45  C   UNL A   1      44.658  27.036  26.540  1.00  0.00     0.049 A 
ATOM     46  H   UNL A   1      43.166  28.001  27.628  1.00  0.00     0.167 HD
ATOM     47  C   UNL A   1      40.021  29.874  30.037  1.00  0.00     0.034 A 
ATOM     48  C   UNL A   1      45.700  27.888  26.447  1.00  0.00     0.034 A 
ATOM     49  C   UNL A   1      41.111  30.820  30.046  1.00  0.00     0.049 A 
ATOM     50  C   UNL A   1      45.611  29.240  27.119  1.00  0.00     0.074 A 
ATOM     51  C   UNL A   1      41.181  32.046  30.686  1.00  0.00     0.029 A 
ATOM     52  N   UNL A   1      42.315  30.658  29.372  1.00  0.00    -0.354 N 
ATOM     53  N   UNL A   1      44.633  29.750  27.835  1.00  0.00    -0.248 NA
ATOM     54  C   UNL A   1      46.778  30.123  26.985  1.00  0.00     0.031 C 
ATOM     55  C   UNL A   1      42.389  32.658  30.334  1.00  0.00     0.029 A 
ATOM     56  C   UNL A   1      43.118  31.775  29.553  1.00  0.00     0.049 A 
ATOM     57  H   UNL A   1      42.562  29.865  28.843  1.00  0.00     0.167 HD
ATOM     58  C   UNL A   1      45.087  30.997  28.265  1.00  0.00     0.074 A 
ATOM     59  C   UNL A   1      46.431  31.148  27.748  1.00  0.00     0.031 C 
ATOM     60  C   UNL A   1      44.453  31.931  29.022  1.00  0.00     0.034 A 
BRANCH  47  61
ATOM     61  C   UNL A   1      38.742  30.230  30.759  1.00  0.00     0.023 A 
ATOM     62  C   UNL A   1      37.694  30.917  30.119  1.00  0.00     0.031 A 
ATOM     63  C   UNL A   1      38.581  29.905  32.118  1.00  0.00     0.131 A 
ATOM     64  C   UNL A   1      36.568  31.320  30.854  1.00  0.00     0.055 A 
ATOM     65  C   UNL A   1      37.419  30.233  32.821  1.00  0.00     0.041 A 
ATOM     66  F   UNL A   1      39.556  29.276  32.791  1.00  0.00    -0.206 F 
ATOM     67  C   UNL A   1      36.410  30.957  32.193  1.00  0.00     0.022 A 
BRANCH  64  68
ATOM     68  S   UNL A   1      35.388  32.457  30.077  1.00  0.00     0.124 S 
ATOM     69  O   UNL A   1      34.351  32.551  31.102  1.00  0.00    -0.237 OA
ATOM     70  O   UNL A   1      36.193  33.656  29.871  1.00  0.00    -0.237 OA
ATOM     71  O   UNL A   1      34.988  31.756  28.859  1.00  0.00    -0.744 OA
ENDBRANCH  64  68
ENDBRANCH  47  61
BRANCH  48  72
ATOM     72  C   UNL A   1      46.919  27.517  25.667  1.00  0.00     0.023 A 
ATOM     73  C   UNL A   1      47.077  27.902  24.324  1.00  0.00     0.031 A 
ATOM     74  C   UNL A   1      47.913  26.700  26.235  1.00  0.00     0.131 A 
ATOM     75  C   UNL A   1      48.171  27.426  23.582  1.00  0.00     0.055 A 
ATOM     76  C   UNL A   1      49.030  26.280  25.512  1.00  0.00     0.041 A 
ATOM     77  F   UNL A   1      47.810  26.295  27.511  1.00  0.00    -0.206 F 
ATOM     78  C   UNL A   1      49.157  26.631  24.171  1.00  0.00     0.022 A 
BRANCH  75  79
ATOM     79  S   UNL A   1      48.237  27.777  21.803  1.00  0.00     0.124 S 
ATOM     80  O   UNL A   1      48.438  26.443  21.245  1.00  0.00    -0.237 OA
ATOM     81  O   UNL A   1      46.931  28.381  21.565  1.00  0.00    -0.237 OA
ATOM     82  O   UNL A   1      49.375  28.685  21.676  1.00  0.00    -0.744 OA
ENDBRANCH  75  79
ENDBRANCH  48  72
BRANCH  60  83
ATOM     83  C   UNL A   1      45.233  33.179  29.377  1.00  0.00     0.023 A 
ATOM     84  C   UNL A   1      45.206  34.330  28.567  1.00  0.00     0.031 A 
ATOM     85  C   UNL A   1      46.052  33.204  30.520  1.00  0.00     0.131 A 
ATOM     86  C   UNL A   1      46.047  35.415  28.860  1.00  0.00     0.055 A 
ATOM     87  C   UNL A   1      46.825  34.318  30.852  1.00  0.00     0.041 A 
ATOM     88  F   UNL A   1      46.124  32.138  31.334  1.00  0.00    -0.206 F 
ATOM     89  C   UNL A   1      46.842  35.424  30.008  1.00  0.00     0.022 A 
BRANCH  86  90
ATOM     90  S   UNL A   1      46.197  36.752  27.643  1.00  0.00     0.124 S 
ATOM     91  O   UNL A   1      47.566  37.206  27.861  1.00  0.00    -0.237 OA
ATOM     92  O   UNL A   1      45.950  36.056  26.385  1.00  0.00    -0.237 OA
ATOM     93  O   UNL A   1      45.158  37.699  28.044  1.00  0.00    -0.744 OA
ENDBRANCH  86  90
ENDBRANCH  60  83
ENDBRANCH  34  35
ENDBRANCH  27  29
ENDBRANCH  26  27
ENDBRANCH  25  26
ENDBRANCH  24  25
ENDBRANCH  23  24
ENDBRANCH  22  23
ENDBRANCH   1  22
TORSDOF 24
ENDMDL
MODEL 2
REMARK VINA RESULT:      -9.3      1.622      7.696
REMARK SMILES COc1ccc([C@@H]([NH3+])CC(=O)OCCOCCOCCOC(=O)c2ccc(-c3c4nc(c(-c5cc(S(=O)(=O)[O-])ccc5F)c5ccc([nH]5)c(-c5cc(S(=O)(=O)[O-])ccc5F)c5nc(c(-c6cc(S(=O)(=O)[O-])ccc6F)c6ccc3[nH]6)C=C5)C=C4)cc2)cc1
REMARK SMILES IDX 16 1 15 2 14 3 13 4 12 5 10 6 11 7 9 8 7 9 6 10 3 11 4 12
REMARK SMILES IDX 88 13 5 14 87 15 2 16 1 17 8 18 17 22 18 23 19 24 20 25
REMARK SMILES IDX 21 26 22 27 23 28 24 29 25 30 86 31 26 32 85 33 27 34 28 35
REMARK SMILES IDX 29 36 79 37 30 38 84 39 78 40 80 41 31 42 83 43 77 44 76 45
REMARK SMILES IDX 32 47 64 48 44 49 63 50 45 51 48 52 62 53 81 54 46 55 47 56
REMARK SMILES IDX 61 58 82 59 49 60 33 61 34 62 42 63 35 64 41 65 43 66 40 67
REMARK SMILES IDX 36 68 37 69 38 70 39 71 65 72 66 73 74 74 67 75 73 76 75 77
REMARK SMILES IDX 72 78 68 79 69 80 70 81 71 82 50 83 51 84 59 85 52 86 58 87
REMARK SMILES IDX 60 88 57 89 53 90 54 91 55 92 56 93
REMARK H PARENT 8 19 8 20 8 21 80 46 48 57
REMARK Flexibility Score: inf
ROOT
ATOM      1  C   UNL A   1      32.966  21.515  26.628  1.00  0.00     0.188 C 
ENDROOT
BRANCH   1   2
ATOM      2  O   UNL A   1      32.402  22.824  26.640  1.00  0.00    -0.376 OA
BRANCH   2   3
ATOM      3  C   UNL A   1      31.086  22.957  26.104  1.00  0.00     0.202 C 
BRANCH   3   4
ATOM      4  C   UNL A   1      30.965  23.049  24.573  1.00  0.00     0.261 C 
BRANCH   4   5
ATOM      5  O   UNL A   1      31.595  24.214  23.999  1.00  0.00    -0.463 OA
BRANCH   5   6
ATOM      6  C   UNL A   1      32.632  23.975  23.153  1.00  0.00     0.312 C 
ATOM      7  O   UNL A   1      32.742  22.963  22.467  1.00  0.00    -0.252 OA
BRANCH   6   8
ATOM      8  C   UNL A   1      33.616  25.121  23.021  1.00  0.00     0.192 C 
BRANCH   8   9
ATOM      9  C   UNL A   1      34.222  25.728  24.292  1.00  0.00     0.223 C 
BRANCH   9  10
ATOM     10  C   UNL A   1      33.493  26.934  24.842  1.00  0.00     0.010 A 
ATOM     11  C   UNL A   1      32.335  29.193  26.045  1.00  0.00     0.118 A 
ATOM     12  C   UNL A   1      32.875  29.279  24.763  1.00  0.00     0.047 A 
ATOM     13  C   UNL A   1      32.287  27.959  26.692  1.00  0.00     0.047 A 
ATOM     14  C   UNL A   1      33.448  28.157  24.161  1.00  0.00     0.014 A 
ATOM     15  C   UNL A   1      32.855  26.838  26.088  1.00  0.00     0.014 A 
BRANCH  11  16
ATOM     16  O   UNL A   1      31.833  30.353  26.571  1.00  0.00    -0.497 OA
ATOM     17  C   UNL A   1      32.812  31.159  27.220  1.00  0.00     0.278 C 
ENDBRANCH  11  16
ENDBRANCH   9  10
BRANCH   9  18
ATOM     18  N   UNL A   1      34.291  24.689  25.331  1.00  0.00    -0.351 N 
ATOM     19  H   UNL A   1      35.266  24.442  25.501  1.00  0.00     0.345 HD
ATOM     20  H   UNL A   1      33.779  23.863  25.022  1.00  0.00     0.345 HD
ATOM     21  H   UNL A   1      33.875  25.042  26.194  1.00  0.00     0.345 HD
ENDBRANCH   9  18
ENDBRANCH   8   9
ENDBRANCH   6   8
ENDBRANCH   5   6
ENDBRANCH   4   5
ENDBRANCH   3   4
ENDBRANCH   2   3
ENDBRANCH   1   2
BRANCH   1  22
ATOM     22  C   UNL A   1      34.423  21.409  26.167  1.00  0.00     0.188 C 
BRANCH  22  23
ATOM     23  O   UNL A   1      34.627  21.498  24.764  1.00  0.00    -0.376 OA
BRANCH  23  24
ATOM     24  C   UNL A   1      35.975  21.626  24.304  1.00  0.00     0.202 C 
BRANCH  24  25
ATOM     25  C   UNL A   1      37.049  20.796  25.033  1.00  0.00     0.261 C 
BRANCH  25  26
ATOM     26  O   UNL A   1      38.394  21.310  24.956  1.00  0.00    -0.460 OA
BRANCH  26  27
ATOM     27  C   UNL A   1      39.265  20.946  25.929  1.00  0.00     0.338 C 
ATOM     28  O   UNL A   1      39.749  19.837  26.080  1.00  0.00    -0.246 OA
BRANCH  27  29
ATOM     29  C   UNL A   1      39.757  22.172  26.617  1.00  0.00     0.060 A 
ATOM     30  C   UNL A   1      39.140  23.389  26.300  1.00  0.00     0.016 A 
ATOM     31  C   UNL A   1      40.752  22.134  27.600  1.00  0.00     0.016 A 
ATOM     32  C   UNL A   1      39.561  24.574  26.909  1.00  0.00     0.010 A 
ATOM     33  C   UNL A   1      41.175  23.324  28.211  1.00  0.00     0.010 A 
ATOM     34  C   UNL A   1      40.614  24.557  27.833  1.00  0.00    -0.014 A 
BRANCH  34  35
ATOM     35  C   UNL A   1      41.246  25.847  28.227  1.00  0.00     0.031 A 
ATOM     36  C   UNL A   1      42.641  26.142  27.735  1.00  0.00     0.074 A 
ATOM     37  C   UNL A   1      40.575  26.780  28.928  1.00  0.00     0.049 A 
ATOM     38  N   UNL A   1      43.366  27.222  27.880  1.00  0.00    -0.248 NA
ATOM     39  C   UNL A   1      43.304  25.072  26.975  1.00  0.00     0.031 C 
ATOM     40  C   UNL A   1      39.211  26.638  29.437  1.00  0.00     0.029 A 
ATOM     41  N   UNL A   1      40.947  28.043  29.322  1.00  0.00    -0.354 N 
ATOM     42  C   UNL A   1      44.566  26.964  27.222  1.00  0.00     0.074 A 
ATOM     43  C   UNL A   1      44.489  25.606  26.729  1.00  0.00     0.031 C 
ATOM     44  C   UNL A   1      38.858  27.774  30.064  1.00  0.00     0.029 A 
ATOM     45  C   UNL A   1      39.977  28.716  30.029  1.00  0.00     0.049 A 
ATOM     46  H   UNL A   1      41.828  28.431  29.116  1.00  0.00     0.167 HD
ATOM     47  C   UNL A   1      45.627  27.787  27.028  1.00  0.00     0.034 A 
ATOM     48  C   UNL A   1      39.993  29.943  30.592  1.00  0.00     0.034 A 
ATOM     49  C   UNL A   1      45.705  29.134  27.538  1.00  0.00     0.049 A 
ATOM     50  C   UNL A   1      41.221  30.812  30.434  1.00  0.00     0.074 A 
ATOM     51  C   UNL A   1      46.733  30.051  27.393  1.00  0.00     0.029 A 
ATOM     52  N   UNL A   1      44.728  29.757  28.304  1.00  0.00    -0.354 N 
ATOM     53  N   UNL A   1      42.339  30.562  29.789  1.00  0.00    -0.248 NA
ATOM     54  C   UNL A   1      41.176  32.138  31.065  1.00  0.00     0.031 C 
ATOM     55  C   UNL A   1      46.414  31.193  28.136  1.00  0.00     0.029 A 
ATOM     56  C   UNL A   1      45.144  31.031  28.667  1.00  0.00     0.049 A 
ATOM     57  H   UNL A   1      43.866  29.353  28.553  1.00  0.00     0.167 HD
ATOM     58  C   UNL A   1      43.113  31.717  29.910  1.00  0.00     0.074 A 
ATOM     59  C   UNL A   1      42.323  32.666  30.666  1.00  0.00     0.031 C 
ATOM     60  C   UNL A   1      44.360  31.971  29.436  1.00  0.00     0.034 A 
BRANCH  47  61
ATOM     61  C   UNL A   1      46.809  27.224  26.273  1.00  0.00     0.023 A 
ATOM     62  C   UNL A   1      47.858  26.555  26.930  1.00  0.00     0.031 A 
ATOM     63  C   UNL A   1      46.903  27.386  24.880  1.00  0.00     0.131 A 
ATOM     64  C   UNL A   1      48.987  26.140  26.205  1.00  0.00     0.055 A 
ATOM     65  C   UNL A   1      47.988  26.892  24.152  1.00  0.00     0.041 A 
ATOM     66  F   UNL A   1      45.947  28.040  24.202  1.00  0.00    -0.206 F 
ATOM     67  C   UNL A   1      49.046  26.278  24.816  1.00  0.00     0.022 A 
BRANCH  64  68
ATOM     68  S   UNL A   1      50.441  25.560  27.121  1.00  0.00     0.124 S 
ATOM     69  O   UNL A   1      50.626  26.636  28.092  1.00  0.00    -0.237 OA
ATOM     70  O   UNL A   1      49.986  24.284  27.660  1.00  0.00    -0.237 OA
ATOM     71  O   UNL A   1      51.478  25.471  26.095  1.00  0.00    -0.744 OA
ENDBRANCH  64  68
ENDBRANCH  47  61
BRANCH  48  72
ATOM     72  C   UNL A   1      38.824  30.432  31.384  1.00  0.00     0.023 A 
ATOM     73  C   UNL A   1      37.743  31.087  30.770  1.00  0.00     0.031 A 
ATOM     74  C   UNL A   1      38.812  30.320  32.786  1.00  0.00     0.131 A 
ATOM     75  C   UNL A   1      36.726  31.650  31.558  1.00  0.00     0.055 A 
ATOM     76  C   UNL A   1      37.767  30.826  33.561  1.00  0.00     0.041 A 
ATOM     77  F   UNL A   1      39.823  29.711  33.427  1.00  0.00    -0.206 F 
ATOM     78  C   UNL A   1      36.722  31.510  32.948  1.00  0.00     0.022 A 
BRANCH  75  79
ATOM     79  S   UNL A   1      35.453  32.660  30.748  1.00  0.00     0.124 S 
ATOM     80  O   UNL A   1      36.098  33.967  30.701  1.00  0.00    -0.237 OA
ATOM     81  O   UNL A   1      35.294  31.977  29.469  1.00  0.00    -0.237 OA
ATOM     82  O   UNL A   1      34.311  32.559  31.654  1.00  0.00    -0.744 OA
ENDBRANCH  75  79
ENDBRANCH  48  72
BRANCH  60  83
ATOM     83  C   UNL A   1      44.925  33.354  29.680  1.00  0.00     0.023 A 
ATOM     84  C   UNL A   1      44.606  34.447  28.853  1.00  0.00     0.031 A 
ATOM     85  C   UNL A   1      45.834  33.574  30.732  1.00  0.00     0.131 A 
ATOM     86  C   UNL A   1      45.256  35.678  29.034  1.00  0.00     0.055 A 
ATOM     87  C   UNL A   1      46.415  34.823  30.958  1.00  0.00     0.041 A 
ATOM     88  F   UNL A   1      46.181  32.573  31.557  1.00  0.00    -0.206 F 
ATOM     89  C   UNL A   1      46.143  35.878  30.093  1.00  0.00     0.022 A 
BRANCH  86  90
ATOM     90  S   UNL A   1      45.036  36.969  27.779  1.00  0.00     0.124 S 
ATOM     91  O   UNL A   1      45.855  38.053  28.313  1.00  0.00    -0.237 OA
ATOM     92  O   UNL A   1      45.544  36.322  26.574  1.00  0.00    -0.237 OA
ATOM     93  O   UNL A   1      43.595  37.217  27.790  1.00  0.00    -0.744 OA
ENDBRANCH  86  90
ENDBRANCH  60  83
ENDBRANCH  34  35
ENDBRANCH  27  29
ENDBRANCH  26  27
ENDBRANCH  25  26
ENDBRANCH  24  25
ENDBRANCH  23  24
ENDBRANCH  22  23
ENDBRANCH   1  22
TORSDOF 24
ENDMDL
MODEL 3
REMARK VINA RESULT:      -9.1      2.654      3.159
REMARK SMILES COc1ccc([C@@H]([NH3+])CC(=O)OCCOCCOCCOC(=O)c2ccc(-c3c4nc(c(-c5cc(S(=O)(=O)[O-])ccc5F)c5ccc([nH]5)c(-c5cc(S(=O)(=O)[O-])ccc5F)c5nc(c(-c6cc(S(=O)(=O)[O-])ccc6F)c6ccc3[nH]6)C=C5)C=C4)cc2)cc1
REMARK SMILES IDX 16 1 15 2 14 3 13 4 12 5 10 6 11 7 9 8 7 9 6 10 3 11 4 12
REMARK SMILES IDX 88 13 5 14 87 15 2 16 1 17 8 18 17 22 18 23 19 24 20 25
REMARK SMILES IDX 21 26 22 27 23 28 24 29 25 30 86 31 26 32 85 33 27 34 28 35
REMARK SMILES IDX 29 36 79 37 30 38 84 39 78 40 80 41 31 42 83 43 77 44 76 45
REMARK SMILES IDX 32 47 64 48 44 49 63 50 45 51 48 52 62 53 81 54 46 55 47 56
REMARK SMILES IDX 61 58 82 59 49 60 33 61 34 62 42 63 35 64 41 65 43 66 40 67
REMARK SMILES IDX 36 68 37 69 38 70 39 71 65 72 66 73 74 74 67 75 73 76 75 77
REMARK SMILES IDX 72 78 68 79 69 80 70 81 71 82 50 83 51 84 59 85 52 86 58 87
REMARK SMILES IDX 60 88 57 89 53 90 54 91 55 92 56 93
REMARK H PARENT 8 19 8 20 8 21 80 46 48 57
REMARK Flexibility Score: inf
ROOT
ATOM      1  C   UNL A   1      34.207  23.691  25.317  1.00  0.00     0.188 C 
ENDROOT
BRANCH   1   2
ATOM      2  O   UNL A   1      33.407  24.453  26.217  1.00  0.00    -0.376 OA
BRANCH   2   3
ATOM      3  C   UNL A   1      31.994  24.377  26.035  1.00  0.00     0.202 C 
BRANCH   3   4
ATOM      4  C   UNL A   1      31.375  25.325  24.994  1.00  0.00     0.261 C 
BRANCH   4   5
ATOM      5  O   UNL A   1      30.742  26.493  25.559  1.00  0.00    -0.463 OA
BRANCH   5   6
ATOM      6  C   UNL A   1      31.517  27.607  25.647  1.00  0.00     0.312 C 
ATOM      7  O   UNL A   1      32.498  27.708  26.378  1.00  0.00    -0.252 OA
BRANCH   6   8
ATOM      8  C   UNL A   1      31.150  28.710  24.674  1.00  0.00     0.192 C 
BRANCH   8   9
ATOM      9  C   UNL A   1      30.033  28.457  23.653  1.00  0.00     0.223 C 
BRANCH   9  10
ATOM     10  C   UNL A   1      29.322  29.696  23.154  1.00  0.00     0.010 A 
ATOM     11  C   UNL A   1      28.245  32.091  22.158  1.00  0.00     0.118 A 
ATOM     12  C   UNL A   1      28.009  30.886  21.497  1.00  0.00     0.047 A 
ATOM     13  C   UNL A   1      28.938  32.090  23.367  1.00  0.00     0.047 A 
ATOM     14  C   UNL A   1      28.541  29.694  21.992  1.00  0.00     0.014 A 
ATOM     15  C   UNL A   1      29.464  30.898  23.863  1.00  0.00     0.014 A 
BRANCH  11  16
ATOM     16  O   UNL A   1      27.719  33.214  21.578  1.00  0.00    -0.497 OA
ATOM     17  C   UNL A   1      27.598  33.124  20.161  1.00  0.00     0.278 C 
ENDBRANCH  11  16
ENDBRANCH   9  10
BRANCH   9  18
ATOM     18  N   UNL A   1      30.591  27.724  22.507  1.00  0.00    -0.351 N 
ATOM     19  H   UNL A   1      30.377  26.731  22.601  1.00  0.00     0.345 HD
ATOM     20  H   UNL A   1      31.602  27.854  22.479  1.00  0.00     0.345 HD
ATOM     21  H   UNL A   1      30.180  28.079  21.643  1.00  0.00     0.345 HD
ENDBRANCH   9  18
ENDBRANCH   8   9
ENDBRANCH   6   8
ENDBRANCH   5   6
ENDBRANCH   4   5
ENDBRANCH   3   4
ENDBRANCH   2   3
ENDBRANCH   1   2
BRANCH   1  22
ATOM     22  C   UNL A   1      35.686  24.084  25.226  1.00  0.00     0.188 C 
BRANCH  22  23
ATOM     23  O   UNL A   1      36.442  23.387  24.246  1.00  0.00    -0.376 OA
BRANCH  23  24
ATOM     24  C   UNL A   1      36.326  21.962  24.219  1.00  0.00     0.202 C 
BRANCH  24  25
ATOM     25  C   UNL A   1      37.533  21.148  24.724  1.00  0.00     0.261 C 
BRANCH  25  26
ATOM     26  O   UNL A   1      38.000  21.479  26.049  1.00  0.00    -0.460 OA
BRANCH  26  27
ATOM     27  C   UNL A   1      39.327  21.366  26.296  1.00  0.00     0.338 C 
ATOM     28  O   UNL A   1      40.048  20.448  25.940  1.00  0.00    -0.246 OA
BRANCH  27  29
ATOM     29  C   UNL A   1      39.830  22.665  26.825  1.00  0.00     0.060 A 
ATOM     30  C   UNL A   1      39.221  23.838  26.359  1.00  0.00     0.016 A 
ATOM     31  C   UNL A   1      40.825  22.743  27.804  1.00  0.00     0.016 A 
ATOM     32  C   UNL A   1      39.651  25.086  26.815  1.00  0.00     0.010 A 
ATOM     33  C   UNL A   1      41.258  23.997  28.261  1.00  0.00     0.010 A 
ATOM     34  C   UNL A   1      40.706  25.177  27.733  1.00  0.00    -0.014 A 
BRANCH  34  35
ATOM     35  C   UNL A   1      41.348  26.501  27.961  1.00  0.00     0.031 A 
ATOM     36  C   UNL A   1      40.550  27.575  28.657  1.00  0.00     0.074 A 
ATOM     37  C   UNL A   1      42.636  26.728  27.644  1.00  0.00     0.049 A 
ATOM     38  N   UNL A   1      40.914  28.774  29.033  1.00  0.00    -0.248 NA
ATOM     39  C   UNL A   1      39.151  27.248  28.971  1.00  0.00     0.031 C 
ATOM     40  C   UNL A   1      43.531  25.767  26.998  1.00  0.00     0.029 A 
ATOM     41  N   UNL A   1      43.423  27.838  27.836  1.00  0.00    -0.354 N 
ATOM     42  C   UNL A   1      39.794  29.340  29.636  1.00  0.00     0.074 A 
ATOM     43  C   UNL A   1      38.724  28.373  29.522  1.00  0.00     0.031 C 
ATOM     44  C   UNL A   1      44.746  26.327  26.860  1.00  0.00     0.029 A 
ATOM     45  C   UNL A   1      44.713  27.694  27.379  1.00  0.00     0.049 A 
ATOM     46  H   UNL A   1      43.094  28.662  28.263  1.00  0.00     0.167 HD
ATOM     47  C   UNL A   1      39.670  30.545  30.246  1.00  0.00     0.034 A 
ATOM     48  C   UNL A   1      45.744  28.565  27.371  1.00  0.00     0.034 A 
ATOM     49  C   UNL A   1      40.735  31.513  30.341  1.00  0.00     0.049 A 
ATOM     50  C   UNL A   1      45.558  29.936  27.983  1.00  0.00     0.074 A 
ATOM     51  C   UNL A   1      40.713  32.761  30.942  1.00  0.00     0.029 A 
ATOM     52  N   UNL A   1      42.008  31.356  29.809  1.00  0.00    -0.354 N 
ATOM     53  N   UNL A   1      44.499  30.447  28.569  1.00  0.00    -0.248 NA
ATOM     54  C   UNL A   1      46.717  30.838  27.947  1.00  0.00     0.031 C 
ATOM     55  C   UNL A   1      41.941  33.387  30.704  1.00  0.00     0.029 A 
ATOM     56  C   UNL A   1      42.767  32.495  30.039  1.00  0.00     0.049 A 
ATOM     57  H   UNL A   1      42.327  30.552  29.338  1.00  0.00     0.167 HD
ATOM     58  C   UNL A   1      44.880  31.717  29.003  1.00  0.00     0.074 A 
ATOM     59  C   UNL A   1      46.270  31.880  28.631  1.00  0.00     0.031 C 
ATOM     60  C   UNL A   1      44.150  32.661  29.652  1.00  0.00     0.034 A 
BRANCH  47  61
ATOM     61  C   UNL A   1      38.313  30.897  30.810  1.00  0.00     0.023 A 
ATOM     62  C   UNL A   1      37.325  31.526  30.030  1.00  0.00     0.031 A 
ATOM     63  C   UNL A   1      38.013  30.628  32.157  1.00  0.00     0.131 A 
ATOM     64  C   UNL A   1      36.117  31.930  30.622  1.00  0.00     0.055 A 
ATOM     65  C   UNL A   1      36.776  30.954  32.717  1.00  0.00     0.041 A 
ATOM     66  F   UNL A   1      38.925  30.056  32.959  1.00  0.00    -0.206 F 
ATOM     67  C   UNL A   1      35.824  31.622  31.952  1.00  0.00     0.022 A 
BRANCH  64  68
ATOM     68  S   UNL A   1      35.002  32.999  29.671  1.00  0.00     0.124 S 
ATOM     69  O   UNL A   1      34.513  32.079  28.647  1.00  0.00    -0.237 OA
ATOM     70  O   UNL A   1      34.029  33.412  30.676  1.00  0.00    -0.237 OA
ATOM     71  O   UNL A   1      35.880  34.058  29.179  1.00  0.00    -0.744 OA
ENDBRANCH  64  68
ENDBRANCH  47  61
BRANCH  48  72
ATOM     72  C   UNL A   1      47.049  28.195  26.743  1.00  0.00     0.023 A 
ATOM     73  C   UNL A   1      47.202  28.137  25.347  1.00  0.00     0.031 A 
ATOM     74  C   UNL A   1      48.145  27.814  27.539  1.00  0.00     0.131 A 
ATOM     75  C   UNL A   1      48.400  27.659  24.792  1.00  0.00     0.055 A 
ATOM     76  C   UNL A   1      49.355  27.398  26.982  1.00  0.00     0.041 A 
ATOM     77  F   UNL A   1      48.053  27.841  28.877  1.00  0.00    -0.206 F 
ATOM     78  C   UNL A   1      49.483  27.304  25.599  1.00  0.00     0.022 A 
BRANCH  75  79
ATOM     79  S   UNL A   1      48.491  27.408  22.997  1.00  0.00     0.124 S 
ATOM     80  O   UNL A   1      49.827  27.909  22.695  1.00  0.00    -0.237 OA
ATOM     81  O   UNL A   1      48.306  25.966  22.883  1.00  0.00    -0.237 OA
ATOM     82  O   UNL A   1      47.389  28.219  22.483  1.00  0.00    -0.744 OA
ENDBRANCH  75  79
ENDBRANCH  48  72
BRANCH  60  83
ATOM     83  C   UNL A   1      44.863  33.937  30.047  1.00  0.00     0.023 A 
ATOM     84  C   UNL A   1      45.531  34.067  31.280  1.00  0.00     0.031 A 
ATOM     85  C   UNL A   1      44.837  35.058  29.197  1.00  0.00     0.131 A 
ATOM     86  C   UNL A   1      46.062  35.308  31.662  1.00  0.00     0.055 A 
ATOM     87  C   UNL A   1      45.439  36.267  29.549  1.00  0.00     0.041 A 
ATOM     88  F   UNL A   1      44.216  35.000  28.008  1.00  0.00    -0.206 F 
ATOM     89  C   UNL A   1      46.038  36.404  30.797  1.00  0.00     0.022 A 
BRANCH  86  90
ATOM     90  S   UNL A   1      46.656  35.512  33.365  1.00  0.00     0.124 S 
ATOM     91  O   UNL A   1      46.465  36.942  33.582  1.00  0.00    -0.237 OA
ATOM     92  O   UNL A   1      45.765  34.630  34.112  1.00  0.00    -0.237 OA
ATOM     93  O   UNL A   1      48.049  35.075  33.297  1.00  0.00    -0.744 OA
ENDBRANCH  86  90
ENDBRANCH  60  83
ENDBRANCH  34  35
ENDBRANCH  27  29
ENDBRANCH  26  27
ENDBRANCH  25  26
ENDBRANCH  24  25
ENDBRANCH  23  24
ENDBRANCH  22  23
ENDBRANCH   1  22
TORSDOF 24
ENDMDL
