MODEL 1
REMARK VINA RESULT:     -10.9      0.000      0.000
REMARK SMILES Cc1cnn(C2(C(=O)OCCOCCOCCOC(=O)c3ccc(-c4c5nc(c(-c6cc(S(=O)(=O)[O-])ccc6F)c6ccc([nH]6)c(-c6cc(S(=O)(=O)[O-])ccc6F)c6nc(c(-c7cc(S(=O)(=O)[O-])ccc7F)c7ccc4[nH]7)C=C6)C=C5)cc3)CCN(C(=O)c3cc4ccccc4[nH]3)CC2)c1
REMARK SMILES IDX 14 1 13 2 12 3 11 4 10 5 9 6 7 7 8 8 6 9 84 10 99 11 85 12
REMARK SMILES IDX 98 13 86 14 87 15 88 16 5 17 1 18 2 19 3 20 100 21 4 22
REMARK SMILES IDX 89 23 90 24 97 25 91 26 96 27 92 29 95 30 93 31 94 32 15 33
REMARK SMILES IDX 16 34 17 35 18 36 19 37 20 38 21 39 22 40 83 41 23 42 82 43
REMARK SMILES IDX 24 44 25 45 26 46 76 47 27 48 81 49 75 50 77 51 28 52 80 53
REMARK SMILES IDX 74 54 73 55 29 57 61 58 41 59 60 60 42 61 45 62 59 63 78 64
REMARK SMILES IDX 43 65 44 66 58 68 79 69 46 70 30 71 31 72 39 73 32 74 38 75
REMARK SMILES IDX 40 76 37 77 33 78 34 79 35 80 36 81 62 82 63 83 71 84 64 85
REMARK SMILES IDX 70 86 72 87 69 88 65 89 66 90 67 91 68 92 47 93 48 94 56 95
REMARK SMILES IDX 49 96 55 97 57 98 54 99 50 100 51 101 52 102 53 103
REMARK H PARENT 97 28 77 56 45 67
REMARK Flexibility Score: inf
ROOT
ATOM      1  C   UNL A   1      32.762  29.001  23.854  1.00  0.00     0.188 C 
ENDROOT
BRANCH   1   2
ATOM      2  C   UNL A   1      31.493  28.916  23.001  1.00  0.00     0.188 C 
BRANCH   2   3
ATOM      3  O   UNL A   1      31.198  27.712  22.331  1.00  0.00    -0.376 OA
BRANCH   3   4
ATOM      4  C   UNL A   1      31.907  26.543  22.704  1.00  0.00     0.202 C 
BRANCH   4   5
ATOM      5  C   UNL A   1      33.163  26.036  21.958  1.00  0.00     0.261 C 
BRANCH   5   6
ATOM      6  O   UNL A   1      33.942  25.001  22.593  1.00  0.00    -0.461 OA
BRANCH   6   7
ATOM      7  C   UNL A   1      33.316  23.820  22.842  1.00  0.00     0.334 C 
ATOM      8  O   UNL A   1      32.394  23.405  22.139  1.00  0.00    -0.249 OA
BRANCH   7   9
ATOM      9  C   UNL A   1      33.733  23.121  24.176  1.00  0.00     0.163 C 
ATOM     10  C   UNL A   1      34.100  21.614  24.109  1.00  0.00     0.064 C 
ATOM     11  C   UNL A   1      35.001  23.941  24.494  1.00  0.00     0.064 C 
ATOM     12  C   UNL A   1      34.996  21.121  25.241  1.00  0.00     0.123 C 
ATOM     13  C   UNL A   1      35.888  23.396  25.584  1.00  0.00     0.123 C 
ATOM     14  N   UNL A   1      36.153  21.971  25.432  1.00  0.00    -0.337 N 
ATOM     15  C   UNL A   1      37.418  21.381  25.521  1.00  0.00     0.270 C 
ATOM     16  O   UNL A   1      37.631  20.218  25.193  1.00  0.00    -0.267 OA
BRANCH   9  17
ATOM     17  N   UNL A   1      32.644  23.314  25.157  1.00  0.00    -0.255 N 
ATOM     18  C   UNL A   1      29.579  22.600  27.028  1.00  0.00     0.048 C 
ATOM     19  C   UNL A   1      30.805  23.114  26.380  1.00  0.00    -0.013 A 
ATOM     20  C   UNL A   1      31.368  24.399  26.470  1.00  0.00     0.138 A 
ATOM     21  C   UNL A   1      31.645  22.446  25.515  1.00  0.00     0.113 A 
ATOM     22  N   UNL A   1      32.442  24.538  25.694  1.00  0.00    -0.180 NA
ENDBRANCH   9  17
BRANCH  15  23
ATOM     23  C   UNL A   1      38.497  22.236  25.955  1.00  0.00     0.105 A 
ATOM     24  C   UNL A   1      39.700  21.929  26.567  1.00  0.00     0.042 A 
ATOM     25  N   UNL A   1      38.461  23.604  25.828  1.00  0.00    -0.351 N 
ATOM     26  C   UNL A   1      40.198  23.125  27.134  1.00  0.00     0.000 A 
ATOM     27  C   UNL A   1      39.433  24.171  26.620  1.00  0.00     0.046 A 
ATOM     28  H   UNL A   1      37.833  24.103  25.257  1.00  0.00     0.167 HD
ATOM     29  C   UNL A   1      41.208  23.406  28.070  1.00  0.00     0.010 A 
ATOM     30  C   UNL A   1      39.678  25.507  26.940  1.00  0.00     0.026 A 
ATOM     31  C   UNL A   1      41.434  24.734  28.441  1.00  0.00     0.001 A 
ATOM     32  C   UNL A   1      40.694  25.768  27.866  1.00  0.00     0.002 A 
ENDBRANCH  15  23
ENDBRANCH   7   9
ENDBRANCH   6   7
ENDBRANCH   5   6
ENDBRANCH   4   5
ENDBRANCH   3   4
ENDBRANCH   2   3
ENDBRANCH   1   2
BRANCH   1  33
ATOM     33  O   UNL A   1      32.734  29.609  25.129  1.00  0.00    -0.376 OA
BRANCH  33  34
ATOM     34  C   UNL A   1      33.445  29.160  26.271  1.00  0.00     0.202 C 
BRANCH  34  35
ATOM     35  C   UNL A   1      33.954  30.038  27.408  1.00  0.00     0.261 C 
BRANCH  35  36
ATOM     36  O   UNL A   1      35.215  29.694  27.919  1.00  0.00    -0.460 OA
BRANCH  36  37
ATOM     37  C   UNL A   1      35.811  30.661  28.643  1.00  0.00     0.338 C 
ATOM     38  O   UNL A   1      35.271  31.452  29.411  1.00  0.00    -0.246 OA
BRANCH  37  39
ATOM     39  C   UNL A   1      37.246  30.558  28.386  1.00  0.00     0.060 A 
ATOM     40  C   UNL A   1      37.713  29.435  27.705  1.00  0.00     0.016 A 
ATOM     41  C   UNL A   1      38.103  31.457  29.035  1.00  0.00     0.016 A 
ATOM     42  C   UNL A   1      39.014  29.050  27.932  1.00  0.00     0.010 A 
ATOM     43  C   UNL A   1      39.386  31.060  29.281  1.00  0.00     0.010 A 
ATOM     44  C   UNL A   1      39.775  29.805  28.829  1.00  0.00    -0.014 A 
BRANCH  44  45
ATOM     45  C   UNL A   1      41.049  29.298  29.285  1.00  0.00     0.031 A 
ATOM     46  C   UNL A   1      41.045  29.086  30.742  1.00  0.00     0.074 A 
ATOM     47  C   UNL A   1      42.021  28.959  28.412  1.00  0.00     0.049 A 
ATOM     48  N   UNL A   1      41.579  29.846  31.637  1.00  0.00    -0.248 NA
ATOM     49  C   UNL A   1      40.118  28.080  31.293  1.00  0.00     0.031 C 
ATOM     50  C   UNL A   1      41.954  28.959  26.944  1.00  0.00     0.029 A 
ATOM     51  N   UNL A   1      43.263  28.460  28.650  1.00  0.00    -0.354 N 
ATOM     52  C   UNL A   1      41.315  29.210  32.842  1.00  0.00     0.074 A 
ATOM     53  C   UNL A   1      40.191  28.354  32.596  1.00  0.00     0.031 C 
ATOM     54  C   UNL A   1      43.013  28.282  26.440  1.00  0.00     0.029 A 
ATOM     55  C   UNL A   1      43.903  27.920  27.533  1.00  0.00     0.049 A 
ATOM     56  H   UNL A   1      43.679  28.476  29.543  1.00  0.00     0.167 HD
ATOM     57  C   UNL A   1      42.279  29.146  33.799  1.00  0.00     0.034 A 
ATOM     58  C   UNL A   1      45.068  27.211  27.514  1.00  0.00     0.034 A 
ATOM     59  C   UNL A   1      43.323  30.111  33.524  1.00  0.00     0.049 A 
ATOM     60  C   UNL A   1      45.782  27.566  28.763  1.00  0.00     0.074 A 
ATOM     61  C   UNL A   1      43.411  31.486  33.478  1.00  0.00     0.029 A 
ATOM     62  N   UNL A   1      44.401  29.621  32.823  1.00  0.00    -0.354 N 
ATOM     63  N   UNL A   1      46.235  28.767  28.999  1.00  0.00    -0.248 NA
ATOM     64  C   UNL A   1      45.586  26.742  29.947  1.00  0.00     0.031 C 
ATOM     65  C   UNL A   1      44.371  31.776  32.461  1.00  0.00     0.029 A 
ATOM     66  C   UNL A   1      44.889  30.575  31.969  1.00  0.00     0.049 A 
ATOM     67  H   UNL A   1      44.769  28.713  32.921  1.00  0.00     0.167 HD
ATOM     68  C   UNL A   1      45.953  28.999  30.335  1.00  0.00     0.074 A 
ATOM     69  C   UNL A   1      45.710  27.674  30.899  1.00  0.00     0.031 C 
ATOM     70  C   UNL A   1      45.647  30.259  30.768  1.00  0.00     0.034 A 
BRANCH  57  71
ATOM     71  C   UNL A   1      42.542  27.922  34.659  1.00  0.00     0.023 A 
ATOM     72  C   UNL A   1      43.320  26.901  34.081  1.00  0.00     0.031 A 
ATOM     73  C   UNL A   1      41.859  27.567  35.848  1.00  0.00     0.131 A 
ATOM     74  C   UNL A   1      43.318  25.600  34.614  1.00  0.00     0.055 A 
ATOM     75  C   UNL A   1      41.908  26.287  36.405  1.00  0.00     0.041 A 
ATOM     76  F   UNL A   1      41.031  28.392  36.496  1.00  0.00    -0.206 F 
ATOM     77  C   UNL A   1      42.615  25.286  35.772  1.00  0.00     0.022 A 
BRANCH  74  78
ATOM     78  S   UNL A   1      44.123  24.282  33.671  1.00  0.00     0.124 S 
ATOM     79  O   UNL A   1      45.434  24.222  34.307  1.00  0.00    -0.237 OA
ATOM     80  O   UNL A   1      43.231  23.153  33.917  1.00  0.00    -0.237 OA
ATOM     81  O   UNL A   1      44.115  24.794  32.303  1.00  0.00    -0.744 OA
ENDBRANCH  74  78
ENDBRANCH  57  71
BRANCH  58  82
ATOM     82  C   UNL A   1      45.414  26.020  26.681  1.00  0.00     0.023 A 
ATOM     83  C   UNL A   1      44.690  24.802  26.693  1.00  0.00     0.031 A 
ATOM     84  C   UNL A   1      46.355  26.181  25.638  1.00  0.00     0.131 A 
ATOM     85  C   UNL A   1      44.921  23.821  25.692  1.00  0.00     0.055 A 
ATOM     86  C   UNL A   1      46.572  25.213  24.654  1.00  0.00     0.041 A 
ATOM     87  F   UNL A   1      47.033  27.329  25.492  1.00  0.00    -0.206 F 
ATOM     88  C   UNL A   1      45.850  24.031  24.671  1.00  0.00     0.022 A 
BRANCH  85  89
ATOM     89  S   UNL A   1      43.972  22.257  25.658  1.00  0.00     0.124 S 
ATOM     90  O   UNL A   1      43.609  22.076  27.058  1.00  0.00    -0.237 OA
ATOM     91  O   UNL A   1      42.884  22.572  24.739  1.00  0.00    -0.237 OA
ATOM     92  O   UNL A   1      44.937  21.280  25.147  1.00  0.00    -0.744 OA
ENDBRANCH  85  89
ENDBRANCH  58  82
BRANCH  70  93
ATOM     93  C   UNL A   1      46.014  31.413  29.852  1.00  0.00     0.023 A 
ATOM     94  C   UNL A   1      45.330  31.770  28.666  1.00  0.00     0.031 A 
ATOM     95  C   UNL A   1      47.080  32.231  30.261  1.00  0.00     0.131 A 
ATOM     96  C   UNL A   1      45.736  32.906  27.935  1.00  0.00     0.055 A 
ATOM     97  C   UNL A   1      47.461  33.367  29.550  1.00  0.00     0.041 A 
ATOM     98  F   UNL A   1      47.755  31.953  31.389  1.00  0.00    -0.206 F 
ATOM     99  C   UNL A   1      46.794  33.705  28.380  1.00  0.00     0.022 A 
BRANCH  96 100
ATOM    100  S   UNL A   1      44.904  33.360  26.376  1.00  0.00     0.124 S 
ATOM    101  O   UNL A   1      44.142  32.164  26.037  1.00  0.00    -0.237 OA
ATOM    102  O   UNL A   1      44.121  34.531  26.763  1.00  0.00    -0.237 OA
ATOM    103  O   UNL A   1      46.017  33.650  25.467  1.00  0.00    -0.744 OA
ENDBRANCH  96 100
ENDBRANCH  70  93
ENDBRANCH  44  45
ENDBRANCH  37  39
ENDBRANCH  36  37
ENDBRANCH  35  36
ENDBRANCH  34  35
ENDBRANCH  33  34
ENDBRANCH   1  33
TORSDOF 22
ENDMDL
MODEL 2
REMARK VINA RESULT:     -10.9      3.905      6.308
REMARK SMILES Cc1cnn(C2(C(=O)OCCOCCOCCOC(=O)c3ccc(-c4c5nc(c(-c6cc(S(=O)(=O)[O-])ccc6F)c6ccc([nH]6)c(-c6cc(S(=O)(=O)[O-])ccc6F)c6nc(c(-c7cc(S(=O)(=O)[O-])ccc7F)c7ccc4[nH]7)C=C6)C=C5)cc3)CCN(C(=O)c3cc4ccccc4[nH]3)CC2)c1
REMARK SMILES IDX 14 1 13 2 12 3 11 4 10 5 9 6 7 7 8 8 6 9 84 10 99 11 85 12
REMARK SMILES IDX 98 13 86 14 87 15 88 16 5 17 1 18 2 19 3 20 100 21 4 22
REMARK SMILES IDX 89 23 90 24 97 25 91 26 96 27 92 29 95 30 93 31 94 32 15 33
REMARK SMILES IDX 16 34 17 35 18 36 19 37 20 38 21 39 22 40 83 41 23 42 82 43
REMARK SMILES IDX 24 44 25 45 26 46 76 47 27 48 81 49 75 50 77 51 28 52 80 53
REMARK SMILES IDX 74 54 73 55 29 57 61 58 41 59 60 60 42 61 45 62 59 63 78 64
REMARK SMILES IDX 43 65 44 66 58 68 79 69 46 70 30 71 31 72 39 73 32 74 38 75
REMARK SMILES IDX 40 76 37 77 33 78 34 79 35 80 36 81 62 82 63 83 71 84 64 85
REMARK SMILES IDX 70 86 72 87 69 88 65 89 66 90 67 91 68 92 47 93 48 94 56 95
REMARK SMILES IDX 49 96 55 97 57 98 54 99 50 100 51 101 52 102 53 103
REMARK H PARENT 97 28 77 56 45 67
REMARK Flexibility Score: inf
ROOT
ATOM      1  C   UNL A   1      34.467  32.166  29.034  1.00  0.00     0.188 C 
ENDROOT
BRANCH   1   2
ATOM      2  C   UNL A   1      34.567  31.397  27.713  1.00  0.00     0.188 C 
BRANCH   2   3
ATOM      3  O   UNL A   1      33.404  30.818  27.168  1.00  0.00    -0.376 OA
BRANCH   3   4
ATOM      4  C   UNL A   1      33.183  29.433  27.374  1.00  0.00     0.202 C 
BRANCH   4   5
ATOM      5  C   UNL A   1      32.036  28.646  26.699  1.00  0.00     0.261 C 
BRANCH   5   6
ATOM      6  O   UNL A   1      31.695  28.999  25.341  1.00  0.00    -0.461 OA
BRANCH   6   7
ATOM      7  C   UNL A   1      32.505  28.525  24.357  1.00  0.00     0.334 C 
ATOM      8  O   UNL A   1      33.652  28.943  24.193  1.00  0.00    -0.249 OA
BRANCH   7   9
ATOM      9  C   UNL A   1      31.817  27.547  23.352  1.00  0.00     0.163 C 
ATOM     10  C   UNL A   1      32.568  27.235  22.030  1.00  0.00     0.064 C 
ATOM     11  C   UNL A   1      31.783  26.279  24.231  1.00  0.00     0.064 C 
ATOM     12  C   UNL A   1      32.174  25.921  21.363  1.00  0.00     0.123 C 
ATOM     13  C   UNL A   1      31.439  24.992  23.527  1.00  0.00     0.123 C 
ATOM     14  N   UNL A   1      32.190  24.810  22.291  1.00  0.00    -0.337 N 
ATOM     15  C   UNL A   1      32.854  23.634  21.927  1.00  0.00     0.270 C 
ATOM     16  O   UNL A   1      33.637  23.580  20.983  1.00  0.00    -0.267 OA
BRANCH   9  17
ATOM     17  N   UNL A   1      30.475  28.080  23.034  1.00  0.00    -0.255 N 
ATOM     18  C   UNL A   1      27.944  30.430  21.819  1.00  0.00     0.048 C 
ATOM     19  C   UNL A   1      28.772  29.354  22.405  1.00  0.00    -0.013 A 
ATOM     20  C   UNL A   1      28.359  28.256  23.178  1.00  0.00     0.138 A 
ATOM     21  C   UNL A   1      30.143  29.217  22.344  1.00  0.00     0.113 A 
ATOM     22  N   UNL A   1      29.385  27.520  23.604  1.00  0.00    -0.180 NA
ENDBRANCH   9  17
BRANCH  15  23
ATOM     23  C   UNL A   1      32.632  22.483  22.770  1.00  0.00     0.105 A 
ATOM     24  C   UNL A   1      32.936  22.269  24.103  1.00  0.00     0.042 A 
ATOM     25  N   UNL A   1      32.055  21.323  22.309  1.00  0.00    -0.351 N 
ATOM     26  C   UNL A   1      32.883  20.873  24.325  1.00  0.00     0.000 A 
ATOM     27  C   UNL A   1      32.283  20.303  23.204  1.00  0.00     0.046 A 
ATOM     28  H   UNL A   1      31.554  21.236  21.466  1.00  0.00     0.167 HD
ATOM     29  C   UNL A   1      33.328  20.041  25.366  1.00  0.00     0.010 A 
ATOM     30  C   UNL A   1      32.035  18.933  23.102  1.00  0.00     0.026 A 
ATOM     31  C   UNL A   1      33.134  18.663  25.258  1.00  0.00     0.001 A 
ATOM     32  C   UNL A   1      32.476  18.122  24.153  1.00  0.00     0.002 A 
ENDBRANCH  15  23
ENDBRANCH   7   9
ENDBRANCH   6   7
ENDBRANCH   5   6
ENDBRANCH   4   5
ENDBRANCH   3   4
ENDBRANCH   2   3
ENDBRANCH   1   2
BRANCH   1  33
ATOM     33  O   UNL A   1      33.557  33.236  29.178  1.00  0.00    -0.376 OA
BRANCH  33  34
ATOM     34  C   UNL A   1      33.898  34.613  29.178  1.00  0.00     0.202 C 
BRANCH  34  35
ATOM     35  C   UNL A   1      33.230  35.699  30.013  1.00  0.00     0.261 C 
BRANCH  35  36
ATOM     36  O   UNL A   1      33.771  35.894  31.293  1.00  0.00    -0.460 OA
BRANCH  36  37
ATOM     37  C   UNL A   1      33.305  35.052  32.235  1.00  0.00     0.338 C 
ATOM     38  O   UNL A   1      32.131  34.841  32.526  1.00  0.00    -0.246 OA
BRANCH  37  39
ATOM     39  C   UNL A   1      34.467  34.384  32.817  1.00  0.00     0.060 A 
ATOM     40  C   UNL A   1      35.522  35.175  33.272  1.00  0.00     0.016 A 
ATOM     41  C   UNL A   1      34.575  32.993  32.673  1.00  0.00     0.016 A 
ATOM     42  C   UNL A   1      36.776  34.610  33.293  1.00  0.00     0.010 A 
ATOM     43  C   UNL A   1      35.822  32.441  32.671  1.00  0.00     0.010 A 
ATOM     44  C   UNL A   1      36.908  33.288  32.858  1.00  0.00    -0.014 A 
BRANCH  44  45
ATOM     45  C   UNL A   1      38.226  32.743  32.628  1.00  0.00     0.031 A 
ATOM     46  C   UNL A   1      38.999  32.681  33.880  1.00  0.00     0.074 A 
ATOM     47  C   UNL A   1      38.580  32.249  31.423  1.00  0.00     0.049 A 
ATOM     48  N   UNL A   1      39.933  33.490  34.255  1.00  0.00    -0.248 NA
ATOM     49  C   UNL A   1      38.506  31.804  34.958  1.00  0.00     0.031 C 
ATOM     50  C   UNL A   1      37.741  32.104  30.227  1.00  0.00     0.029 A 
ATOM     51  N   UNL A   1      39.756  31.691  31.028  1.00  0.00    -0.354 N 
ATOM     52  C   UNL A   1      40.350  33.000  35.484  1.00  0.00     0.074 A 
ATOM     53  C   UNL A   1      39.265  32.204  35.979  1.00  0.00     0.031 C 
ATOM     54  C   UNL A   1      38.364  31.307  29.327  1.00  0.00     0.029 A 
ATOM     55  C   UNL A   1      39.699  30.998  29.817  1.00  0.00     0.049 A 
ATOM     56  H   UNL A   1      40.585  31.770  31.555  1.00  0.00     0.167 HD
ATOM     57  C   UNL A   1      41.675  32.967  35.786  1.00  0.00     0.034 A 
ATOM     58  C   UNL A   1      40.671  30.211  29.273  1.00  0.00     0.034 A 
ATOM     59  C   UNL A   1      42.416  33.824  34.883  1.00  0.00     0.049 A 
ATOM     60  C   UNL A   1      41.942  30.641  29.900  1.00  0.00     0.074 A 
ATOM     61  C   UNL A   1      42.471  35.178  34.628  1.00  0.00     0.029 A 
ATOM     62  N   UNL A   1      42.951  33.191  33.785  1.00  0.00    -0.354 N 
ATOM     63  N   UNL A   1      42.457  31.825  29.709  1.00  0.00    -0.248 NA
ATOM     64  C   UNL A   1      42.406  29.958  31.099  1.00  0.00     0.031 C 
ATOM     65  C   UNL A   1      42.741  35.295  33.230  1.00  0.00     0.029 A 
ATOM     66  C   UNL A   1      42.911  34.017  32.692  1.00  0.00     0.049 A 
ATOM     67  H   UNL A   1      43.310  32.275  33.784  1.00  0.00     0.167 HD
ATOM     68  C   UNL A   1      42.932  32.212  30.951  1.00  0.00     0.074 A 
ATOM     69  C   UNL A   1      43.022  30.971  31.718  1.00  0.00     0.031 C 
ATOM     70  C   UNL A   1      42.910  33.528  31.321  1.00  0.00     0.034 A 
BRANCH  57  71
ATOM     71  C   UNL A   1      42.352  31.823  36.520  1.00  0.00     0.023 A 
ATOM     72  C   UNL A   1      43.172  32.170  37.610  1.00  0.00     0.031 A 
ATOM     73  C   UNL A   1      42.486  30.491  36.057  1.00  0.00     0.131 A 
ATOM     74  C   UNL A   1      44.122  31.267  38.118  1.00  0.00     0.055 A 
ATOM     75  C   UNL A   1      43.391  29.578  36.605  1.00  0.00     0.041 A 
ATOM     76  F   UNL A   1      41.830  30.009  34.997  1.00  0.00    -0.206 F 
ATOM     77  C   UNL A   1      44.238  29.973  37.621  1.00  0.00     0.022 A 
BRANCH  74  78
ATOM     78  S   UNL A   1      45.318  31.868  39.335  1.00  0.00     0.124 S 
ATOM     79  O   UNL A   1      45.333  30.774  40.299  1.00  0.00    -0.237 OA
ATOM     80  O   UNL A   1      46.517  32.030  38.518  1.00  0.00    -0.237 OA
ATOM     81  O   UNL A   1      44.717  33.112  39.811  1.00  0.00    -0.744 OA
ENDBRANCH  74  78
ENDBRANCH  57  71
BRANCH  58  82
ATOM     82  C   UNL A   1      40.514  28.919  28.537  1.00  0.00     0.023 A 
ATOM     83  C   UNL A   1      41.289  28.545  27.413  1.00  0.00     0.031 A 
ATOM     84  C   UNL A   1      39.733  27.901  29.129  1.00  0.00     0.131 A 
ATOM     85  C   UNL A   1      41.261  27.207  26.936  1.00  0.00     0.055 A 
ATOM     86  C   UNL A   1      39.715  26.585  28.658  1.00  0.00     0.041 A 
ATOM     87  F   UNL A   1      39.027  28.133  30.247  1.00  0.00    -0.206 F 
ATOM     88  C   UNL A   1      40.485  26.230  27.564  1.00  0.00     0.022 A 
BRANCH  85  89
ATOM     89  S   UNL A   1      42.281  26.684  25.510  1.00  0.00     0.124 S 
ATOM     90  O   UNL A   1      43.552  26.341  26.138  1.00  0.00    -0.237 OA
ATOM     91  O   UNL A   1      41.507  25.576  24.962  1.00  0.00    -0.237 OA
ATOM     92  O   UNL A   1      42.324  27.877  24.661  1.00  0.00    -0.744 OA
ENDBRANCH  85  89
ENDBRANCH  58  82
BRANCH  70  93
ATOM     93  C   UNL A   1      42.736  34.554  30.216  1.00  0.00     0.023 A 
ATOM     94  C   UNL A   1      43.784  35.126  29.455  1.00  0.00     0.031 A 
ATOM     95  C   UNL A   1      41.418  34.907  29.881  1.00  0.00     0.131 A 
ATOM     96  C   UNL A   1      43.483  36.026  28.411  1.00  0.00     0.055 A 
ATOM     97  C   UNL A   1      41.125  35.776  28.832  1.00  0.00     0.041 A 
ATOM     98  F   UNL A   1      40.383  34.381  30.556  1.00  0.00    -0.206 F 
ATOM     99  C   UNL A   1      42.158  36.344  28.097  1.00  0.00     0.022 A 
BRANCH  96 100
ATOM    100  S   UNL A   1      44.815  36.818  27.448  1.00  0.00     0.124 S 
ATOM    101  O   UNL A   1      45.854  37.061  28.441  1.00  0.00    -0.237 OA
ATOM    102  O   UNL A   1      45.119  35.808  26.437  1.00  0.00    -0.237 OA
ATOM    103  O   UNL A   1      44.181  38.029  26.920  1.00  0.00    -0.744 OA
ENDBRANCH  96 100
ENDBRANCH  70  93
ENDBRANCH  44  45
ENDBRANCH  37  39
ENDBRANCH  36  37
ENDBRANCH  35  36
ENDBRANCH  34  35
ENDBRANCH  33  34
ENDBRANCH   1  33
TORSDOF 22
ENDMDL
MODEL 3
REMARK VINA RESULT:     -10.8      4.463      8.230
REMARK SMILES Cc1cnn(C2(C(=O)OCCOCCOCCOC(=O)c3ccc(-c4c5nc(c(-c6cc(S(=O)(=O)[O-])ccc6F)c6ccc([nH]6)c(-c6cc(S(=O)(=O)[O-])ccc6F)c6nc(c(-c7cc(S(=O)(=O)[O-])ccc7F)c7ccc4[nH]7)C=C6)C=C5)cc3)CCN(C(=O)c3cc4ccccc4[nH]3)CC2)c1
REMARK SMILES IDX 14 1 13 2 12 3 11 4 10 5 9 6 7 7 8 8 6 9 84 10 99 11 85 12
REMARK SMILES IDX 98 13 86 14 87 15 88 16 5 17 1 18 2 19 3 20 100 21 4 22
REMARK SMILES IDX 89 23 90 24 97 25 91 26 96 27 92 29 95 30 93 31 94 32 15 33
REMARK SMILES IDX 16 34 17 35 18 36 19 37 20 38 21 39 22 40 83 41 23 42 82 43
REMARK SMILES IDX 24 44 25 45 26 46 76 47 27 48 81 49 75 50 77 51 28 52 80 53
REMARK SMILES IDX 74 54 73 55 29 57 61 58 41 59 60 60 42 61 45 62 59 63 78 64
REMARK SMILES IDX 43 65 44 66 58 68 79 69 46 70 30 71 31 72 39 73 32 74 38 75
REMARK SMILES IDX 40 76 37 77 33 78 34 79 35 80 36 81 62 82 63 83 71 84 64 85
REMARK SMILES IDX 70 86 72 87 69 88 65 89 66 90 67 91 68 92 47 93 48 94 56 95
REMARK SMILES IDX 49 96 55 97 57 98 54 99 50 100 51 101 52 102 53 103
REMARK H PARENT 97 28 77 56 45 67
REMARK Flexibility Score: inf
ROOT
ATOM      1  C   UNL A   1      32.814  36.056  29.628  1.00  0.00     0.188 C 
ENDROOT
BRANCH   1   2
ATOM      2  C   UNL A   1      32.709  35.997  31.154  1.00  0.00     0.188 C 
BRANCH   2   3
ATOM      3  O   UNL A   1      33.182  34.856  31.830  1.00  0.00    -0.376 OA
BRANCH   3   4
ATOM      4  C   UNL A   1      34.316  34.992  32.669  1.00  0.00     0.202 C 
BRANCH   4   5
ATOM      5  C   UNL A   1      35.727  34.495  32.278  1.00  0.00     0.261 C 
BRANCH   5   6
ATOM      6  O   UNL A   1      36.719  34.414  33.324  1.00  0.00    -0.461 OA
BRANCH   6   7
ATOM      7  C   UNL A   1      37.403  33.245  33.437  1.00  0.00     0.334 C 
ATOM      8  O   UNL A   1      36.837  32.152  33.457  1.00  0.00    -0.249 OA
BRANCH   7   9
ATOM      9  C   UNL A   1      38.933  33.402  33.714  1.00  0.00     0.163 C 
ATOM     10  C   UNL A   1      39.826  32.146  33.527  1.00  0.00     0.064 C 
ATOM     11  C   UNL A   1      39.273  34.437  32.623  1.00  0.00     0.064 C 
ATOM     12  C   UNL A   1      41.300  32.440  33.264  1.00  0.00     0.123 C 
ATOM     13  C   UNL A   1      40.739  34.665  32.357  1.00  0.00     0.123 C 
ATOM     14  N   UNL A   1      41.483  33.419  32.214  1.00  0.00    -0.337 N 
ATOM     15  C   UNL A   1      42.390  33.146  31.185  1.00  0.00     0.270 C 
ATOM     16  O   UNL A   1      42.845  32.023  30.983  1.00  0.00    -0.267 OA
BRANCH   9  17
ATOM     17  N   UNL A   1      39.102  33.917  35.090  1.00  0.00    -0.255 N 
ATOM     18  C   UNL A   1      39.018  33.948  38.750  1.00  0.00     0.048 C 
ATOM     19  C   UNL A   1      39.102  34.180  37.292  1.00  0.00    -0.013 A 
ATOM     20  C   UNL A   1      39.316  35.391  36.611  1.00  0.00     0.138 A 
ATOM     21  C   UNL A   1      38.954  33.255  36.281  1.00  0.00     0.113 A 
ATOM     22  N   UNL A   1      39.262  35.245  35.287  1.00  0.00    -0.180 NA
ENDBRANCH   9  17
BRANCH  15  23
ATOM     23  C   UNL A   1      42.719  34.244  30.308  1.00  0.00     0.105 A 
ATOM     24  C   UNL A   1      43.664  35.247  30.434  1.00  0.00     0.042 A 
ATOM     25  N   UNL A   1      42.057  34.477  29.126  1.00  0.00    -0.351 N 
ATOM     26  C   UNL A   1      43.310  36.272  29.526  1.00  0.00     0.000 A 
ATOM     27  C   UNL A   1      42.330  35.751  28.683  1.00  0.00     0.046 A 
ATOM     28  H   UNL A   1      41.475  33.830  28.666  1.00  0.00     0.167 HD
ATOM     29  C   UNL A   1      43.710  37.610  29.372  1.00  0.00     0.010 A 
ATOM     30  C   UNL A   1      41.776  36.485  27.633  1.00  0.00     0.026 A 
ATOM     31  C   UNL A   1      43.130  38.376  28.358  1.00  0.00     0.001 A 
ATOM     32  C   UNL A   1      42.195  37.812  27.489  1.00  0.00     0.002 A 
ENDBRANCH  15  23
ENDBRANCH   7   9
ENDBRANCH   6   7
ENDBRANCH   5   6
ENDBRANCH   4   5
ENDBRANCH   3   4
ENDBRANCH   2   3
ENDBRANCH   1   2
BRANCH   1  33
ATOM     33  O   UNL A   1      33.982  35.611  28.968  1.00  0.00    -0.376 OA
BRANCH  33  34
ATOM     34  C   UNL A   1      34.144  34.348  28.343  1.00  0.00     0.202 C 
BRANCH  34  35
ATOM     35  C   UNL A   1      34.554  33.055  29.037  1.00  0.00     0.261 C 
BRANCH  35  36
ATOM     36  O   UNL A   1      35.935  32.810  29.091  1.00  0.00    -0.460 OA
BRANCH  36  37
ATOM     37  C   UNL A   1      36.319  31.634  28.561  1.00  0.00     0.338 C 
ATOM     38  O   UNL A   1      35.956  31.148  27.493  1.00  0.00    -0.246 OA
BRANCH  37  39
ATOM     39  C   UNL A   1      37.304  31.059  29.474  1.00  0.00     0.060 A 
ATOM     40  C   UNL A   1      38.495  31.753  29.680  1.00  0.00     0.016 A 
ATOM     41  C   UNL A   1      37.115  29.740  29.910  1.00  0.00     0.016 A 
ATOM     42  C   UNL A   1      39.600  31.023  30.051  1.00  0.00     0.010 A 
ATOM     43  C   UNL A   1      38.217  29.012  30.254  1.00  0.00     0.010 A 
ATOM     44  C   UNL A   1      39.455  29.640  30.196  1.00  0.00    -0.014 A 
BRANCH  44  45
ATOM     45  C   UNL A   1      40.630  28.812  30.338  1.00  0.00     0.031 A 
ATOM     46  C   UNL A   1      40.945  28.577  31.757  1.00  0.00     0.074 A 
ATOM     47  C   UNL A   1      41.227  28.253  29.264  1.00  0.00     0.049 A 
ATOM     48  N   UNL A   1      41.866  29.154  32.452  1.00  0.00    -0.248 NA
ATOM     49  C   UNL A   1      39.965  27.832  32.570  1.00  0.00     0.031 C 
ATOM     50  C   UNL A   1      40.789  28.302  27.863  1.00  0.00     0.029 A 
ATOM     51  N   UNL A   1      42.319  27.445  29.204  1.00  0.00    -0.354 N 
ATOM     52  C   UNL A   1      41.765  28.581  33.712  1.00  0.00     0.074 A 
ATOM     53  C   UNL A   1      40.437  28.049  33.798  1.00  0.00     0.031 C 
ATOM     54  C   UNL A   1      41.475  27.385  27.139  1.00  0.00     0.029 A 
ATOM     55  C   UNL A   1      42.493  26.783  27.987  1.00  0.00     0.049 A 
ATOM     56  H   UNL A   1      42.940  27.334  29.961  1.00  0.00     0.167 HD
ATOM     57  C   UNL A   1      42.893  28.250  34.397  1.00  0.00     0.034 A 
ATOM     58  C   UNL A   1      43.394  25.798  27.707  1.00  0.00     0.034 A 
ATOM     59  C   UNL A   1      44.042  28.919  33.824  1.00  0.00     0.049 A 
ATOM     60  C   UNL A   1      44.469  25.929  28.717  1.00  0.00     0.074 A 
ATOM     61  C   UNL A   1      44.462  30.226  33.693  1.00  0.00     0.029 A 
ATOM     62  N   UNL A   1      44.743  28.183  32.896  1.00  0.00    -0.354 N 
ATOM     63  N   UNL A   1      45.258  26.967  28.776  1.00  0.00    -0.248 NA
ATOM     64  C   UNL A   1      44.380  25.158  29.950  1.00  0.00     0.031 C 
ATOM     65  C   UNL A   1      45.171  30.280  32.455  1.00  0.00     0.029 A 
ATOM     66  C   UNL A   1      45.223  28.998  31.904  1.00  0.00     0.049 A 
ATOM     67  H   UNL A   1      44.880  27.209  32.939  1.00  0.00     0.167 HD
ATOM     68  C   UNL A   1      45.396  27.236  30.128  1.00  0.00     0.074 A 
ATOM     69  C   UNL A   1      44.976  26.006  30.796  1.00  0.00     0.031 C 
ATOM     70  C   UNL A   1      45.542  28.523  30.566  1.00  0.00     0.034 A 
BRANCH  57  71
ATOM     71  C   UNL A   1      43.047  26.982  35.218  1.00  0.00     0.023 A 
ATOM     72  C   UNL A   1      43.820  25.952  34.648  1.00  0.00     0.031 A 
ATOM     73  C   UNL A   1      42.270  26.609  36.342  1.00  0.00     0.131 A 
ATOM     74  C   UNL A   1      43.728  24.632  35.122  1.00  0.00     0.055 A 
ATOM     75  C   UNL A   1      42.228  25.306  36.845  1.00  0.00     0.041 A 
ATOM     76  F   UNL A   1      41.435  27.442  36.969  1.00  0.00    -0.206 F 
ATOM     77  C   UNL A   1      42.936  24.302  36.216  1.00  0.00     0.022 A 
BRANCH  74  78
ATOM     78  S   UNL A   1      44.540  23.320  34.177  1.00  0.00     0.124 S 
ATOM     79  O   UNL A   1      44.330  22.162  35.039  1.00  0.00    -0.237 OA
ATOM     80  O   UNL A   1      43.787  23.343  32.927  1.00  0.00    -0.237 OA
ATOM     81  O   UNL A   1      45.923  23.782  34.079  1.00  0.00    -0.744 OA
ENDBRANCH  74  78
ENDBRANCH  57  71
BRANCH  58  82
ATOM     82  C   UNL A   1      43.201  24.575  26.869  1.00  0.00     0.023 A 
ATOM     83  C   UNL A   1      44.181  24.048  25.992  1.00  0.00     0.031 A 
ATOM     84  C   UNL A   1      42.088  23.747  27.137  1.00  0.00     0.131 A 
ATOM     85  C   UNL A   1      44.021  22.751  25.435  1.00  0.00     0.055 A 
ATOM     86  C   UNL A   1      41.940  22.469  26.589  1.00  0.00     0.041 A 
ATOM     87  F   UNL A   1      41.145  24.121  28.016  1.00  0.00    -0.206 F 
ATOM     88  C   UNL A   1      42.910  21.962  25.742  1.00  0.00     0.022 A 
BRANCH  85  89
ATOM     89  S   UNL A   1      45.289  22.028  24.332  1.00  0.00     0.124 S 
ATOM     90  O   UNL A   1      45.869  23.207  23.700  1.00  0.00    -0.237 OA
ATOM     91  O   UNL A   1      46.143  21.307  25.269  1.00  0.00    -0.237 OA
ATOM     92  O   UNL A   1      44.514  21.172  23.431  1.00  0.00    -0.744 OA
ENDBRANCH  85  89
ENDBRANCH  58  82
BRANCH  70  93
ATOM     93  C   UNL A   1      45.944  29.563  29.536  1.00  0.00     0.023 A 
ATOM     94  C   UNL A   1      45.070  30.183  28.612  1.00  0.00     0.031 A 
ATOM     95  C   UNL A   1      47.283  29.988  29.555  1.00  0.00     0.131 A 
ATOM     96  C   UNL A   1      45.559  31.183  27.744  1.00  0.00     0.055 A 
ATOM     97  C   UNL A   1      47.755  30.993  28.714  1.00  0.00     0.041 A 
ATOM     98  F   UNL A   1      48.154  29.448  30.423  1.00  0.00    -0.206 F 
ATOM     99  C   UNL A   1      46.896  31.591  27.801  1.00  0.00     0.022 A 
BRANCH  96 100
ATOM    100  S   UNL A   1      44.467  31.964  26.509  1.00  0.00     0.124 S 
ATOM    101  O   UNL A   1      43.482  30.928  26.224  1.00  0.00    -0.237 OA
ATOM    102  O   UNL A   1      43.973  33.140  27.221  1.00  0.00    -0.237 OA
ATOM    103  O   UNL A   1      45.371  32.267  25.397  1.00  0.00    -0.744 OA
ENDBRANCH  96 100
ENDBRANCH  70  93
ENDBRANCH  44  45
ENDBRANCH  37  39
ENDBRANCH  36  37
ENDBRANCH  35  36
ENDBRANCH  34  35
ENDBRANCH  33  34
ENDBRANCH   1  33
TORSDOF 22
ENDMDL
