MODEL 1
REMARK VINA RESULT:     -10.5      0.000      0.000
REMARK SMILES COc1c(C)cccc1C(=O)NCc1ccc(C(=O)OCCOCCOCCOC(=O)c2ccc(-c3c4nc(c(-c5cc(S(=O)(=O)[O-])ccc5F)c5ccc([nH]5)c(-c5cc(S(=O)(=O)[O-])ccc5F)c5nc(c(-c6cc(S(=O)(=O)[O-])ccc6F)c6ccc3[nH]6)C=C5)C=C4)cc2)cc1
REMARK SMILES IDX 24 1 23 2 22 3 21 4 20 5 18 6 19 7 17 8 14 9 15 10 96 11
REMARK SMILES IDX 16 12 95 13 13 14 12 15 10 16 11 17 9 19 3 20 4 21 5 22 6 23
REMARK SMILES IDX 8 24 7 25 2 26 1 27 25 28 26 29 27 30 28 31 29 32 30 33
REMARK SMILES IDX 31 34 32 35 33 36 94 37 34 38 93 39 35 40 36 41 37 42 87 43
REMARK SMILES IDX 38 44 92 45 86 46 88 47 39 48 91 49 85 50 84 51 40 53 72 54
REMARK SMILES IDX 52 55 71 56 53 57 56 58 70 59 89 60 54 61 55 62 69 64 90 65
REMARK SMILES IDX 57 66 41 67 42 68 50 69 43 70 49 71 51 72 48 73 44 74 45 75
REMARK SMILES IDX 46 76 47 77 73 78 74 79 82 80 75 81 81 82 83 83 80 84 76 85
REMARK SMILES IDX 77 86 78 87 79 88 58 89 59 90 67 91 60 92 66 93 68 94 65 95
REMARK SMILES IDX 61 96 62 97 63 98 64 99
REMARK H PARENT 12 18 88 52 56 63
REMARK Flexibility Score: inf
ROOT
ATOM      1  C   UNL A   1      37.926  21.631  25.612  1.00  0.00     0.188 C 
ENDROOT
BRANCH   1   2
ATOM      2  O   UNL A   1      36.659  22.074  25.140  1.00  0.00    -0.376 OA
BRANCH   2   3
ATOM      3  C   UNL A   1      35.624  21.443  25.872  1.00  0.00     0.202 C 
BRANCH   3   4
ATOM      4  C   UNL A   1      34.765  20.483  25.042  1.00  0.00     0.261 C 
BRANCH   4   5
ATOM      5  O   UNL A   1      33.556  21.083  24.098  1.00  0.00    -0.460 OA
BRANCH   5   6
ATOM      6  C   UNL A   1      32.572  21.951  23.573  1.00  0.00     0.338 C 
ATOM      7  O   UNL A   1      32.663  22.068  22.342  1.00  0.00    -0.246 OA
BRANCH   6   8
ATOM      8  C   UNL A   1      31.284  22.832  24.127  1.00  0.00     0.060 A 
ATOM      9  C   UNL A   1      30.591  25.227  25.655  1.00  0.00    -0.029 A 
ATOM     10  C   UNL A   1      30.868  24.003  26.270  1.00  0.00     0.006 A 
ATOM     11  C   UNL A   1      30.467  25.173  24.281  1.00  0.00     0.006 A 
ATOM     12  C   UNL A   1      31.203  22.847  25.525  1.00  0.00     0.016 A 
ATOM     13  C   UNL A   1      30.613  23.942  23.575  1.00  0.00     0.016 A 
BRANCH   9  14
ATOM     14  C   UNL A   1      30.507  26.486  26.483  1.00  0.00     0.152 C 
BRANCH  14  15
ATOM     15  N   UNL A   1      31.673  27.106  27.106  1.00  0.00    -0.348 N 
ATOM     16  C   UNL A   1      32.871  27.574  26.618  1.00  0.00     0.255 C 
ATOM     17  O   UNL A   1      33.514  28.377  27.294  1.00  0.00    -0.269 OA
ATOM     18  H   UNL A   1      31.583  27.212  28.081  1.00  0.00     0.164 HD
BRANCH  16  19
ATOM     19  C   UNL A   1      33.505  26.919  25.460  1.00  0.00     0.082 A 
ATOM     20  C   UNL A   1      33.280  27.317  24.123  1.00  0.00     0.134 A 
ATOM     21  C   UNL A   1      33.592  26.392  23.112  1.00  0.00    -0.008 A 
ATOM     22  C   UNL A   1      33.293  26.477  21.641  1.00  0.00     0.048 C 
ATOM     23  C   UNL A   1      34.206  25.165  23.480  1.00  0.00     0.007 A 
ATOM     24  C   UNL A   1      34.186  25.732  25.792  1.00  0.00     0.018 A 
ATOM     25  C   UNL A   1      34.551  24.854  24.791  1.00  0.00     0.001 A 
BRANCH  20  26
ATOM     26  O   UNL A   1      32.943  28.633  23.973  1.00  0.00    -0.496 OA
ATOM     27  C   UNL A   1      31.640  29.037  23.602  1.00  0.00     0.278 C 
ENDBRANCH  20  26
ENDBRANCH  16  19
ENDBRANCH  14  15
ENDBRANCH   9  14
ENDBRANCH   6   8
ENDBRANCH   5   6
ENDBRANCH   4   5
ENDBRANCH   3   4
ENDBRANCH   2   3
ENDBRANCH   1   2
BRANCH   1  28
ATOM     28  C   UNL A   1      38.829  22.776  26.091  1.00  0.00     0.188 C 
BRANCH  28  29
ATOM     29  O   UNL A   1      40.171  22.410  26.405  1.00  0.00    -0.376 OA
BRANCH  29  30
ATOM     30  C   UNL A   1      40.354  21.182  27.101  1.00  0.00     0.202 C 
BRANCH  30  31
ATOM     31  C   UNL A   1      41.042  20.217  26.151  1.00  0.00     0.261 C 
BRANCH  31  32
ATOM     32  O   UNL A   1      42.448  20.101  26.479  1.00  0.00    -0.460 OA
BRANCH  32  33
ATOM     33  C   UNL A   1      43.282  20.193  25.403  1.00  0.00     0.338 C 
ATOM     34  O   UNL A   1      43.551  19.279  24.658  1.00  0.00    -0.246 OA
BRANCH  33  35
ATOM     35  C   UNL A   1      43.894  21.563  25.362  1.00  0.00     0.060 A 
ATOM     36  C   UNL A   1      44.984  21.781  26.158  1.00  0.00     0.016 A 
ATOM     37  C   UNL A   1      43.299  22.684  24.775  1.00  0.00     0.016 A 
ATOM     38  C   UNL A   1      45.303  23.104  26.512  1.00  0.00     0.010 A 
ATOM     39  C   UNL A   1      43.588  24.000  25.239  1.00  0.00     0.010 A 
ATOM     40  C   UNL A   1      44.518  24.252  26.264  1.00  0.00    -0.014 A 
BRANCH  40  41
ATOM     41  C   UNL A   1      44.458  25.701  26.987  1.00  0.00     0.031 A 
ATOM     42  C   UNL A   1      43.078  26.239  27.146  1.00  0.00     0.074 A 
ATOM     43  C   UNL A   1      45.391  26.681  27.446  1.00  0.00     0.049 A 
ATOM     44  N   UNL A   1      42.834  27.383  27.673  1.00  0.00    -0.248 NA
ATOM     45  C   UNL A   1      41.886  25.610  26.605  1.00  0.00     0.031 C 
ATOM     46  C   UNL A   1      45.208  27.551  28.657  1.00  0.00     0.029 A 
ATOM     47  N   UNL A   1      46.760  26.942  27.252  1.00  0.00    -0.354 N 
ATOM     48  C   UNL A   1      41.502  27.604  27.704  1.00  0.00     0.074 A 
ATOM     49  C   UNL A   1      40.936  26.442  27.052  1.00  0.00     0.031 C 
ATOM     50  C   UNL A   1      46.318  28.255  28.954  1.00  0.00     0.029 A 
ATOM     51  C   UNL A   1      47.327  27.966  27.970  1.00  0.00     0.049 A 
ATOM     52  H   UNL A   1      47.294  26.407  26.620  1.00  0.00     0.167 HD
ATOM     53  C   UNL A   1      41.072  28.732  28.328  1.00  0.00     0.034 A 
ATOM     54  C   UNL A   1      48.360  28.743  27.545  1.00  0.00     0.034 A 
ATOM     55  C   UNL A   1      42.169  29.644  28.703  1.00  0.00     0.049 A 
ATOM     56  C   UNL A   1      47.735  30.102  27.366  1.00  0.00     0.074 A 
ATOM     57  C   UNL A   1      42.872  29.839  29.882  1.00  0.00     0.029 A 
ATOM     58  N   UNL A   1      42.848  30.382  27.728  1.00  0.00    -0.354 N 
ATOM     59  N   UNL A   1      46.442  30.235  27.230  1.00  0.00    -0.248 NA
ATOM     60  C   UNL A   1      48.441  31.376  27.397  1.00  0.00     0.031 C 
ATOM     61  C   UNL A   1      43.989  30.667  29.601  1.00  0.00     0.029 A 
ATOM     62  C   UNL A   1      43.971  31.003  28.254  1.00  0.00     0.049 A 
ATOM     63  H   UNL A   1      42.564  30.452  26.787  1.00  0.00     0.167 HD
ATOM     64  C   UNL A   1      46.120  31.546  27.344  1.00  0.00     0.074 A 
ATOM     65  C   UNL A   1      47.405  32.237  27.357  1.00  0.00     0.031 C 
ATOM     66  C   UNL A   1      44.824  31.943  27.512  1.00  0.00     0.034 A 
BRANCH  53  67
ATOM     67  C   UNL A   1      39.692  28.780  28.911  1.00  0.00     0.023 A 
ATOM     68  C   UNL A   1      38.877  29.879  28.593  1.00  0.00     0.031 A 
ATOM     69  C   UNL A   1      39.187  27.893  29.877  1.00  0.00     0.131 A 
ATOM     70  C   UNL A   1      37.707  30.143  29.315  1.00  0.00     0.055 A 
ATOM     71  C   UNL A   1      38.054  28.185  30.642  1.00  0.00     0.041 A 
ATOM     72  F   UNL A   1      39.761  26.701  30.100  1.00  0.00    -0.206 F 
ATOM     73  C   UNL A   1      37.318  29.331  30.377  1.00  0.00     0.022 A 
BRANCH  70  74
ATOM     74  S   UNL A   1      36.721  31.588  28.852  1.00  0.00     0.124 S 
ATOM     75  O   UNL A   1      36.097  31.148  27.608  1.00  0.00    -0.237 OA
ATOM     76  O   UNL A   1      35.834  31.732  30.002  1.00  0.00    -0.237 OA
ATOM     77  O   UNL A   1      37.721  32.644  28.705  1.00  0.00    -0.744 OA
ENDBRANCH  70  74
ENDBRANCH  53  67
BRANCH  54  78
ATOM     78  C   UNL A   1      49.430  28.142  26.682  1.00  0.00     0.023 A 
ATOM     79  C   UNL A   1      49.300  28.179  25.267  1.00  0.00     0.031 A 
ATOM     80  C   UNL A   1      50.655  27.687  27.190  1.00  0.00     0.131 A 
ATOM     81  C   UNL A   1      50.397  27.877  24.427  1.00  0.00     0.055 A 
ATOM     82  C   UNL A   1      51.738  27.379  26.350  1.00  0.00     0.041 A 
ATOM     83  F   UNL A   1      50.857  27.609  28.513  1.00  0.00    -0.206 F 
ATOM     84  C   UNL A   1      51.626  27.514  24.969  1.00  0.00     0.022 A 
BRANCH  81  85
ATOM     85  S   UNL A   1      50.298  27.993  22.608  1.00  0.00     0.124 S 
ATOM     86  O   UNL A   1      48.859  28.013  22.368  1.00  0.00    -0.237 OA
ATOM     87  O   UNL A   1      50.996  29.241  22.313  1.00  0.00    -0.237 OA
ATOM     88  O   UNL A   1      50.982  26.781  22.165  1.00  0.00    -0.744 OA
ENDBRANCH  81  85
ENDBRANCH  54  78
BRANCH  66  89
ATOM     89  C   UNL A   1      44.376  33.353  27.280  1.00  0.00     0.023 A 
ATOM     90  C   UNL A   1      44.559  34.361  28.238  1.00  0.00     0.031 A 
ATOM     91  C   UNL A   1      43.808  33.755  26.054  1.00  0.00     0.131 A 
ATOM     92  C   UNL A   1      44.048  35.649  28.037  1.00  0.00     0.055 A 
ATOM     93  C   UNL A   1      43.379  35.061  25.820  1.00  0.00     0.041 A 
ATOM     94  F   UNL A   1      43.669  32.907  25.026  1.00  0.00    -0.206 F 
ATOM     95  C   UNL A   1      43.470  36.013  26.826  1.00  0.00     0.022 A 
BRANCH  92  96
ATOM     96  S   UNL A   1      44.092  36.799  29.432  1.00  0.00     0.124 S 
ATOM     97  O   UNL A   1      43.658  38.043  28.802  1.00  0.00    -0.237 OA
ATOM     98  O   UNL A   1      43.144  36.201  30.366  1.00  0.00    -0.237 OA
ATOM     99  O   UNL A   1      45.489  36.769  29.856  1.00  0.00    -0.744 OA
ENDBRANCH  92  96
ENDBRANCH  66  89
ENDBRANCH  40  41
ENDBRANCH  33  35
ENDBRANCH  32  33
ENDBRANCH  31  32
ENDBRANCH  30  31
ENDBRANCH  29  30
ENDBRANCH  28  29
ENDBRANCH   1  28
TORSDOF 24
ENDMDL
MODEL 2
REMARK VINA RESULT:     -10.4      1.691      2.271
REMARK SMILES COc1c(C)cccc1C(=O)NCc1ccc(C(=O)OCCOCCOCCOC(=O)c2ccc(-c3c4nc(c(-c5cc(S(=O)(=O)[O-])ccc5F)c5ccc([nH]5)c(-c5cc(S(=O)(=O)[O-])ccc5F)c5nc(c(-c6cc(S(=O)(=O)[O-])ccc6F)c6ccc3[nH]6)C=C5)C=C4)cc2)cc1
REMARK SMILES IDX 24 1 23 2 22 3 21 4 20 5 18 6 19 7 17 8 14 9 15 10 96 11
REMARK SMILES IDX 16 12 95 13 13 14 12 15 10 16 11 17 9 19 3 20 4 21 5 22 6 23
REMARK SMILES IDX 8 24 7 25 2 26 1 27 25 28 26 29 27 30 28 31 29 32 30 33
REMARK SMILES IDX 31 34 32 35 33 36 94 37 34 38 93 39 35 40 36 41 37 42 87 43
REMARK SMILES IDX 38 44 92 45 86 46 88 47 39 48 91 49 85 50 84 51 40 53 72 54
REMARK SMILES IDX 52 55 71 56 53 57 56 58 70 59 89 60 54 61 55 62 69 64 90 65
REMARK SMILES IDX 57 66 41 67 42 68 50 69 43 70 49 71 51 72 48 73 44 74 45 75
REMARK SMILES IDX 46 76 47 77 73 78 74 79 82 80 75 81 81 82 83 83 80 84 76 85
REMARK SMILES IDX 77 86 78 87 79 88 58 89 59 90 67 91 60 92 66 93 68 94 65 95
REMARK SMILES IDX 61 96 62 97 63 98 64 99
REMARK H PARENT 12 18 88 52 56 63
REMARK Flexibility Score: inf
ROOT
ATOM      1  C   UNL A   1      37.319  21.042  25.267  1.00  0.00     0.188 C 
ENDROOT
BRANCH   1   2
ATOM      2  O   UNL A   1      36.033  21.435  24.801  1.00  0.00    -0.376 OA
BRANCH   2   3
ATOM      3  C   UNL A   1      35.326  22.096  25.833  1.00  0.00     0.202 C 
BRANCH   3   4
ATOM      4  C   UNL A   1      34.004  21.426  26.217  1.00  0.00     0.261 C 
BRANCH   4   5
ATOM      5  O   UNL A   1      32.664  22.351  26.465  1.00  0.00    -0.460 OA
BRANCH   5   6
ATOM      6  C   UNL A   1      31.720  23.397  26.355  1.00  0.00     0.338 C 
ATOM      7  O   UNL A   1      31.632  24.058  27.400  1.00  0.00    -0.246 OA
BRANCH   6   8
ATOM      8  C   UNL A   1      30.720  24.038  25.201  1.00  0.00     0.060 A 
ATOM      9  C   UNL A   1      30.506  26.215  23.260  1.00  0.00    -0.029 A 
ATOM     10  C   UNL A   1      30.154  26.375  24.604  1.00  0.00     0.006 A 
ATOM     11  C   UNL A   1      30.762  24.914  22.876  1.00  0.00     0.006 A 
ATOM     12  C   UNL A   1      30.260  25.318  25.539  1.00  0.00     0.016 A 
ATOM     13  C   UNL A   1      30.662  23.837  23.808  1.00  0.00     0.016 A 
BRANCH   9  14
ATOM     14  C   UNL A   1      30.636  27.424  22.366  1.00  0.00     0.152 C 
BRANCH  14  15
ATOM     15  N   UNL A   1      31.922  28.032  22.036  1.00  0.00    -0.348 N 
ATOM     16  C   UNL A   1      33.199  27.874  22.524  1.00  0.00     0.255 C 
ATOM     17  O   UNL A   1      34.149  28.231  21.828  1.00  0.00    -0.269 OA
ATOM     18  H   UNL A   1      31.864  28.697  21.311  1.00  0.00     0.164 HD
BRANCH  16  19
ATOM     19  C   UNL A   1      33.412  27.555  23.948  1.00  0.00     0.082 A 
ATOM     20  C   UNL A   1      33.447  28.534  24.966  1.00  0.00     0.134 A 
ATOM     21  C   UNL A   1      34.052  28.177  26.184  1.00  0.00    -0.008 A 
ATOM     22  C   UNL A   1      34.386  29.057  27.356  1.00  0.00     0.048 C 
ATOM     23  C   UNL A   1      34.495  26.838  26.356  1.00  0.00     0.007 A 
ATOM     24  C   UNL A   1      33.784  26.215  24.171  1.00  0.00     0.018 A 
ATOM     25  C   UNL A   1      34.318  25.853  25.391  1.00  0.00     0.001 A 
BRANCH  20  26
ATOM     26  O   UNL A   1      32.726  29.662  24.693  1.00  0.00    -0.496 OA
ATOM     27  C   UNL A   1      31.534  29.978  25.386  1.00  0.00     0.278 C 
ENDBRANCH  20  26
ENDBRANCH  16  19
ENDBRANCH  14  15
ENDBRANCH   9  14
ENDBRANCH   6   8
ENDBRANCH   5   6
ENDBRANCH   4   5
ENDBRANCH   3   4
ENDBRANCH   2   3
ENDBRANCH   1   2
BRANCH   1  28
ATOM     28  C   UNL A   1      38.198  22.227  25.691  1.00  0.00     0.188 C 
BRANCH  28  29
ATOM     29  O   UNL A   1      39.599  21.964  25.744  1.00  0.00    -0.376 OA
BRANCH  29  30
ATOM     30  C   UNL A   1      40.084  21.314  26.913  1.00  0.00     0.202 C 
BRANCH  30  31
ATOM     31  C   UNL A   1      40.833  20.070  26.467  1.00  0.00     0.261 C 
BRANCH  31  32
ATOM     32  O   UNL A   1      42.251  20.215  26.719  1.00  0.00    -0.460 OA
BRANCH  32  33
ATOM     33  C   UNL A   1      43.020  20.242  25.592  1.00  0.00     0.338 C 
ATOM     34  O   UNL A   1      43.216  19.294  24.867  1.00  0.00    -0.246 OA
BRANCH  33  35
ATOM     35  C   UNL A   1      43.668  21.590  25.461  1.00  0.00     0.060 A 
ATOM     36  C   UNL A   1      44.862  21.771  26.102  1.00  0.00     0.016 A 
ATOM     37  C   UNL A   1      43.038  22.730  24.953  1.00  0.00     0.016 A 
ATOM     38  C   UNL A   1      45.271  23.081  26.404  1.00  0.00     0.010 A 
ATOM     39  C   UNL A   1      43.433  24.036  25.367  1.00  0.00     0.010 A 
ATOM     40  C   UNL A   1      44.499  24.256  26.257  1.00  0.00    -0.014 A 
BRANCH  40  41
ATOM     41  C   UNL A   1      44.587  25.707  26.974  1.00  0.00     0.031 A 
ATOM     42  C   UNL A   1      43.266  26.369  27.157  1.00  0.00     0.074 A 
ATOM     43  C   UNL A   1      45.615  26.598  27.409  1.00  0.00     0.049 A 
ATOM     44  N   UNL A   1      43.138  27.533  27.683  1.00  0.00    -0.248 NA
ATOM     45  C   UNL A   1      42.010  25.851  26.643  1.00  0.00     0.031 C 
ATOM     46  C   UNL A   1      45.537  27.486  28.619  1.00  0.00     0.029 A 
ATOM     47  N   UNL A   1      46.998  26.732  27.187  1.00  0.00    -0.354 N 
ATOM     48  C   UNL A   1      41.833  27.875  27.739  1.00  0.00     0.074 A 
ATOM     49  C   UNL A   1      41.149  26.768  27.105  1.00  0.00     0.031 C 
ATOM     50  C   UNL A   1      46.712  28.085  28.891  1.00  0.00     0.029 A 
ATOM     51  C   UNL A   1      47.671  27.702  27.888  1.00  0.00     0.049 A 
ATOM     52  H   UNL A   1      47.468  26.149  26.547  1.00  0.00     0.167 HD
ATOM     53  C   UNL A   1      41.520  29.040  28.365  1.00  0.00     0.034 A 
ATOM     54  C   UNL A   1      48.762  28.380  27.439  1.00  0.00     0.034 A 
ATOM     55  C   UNL A   1      42.704  29.849  28.714  1.00  0.00     0.049 A 
ATOM     56  C   UNL A   1      48.261  29.790  27.266  1.00  0.00     0.074 A 
ATOM     57  C   UNL A   1      43.446  29.982  29.878  1.00  0.00     0.029 A 
ATOM     58  N   UNL A   1      43.428  30.518  27.722  1.00  0.00    -0.354 N 
ATOM     59  N   UNL A   1      46.983  30.041  27.154  1.00  0.00    -0.248 NA
ATOM     60  C   UNL A   1      49.080  30.994  27.276  1.00  0.00     0.031 C 
ATOM     61  C   UNL A   1      44.628  30.704  29.571  1.00  0.00     0.029 A 
ATOM     62  C   UNL A   1      44.614  31.035  28.223  1.00  0.00     0.049 A 
ATOM     63  H   UNL A   1      43.133  30.611  26.787  1.00  0.00     0.167 HD
ATOM     64  C   UNL A   1      46.785  31.376  27.268  1.00  0.00     0.074 A 
ATOM     65  C   UNL A   1      48.127  31.946  27.252  1.00  0.00     0.031 C 
ATOM     66  C   UNL A   1      45.534  31.890  27.459  1.00  0.00     0.034 A 
BRANCH  53  67
ATOM     67  C   UNL A   1      40.163  29.216  28.975  1.00  0.00     0.023 A 
ATOM     68  C   UNL A   1      40.048  29.129  30.372  1.00  0.00     0.031 A 
ATOM     69  C   UNL A   1      38.958  29.314  28.259  1.00  0.00     0.131 A 
ATOM     70  C   UNL A   1      38.798  28.991  30.987  1.00  0.00     0.055 A 
ATOM     71  C   UNL A   1      37.711  29.115  28.862  1.00  0.00     0.041 A 
ATOM     72  F   UNL A   1      38.942  29.626  26.955  1.00  0.00    -0.206 F 
ATOM     73  C   UNL A   1      37.629  28.929  30.234  1.00  0.00     0.022 A 
BRANCH  70  74
ATOM     74  S   UNL A   1      38.739  28.869  32.791  1.00  0.00     0.124 S 
ATOM     75  O   UNL A   1      38.919  30.259  33.200  1.00  0.00    -0.237 OA
ATOM     76  O   UNL A   1      37.414  28.299  33.014  1.00  0.00    -0.237 OA
ATOM     77  O   UNL A   1      39.856  27.981  33.105  1.00  0.00    -0.744 OA
ENDBRANCH  70  74
ENDBRANCH  53  67
BRANCH  54  78
ATOM     78  C   UNL A   1      49.755  27.680  26.558  1.00  0.00     0.023 A 
ATOM     79  C   UNL A   1      49.842  28.022  25.181  1.00  0.00     0.031 A 
ATOM     80  C   UNL A   1      50.738  26.813  27.055  1.00  0.00     0.131 A 
ATOM     81  C   UNL A   1      50.933  27.592  24.392  1.00  0.00     0.055 A 
ATOM     82  C   UNL A   1      51.815  26.381  26.263  1.00  0.00     0.041 A 
ATOM     83  F   UNL A   1      50.723  26.430  28.339  1.00  0.00    -0.206 F 
ATOM     84  C   UNL A   1      51.939  26.803  24.942  1.00  0.00     0.022 A 
BRANCH  81  85
ATOM     85  S   UNL A   1      51.127  28.077  22.643  1.00  0.00     0.124 S 
ATOM     86  O   UNL A   1      52.072  29.185  22.722  1.00  0.00    -0.237 OA
ATOM     87  O   UNL A   1      51.642  26.863  22.014  1.00  0.00    -0.237 OA
ATOM     88  O   UNL A   1      49.769  28.448  22.253  1.00  0.00    -0.744 OA
ENDBRANCH  81  85
ENDBRANCH  54  78
BRANCH  66  89
ATOM     89  C   UNL A   1      45.213  33.335  27.229  1.00  0.00     0.023 A 
ATOM     90  C   UNL A   1      45.784  34.359  27.999  1.00  0.00     0.031 A 
ATOM     91  C   UNL A   1      44.370  33.745  26.176  1.00  0.00     0.131 A 
ATOM     92  C   UNL A   1      45.397  35.693  27.827  1.00  0.00     0.055 A 
ATOM     93  C   UNL A   1      44.053  35.084  25.948  1.00  0.00     0.041 A 
ATOM     94  F   UNL A   1      43.839  32.869  25.311  1.00  0.00    -0.206 F 
ATOM     95  C   UNL A   1      44.544  36.068  26.795  1.00  0.00     0.022 A 
BRANCH  92  96
ATOM     96  S   UNL A   1      45.979  36.901  29.041  1.00  0.00     0.124 S 
ATOM     97  O   UNL A   1      47.055  37.561  28.308  1.00  0.00    -0.237 OA
ATOM     98  O   UNL A   1      44.788  37.712  29.277  1.00  0.00    -0.237 OA
ATOM     99  O   UNL A   1      46.404  36.076  30.168  1.00  0.00    -0.744 OA
ENDBRANCH  92  96
ENDBRANCH  66  89
ENDBRANCH  40  41
ENDBRANCH  33  35
ENDBRANCH  32  33
ENDBRANCH  31  32
ENDBRANCH  30  31
ENDBRANCH  29  30
ENDBRANCH  28  29
ENDBRANCH   1  28
TORSDOF 24
ENDMDL
MODEL 3
REMARK VINA RESULT:     -10.0     11.043     14.805
REMARK SMILES COc1c(C)cccc1C(=O)NCc1ccc(C(=O)OCCOCCOCCOC(=O)c2ccc(-c3c4nc(c(-c5cc(S(=O)(=O)[O-])ccc5F)c5ccc([nH]5)c(-c5cc(S(=O)(=O)[O-])ccc5F)c5nc(c(-c6cc(S(=O)(=O)[O-])ccc6F)c6ccc3[nH]6)C=C5)C=C4)cc2)cc1
REMARK SMILES IDX 24 1 23 2 22 3 21 4 20 5 18 6 19 7 17 8 14 9 15 10 96 11
REMARK SMILES IDX 16 12 95 13 13 14 12 15 10 16 11 17 9 19 3 20 4 21 5 22 6 23
REMARK SMILES IDX 8 24 7 25 2 26 1 27 25 28 26 29 27 30 28 31 29 32 30 33
REMARK SMILES IDX 31 34 32 35 33 36 94 37 34 38 93 39 35 40 36 41 37 42 87 43
REMARK SMILES IDX 38 44 92 45 86 46 88 47 39 48 91 49 85 50 84 51 40 53 72 54
REMARK SMILES IDX 52 55 71 56 53 57 56 58 70 59 89 60 54 61 55 62 69 64 90 65
REMARK SMILES IDX 57 66 41 67 42 68 50 69 43 70 49 71 51 72 48 73 44 74 45 75
REMARK SMILES IDX 46 76 47 77 73 78 74 79 82 80 75 81 81 82 83 83 80 84 76 85
REMARK SMILES IDX 77 86 78 87 79 88 58 89 59 90 67 91 60 92 66 93 68 94 65 95
REMARK SMILES IDX 61 96 62 97 63 98 64 99
REMARK H PARENT 12 18 88 52 56 63
REMARK Flexibility Score: inf
ROOT
ATOM      1  C   UNL A   1      45.141  17.754  40.517  1.00  0.00     0.188 C 
ENDROOT
BRANCH   1   2
ATOM      2  O   UNL A   1      45.090  16.332  40.536  1.00  0.00    -0.376 OA
BRANCH   2   3
ATOM      3  C   UNL A   1      44.749  15.843  39.252  1.00  0.00     0.202 C 
BRANCH   3   4
ATOM      4  C   UNL A   1      43.243  15.796  38.978  1.00  0.00     0.261 C 
BRANCH   4   5
ATOM      5  O   UNL A   1      42.332  14.598  39.647  1.00  0.00    -0.460 OA
BRANCH   5   6
ATOM      6  C   UNL A   1      41.897  13.575  40.521  1.00  0.00     0.338 C 
ATOM      7  O   UNL A   1      41.695  12.508  39.923  1.00  0.00    -0.246 OA
BRANCH   6   8
ATOM      8  C   UNL A   1      41.624  13.371  42.141  1.00  0.00     0.060 A 
ATOM      9  C   UNL A   1      42.850  12.356  44.594  1.00  0.00    -0.029 A 
ATOM     10  C   UNL A   1      42.169  11.524  43.699  1.00  0.00     0.006 A 
ATOM     11  C   UNL A   1      42.724  13.707  44.344  1.00  0.00     0.006 A 
ATOM     12  C   UNL A   1      41.579  12.022  42.513  1.00  0.00     0.016 A 
ATOM     13  C   UNL A   1      41.946  14.185  43.246  1.00  0.00     0.016 A 
BRANCH   9  14
ATOM     14  C   UNL A   1      43.690  11.754  45.694  1.00  0.00     0.152 C 
BRANCH  14  15
ATOM     15  N   UNL A   1      45.124  11.513  45.557  1.00  0.00    -0.348 N 
ATOM     16  C   UNL A   1      46.239  12.294  45.758  1.00  0.00     0.255 C 
ATOM     17  O   UNL A   1      47.326  11.743  45.926  1.00  0.00    -0.269 OA
ATOM     18  H   UNL A   1      45.338  10.600  45.257  1.00  0.00     0.164 HD
BRANCH  16  19
ATOM     19  C   UNL A   1      46.184  13.743  45.493  1.00  0.00     0.082 A 
ATOM     20  C   UNL A   1      45.672  14.683  46.415  1.00  0.00     0.134 A 
ATOM     21  C   UNL A   1      45.294  15.941  45.913  1.00  0.00    -0.008 A 
ATOM     22  C   UNL A   1      44.565  17.050  46.619  1.00  0.00     0.048 C 
ATOM     23  C   UNL A   1      45.542  16.228  44.544  1.00  0.00     0.007 A 
ATOM     24  C   UNL A   1      46.494  14.080  44.161  1.00  0.00     0.018 A 
ATOM     25  C   UNL A   1      46.181  15.339  43.687  1.00  0.00     0.001 A 
BRANCH  20  26
ATOM     26  O   UNL A   1      45.770  14.304  47.724  1.00  0.00    -0.496 OA
ATOM     27  C   UNL A   1      44.629  14.082  48.529  1.00  0.00     0.278 C 
ENDBRANCH  20  26
ENDBRANCH  16  19
ENDBRANCH  14  15
ENDBRANCH   9  14
ENDBRANCH   6   8
ENDBRANCH   5   6
ENDBRANCH   4   5
ENDBRANCH   3   4
ENDBRANCH   2   3
ENDBRANCH   1   2
BRANCH   1  28
ATOM     28  C   UNL A   1      46.471  18.305  39.985  1.00  0.00     0.188 C 
BRANCH  28  29
ATOM     29  O   UNL A   1      46.641  18.241  38.570  1.00  0.00    -0.376 OA
BRANCH  29  30
ATOM     30  C   UNL A   1      47.153  19.405  37.933  1.00  0.00     0.202 C 
BRANCH  30  31
ATOM     31  C   UNL A   1      46.131  20.513  38.114  1.00  0.00     0.261 C 
BRANCH  31  32
ATOM     32  O   UNL A   1      45.842  21.148  36.845  1.00  0.00    -0.460 OA
BRANCH  32  33
ATOM     33  C   UNL A   1      45.680  22.501  36.920  1.00  0.00     0.338 C 
ATOM     34  O   UNL A   1      45.695  23.142  37.945  1.00  0.00    -0.246 OA
BRANCH  33  35
ATOM     35  C   UNL A   1      45.371  23.042  35.555  1.00  0.00     0.060 A 
ATOM     36  C   UNL A   1      46.332  23.808  34.957  1.00  0.00     0.016 A 
ATOM     37  C   UNL A   1      44.104  23.032  34.962  1.00  0.00     0.016 A 
ATOM     38  C   UNL A   1      45.947  24.696  33.937  1.00  0.00     0.010 A 
ATOM     39  C   UNL A   1      43.733  24.017  34.000  1.00  0.00     0.010 A 
ATOM     40  C   UNL A   1      44.623  25.010  33.554  1.00  0.00    -0.014 A 
BRANCH  40  41
ATOM     41  C   UNL A   1      43.990  26.299  32.803  1.00  0.00     0.031 A 
ATOM     42  C   UNL A   1      43.191  27.183  33.696  1.00  0.00     0.074 A 
ATOM     43  C   UNL A   1      43.902  26.792  31.465  1.00  0.00     0.049 A 
ATOM     44  N   UNL A   1      42.591  28.237  33.275  1.00  0.00    -0.248 NA
ATOM     45  C   UNL A   1      42.882  26.885  35.083  1.00  0.00     0.031 C 
ATOM     46  C   UNL A   1      43.926  28.242  31.073  1.00  0.00     0.029 A 
ATOM     47  N   UNL A   1      44.103  26.262  30.177  1.00  0.00    -0.354 N 
ATOM     48  C   UNL A   1      41.961  28.851  34.300  1.00  0.00     0.074 A 
ATOM     49  C   UNL A   1      42.201  27.983  35.434  1.00  0.00     0.031 C 
ATOM     50  C   UNL A   1      44.006  28.411  29.739  1.00  0.00     0.029 A 
ATOM     51  C   UNL A   1      44.002  27.117  29.108  1.00  0.00     0.049 A 
ATOM     52  H   UNL A   1      44.310  25.308  30.047  1.00  0.00     0.167 HD
ATOM     53  C   UNL A   1      41.363  30.043  34.039  1.00  0.00     0.034 A 
ATOM     54  C   UNL A   1      43.574  26.770  27.864  1.00  0.00     0.034 A 
ATOM     55  C   UNL A   1      41.334  30.378  32.603  1.00  0.00     0.049 A 
ATOM     56  C   UNL A   1      42.263  27.499  27.720  1.00  0.00     0.074 A 
ATOM     57  C   UNL A   1      42.151  31.159  31.799  1.00  0.00     0.029 A 
ATOM     58  N   UNL A   1      40.478  29.699  31.729  1.00  0.00    -0.354 N 
ATOM     59  N   UNL A   1      41.611  27.923  28.771  1.00  0.00    -0.248 NA
ATOM     60  C   UNL A   1      41.627  27.871  26.464  1.00  0.00     0.031 C 
ATOM     61  C   UNL A   1      41.801  30.921  30.445  1.00  0.00     0.029 A 
ATOM     62  C   UNL A   1      40.757  30.007  30.405  1.00  0.00     0.049 A 
ATOM     63  H   UNL A   1      39.767  29.081  32.017  1.00  0.00     0.167 HD
ATOM     64  C   UNL A   1      40.619  28.754  28.368  1.00  0.00     0.074 A 
ATOM     65  C   UNL A   1      40.605  28.625  26.915  1.00  0.00     0.031 C 
ATOM     66  C   UNL A   1      39.958  29.548  29.260  1.00  0.00     0.034 A 
BRANCH  53  67
ATOM     67  C   UNL A   1      41.166  31.035  35.145  1.00  0.00     0.023 A 
ATOM     68  C   UNL A   1      39.930  31.045  35.812  1.00  0.00     0.031 A 
ATOM     69  C   UNL A   1      42.059  32.067  35.478  1.00  0.00     0.131 A 
ATOM     70  C   UNL A   1      39.566  32.113  36.641  1.00  0.00     0.055 A 
ATOM     71  C   UNL A   1      41.677  33.166  36.255  1.00  0.00     0.041 A 
ATOM     72  F   UNL A   1      43.340  32.039  35.081  1.00  0.00    -0.206 F 
ATOM     73  C   UNL A   1      40.412  33.203  36.824  1.00  0.00     0.022 A 
BRANCH  70  74
ATOM     74  S   UNL A   1      37.950  32.056  37.453  1.00  0.00     0.124 S 
ATOM     75  O   UNL A   1      37.189  33.046  36.694  1.00  0.00    -0.237 OA
ATOM     76  O   UNL A   1      37.563  30.663  37.263  1.00  0.00    -0.237 OA
ATOM     77  O   UNL A   1      38.253  32.432  38.832  1.00  0.00    -0.744 OA
ENDBRANCH  70  74
ENDBRANCH  53  67
BRANCH  54  78
ATOM     78  C   UNL A   1      43.888  25.404  27.330  1.00  0.00     0.023 A 
ATOM     79  C   UNL A   1      42.943  24.352  27.478  1.00  0.00     0.031 A 
ATOM     80  C   UNL A   1      45.006  25.137  26.527  1.00  0.00     0.131 A 
ATOM     81  C   UNL A   1      43.080  23.143  26.758  1.00  0.00     0.055 A 
ATOM     82  C   UNL A   1      45.141  23.929  25.822  1.00  0.00     0.041 A 
ATOM     83  F   UNL A   1      45.951  26.069  26.344  1.00  0.00    -0.206 F 
ATOM     84  C   UNL A   1      44.159  22.946  25.901  1.00  0.00     0.022 A 
BRANCH  81  85
ATOM     85  S   UNL A   1      41.848  21.801  26.856  1.00  0.00     0.124 S 
ATOM     86  O   UNL A   1      40.636  22.509  27.254  1.00  0.00    -0.237 OA
ATOM     87  O   UNL A   1      41.835  21.257  25.501  1.00  0.00    -0.237 OA
ATOM     88  O   UNL A   1      42.408  20.914  27.873  1.00  0.00    -0.744 OA
ENDBRANCH  81  85
ENDBRANCH  54  78
BRANCH  66  89
ATOM     89  C   UNL A   1      38.644  30.194  28.944  1.00  0.00     0.023 A 
ATOM     90  C   UNL A   1      38.381  31.538  29.249  1.00  0.00     0.031 A 
ATOM     91  C   UNL A   1      37.626  29.501  28.258  1.00  0.00     0.131 A 
ATOM     92  C   UNL A   1      37.115  32.093  29.031  1.00  0.00     0.055 A 
ATOM     93  C   UNL A   1      36.394  30.083  27.959  1.00  0.00     0.041 A 
ATOM     94  F   UNL A   1      37.793  28.243  27.827  1.00  0.00    -0.206 F 
ATOM     95  C   UNL A   1      36.119  31.378  28.372  1.00  0.00     0.022 A 
BRANCH  92  96
ATOM     96  S   UNL A   1      36.790  33.740  29.703  1.00  0.00     0.124 S 
ATOM     97  O   UNL A   1      35.759  34.232  28.793  1.00  0.00    -0.237 OA
ATOM     98  O   UNL A   1      36.343  33.446  31.061  1.00  0.00    -0.237 OA
ATOM     99  O   UNL A   1      38.083  34.411  29.604  1.00  0.00    -0.744 OA
ENDBRANCH  92  96
ENDBRANCH  66  89
ENDBRANCH  40  41
ENDBRANCH  33  35
ENDBRANCH  32  33
ENDBRANCH  31  32
ENDBRANCH  30  31
ENDBRANCH  29  30
ENDBRANCH  28  29
ENDBRANCH   1  28
TORSDOF 24
ENDMDL
