MODEL 1
REMARK VINA RESULT:     -12.5      0.000      0.000
REMARK SMILES Cc1ccc(Nc2c(C)cccc2Cl)c(CC(=O)OCCOCCOCCOC(=O)c2ccc(-c3c4nc(c(-c5cc(S(=O)(=O)[O-])ccc5F)c5ccc([nH]5)c(-c5cc(S(=O)(=O)[O-])ccc5F)c5nc(c(-c6cc(S(=O)(=O)[O-])ccc6F)c6ccc3[nH]6)C=C5)C=C4)cc2)c1
REMARK SMILES IDX 23 1 22 2 21 3 20 4 19 5 17 6 18 7 16 8 15 9 1 10 2 11 3 12
REMARK SMILES IDX 94 13 4 14 5 15 6 16 7 18 8 19 13 20 9 21 10 22 12 23 14 24
REMARK SMILES IDX 11 25 24 26 25 27 26 28 27 29 28 30 29 31 30 32 31 33 32 34
REMARK SMILES IDX 93 35 33 36 92 37 34 38 35 39 36 40 86 41 37 42 91 43 85 44
REMARK SMILES IDX 87 45 38 46 90 47 84 48 83 49 39 51 71 52 51 53 70 54 52 55
REMARK SMILES IDX 55 56 69 57 88 58 53 59 54 60 68 62 89 63 56 64 40 65 41 66
REMARK SMILES IDX 49 67 42 68 48 69 50 70 47 71 43 72 44 73 45 74 46 75 72 76
REMARK SMILES IDX 73 77 81 78 74 79 80 80 82 81 79 82 75 83 76 84 77 85 78 86
REMARK SMILES IDX 57 87 58 88 66 89 59 90 65 91 67 92 64 93 60 94 61 95 62 96
REMARK SMILES IDX 63 97
REMARK H PARENT 6 17 87 50 55 61
REMARK Flexibility Score: inf
ROOT
ATOM      1  C   UNL A   1      34.345  27.103  25.961  1.00  0.00     0.188 C 
ENDROOT
BRANCH   1   2
ATOM      2  O   UNL A   1      33.332  28.071  25.934  1.00  0.00    -0.376 OA
BRANCH   2   3
ATOM      3  C   UNL A   1      32.156  27.905  26.685  1.00  0.00     0.202 C 
BRANCH   3   4
ATOM      4  C   UNL A   1      30.932  26.840  26.654  1.00  0.00     0.261 C 
BRANCH   4   5
ATOM      5  O   UNL A   1      30.603  25.052  26.823  1.00  0.00    -0.463 OA
BRANCH   5   6
ATOM      6  C   UNL A   1      31.286  23.542  26.824  1.00  0.00     0.310 C 
ATOM      7  O   UNL A   1      31.923  22.869  27.651  1.00  0.00    -0.252 OA
BRANCH   6   8
ATOM      8  C   UNL A   1      30.793  22.714  25.781  1.00  0.00     0.160 C 
BRANCH   8   9
ATOM      9  C   UNL A   1      31.977  22.634  24.890  1.00  0.00    -0.013 A 
ATOM     10  C   UNL A   1      33.090  18.948  25.042  1.00  0.00     0.044 C 
ATOM     11  C   UNL A   1      32.671  20.271  24.496  1.00  0.00    -0.051 A 
ATOM     12  C   UNL A   1      32.296  20.468  23.196  1.00  0.00     0.005 A 
ATOM     13  C   UNL A   1      32.536  21.356  25.331  1.00  0.00     0.009 A 
ATOM     14  C   UNL A   1      31.835  21.745  22.778  1.00  0.00     0.026 A 
ATOM     15  C   UNL A   1      31.837  23.152  23.569  1.00  0.00     0.042 A 
BRANCH  15  16
ATOM     16  N   UNL A   1      32.060  24.937  22.651  1.00  0.00    -0.354 N 
ATOM     17  H   UNL A   1      32.609  24.904  21.833  1.00  0.00     0.167 HD
BRANCH  16  18
ATOM     18  C   UNL A   1      31.419  26.623  23.066  1.00  0.00     0.060 A 
ATOM     19  C   UNL A   1      29.913  26.991  23.417  1.00  0.00    -0.026 A 
ATOM     20  C   UNL A   1      32.179  27.749  22.675  1.00  0.00     0.064 A 
ATOM     21  C   UNL A   1      28.608  26.239  23.834  1.00  0.00     0.046 C 
ATOM     22  C   UNL A   1      29.444  28.329  23.250  1.00  0.00     0.005 A 
ATOM     23  C   UNL A   1      31.585  29.041  22.526  1.00  0.00     0.023 A 
ATOM     24  Cl  UNL A   1      33.827  27.803  22.377  1.00  0.00    -0.082 Cl
ATOM     25  C   UNL A   1      30.248  29.325  22.765  1.00  0.00     0.002 A 
ENDBRANCH  16  18
ENDBRANCH  15  16
ENDBRANCH   8   9
ENDBRANCH   6   8
ENDBRANCH   5   6
ENDBRANCH   4   5
ENDBRANCH   3   4
ENDBRANCH   2   3
ENDBRANCH   1   2
BRANCH   1  26
ATOM     26  C   UNL A   1      34.008  25.683  25.574  1.00  0.00     0.188 C 
BRANCH  26  27
ATOM     27  O   UNL A   1      34.683  25.185  24.441  1.00  0.00    -0.376 OA
BRANCH  27  28
ATOM     28  C   UNL A   1      35.399  23.987  24.704  1.00  0.00     0.202 C 
BRANCH  28  29
ATOM     29  C   UNL A   1      36.105  23.799  26.118  1.00  0.00     0.261 C 
BRANCH  29  30
ATOM     30  O   UNL A   1      37.592  23.694  26.108  1.00  0.00    -0.460 OA
BRANCH  30  31
ATOM     31  C   UNL A   1      38.361  22.499  26.043  1.00  0.00     0.338 C 
ATOM     32  O   UNL A   1      37.760  21.466  25.811  1.00  0.00    -0.246 OA
BRANCH  31  33
ATOM     33  C   UNL A   1      40.073  22.781  26.218  1.00  0.00     0.060 A 
ATOM     34  C   UNL A   1      41.566  22.409  27.454  1.00  0.00     0.016 A 
ATOM     35  C   UNL A   1      39.632  24.530  26.155  1.00  0.00     0.016 A 
ATOM     36  C   UNL A   1      42.142  23.798  28.610  1.00  0.00     0.010 A 
ATOM     37  C   UNL A   1      40.193  25.662  27.341  1.00  0.00     0.010 A 
ATOM     38  C   UNL A   1      41.416  25.474  28.625  1.00  0.00    -0.014 A 
BRANCH  38  39
ATOM     39  C   UNL A   1      41.881  27.130  29.437  1.00  0.00     0.031 A 
ATOM     40  C   UNL A   1      40.704  28.619  29.760  1.00  0.00     0.074 A 
ATOM     41  C   UNL A   1      43.027  27.320  30.132  1.00  0.00     0.049 A 
ATOM     42  N   UNL A   1      40.653  29.775  29.108  1.00  0.00    -0.248 NA
ATOM     43  C   UNL A   1      39.141  28.580  30.389  1.00  0.00     0.031 C 
ATOM     44  C   UNL A   1      43.312  28.368  31.129  1.00  0.00     0.029 A 
ATOM     45  N   UNL A   1      44.175  26.545  30.185  1.00  0.00    -0.354 N 
ATOM     46  C   UNL A   1      39.406  30.410  29.425  1.00  0.00     0.074 A 
ATOM     47  C   UNL A   1      38.452  29.400  29.623  1.00  0.00     0.031 C 
ATOM     48  C   UNL A   1      44.631  28.369  31.412  1.00  0.00     0.029 A 
ATOM     49  C   UNL A   1      45.247  27.385  30.539  1.00  0.00     0.049 A 
ATOM     50  H   UNL A   1      44.230  25.578  30.008  1.00  0.00     0.167 HD
ATOM     51  C   UNL A   1      39.320  31.514  30.240  1.00  0.00     0.034 A 
ATOM     52  C   UNL A   1      46.160  27.604  29.559  1.00  0.00     0.034 A 
ATOM     53  C   UNL A   1      40.666  31.811  30.673  1.00  0.00     0.049 A 
ATOM     54  C   UNL A   1      45.853  28.987  28.986  1.00  0.00     0.074 A 
ATOM     55  C   UNL A   1      41.392  31.599  31.830  1.00  0.00     0.029 A 
ATOM     56  N   UNL A   1      41.585  31.946  29.660  1.00  0.00    -0.354 N 
ATOM     57  N   UNL A   1      44.704  29.612  29.134  1.00  0.00    -0.248 NA
ATOM     58  C   UNL A   1      46.877  29.864  28.435  1.00  0.00     0.031 C 
ATOM     59  C   UNL A   1      42.779  31.577  31.455  1.00  0.00     0.029 A 
ATOM     60  C   UNL A   1      42.871  31.739  30.079  1.00  0.00     0.049 A 
ATOM     61  H   UNL A   1      41.343  32.168  28.731  1.00  0.00     0.167 HD
ATOM     62  C   UNL A   1      44.845  30.940  28.857  1.00  0.00     0.074 A 
ATOM     63  C   UNL A   1      46.222  31.038  28.390  1.00  0.00     0.031 C 
ATOM     64  C   UNL A   1      43.895  31.909  29.065  1.00  0.00     0.034 A 
BRANCH  51  65
ATOM     65  C   UNL A   1      38.037  32.021  30.927  1.00  0.00     0.023 A 
ATOM     66  C   UNL A   1      37.056  32.622  30.121  1.00  0.00     0.031 A 
ATOM     67  C   UNL A   1      37.675  31.909  32.301  1.00  0.00     0.131 A 
ATOM     68  C   UNL A   1      35.832  33.085  30.649  1.00  0.00     0.055 A 
ATOM     69  C   UNL A   1      36.487  32.441  32.841  1.00  0.00     0.041 A 
ATOM     70  F   UNL A   1      38.419  31.231  33.187  1.00  0.00    -0.206 F 
ATOM     71  C   UNL A   1      35.547  33.021  32.009  1.00  0.00     0.022 A 
BRANCH  68  72
ATOM     72  S   UNL A   1      34.575  33.685  29.491  1.00  0.00     0.124 S 
ATOM     73  O   UNL A   1      35.340  34.622  28.676  1.00  0.00    -0.237 OA
ATOM     74  O   UNL A   1      34.149  32.454  28.837  1.00  0.00    -0.237 OA
ATOM     75  O   UNL A   1      33.574  34.296  30.364  1.00  0.00    -0.744 OA
ENDBRANCH  68  72
ENDBRANCH  51  65
BRANCH  52  76
ATOM     76  C   UNL A   1      46.480  26.261  28.928  1.00  0.00     0.023 A 
ATOM     77  C   UNL A   1      45.650  25.863  27.826  1.00  0.00     0.031 A 
ATOM     78  C   UNL A   1      47.756  25.676  28.989  1.00  0.00     0.131 A 
ATOM     79  C   UNL A   1      46.113  24.983  26.828  1.00  0.00     0.055 A 
ATOM     80  C   UNL A   1      48.195  24.763  28.013  1.00  0.00     0.041 A 
ATOM     81  F   UNL A   1      48.649  26.078  29.904  1.00  0.00    -0.206 F 
ATOM     82  C   UNL A   1      47.365  24.389  26.952  1.00  0.00     0.022 A 
BRANCH  79  83
ATOM     83  S   UNL A   1      45.176  24.829  25.254  1.00  0.00     0.124 S 
ATOM     84  O   UNL A   1      44.656  26.179  25.064  1.00  0.00    -0.237 OA
ATOM     85  O   UNL A   1      46.207  24.411  24.306  1.00  0.00    -0.237 OA
ATOM     86  O   UNL A   1      44.157  23.817  25.535  1.00  0.00    -0.744 OA
ENDBRANCH  79  83
ENDBRANCH  52  76
BRANCH  64  87
ATOM     87  C   UNL A   1      43.825  33.168  28.219  1.00  0.00     0.023 A 
ATOM     88  C   UNL A   1      43.923  34.421  28.810  1.00  0.00     0.031 A 
ATOM     89  C   UNL A   1      43.785  33.173  26.796  1.00  0.00     0.131 A 
ATOM     90  C   UNL A   1      43.753  35.582  28.059  1.00  0.00     0.055 A 
ATOM     91  C   UNL A   1      43.835  34.339  26.034  1.00  0.00     0.041 A 
ATOM     92  F   UNL A   1      43.698  32.056  26.059  1.00  0.00    -0.206 F 
ATOM     93  C   UNL A   1      43.756  35.562  26.670  1.00  0.00     0.022 A 
BRANCH  90  94
ATOM     94  S   UNL A   1      43.308  37.061  28.983  1.00  0.00     0.124 S 
ATOM     95  O   UNL A   1      41.945  37.299  28.511  1.00  0.00    -0.237 OA
ATOM     96  O   UNL A   1      43.429  36.618  30.367  1.00  0.00    -0.237 OA
ATOM     97  O   UNL A   1      44.297  38.042  28.547  1.00  0.00    -0.744 OA
ENDBRANCH  90  94
ENDBRANCH  64  87
ENDBRANCH  38  39
ENDBRANCH  31  33
ENDBRANCH  30  31
ENDBRANCH  29  30
ENDBRANCH  28  29
ENDBRANCH  27  28
ENDBRANCH  26  27
ENDBRANCH   1  26
TORSDOF 23
ENDMDL
MODEL 2
REMARK VINA RESULT:     -11.4      5.796     11.278
REMARK SMILES Cc1ccc(Nc2c(C)cccc2Cl)c(CC(=O)OCCOCCOCCOC(=O)c2ccc(-c3c4nc(c(-c5cc(S(=O)(=O)[O-])ccc5F)c5ccc([nH]5)c(-c5cc(S(=O)(=O)[O-])ccc5F)c5nc(c(-c6cc(S(=O)(=O)[O-])ccc6F)c6ccc3[nH]6)C=C5)C=C4)cc2)c1
REMARK SMILES IDX 23 1 22 2 21 3 20 4 19 5 17 6 18 7 16 8 15 9 1 10 2 11 3 12
REMARK SMILES IDX 94 13 4 14 5 15 6 16 7 18 8 19 13 20 9 21 10 22 12 23 14 24
REMARK SMILES IDX 11 25 24 26 25 27 26 28 27 29 28 30 29 31 30 32 31 33 32 34
REMARK SMILES IDX 93 35 33 36 92 37 34 38 35 39 36 40 86 41 37 42 91 43 85 44
REMARK SMILES IDX 87 45 38 46 90 47 84 48 83 49 39 51 71 52 51 53 70 54 52 55
REMARK SMILES IDX 55 56 69 57 88 58 53 59 54 60 68 62 89 63 56 64 40 65 41 66
REMARK SMILES IDX 49 67 42 68 48 69 50 70 47 71 43 72 44 73 45 74 46 75 72 76
REMARK SMILES IDX 73 77 81 78 74 79 80 80 82 81 79 82 75 83 76 84 77 85 78 86
REMARK SMILES IDX 57 87 58 88 66 89 59 90 65 91 67 92 64 93 60 94 61 95 62 96
REMARK SMILES IDX 63 97
REMARK H PARENT 6 17 87 50 55 61
REMARK Flexibility Score: inf
ROOT
ATOM      1  C   UNL A   1      38.116  31.523  34.927  1.00  0.00     0.188 C 
ENDROOT
BRANCH   1   2
ATOM      2  O   UNL A   1      37.024  32.310  34.536  1.00  0.00    -0.376 OA
BRANCH   2   3
ATOM      3  C   UNL A   1      36.375  32.084  33.311  1.00  0.00     0.202 C 
BRANCH   3   4
ATOM      4  C   UNL A   1      36.325  30.843  32.266  1.00  0.00     0.261 C 
BRANCH   4   5
ATOM      5  O   UNL A   1      37.018  29.173  32.013  1.00  0.00    -0.463 OA
BRANCH   5   6
ATOM      6  C   UNL A   1      38.380  28.237  32.135  1.00  0.00     0.310 C 
ATOM      7  O   UNL A   1      39.132  27.903  33.066  1.00  0.00    -0.252 OA
BRANCH   6   8
ATOM      8  C   UNL A   1      38.570  27.391  31.010  1.00  0.00     0.160 C 
BRANCH   8   9
ATOM      9  C   UNL A   1      39.074  28.357  30.003  1.00  0.00    -0.013 A 
ATOM     10  C   UNL A   1      42.706  27.273  29.312  1.00  0.00     0.044 C 
ATOM     11  C   UNL A   1      41.283  27.656  29.083  1.00  0.00    -0.051 A 
ATOM     12  C   UNL A   1      40.635  27.477  27.893  1.00  0.00     0.005 A 
ATOM     13  C   UNL A   1      40.512  28.118  30.124  1.00  0.00     0.009 A 
ATOM     14  C   UNL A   1      39.254  27.796  27.785  1.00  0.00     0.026 A 
ATOM     15  C   UNL A   1      38.285  28.550  28.832  1.00  0.00     0.042 A 
BRANCH  15  16
ATOM     16  N   UNL A   1      36.748  29.731  28.263  1.00  0.00    -0.354 N 
ATOM     17  H   UNL A   1      36.062  29.271  27.726  1.00  0.00     0.167 HD
BRANCH  16  18
ATOM     18  C   UNL A   1      36.393  31.522  28.570  1.00  0.00     0.060 A 
ATOM     19  C   UNL A   1      37.331  32.541  29.351  1.00  0.00    -0.026 A 
ATOM     20  C   UNL A   1      35.055  31.969  28.482  1.00  0.00     0.064 A 
ATOM     21  C   UNL A   1      38.818  32.610  29.823  1.00  0.00     0.046 C 
ATOM     22  C   UNL A   1      36.778  33.720  29.935  1.00  0.00     0.005 A 
ATOM     23  C   UNL A   1      34.619  33.166  29.131  1.00  0.00     0.023 A 
ATOM     24  Cl  UNL A   1      33.807  31.262  27.615  1.00  0.00    -0.082 Cl
ATOM     25  C   UNL A   1      35.440  34.004  29.872  1.00  0.00     0.002 A 
ENDBRANCH  16  18
ENDBRANCH  15  16
ENDBRANCH   8   9
ENDBRANCH   6   8
ENDBRANCH   5   6
ENDBRANCH   4   5
ENDBRANCH   3   4
ENDBRANCH   2   3
ENDBRANCH   1   2
BRANCH   1  26
ATOM     26  C   UNL A   1      38.153  30.972  36.332  1.00  0.00     0.188 C 
BRANCH  26  27
ATOM     27  O   UNL A   1      38.918  31.713  37.255  1.00  0.00    -0.376 OA
BRANCH  27  28
ATOM     28  C   UNL A   1      38.152  32.680  37.960  1.00  0.00     0.202 C 
BRANCH  28  29
ATOM     29  C   UNL A   1      38.416  34.226  37.691  1.00  0.00     0.261 C 
BRANCH  29  30
ATOM     30  O   UNL A   1      38.585  34.632  36.267  1.00  0.00    -0.460 OA
BRANCH  30  31
ATOM     31  C   UNL A   1      39.700  35.311  35.701  1.00  0.00     0.338 C 
ATOM     32  O   UNL A   1      39.645  36.526  35.662  1.00  0.00    -0.246 OA
BRANCH  31  33
ATOM     33  C   UNL A   1      40.998  34.235  35.254  1.00  0.00     0.060 A 
ATOM     34  C   UNL A   1      42.968  34.182  35.132  1.00  0.00     0.016 A 
ATOM     35  C   UNL A   1      40.193  34.189  33.640  1.00  0.00     0.016 A 
ATOM     36  C   UNL A   1      43.767  34.388  33.426  1.00  0.00     0.010 A 
ATOM     37  C   UNL A   1      41.066  34.470  32.169  1.00  0.00     0.010 A 
ATOM     38  C   UNL A   1      42.820  34.601  31.879  1.00  0.00    -0.014 A 
BRANCH  38  39
ATOM     39  C   UNL A   1      43.255  34.589  30.027  1.00  0.00     0.031 A 
ATOM     40  C   UNL A   1      43.859  33.075  29.001  1.00  0.00     0.074 A 
ATOM     41  C   UNL A   1      42.908  35.583  29.176  1.00  0.00     0.049 A 
ATOM     42  N   UNL A   1      45.087  32.830  28.555  1.00  0.00    -0.248 NA
ATOM     43  C   UNL A   1      43.246  31.507  29.017  1.00  0.00     0.031 C 
ATOM     44  C   UNL A   1      42.806  35.516  27.707  1.00  0.00     0.029 A 
ATOM     45  N   UNL A   1      42.455  36.865  29.443  1.00  0.00    -0.354 N 
ATOM     46  C   UNL A   1      45.158  31.446  28.187  1.00  0.00     0.074 A 
ATOM     47  C   UNL A   1      44.310  30.732  29.048  1.00  0.00     0.031 C 
ATOM     48  C   UNL A   1      42.672  36.763  27.211  1.00  0.00     0.029 A 
ATOM     49  C   UNL A   1      42.775  37.675  28.337  1.00  0.00     0.049 A 
ATOM     50  H   UNL A   1      41.991  37.158  30.261  1.00  0.00     0.167 HD
ATOM     51  C   UNL A   1      45.209  31.026  26.878  1.00  0.00     0.034 A 
ATOM     52  C   UNL A   1      43.732  38.611  28.562  1.00  0.00     0.034 A 
ATOM     53  C   UNL A   1      45.145  32.217  26.063  1.00  0.00     0.049 A 
ATOM     54  C   UNL A   1      45.023  38.057  27.959  1.00  0.00     0.074 A 
ATOM     55  C   UNL A   1      44.160  32.847  25.327  1.00  0.00     0.029 A 
ATOM     56  N   UNL A   1      46.077  33.180  26.369  1.00  0.00    -0.354 N 
ATOM     57  N   UNL A   1      45.225  36.786  27.680  1.00  0.00    -0.248 NA
ATOM     58  C   UNL A   1      46.066  38.905  27.399  1.00  0.00     0.031 C 
ATOM     59  C   UNL A   1      44.528  34.234  25.240  1.00  0.00     0.029 A 
ATOM     60  C   UNL A   1      45.704  34.429  25.951  1.00  0.00     0.049 A 
ATOM     61  H   UNL A   1      46.922  32.992  26.838  1.00  0.00     0.167 HD
ATOM     62  C   UNL A   1      46.281  36.649  26.827  1.00  0.00     0.074 A 
ATOM     63  C   UNL A   1      46.794  38.008  26.711  1.00  0.00     0.031 C 
ATOM     64  C   UNL A   1      46.664  35.487  26.205  1.00  0.00     0.034 A 
BRANCH  51  65
ATOM     65  C   UNL A   1      44.910  29.597  26.385  1.00  0.00     0.023 A 
ATOM     66  C   UNL A   1      46.000  28.742  26.156  1.00  0.00     0.031 A 
ATOM     67  C   UNL A   1      43.638  28.989  26.177  1.00  0.00     0.131 A 
ATOM     68  C   UNL A   1      45.829  27.404  25.737  1.00  0.00     0.055 A 
ATOM     69  C   UNL A   1      43.469  27.680  25.686  1.00  0.00     0.041 A 
ATOM     70  F   UNL A   1      42.488  29.604  26.491  1.00  0.00    -0.206 F 
ATOM     71  C   UNL A   1      44.571  26.871  25.477  1.00  0.00     0.022 A 
BRANCH  68  72
ATOM     72  S   UNL A   1      47.295  26.346  25.639  1.00  0.00     0.124 S 
ATOM     73  O   UNL A   1      48.368  27.291  25.929  1.00  0.00    -0.237 OA
ATOM     74  O   UNL A   1      47.019  25.344  26.661  1.00  0.00    -0.237 OA
ATOM     75  O   UNL A   1      47.263  25.847  24.265  1.00  0.00    -0.744 OA
ENDBRANCH  68  72
ENDBRANCH  51  65
BRANCH  52  76
ATOM     76  C   UNL A   1      43.403  39.292  29.877  1.00  0.00     0.023 A 
ATOM     77  C   UNL A   1      44.398  39.197  30.908  1.00  0.00     0.031 A 
ATOM     78  C   UNL A   1      42.509  40.372  29.972  1.00  0.00     0.131 A 
ATOM     79  C   UNL A   1      44.510  40.169  31.922  1.00  0.00     0.055 A 
ATOM     80  C   UNL A   1      42.599  41.313  31.014  1.00  0.00     0.041 A 
ATOM     81  F   UNL A   1      41.629  40.619  28.991  1.00  0.00    -0.206 F 
ATOM     82  C   UNL A   1      43.575  41.195  32.008  1.00  0.00     0.022 A 
BRANCH  79  83
ATOM     83  S   UNL A   1      46.027  40.220  32.960  1.00  0.00     0.124 S 
ATOM     84  O   UNL A   1      45.665  39.369  34.088  1.00  0.00    -0.237 OA
ATOM     85  O   UNL A   1      47.047  39.680  32.064  1.00  0.00    -0.237 OA
ATOM     86  O   UNL A   1      46.192  41.635  33.292  1.00  0.00    -0.744 OA
ENDBRANCH  79  83
ENDBRANCH  52  76
BRANCH  64  87
ATOM     87  C   UNL A   1      48.106  35.219  25.808  1.00  0.00     0.023 A 
ATOM     88  C   UNL A   1      48.706  34.004  26.112  1.00  0.00     0.031 A 
ATOM     89  C   UNL A   1      48.892  36.100  25.013  1.00  0.00     0.131 A 
ATOM     90  C   UNL A   1      50.057  33.788  25.848  1.00  0.00     0.055 A 
ATOM     91  C   UNL A   1      50.174  35.786  24.565  1.00  0.00     0.041 A 
ATOM     92  F   UNL A   1      48.469  37.311  24.621  1.00  0.00    -0.206 F 
ATOM     93  C   UNL A   1      50.791  34.645  25.037  1.00  0.00     0.022 A 
BRANCH  90  94
ATOM     94  S   UNL A   1      50.844  32.474  26.792  1.00  0.00     0.124 S 
ATOM     95  O   UNL A   1      50.731  32.989  28.156  1.00  0.00    -0.237 OA
ATOM     96  O   UNL A   1      50.011  31.318  26.483  1.00  0.00    -0.237 OA
ATOM     97  O   UNL A   1      52.200  32.436  26.254  1.00  0.00    -0.744 OA
ENDBRANCH  90  94
ENDBRANCH  64  87
ENDBRANCH  38  39
ENDBRANCH  31  33
ENDBRANCH  30  31
ENDBRANCH  29  30
ENDBRANCH  28  29
ENDBRANCH  27  28
ENDBRANCH  26  27
ENDBRANCH   1  26
TORSDOF 23
ENDMDL
MODEL 3
REMARK VINA RESULT:     -11.3      2.071      2.431
REMARK SMILES Cc1ccc(Nc2c(C)cccc2Cl)c(CC(=O)OCCOCCOCCOC(=O)c2ccc(-c3c4nc(c(-c5cc(S(=O)(=O)[O-])ccc5F)c5ccc([nH]5)c(-c5cc(S(=O)(=O)[O-])ccc5F)c5nc(c(-c6cc(S(=O)(=O)[O-])ccc6F)c6ccc3[nH]6)C=C5)C=C4)cc2)c1
REMARK SMILES IDX 23 1 22 2 21 3 20 4 19 5 17 6 18 7 16 8 15 9 1 10 2 11 3 12
REMARK SMILES IDX 94 13 4 14 5 15 6 16 7 18 8 19 13 20 9 21 10 22 12 23 14 24
REMARK SMILES IDX 11 25 24 26 25 27 26 28 27 29 28 30 29 31 30 32 31 33 32 34
REMARK SMILES IDX 93 35 33 36 92 37 34 38 35 39 36 40 86 41 37 42 91 43 85 44
REMARK SMILES IDX 87 45 38 46 90 47 84 48 83 49 39 51 71 52 51 53 70 54 52 55
REMARK SMILES IDX 55 56 69 57 88 58 53 59 54 60 68 62 89 63 56 64 40 65 41 66
REMARK SMILES IDX 49 67 42 68 48 69 50 70 47 71 43 72 44 73 45 74 46 75 72 76
REMARK SMILES IDX 73 77 81 78 74 79 80 80 82 81 79 82 75 83 76 84 77 85 78 86
REMARK SMILES IDX 57 87 58 88 66 89 59 90 65 91 67 92 64 93 60 94 61 95 62 96
REMARK SMILES IDX 63 97
REMARK H PARENT 6 17 87 50 55 61
REMARK Flexibility Score: inf
ROOT
ATOM      1  C   UNL A   1      34.386  27.113  25.933  1.00  0.00     0.188 C 
ENDROOT
BRANCH   1   2
ATOM      2  O   UNL A   1      33.476  28.171  26.061  1.00  0.00    -0.376 OA
BRANCH   2   3
ATOM      3  C   UNL A   1      32.338  28.049  26.876  1.00  0.00     0.202 C 
BRANCH   3   4
ATOM      4  C   UNL A   1      31.163  26.939  27.023  1.00  0.00     0.261 C 
BRANCH   4   5
ATOM      5  O   UNL A   1      30.751  25.233  26.517  1.00  0.00    -0.463 OA
BRANCH   5   6
ATOM      6  C   UNL A   1      31.121  23.630  26.725  1.00  0.00     0.310 C 
ATOM      7  O   UNL A   1      31.435  22.923  27.696  1.00  0.00    -0.252 OA
BRANCH   6   8
ATOM      8  C   UNL A   1      30.704  22.823  25.633  1.00  0.00     0.160 C 
BRANCH   8   9
ATOM      9  C   UNL A   1      31.989  22.614  24.921  1.00  0.00    -0.013 A 
ATOM     10  C   UNL A   1      32.819  18.887  25.440  1.00  0.00     0.044 C 
ATOM     11  C   UNL A   1      32.568  20.193  24.765  1.00  0.00    -0.051 A 
ATOM     12  C   UNL A   1      32.386  20.324  23.417  1.00  0.00     0.005 A 
ATOM     13  C   UNL A   1      32.396  21.337  25.509  1.00  0.00     0.009 A 
ATOM     14  C   UNL A   1      32.073  21.595  22.866  1.00  0.00     0.026 A 
ATOM     15  C   UNL A   1      32.064  23.049  23.566  1.00  0.00     0.042 A 
BRANCH  15  16
ATOM     16  N   UNL A   1      32.529  24.752  22.585  1.00  0.00    -0.354 N 
ATOM     17  H   UNL A   1      33.274  24.660  21.946  1.00  0.00     0.167 HD
BRANCH  16  18
ATOM     18  C   UNL A   1      31.810  26.456  22.667  1.00  0.00     0.060 A 
ATOM     19  C   UNL A   1      32.624  27.820  22.590  1.00  0.00    -0.026 A 
ATOM     20  C   UNL A   1      30.524  26.619  23.230  1.00  0.00     0.064 A 
ATOM     21  C   UNL A   1      34.049  28.290  22.155  1.00  0.00     0.046 C 
ATOM     22  C   UNL A   1      32.066  29.019  23.130  1.00  0.00     0.005 A 
ATOM     23  C   UNL A   1      30.087  27.875  23.755  1.00  0.00     0.023 A 
ATOM     24  Cl  UNL A   1      29.315  25.464  23.342  1.00  0.00    -0.082 Cl
ATOM     25  C   UNL A   1      30.845  29.038  23.746  1.00  0.00     0.002 A 
ENDBRANCH  16  18
ENDBRANCH  15  16
ENDBRANCH   8   9
ENDBRANCH   6   8
ENDBRANCH   5   6
ENDBRANCH   4   5
ENDBRANCH   3   4
ENDBRANCH   2   3
ENDBRANCH   1   2
BRANCH   1  26
ATOM     26  C   UNL A   1      33.887  25.777  25.438  1.00  0.00     0.188 C 
BRANCH  26  27
ATOM     27  O   UNL A   1      34.831  24.996  24.742  1.00  0.00    -0.376 OA
BRANCH  27  28
ATOM     28  C   UNL A   1      35.396  23.965  25.540  1.00  0.00     0.202 C 
BRANCH  28  29
ATOM     29  C   UNL A   1      36.567  24.325  26.557  1.00  0.00     0.261 C 
BRANCH  29  30
ATOM     30  O   UNL A   1      37.614  23.283  26.757  1.00  0.00    -0.460 OA
BRANCH  30  31
ATOM     31  C   UNL A   1      38.445  22.709  25.755  1.00  0.00     0.338 C 
ATOM     32  O   UNL A   1      37.892  22.247  24.775  1.00  0.00    -0.246 OA
BRANCH  31  33
ATOM     33  C   UNL A   1      40.146  22.875  26.104  1.00  0.00     0.060 A 
ATOM     34  C   UNL A   1      41.489  22.355  27.454  1.00  0.00     0.016 A 
ATOM     35  C   UNL A   1      39.815  24.649  26.091  1.00  0.00     0.016 A 
ATOM     36  C   UNL A   1      42.030  23.650  28.728  1.00  0.00     0.010 A 
ATOM     37  C   UNL A   1      40.323  25.689  27.381  1.00  0.00     0.010 A 
ATOM     38  C   UNL A   1      41.404  25.366  28.761  1.00  0.00    -0.014 A 
BRANCH  38  39
ATOM     39  C   UNL A   1      41.883  26.951  29.698  1.00  0.00     0.031 A 
ATOM     40  C   UNL A   1      40.714  28.412  30.152  1.00  0.00     0.074 A 
ATOM     41  C   UNL A   1      43.038  27.083  30.392  1.00  0.00     0.049 A 
ATOM     42  N   UNL A   1      40.660  29.617  29.595  1.00  0.00    -0.248 NA
ATOM     43  C   UNL A   1      39.159  28.327  30.794  1.00  0.00     0.031 C 
ATOM     44  C   UNL A   1      43.337  28.047  31.467  1.00  0.00     0.029 A 
ATOM     45  N   UNL A   1      44.184  26.303  30.370  1.00  0.00    -0.354 N 
ATOM     46  C   UNL A   1      39.419  30.228  29.975  1.00  0.00     0.074 A 
ATOM     47  C   UNL A   1      38.464  29.207  30.103  1.00  0.00     0.031 C 
ATOM     48  C   UNL A   1      44.659  28.023  31.734  1.00  0.00     0.029 A 
ATOM     49  C   UNL A   1      45.262  27.110  30.778  1.00  0.00     0.049 A 
ATOM     50  H   UNL A   1      44.234  25.353  30.116  1.00  0.00     0.167 HD
ATOM     51  C   UNL A   1      39.345  31.263  30.878  1.00  0.00     0.034 A 
ATOM     52  C   UNL A   1      46.165  27.404  29.808  1.00  0.00     0.034 A 
ATOM     53  C   UNL A   1      40.697  31.521  31.317  1.00  0.00     0.049 A 
ATOM     54  C   UNL A   1      45.856  28.829  29.351  1.00  0.00     0.074 A 
ATOM     55  C   UNL A   1      41.435  31.216  32.445  1.00  0.00     0.029 A 
ATOM     56  N   UNL A   1      41.605  31.734  30.307  1.00  0.00    -0.354 N 
ATOM     57  N   UNL A   1      44.710  29.442  29.561  1.00  0.00    -0.248 NA
ATOM     58  C   UNL A   1      46.877  29.745  28.860  1.00  0.00     0.031 C 
ATOM     59  C   UNL A   1      42.818  31.221  32.053  1.00  0.00     0.029 A 
ATOM     60  C   UNL A   1      42.896  31.492  30.694  1.00  0.00     0.049 A 
ATOM     61  H   UNL A   1      41.354  32.030  29.402  1.00  0.00     0.167 HD
ATOM     62  C   UNL A   1      44.853  30.788  29.390  1.00  0.00     0.074 A 
ATOM     63  C   UNL A   1      46.225  30.920  28.916  1.00  0.00     0.031 C 
ATOM     64  C   UNL A   1      43.909  31.739  29.685  1.00  0.00     0.034 A 
BRANCH  51  65
ATOM     65  C   UNL A   1      38.072  31.716  31.617  1.00  0.00     0.023 A 
ATOM     66  C   UNL A   1      38.170  31.968  32.995  1.00  0.00     0.031 A 
ATOM     67  C   UNL A   1      36.783  31.975  31.067  1.00  0.00     0.131 A 
ATOM     68  C   UNL A   1      37.070  32.420  33.755  1.00  0.00     0.055 A 
ATOM     69  C   UNL A   1      35.666  32.351  31.838  1.00  0.00     0.041 A 
ATOM     70  F   UNL A   1      36.544  31.935  29.748  1.00  0.00    -0.206 F 
ATOM     71  C   UNL A   1      35.809  32.593  33.193  1.00  0.00     0.022 A 
BRANCH  68  72
ATOM     72  S   UNL A   1      37.355  32.875  35.485  1.00  0.00     0.124 S 
ATOM     73  O   UNL A   1      36.095  33.518  35.839  1.00  0.00    -0.237 OA
ATOM     74  O   UNL A   1      37.620  31.581  36.102  1.00  0.00    -0.237 OA
ATOM     75  O   UNL A   1      38.509  33.770  35.414  1.00  0.00    -0.744 OA
ENDBRANCH  68  72
ENDBRANCH  51  65
BRANCH  52  76
ATOM     76  C   UNL A   1      46.474  26.115  29.069  1.00  0.00     0.023 A 
ATOM     77  C   UNL A   1      45.750  25.894  27.848  1.00  0.00     0.031 A 
ATOM     78  C   UNL A   1      47.698  25.438  29.198  1.00  0.00     0.131 A 
ATOM     79  C   UNL A   1      46.269  25.092  26.813  1.00  0.00     0.055 A 
ATOM     80  C   UNL A   1      48.189  24.602  28.177  1.00  0.00     0.041 A 
ATOM     81  F   UNL A   1      48.505  25.678  30.240  1.00  0.00    -0.206 F 
ATOM     82  C   UNL A   1      47.462  24.401  27.000  1.00  0.00     0.022 A 
BRANCH  79  83
ATOM     83  S   UNL A   1      45.506  25.170  25.141  1.00  0.00     0.124 S 
ATOM     84  O   UNL A   1      44.136  24.743  25.401  1.00  0.00    -0.237 OA
ATOM     85  O   UNL A   1      45.671  26.576  24.779  1.00  0.00    -0.237 OA
ATOM     86  O   UNL A   1      46.294  24.235  24.338  1.00  0.00    -0.744 OA
ENDBRANCH  79  83
ENDBRANCH  52  76
BRANCH  64  87
ATOM     87  C   UNL A   1      43.833  33.063  28.943  1.00  0.00     0.023 A 
ATOM     88  C   UNL A   1      43.761  33.089  27.556  1.00  0.00     0.031 A 
ATOM     89  C   UNL A   1      43.705  34.330  29.579  1.00  0.00     0.131 A 
ATOM     90  C   UNL A   1      43.799  34.296  26.860  1.00  0.00     0.055 A 
ATOM     91  C   UNL A   1      43.524  35.521  28.879  1.00  0.00     0.041 A 
ATOM     92  F   UNL A   1      43.744  34.491  30.910  1.00  0.00    -0.206 F 
ATOM     93  C   UNL A   1      43.633  35.517  27.503  1.00  0.00     0.022 A 
BRANCH  90  94
ATOM     94  S   UNL A   1      44.297  34.196  25.134  1.00  0.00     0.124 S 
ATOM     95  O   UNL A   1      44.615  32.774  25.006  1.00  0.00    -0.237 OA
ATOM     96  O   UNL A   1      43.098  34.639  24.432  1.00  0.00    -0.237 OA
ATOM     97  O   UNL A   1      45.442  35.098  25.059  1.00  0.00    -0.744 OA
ENDBRANCH  90  94
ENDBRANCH  64  87
ENDBRANCH  38  39
ENDBRANCH  31  33
ENDBRANCH  30  31
ENDBRANCH  29  30
ENDBRANCH  28  29
ENDBRANCH  27  28
ENDBRANCH  26  27
ENDBRANCH   1  26
TORSDOF 23
ENDMDL
