MODEL 1
REMARK VINA RESULT:     -15.9      0.000      0.000
REMARK SMILES Cc1ccccc1[C@@H]1[NH2+][C@H](C(=O)OCCOCCOCCOC(=O)c2ccc(-c3c4nc(c(-c5cc(S(=O)(=O)[O-])ccc5F)c5ccc([nH]5)c(-c5cc(S(=O)(=O)[O-])ccc5F)c5nc(c(-c6cc(S(=O)(=O)[O-])ccc6F)c6ccc3[nH]6)C=C5)C=C4)cc2)CC2=c3ccccc3=N[C@@H]21
REMARK SMILES IDX 18 1 17 2 16 3 15 4 14 5 13 6 11 7 12 8 10 9 8 10 9 11 97 12
REMARK SMILES IDX 89 15 96 16 88 17 90 18 95 19 91 20 94 21 92 22 93 23 7 24
REMARK SMILES IDX 1 25 2 26 3 27 4 28 6 29 5 30 19 31 20 32 21 33 22 34 23 35
REMARK SMILES IDX 24 36 25 37 26 38 87 39 27 40 86 41 28 42 29 43 30 44 80 45
REMARK SMILES IDX 31 46 85 47 79 48 81 49 32 50 84 51 78 52 77 53 33 55 65 56
REMARK SMILES IDX 45 57 64 58 46 59 49 60 63 61 82 62 47 63 48 64 62 66 83 67
REMARK SMILES IDX 50 68 34 69 35 70 43 71 36 72 42 73 44 74 41 75 37 76 38 77
REMARK SMILES IDX 39 78 40 79 66 80 67 81 75 82 68 83 74 84 76 85 73 86 69 87
REMARK SMILES IDX 70 88 71 89 72 90 51 91 52 92 60 93 53 94 59 95 61 96 58 97
REMARK SMILES IDX 54 98 55 99 56 100 57 101
REMARK H PARENT 9 13 9 14 81 54 49 65
REMARK Flexibility Score: inf
ROOT
ATOM      1  C   UNL A   1      34.157  30.903  28.178  1.00  0.00     0.188 C 
ENDROOT
BRANCH   1   2
ATOM      2  C   UNL A   1      33.840  29.988  27.029  1.00  0.00     0.188 C 
BRANCH   2   3
ATOM      3  O   UNL A   1      33.516  28.666  27.379  1.00  0.00    -0.376 OA
BRANCH   3   4
ATOM      4  C   UNL A   1      32.805  28.046  26.343  1.00  0.00     0.202 C 
BRANCH   4   5
ATOM      5  C   UNL A   1      31.406  27.463  26.625  1.00  0.00     0.261 C 
BRANCH   5   6
ATOM      6  O   UNL A   1      31.074  25.958  26.418  1.00  0.00    -0.459 OA
BRANCH   6   7
ATOM      7  C   UNL A   1      31.706  24.643  26.529  1.00  0.00     0.365 C 
ATOM      8  O   UNL A   1      31.769  23.843  27.464  1.00  0.00    -0.245 OA
BRANCH   7   9
ATOM      9  C   UNL A   1      31.801  24.070  25.216  1.00  0.00     0.298 C 
ATOM     10  C   UNL A   1      32.006  25.014  23.166  1.00  0.00     0.243 C 
ATOM     11  N   UNL A   1      32.616  25.030  24.489  1.00  0.00    -0.326 N 
ATOM     12  C   UNL A   1      32.644  23.520  22.653  1.00  0.00     0.196 C 
ATOM     13  H   UNL A   1      32.561  25.956  24.910  1.00  0.00     0.347 HD
ATOM     14  H   UNL A   1      33.610  24.800  24.482  1.00  0.00     0.347 HD
ATOM     15  C   UNL A   1      32.635  22.404  23.839  1.00  0.00    -0.024 C 
ATOM     16  N   UNL A   1      34.107  23.622  22.422  1.00  0.00    -0.270 NA
ATOM     17  C   UNL A   1      31.723  22.561  25.003  1.00  0.00     0.111 C 
ATOM     18  C   UNL A   1      33.847  21.934  24.140  1.00  0.00     0.002 A 
ATOM     19  C   UNL A   1      34.657  22.839  23.312  1.00  0.00     0.066 A 
ATOM     20  C   UNL A   1      34.340  21.370  25.385  1.00  0.00     0.010 A 
ATOM     21  C   UNL A   1      36.071  22.946  23.724  1.00  0.00     0.028 A 
ATOM     22  C   UNL A   1      35.586  21.673  25.774  1.00  0.00     0.001 A 
ATOM     23  C   UNL A   1      36.459  22.439  24.909  1.00  0.00     0.002 A 
BRANCH  10  24
ATOM     24  C   UNL A   1      31.257  26.626  22.889  1.00  0.00     0.015 A 
ATOM     25  C   UNL A   1      28.177  26.475  24.108  1.00  0.00     0.045 C 
ATOM     26  C   UNL A   1      29.675  27.239  23.133  1.00  0.00    -0.042 A 
ATOM     27  C   UNL A   1      29.420  28.604  22.999  1.00  0.00     0.004 A 
ATOM     28  C   UNL A   1      30.530  29.428  22.825  1.00  0.00     0.000 A 
ATOM     29  C   UNL A   1      32.254  27.596  22.750  1.00  0.00     0.010 A 
ATOM     30  C   UNL A   1      31.878  28.952  22.732  1.00  0.00     0.001 A 
ENDBRANCH  10  24
ENDBRANCH   7   9
ENDBRANCH   6   7
ENDBRANCH   5   6
ENDBRANCH   4   5
ENDBRANCH   3   4
ENDBRANCH   2   3
ENDBRANCH   1   2
BRANCH   1  31
ATOM     31  O   UNL A   1      34.089  32.529  29.016  1.00  0.00    -0.376 OA
BRANCH  31  32
ATOM     32  C   UNL A   1      34.240  34.265  28.241  1.00  0.00     0.202 C 
BRANCH  32  33
ATOM     33  C   UNL A   1      32.995  35.646  28.748  1.00  0.00     0.261 C 
BRANCH  33  34
ATOM     34  O   UNL A   1      33.335  36.265  30.437  1.00  0.00    -0.460 OA
BRANCH  34  35
ATOM     35  C   UNL A   1      33.584  35.787  31.961  1.00  0.00     0.338 C 
ATOM     36  O   UNL A   1      33.070  36.627  32.778  1.00  0.00    -0.246 OA
BRANCH  35  37
ATOM     37  C   UNL A   1      34.407  34.428  32.800  1.00  0.00     0.060 A 
ATOM     38  C   UNL A   1      35.341  34.329  33.887  1.00  0.00     0.016 A 
ATOM     39  C   UNL A   1      34.297  33.103  32.484  1.00  0.00     0.016 A 
ATOM     40  C   UNL A   1      36.454  33.138  34.157  1.00  0.00     0.010 A 
ATOM     41  C   UNL A   1      35.525  32.158  32.627  1.00  0.00     0.010 A 
ATOM     42  C   UNL A   1      36.750  32.048  33.337  1.00  0.00    -0.014 A 
BRANCH  42  43
ATOM     43  C   UNL A   1      38.337  31.260  32.843  1.00  0.00     0.031 A 
ATOM     44  C   UNL A   1      38.713  29.850  31.723  1.00  0.00     0.074 A 
ATOM     45  C   UNL A   1      39.470  32.015  33.084  1.00  0.00     0.049 A 
ATOM     46  N   UNL A   1      38.931  28.551  31.957  1.00  0.00    -0.248 NA
ATOM     47  C   UNL A   1      38.727  29.873  30.167  1.00  0.00     0.031 C 
ATOM     48  C   UNL A   1      40.865  31.924  32.577  1.00  0.00     0.029 A 
ATOM     49  N   UNL A   1      39.577  33.164  33.893  1.00  0.00    -0.354 N 
ATOM     50  C   UNL A   1      39.112  27.875  30.651  1.00  0.00     0.074 A 
ATOM     51  C   UNL A   1      38.380  28.666  29.740  1.00  0.00     0.031 C 
ATOM     52  C   UNL A   1      41.684  32.684  33.340  1.00  0.00     0.029 A 
ATOM     53  C   UNL A   1      40.876  33.186  34.430  1.00  0.00     0.049 A 
ATOM     54  H   UNL A   1      38.871  33.830  34.052  1.00  0.00     0.167 HD
ATOM     55  C   UNL A   1      40.324  27.506  30.050  1.00  0.00     0.034 A 
ATOM     56  C   UNL A   1      40.945  32.836  35.742  1.00  0.00     0.034 A 
ATOM     57  C   UNL A   1      41.394  28.176  30.745  1.00  0.00     0.049 A 
ATOM     58  C   UNL A   1      41.435  31.388  35.793  1.00  0.00     0.074 A 
ATOM     59  C   UNL A   1      42.336  29.148  30.465  1.00  0.00     0.029 A 
ATOM     60  N   UNL A   1      41.381  28.016  32.097  1.00  0.00    -0.354 N 
ATOM     61  N   UNL A   1      41.392  30.538  34.790  1.00  0.00    -0.248 NA
ATOM     62  C   UNL A   1      42.217  30.866  36.900  1.00  0.00     0.031 C 
ATOM     63  C   UNL A   1      42.931  29.516  31.716  1.00  0.00     0.029 A 
ATOM     64  C   UNL A   1      42.315  28.778  32.715  1.00  0.00     0.049 A 
ATOM     65  H   UNL A   1      40.764  27.414  32.572  1.00  0.00     0.167 HD
ATOM     66  C   UNL A   1      42.204  29.466  35.031  1.00  0.00     0.074 A 
ATOM     67  C   UNL A   1      42.675  29.712  36.382  1.00  0.00     0.031 C 
ATOM     68  C   UNL A   1      42.488  28.484  34.115  1.00  0.00     0.034 A 
BRANCH  55  69
ATOM     69  C   UNL A   1      40.549  26.967  28.590  1.00  0.00     0.023 A 
ATOM     70  C   UNL A   1      40.659  25.567  28.386  1.00  0.00     0.031 A 
ATOM     71  C   UNL A   1      40.623  27.725  27.393  1.00  0.00     0.131 A 
ATOM     72  C   UNL A   1      40.875  24.995  27.107  1.00  0.00     0.055 A 
ATOM     73  C   UNL A   1      40.884  27.160  26.123  1.00  0.00     0.041 A 
ATOM     74  F   UNL A   1      40.427  29.053  27.385  1.00  0.00    -0.206 F 
ATOM     75  C   UNL A   1      41.006  25.787  25.972  1.00  0.00     0.022 A 
BRANCH  72  76
ATOM     76  S   UNL A   1      40.922  23.183  26.938  1.00  0.00     0.124 S 
ATOM     77  O   UNL A   1      39.537  22.875  26.597  1.00  0.00    -0.237 OA
ATOM     78  O   UNL A   1      41.909  22.996  25.882  1.00  0.00    -0.237 OA
ATOM     79  O   UNL A   1      41.348  22.726  28.261  1.00  0.00    -0.744 OA
ENDBRANCH  72  76
ENDBRANCH  55  69
BRANCH  56  80
ATOM     80  C   UNL A   1      39.855  33.589  36.487  1.00  0.00     0.023 A 
ATOM     81  C   UNL A   1      38.774  32.791  36.990  1.00  0.00     0.031 A 
ATOM     82  C   UNL A   1      40.039  34.831  37.099  1.00  0.00     0.131 A 
ATOM     83  C   UNL A   1      38.084  33.138  38.165  1.00  0.00     0.055 A 
ATOM     84  C   UNL A   1      39.231  35.242  38.186  1.00  0.00     0.041 A 
ATOM     85  F   UNL A   1      41.110  35.584  36.808  1.00  0.00    -0.206 F 
ATOM     86  C   UNL A   1      38.308  34.367  38.767  1.00  0.00     0.022 A 
BRANCH  83  87
ATOM     87  S   UNL A   1      37.107  31.877  39.056  1.00  0.00     0.124 S 
ATOM     88  O   UNL A   1      37.885  31.714  40.281  1.00  0.00    -0.237 OA
ATOM     89  O   UNL A   1      35.803  32.515  39.211  1.00  0.00    -0.237 OA
ATOM     90  O   UNL A   1      37.115  30.734  38.148  1.00  0.00    -0.744 OA
ENDBRANCH  83  87
ENDBRANCH  56  80
BRANCH  68  91
ATOM     91  C   UNL A   1      42.870  27.043  34.450  1.00  0.00     0.023 A 
ATOM     92  C   UNL A   1      43.946  26.438  33.826  1.00  0.00     0.031 A 
ATOM     93  C   UNL A   1      42.266  26.261  35.485  1.00  0.00     0.131 A 
ATOM     94  C   UNL A   1      44.297  25.113  34.093  1.00  0.00     0.055 A 
ATOM     95  C   UNL A   1      42.718  24.993  35.859  1.00  0.00     0.041 A 
ATOM     96  F   UNL A   1      41.219  26.678  36.210  1.00  0.00    -0.206 F 
ATOM     97  C   UNL A   1      43.719  24.388  35.127  1.00  0.00     0.022 A 
BRANCH  94  98
ATOM     98  S   UNL A   1      45.438  24.358  32.926  1.00  0.00     0.124 S 
ATOM     99  O   UNL A   1      46.141  23.403  33.782  1.00  0.00    -0.237 OA
ATOM    100  O   UNL A   1      44.532  23.772  31.943  1.00  0.00    -0.237 OA
ATOM    101  O   UNL A   1      46.240  25.482  32.455  1.00  0.00    -0.744 OA
ENDBRANCH  94  98
ENDBRANCH  68  91
ENDBRANCH  42  43
ENDBRANCH  35  37
ENDBRANCH  34  35
ENDBRANCH  33  34
ENDBRANCH  32  33
ENDBRANCH  31  32
ENDBRANCH   1  31
TORSDOF 21
ENDMDL
MODEL 2
REMARK VINA RESULT:     -15.8      1.499      3.523
REMARK SMILES Cc1ccccc1[C@@H]1[NH2+][C@H](C(=O)OCCOCCOCCOC(=O)c2ccc(-c3c4nc(c(-c5cc(S(=O)(=O)[O-])ccc5F)c5ccc([nH]5)c(-c5cc(S(=O)(=O)[O-])ccc5F)c5nc(c(-c6cc(S(=O)(=O)[O-])ccc6F)c6ccc3[nH]6)C=C5)C=C4)cc2)CC2=c3ccccc3=N[C@@H]21
REMARK SMILES IDX 18 1 17 2 16 3 15 4 14 5 13 6 11 7 12 8 10 9 8 10 9 11 97 12
REMARK SMILES IDX 89 15 96 16 88 17 90 18 95 19 91 20 94 21 92 22 93 23 7 24
REMARK SMILES IDX 1 25 2 26 3 27 4 28 6 29 5 30 19 31 20 32 21 33 22 34 23 35
REMARK SMILES IDX 24 36 25 37 26 38 87 39 27 40 86 41 28 42 29 43 30 44 80 45
REMARK SMILES IDX 31 46 85 47 79 48 81 49 32 50 84 51 78 52 77 53 33 55 65 56
REMARK SMILES IDX 45 57 64 58 46 59 49 60 63 61 82 62 47 63 48 64 62 66 83 67
REMARK SMILES IDX 50 68 34 69 35 70 43 71 36 72 42 73 44 74 41 75 37 76 38 77
REMARK SMILES IDX 39 78 40 79 66 80 67 81 75 82 68 83 74 84 76 85 73 86 69 87
REMARK SMILES IDX 70 88 71 89 72 90 51 91 52 92 60 93 53 94 59 95 61 96 58 97
REMARK SMILES IDX 54 98 55 99 56 100 57 101
REMARK H PARENT 9 13 9 14 81 54 49 65
REMARK Flexibility Score: inf
ROOT
ATOM      1  C   UNL A   1      35.571  32.333  28.938  1.00  0.00     0.188 C 
ENDROOT
BRANCH   1   2
ATOM      2  C   UNL A   1      36.498  31.571  28.033  1.00  0.00     0.188 C 
BRANCH   2   3
ATOM      3  O   UNL A   1      35.965  30.400  27.468  1.00  0.00    -0.376 OA
BRANCH   3   4
ATOM      4  C   UNL A   1      34.681  30.154  27.973  1.00  0.00     0.202 C 
BRANCH   4   5
ATOM      5  C   UNL A   1      33.732  29.211  27.208  1.00  0.00     0.261 C 
BRANCH   5   6
ATOM      6  O   UNL A   1      34.248  27.984  26.403  1.00  0.00    -0.459 OA
BRANCH   6   7
ATOM      7  C   UNL A   1      33.817  26.648  25.993  1.00  0.00     0.365 C 
ATOM      8  O   UNL A   1      33.157  25.786  26.577  1.00  0.00    -0.245 OA
BRANCH   7   9
ATOM      9  C   UNL A   1      33.753  26.610  24.559  1.00  0.00     0.298 C 
ATOM     10  C   UNL A   1      33.326  24.921  23.110  1.00  0.00     0.243 C 
ATOM     11  N   UNL A   1      32.776  25.566  24.294  1.00  0.00    -0.326 N 
ATOM     12  C   UNL A   1      32.894  26.128  21.988  1.00  0.00     0.196 C 
ATOM     13  H   UNL A   1      32.711  24.914  25.074  1.00  0.00     0.347 HD
ATOM     14  H   UNL A   1      31.827  25.918  24.163  1.00  0.00     0.347 HD
ATOM     15  C   UNL A   1      33.117  27.630  22.578  1.00  0.00    -0.024 C 
ATOM     16  N   UNL A   1      31.424  26.159  21.785  1.00  0.00    -0.270 NA
ATOM     17  C   UNL A   1      34.043  27.852  23.720  1.00  0.00     0.111 C 
ATOM     18  C   UNL A   1      32.001  28.360  22.616  1.00  0.00     0.002 A 
ATOM     19  C   UNL A   1      31.033  27.321  22.236  1.00  0.00     0.066 A 
ATOM     20  C   UNL A   1      31.649  29.470  23.484  1.00  0.00     0.010 A 
ATOM     21  C   UNL A   1      29.637  27.616  22.617  1.00  0.00     0.028 A 
ATOM     22  C   UNL A   1      30.389  29.555  23.933  1.00  0.00     0.001 A 
ATOM     23  C   UNL A   1      29.377  28.634  23.459  1.00  0.00     0.002 A 
BRANCH  10  24
ATOM     24  C   UNL A   1      33.817  23.254  23.571  1.00  0.00     0.015 A 
ATOM     25  C   UNL A   1      36.299  23.553  25.751  1.00  0.00     0.045 C 
ATOM     26  C   UNL A   1      35.092  22.634  24.536  1.00  0.00    -0.042 A 
ATOM     27  C   UNL A   1      35.122  21.281  24.878  1.00  0.00     0.004 A 
ATOM     28  C   UNL A   1      34.000  20.530  24.536  1.00  0.00     0.000 A 
ATOM     29  C   UNL A   1      32.762  22.366  23.341  1.00  0.00     0.010 A 
ATOM     30  C   UNL A   1      32.868  21.050  23.828  1.00  0.00     0.001 A 
ENDBRANCH  10  24
ENDBRANCH   7   9
ENDBRANCH   6   7
ENDBRANCH   5   6
ENDBRANCH   4   5
ENDBRANCH   3   4
ENDBRANCH   2   3
ENDBRANCH   1   2
BRANCH   1  31
ATOM     31  O   UNL A   1      34.177  33.484  29.227  1.00  0.00    -0.376 OA
BRANCH  31  32
ATOM     32  C   UNL A   1      34.054  35.330  28.765  1.00  0.00     0.202 C 
BRANCH  32  33
ATOM     33  C   UNL A   1      32.813  36.467  29.704  1.00  0.00     0.261 C 
BRANCH  33  34
ATOM     34  O   UNL A   1      33.463  36.952  31.346  1.00  0.00    -0.460 OA
BRANCH  34  35
ATOM     35  C   UNL A   1      34.001  36.355  32.749  1.00  0.00     0.338 C 
ATOM     36  O   UNL A   1      33.975  37.260  33.653  1.00  0.00    -0.246 OA
BRANCH  35  37
ATOM     37  C   UNL A   1      34.647  34.793  33.357  1.00  0.00     0.060 A 
ATOM     38  C   UNL A   1      35.475  34.405  34.466  1.00  0.00     0.016 A 
ATOM     39  C   UNL A   1      34.468  33.568  32.778  1.00  0.00     0.016 A 
ATOM     40  C   UNL A   1      36.471  33.092  34.571  1.00  0.00     0.010 A 
ATOM     41  C   UNL A   1      35.607  32.509  32.816  1.00  0.00     0.010 A 
ATOM     42  C   UNL A   1      36.756  32.157  33.575  1.00  0.00    -0.014 A 
BRANCH  42  43
ATOM     43  C   UNL A   1      38.317  31.341  33.047  1.00  0.00     0.031 A 
ATOM     44  C   UNL A   1      38.642  29.899  31.953  1.00  0.00     0.074 A 
ATOM     45  C   UNL A   1      39.465  32.093  33.228  1.00  0.00     0.049 A 
ATOM     46  N   UNL A   1      38.858  28.605  32.215  1.00  0.00    -0.248 NA
ATOM     47  C   UNL A   1      38.602  29.880  30.397  1.00  0.00     0.031 C 
ATOM     48  C   UNL A   1      40.840  31.975  32.675  1.00  0.00     0.029 A 
ATOM     49  N   UNL A   1      39.610  33.262  34.001  1.00  0.00    -0.354 N 
ATOM     50  C   UNL A   1      38.987  27.892  30.921  1.00  0.00     0.074 A 
ATOM     51  C   UNL A   1      38.230  28.666  30.016  1.00  0.00     0.031 C 
ATOM     52  C   UNL A   1      41.692  32.748  33.388  1.00  0.00     0.029 A 
ATOM     53  C   UNL A   1      40.927  33.286  34.492  1.00  0.00     0.049 A 
ATOM     54  H   UNL A   1      38.915  33.938  34.167  1.00  0.00     0.167 HD
ATOM     55  C   UNL A   1      40.174  27.497  30.288  1.00  0.00     0.034 A 
ATOM     56  C   UNL A   1      41.039  32.971  35.809  1.00  0.00     0.034 A 
ATOM     57  C   UNL A   1      41.274  28.175  30.928  1.00  0.00     0.049 A 
ATOM     58  C   UNL A   1      41.519  31.520  35.882  1.00  0.00     0.074 A 
ATOM     59  C   UNL A   1      42.213  29.130  30.588  1.00  0.00     0.029 A 
ATOM     60  N   UNL A   1      41.307  28.051  32.283  1.00  0.00    -0.354 N 
ATOM     61  N   UNL A   1      41.433  30.644  34.905  1.00  0.00    -0.248 NA
ATOM     62  C   UNL A   1      42.334  31.020  36.974  1.00  0.00     0.031 C 
ATOM     63  C   UNL A   1      42.854  29.526  31.807  1.00  0.00     0.029 A 
ATOM     64  C   UNL A   1      42.268  28.821  32.847  1.00  0.00     0.049 A 
ATOM     65  H   UNL A   1      40.701  27.468  32.795  1.00  0.00     0.167 HD
ATOM     66  C   UNL A   1      42.245  29.571  35.146  1.00  0.00     0.074 A 
ATOM     67  C   UNL A   1      42.765  29.848  36.472  1.00  0.00     0.031 C 
ATOM     68  C   UNL A   1      42.488  28.563  34.247  1.00  0.00     0.034 A 
BRANCH  55  69
ATOM     69  C   UNL A   1      40.343  26.917  28.837  1.00  0.00     0.023 A 
ATOM     70  C   UNL A   1      41.362  27.444  28.002  1.00  0.00     0.031 A 
ATOM     71  C   UNL A   1      39.604  25.864  28.238  1.00  0.00     0.131 A 
ATOM     72  C   UNL A   1      41.579  26.990  26.677  1.00  0.00     0.055 A 
ATOM     73  C   UNL A   1      39.789  25.440  26.900  1.00  0.00     0.041 A 
ATOM     74  F   UNL A   1      38.677  25.174  28.920  1.00  0.00    -0.206 F 
ATOM     75  C   UNL A   1      40.783  25.999  26.113  1.00  0.00     0.022 A 
BRANCH  72  76
ATOM     76  S   UNL A   1      42.964  27.675  25.715  1.00  0.00     0.124 S 
ATOM     77  O   UNL A   1      43.567  28.599  26.670  1.00  0.00    -0.237 OA
ATOM     78  O   UNL A   1      43.735  26.481  25.388  1.00  0.00    -0.237 OA
ATOM     79  O   UNL A   1      42.306  28.310  24.573  1.00  0.00    -0.744 OA
ENDBRANCH  72  76
ENDBRANCH  55  69
BRANCH  56  80
ATOM     80  C   UNL A   1      39.982  33.752  36.571  1.00  0.00     0.023 A 
ATOM     81  C   UNL A   1      38.968  32.970  37.217  1.00  0.00     0.031 A 
ATOM     82  C   UNL A   1      40.170  35.045  37.066  1.00  0.00     0.131 A 
ATOM     83  C   UNL A   1      38.354  33.395  38.409  1.00  0.00     0.055 A 
ATOM     84  C   UNL A   1      39.430  35.523  38.174  1.00  0.00     0.041 A 
ATOM     85  F   UNL A   1      41.191  35.800  36.636  1.00  0.00    -0.206 F 
ATOM     86  C   UNL A   1      38.581  34.675  38.891  1.00  0.00     0.022 A 
BRANCH  83  87
ATOM     87  S   UNL A   1      37.487  32.187  39.470  1.00  0.00     0.124 S 
ATOM     88  O   UNL A   1      38.522  31.853  40.443  1.00  0.00    -0.237 OA
ATOM     89  O   UNL A   1      36.352  32.948  39.983  1.00  0.00    -0.237 OA
ATOM     90  O   UNL A   1      37.124  31.117  38.544  1.00  0.00    -0.744 OA
ENDBRANCH  83  87
ENDBRANCH  56  80
BRANCH  68  91
ATOM     91  C   UNL A   1      42.869  27.128  34.607  1.00  0.00     0.023 A 
ATOM     92  C   UNL A   1      43.937  26.506  33.983  1.00  0.00     0.031 A 
ATOM     93  C   UNL A   1      42.275  26.369  35.665  1.00  0.00     0.131 A 
ATOM     94  C   UNL A   1      44.287  25.186  34.273  1.00  0.00     0.055 A 
ATOM     95  C   UNL A   1      42.728  25.107  36.060  1.00  0.00     0.041 A 
ATOM     96  F   UNL A   1      41.239  26.804  36.393  1.00  0.00    -0.206 F 
ATOM     97  C   UNL A   1      43.719  24.484  35.329  1.00  0.00     0.022 A 
BRANCH  94  98
ATOM     98  S   UNL A   1      45.411  24.403  33.109  1.00  0.00     0.124 S 
ATOM     99  O   UNL A   1      44.583  23.316  32.590  1.00  0.00    -0.237 OA
ATOM    100  O   UNL A   1      45.687  25.486  32.170  1.00  0.00    -0.237 OA
ATOM    101  O   UNL A   1      46.534  23.989  33.943  1.00  0.00    -0.744 OA
ENDBRANCH  94  98
ENDBRANCH  68  91
ENDBRANCH  42  43
ENDBRANCH  35  37
ENDBRANCH  34  35
ENDBRANCH  33  34
ENDBRANCH  32  33
ENDBRANCH  31  32
ENDBRANCH   1  31
TORSDOF 21
ENDMDL
MODEL 3
REMARK VINA RESULT:     -15.6      1.831      2.740
REMARK SMILES Cc1ccccc1[C@@H]1[NH2+][C@H](C(=O)OCCOCCOCCOC(=O)c2ccc(-c3c4nc(c(-c5cc(S(=O)(=O)[O-])ccc5F)c5ccc([nH]5)c(-c5cc(S(=O)(=O)[O-])ccc5F)c5nc(c(-c6cc(S(=O)(=O)[O-])ccc6F)c6ccc3[nH]6)C=C5)C=C4)cc2)CC2=c3ccccc3=N[C@@H]21
REMARK SMILES IDX 18 1 17 2 16 3 15 4 14 5 13 6 11 7 12 8 10 9 8 10 9 11 97 12
REMARK SMILES IDX 89 15 96 16 88 17 90 18 95 19 91 20 94 21 92 22 93 23 7 24
REMARK SMILES IDX 1 25 2 26 3 27 4 28 6 29 5 30 19 31 20 32 21 33 22 34 23 35
REMARK SMILES IDX 24 36 25 37 26 38 87 39 27 40 86 41 28 42 29 43 30 44 80 45
REMARK SMILES IDX 31 46 85 47 79 48 81 49 32 50 84 51 78 52 77 53 33 55 65 56
REMARK SMILES IDX 45 57 64 58 46 59 49 60 63 61 82 62 47 63 48 64 62 66 83 67
REMARK SMILES IDX 50 68 34 69 35 70 43 71 36 72 42 73 44 74 41 75 37 76 38 77
REMARK SMILES IDX 39 78 40 79 66 80 67 81 75 82 68 83 74 84 76 85 73 86 69 87
REMARK SMILES IDX 70 88 71 89 72 90 51 91 52 92 60 93 53 94 59 95 61 96 58 97
REMARK SMILES IDX 54 98 55 99 56 100 57 101
REMARK H PARENT 9 13 9 14 81 54 49 65
REMARK Flexibility Score: inf
ROOT
ATOM      1  C   UNL A   1      35.624  32.532  29.148  1.00  0.00     0.188 C 
ENDROOT
BRANCH   1   2
ATOM      2  C   UNL A   1      36.605  31.774  28.300  1.00  0.00     0.188 C 
BRANCH   2   3
ATOM      3  O   UNL A   1      36.085  30.658  27.623  1.00  0.00    -0.376 OA
BRANCH   3   4
ATOM      4  C   UNL A   1      34.802  30.354  28.096  1.00  0.00     0.202 C 
BRANCH   4   5
ATOM      5  C   UNL A   1      33.649  30.156  27.092  1.00  0.00     0.261 C 
BRANCH   5   6
ATOM      6  O   UNL A   1      33.860  29.485  25.705  1.00  0.00    -0.459 OA
BRANCH   6   7
ATOM      7  C   UNL A   1      33.124  29.194  24.474  1.00  0.00     0.365 C 
ATOM      8  O   UNL A   1      33.466  29.225  23.290  1.00  0.00    -0.245 OA
BRANCH   7   9
ATOM      9  C   UNL A   1      32.053  28.291  24.786  1.00  0.00     0.298 C 
ATOM     10  C   UNL A   1      29.955  28.092  23.955  1.00  0.00     0.243 C 
ATOM     11  N   UNL A   1      31.344  28.163  23.523  1.00  0.00    -0.326 N 
ATOM     12  C   UNL A   1      29.990  26.487  24.525  1.00  0.00     0.196 C 
ATOM     13  H   UNL A   1      31.504  28.973  22.926  1.00  0.00     0.347 HD
ATOM     14  H   UNL A   1      31.640  27.361  22.967  1.00  0.00     0.347 HD
ATOM     15  C   UNL A   1      31.368  26.143  25.322  1.00  0.00    -0.024 C 
ATOM     16  N   UNL A   1      30.113  25.528  23.398  1.00  0.00    -0.270 NA
ATOM     17  C   UNL A   1      32.196  27.242  25.886  1.00  0.00     0.111 C 
ATOM     18  C   UNL A   1      32.064  25.143  24.780  1.00  0.00     0.002 A 
ATOM     19  C   UNL A   1      31.272  24.947  23.558  1.00  0.00     0.066 A 
ATOM     20  C   UNL A   1      33.490  24.870  24.833  1.00  0.00     0.010 A 
ATOM     21  C   UNL A   1      31.985  24.246  22.471  1.00  0.00     0.028 A 
ATOM     22  C   UNL A   1      34.093  24.404  23.732  1.00  0.00     0.001 A 
ATOM     23  C   UNL A   1      33.315  24.059  22.560  1.00  0.00     0.002 A 
BRANCH  10  24
ATOM     24  C   UNL A   1      29.122  29.575  23.372  1.00  0.00     0.015 A 
ATOM     25  C   UNL A   1      30.330  32.110  25.137  1.00  0.00     0.045 C 
ATOM     26  C   UNL A   1      29.138  31.208  23.894  1.00  0.00    -0.042 A 
ATOM     27  C   UNL A   1      28.525  32.199  23.125  1.00  0.00     0.004 A 
ATOM     28  C   UNL A   1      28.062  31.812  21.870  1.00  0.00     0.000 A 
ATOM     29  C   UNL A   1      28.639  29.372  22.076  1.00  0.00     0.010 A 
ATOM     30  C   UNL A   1      28.138  30.475  21.360  1.00  0.00     0.001 A 
ENDBRANCH  10  24
ENDBRANCH   7   9
ENDBRANCH   6   7
ENDBRANCH   5   6
ENDBRANCH   4   5
ENDBRANCH   3   4
ENDBRANCH   2   3
ENDBRANCH   1   2
BRANCH   1  31
ATOM     31  O   UNL A   1      34.174  33.632  29.352  1.00  0.00    -0.376 OA
BRANCH  31  32
ATOM     32  C   UNL A   1      33.959  35.428  28.749  1.00  0.00     0.202 C 
BRANCH  32  33
ATOM     33  C   UNL A   1      32.828  36.636  29.736  1.00  0.00     0.261 C 
BRANCH  33  34
ATOM     34  O   UNL A   1      33.556  37.053  31.364  1.00  0.00    -0.460 OA
BRANCH  34  35
ATOM     35  C   UNL A   1      34.028  36.409  32.769  1.00  0.00     0.338 C 
ATOM     36  O   UNL A   1      33.960  37.283  33.701  1.00  0.00    -0.246 OA
BRANCH  35  37
ATOM     37  C   UNL A   1      34.646  34.826  33.354  1.00  0.00     0.060 A 
ATOM     38  C   UNL A   1      35.449  34.405  34.469  1.00  0.00     0.016 A 
ATOM     39  C   UNL A   1      34.463  33.617  32.745  1.00  0.00     0.016 A 
ATOM     40  C   UNL A   1      36.428  33.077  34.563  1.00  0.00     0.010 A 
ATOM     41  C   UNL A   1      35.589  32.544  32.780  1.00  0.00     0.010 A 
ATOM     42  C   UNL A   1      36.720  32.162  33.551  1.00  0.00    -0.014 A 
BRANCH  42  43
ATOM     43  C   UNL A   1      38.281  31.339  33.033  1.00  0.00     0.031 A 
ATOM     44  C   UNL A   1      38.607  29.893  31.943  1.00  0.00     0.074 A 
ATOM     45  C   UNL A   1      39.430  32.087  33.218  1.00  0.00     0.049 A 
ATOM     46  N   UNL A   1      38.816  28.599  32.209  1.00  0.00    -0.248 NA
ATOM     47  C   UNL A   1      38.574  29.872  30.388  1.00  0.00     0.031 C 
ATOM     48  C   UNL A   1      40.808  31.964  32.672  1.00  0.00     0.029 A 
ATOM     49  N   UNL A   1      39.576  33.257  33.990  1.00  0.00    -0.354 N 
ATOM     50  C   UNL A   1      38.950  27.884  30.917  1.00  0.00     0.074 A 
ATOM     51  C   UNL A   1      38.200  28.658  30.007  1.00  0.00     0.031 C 
ATOM     52  C   UNL A   1      41.659  32.735  33.388  1.00  0.00     0.029 A 
ATOM     53  C   UNL A   1      40.890  33.278  34.487  1.00  0.00     0.049 A 
ATOM     54  H   UNL A   1      38.883  33.936  34.151  1.00  0.00     0.167 HD
ATOM     55  C   UNL A   1      40.138  27.482  30.292  1.00  0.00     0.034 A 
ATOM     56  C   UNL A   1      40.995  32.965  35.805  1.00  0.00     0.034 A 
ATOM     57  C   UNL A   1      41.237  28.158  30.935  1.00  0.00     0.049 A 
ATOM     58  C   UNL A   1      41.469  31.513  35.884  1.00  0.00     0.074 A 
ATOM     59  C   UNL A   1      42.181  29.109  30.599  1.00  0.00     0.029 A 
ATOM     60  N   UNL A   1      41.263  28.037  32.291  1.00  0.00    -0.354 N 
ATOM     61  N   UNL A   1      41.385  30.635  34.908  1.00  0.00    -0.248 NA
ATOM     62  C   UNL A   1      42.277  31.012  36.981  1.00  0.00     0.031 C 
ATOM     63  C   UNL A   1      42.818  29.506  31.820  1.00  0.00     0.029 A 
ATOM     64  C   UNL A   1      42.224  28.804  32.858  1.00  0.00     0.049 A 
ATOM     65  H   UNL A   1      40.653  27.457  32.802  1.00  0.00     0.167 HD
ATOM     66  C   UNL A   1      42.192  29.560  35.156  1.00  0.00     0.074 A 
ATOM     67  C   UNL A   1      42.706  29.838  36.484  1.00  0.00     0.031 C 
ATOM     68  C   UNL A   1      42.436  28.549  34.260  1.00  0.00     0.034 A 
BRANCH  55  69
ATOM     69  C   UNL A   1      40.313  26.899  28.842  1.00  0.00     0.023 A 
ATOM     70  C   UNL A   1      41.321  27.439  28.003  1.00  0.00     0.031 A 
ATOM     71  C   UNL A   1      39.589  25.831  28.250  1.00  0.00     0.131 A 
ATOM     72  C   UNL A   1      41.541  26.982  26.679  1.00  0.00     0.055 A 
ATOM     73  C   UNL A   1      39.777  25.405  26.914  1.00  0.00     0.041 A 
ATOM     74  F   UNL A   1      38.675  25.130  28.938  1.00  0.00    -0.206 F 
ATOM     75  C   UNL A   1      40.760  25.976  26.121  1.00  0.00     0.022 A 
BRANCH  72  76
ATOM     76  S   UNL A   1      42.913  27.684  25.710  1.00  0.00     0.124 S 
ATOM     77  O   UNL A   1      43.591  28.512  26.702  1.00  0.00    -0.237 OA
ATOM     78  O   UNL A   1      43.621  26.491  25.265  1.00  0.00    -0.237 OA
ATOM     79  O   UNL A   1      42.236  28.426  24.646  1.00  0.00    -0.744 OA
ENDBRANCH  72  76
ENDBRANCH  55  69
BRANCH  56  80
ATOM     80  C   UNL A   1      39.937  33.752  36.560  1.00  0.00     0.023 A 
ATOM     81  C   UNL A   1      38.814  32.996  37.038  1.00  0.00     0.031 A 
ATOM     82  C   UNL A   1      40.176  34.969  37.203  1.00  0.00     0.131 A 
ATOM     83  C   UNL A   1      38.133  33.350  38.216  1.00  0.00     0.055 A 
ATOM     84  C   UNL A   1      39.381  35.394  38.294  1.00  0.00     0.041 A 
ATOM     85  F   UNL A   1      41.285  35.675  36.937  1.00  0.00    -0.206 F 
ATOM     86  C   UNL A   1      38.412  34.552  38.847  1.00  0.00     0.022 A 
BRANCH  83  87
ATOM     87  S   UNL A   1      37.089  32.118  39.070  1.00  0.00     0.124 S 
ATOM     88  O   UNL A   1      37.358  30.913  38.292  1.00  0.00    -0.237 OA
ATOM     89  O   UNL A   1      37.613  32.126  40.433  1.00  0.00    -0.237 OA
ATOM     90  O   UNL A   1      35.741  32.664  38.941  1.00  0.00    -0.744 OA
ENDBRANCH  83  87
ENDBRANCH  56  80
BRANCH  68  91
ATOM     91  C   UNL A   1      42.810  27.113  34.625  1.00  0.00     0.023 A 
ATOM     92  C   UNL A   1      43.856  26.474  33.983  1.00  0.00     0.031 A 
ATOM     93  C   UNL A   1      42.233  26.370  35.704  1.00  0.00     0.131 A 
ATOM     94  C   UNL A   1      44.199  25.153  34.277  1.00  0.00     0.055 A 
ATOM     95  C   UNL A   1      42.682  25.108  36.100  1.00  0.00     0.041 A 
ATOM     96  F   UNL A   1      41.218  26.823  36.451  1.00  0.00    -0.206 F 
ATOM     97  C   UNL A   1      43.648  24.467  35.352  1.00  0.00     0.022 A 
BRANCH  94  98
ATOM     98  S   UNL A   1      45.288  24.347  33.095  1.00  0.00     0.124 S 
ATOM     99  O   UNL A   1      44.524  24.483  31.856  1.00  0.00    -0.237 OA
ATOM    100  O   UNL A   1      46.495  25.163  33.181  1.00  0.00    -0.237 OA
ATOM    101  O   UNL A   1      45.406  22.988  33.610  1.00  0.00    -0.744 OA
ENDBRANCH  94  98
ENDBRANCH  68  91
ENDBRANCH  42  43
ENDBRANCH  35  37
ENDBRANCH  34  35
ENDBRANCH  33  34
ENDBRANCH  32  33
ENDBRANCH  31  32
ENDBRANCH   1  31
TORSDOF 21
ENDMDL
