MODEL 1
REMARK VINA RESULT:      -9.6      0.000      0.000
REMARK SMILES CC[C@H](C)[C@@H](C)NC(=O)c1ccncc1/C=C/C(=O)OCCOCCOCCOC(=O)c1ccc(-c2c3nc(c(-c4cc(S(=O)(=O)[O-])ccc4F)c4ccc([nH]4)c(-c4cc(S(=O)(=O)[O-])ccc4F)c4nc(c(-c5cc(S(=O)(=O)[O-])ccc5F)c5ccc2[nH]5)C=C4)C=C3)cc1
REMARK SMILES IDX 24 1 23 2 22 3 21 4 20 5 18 6 19 7 17 8 16 9 15 10 10 11
REMARK SMILES IDX 11 12 12 13 14 14 13 15 8 16 7 17 9 19 5 20 6 21 3 22 4 23
REMARK SMILES IDX 2 24 1 25 25 26 26 27 27 28 28 29 29 30 30 31 31 32 32 33
REMARK SMILES IDX 33 34 94 35 34 36 93 37 35 38 36 39 37 40 87 41 38 42 92 43
REMARK SMILES IDX 86 44 88 45 39 46 91 47 85 48 84 49 40 51 72 52 52 53 71 54
REMARK SMILES IDX 53 55 56 56 70 57 89 58 54 59 55 60 69 62 90 63 57 64 41 65
REMARK SMILES IDX 42 66 50 67 43 68 49 69 51 70 48 71 44 72 45 73 46 74 47 75
REMARK SMILES IDX 73 76 74 77 82 78 75 79 81 80 83 81 80 82 76 83 77 84 78 85
REMARK SMILES IDX 79 86 58 87 59 88 67 89 60 90 66 91 68 92 65 93 61 94 62 95
REMARK SMILES IDX 63 96 64 97
REMARK H PARENT 7 18 88 50 56 61
REMARK Flexibility Score: inf
ROOT
ATOM      1  C   UNL A   1      34.980  23.924  24.677  1.00  0.00     0.188 C 
ENDROOT
BRANCH   1   2
ATOM      2  O   UNL A   1      34.080  25.012  24.512  1.00  0.00    -0.376 OA
BRANCH   2   3
ATOM      3  C   UNL A   1      33.349  25.500  25.629  1.00  0.00     0.202 C 
BRANCH   3   4
ATOM      4  C   UNL A   1      31.813  25.516  25.618  1.00  0.00     0.261 C 
BRANCH   4   5
ATOM      5  O   UNL A   1      31.185  25.105  26.843  1.00  0.00    -0.460 OA
BRANCH   5   6
ATOM      6  C   UNL A   1      30.535  23.919  26.785  1.00  0.00     0.330 C 
ATOM      7  O   UNL A   1      29.622  23.558  27.514  1.00  0.00    -0.247 OA
BRANCH   6   8
ATOM      8  C   UNL A   1      30.965  23.080  25.647  1.00  0.00     0.094 C 
ATOM      9  C   UNL A   1      31.671  21.936  25.698  1.00  0.00     0.018 C 
BRANCH   9  10
ATOM     10  C   UNL A   1      31.989  21.176  24.470  1.00  0.00     0.006 A 
ATOM     11  C   UNL A   1      32.579  19.902  24.456  1.00  0.00     0.050 A 
ATOM     12  C   UNL A   1      32.648  19.178  23.259  1.00  0.00     0.034 A 
ATOM     13  C   UNL A   1      32.282  19.803  22.085  1.00  0.00     0.112 A 
ATOM     14  C   UNL A   1      31.694  21.717  23.216  1.00  0.00     0.119 A 
ATOM     15  N   UNL A   1      31.842  21.070  22.035  1.00  0.00    -0.264 NA
BRANCH  11  16
ATOM     16  C   UNL A   1      33.106  19.276  25.693  1.00  0.00     0.252 C 
ATOM     17  N   UNL A   1      33.105  17.906  25.840  1.00  0.00    -0.349 N 
ATOM     18  H   UNL A   1      33.528  17.584  26.669  1.00  0.00     0.164 HD
ATOM     19  O   UNL A   1      33.571  19.973  26.591  1.00  0.00    -0.269 OA
BRANCH  17  20
ATOM     20  C   UNL A   1      32.583  16.841  24.972  1.00  0.00     0.082 C 
ATOM     21  C   UNL A   1      31.608  16.010  25.813  1.00  0.00     0.031 C 
BRANCH  20  22
ATOM     22  C   UNL A   1      33.715  15.972  24.352  1.00  0.00     0.008 C 
ATOM     23  C   UNL A   1      34.481  16.782  23.291  1.00  0.00     0.010 C 
BRANCH  22  24
ATOM     24  C   UNL A   1      34.694  15.464  25.435  1.00  0.00     0.002 C 
ATOM     25  C   UNL A   1      35.973  16.290  25.512  1.00  0.00     0.004 C 
ENDBRANCH  22  24
ENDBRANCH  20  22
ENDBRANCH  17  20
ENDBRANCH  11  16
ENDBRANCH   9  10
ENDBRANCH   6   8
ENDBRANCH   5   6
ENDBRANCH   4   5
ENDBRANCH   3   4
ENDBRANCH   2   3
ENDBRANCH   1   2
BRANCH   1  26
ATOM     26  C   UNL A   1      35.288  22.999  23.482  1.00  0.00     0.188 C 
BRANCH  26  27
ATOM     27  O   UNL A   1      36.234  21.988  23.739  1.00  0.00    -0.376 OA
BRANCH  27  28
ATOM     28  C   UNL A   1      36.349  21.438  25.040  1.00  0.00     0.202 C 
BRANCH  28  29
ATOM     29  C   UNL A   1      37.611  20.774  25.629  1.00  0.00     0.261 C 
BRANCH  29  30
ATOM     30  O   UNL A   1      38.883  21.372  25.378  1.00  0.00    -0.460 OA
BRANCH  30  31
ATOM     31  C   UNL A   1      39.797  21.277  26.367  1.00  0.00     0.338 C 
ATOM     32  O   UNL A   1      40.408  20.266  26.708  1.00  0.00    -0.246 OA
BRANCH  31  33
ATOM     33  C   UNL A   1      40.086  22.631  26.865  1.00  0.00     0.060 A 
ATOM     34  C   UNL A   1      39.546  23.732  26.188  1.00  0.00     0.016 A 
ATOM     35  C   UNL A   1      40.893  22.815  27.990  1.00  0.00     0.016 A 
ATOM     36  C   UNL A   1      39.830  25.026  26.625  1.00  0.00     0.010 A 
ATOM     37  C   UNL A   1      41.192  24.114  28.414  1.00  0.00     0.010 A 
ATOM     38  C   UNL A   1      40.682  25.225  27.719  1.00  0.00    -0.014 A 
BRANCH  38  39
ATOM     39  C   UNL A   1      41.179  26.588  28.031  1.00  0.00     0.031 A 
ATOM     40  C   UNL A   1      42.609  26.921  27.704  1.00  0.00     0.074 A 
ATOM     41  C   UNL A   1      40.376  27.516  28.583  1.00  0.00     0.049 A 
ATOM     42  N   UNL A   1      43.286  28.014  27.941  1.00  0.00    -0.248 NA
ATOM     43  C   UNL A   1      43.378  25.868  27.023  1.00  0.00     0.031 C 
ATOM     44  C   UNL A   1      38.965  27.322  28.908  1.00  0.00     0.029 A 
ATOM     45  N   UNL A   1      40.642  28.802  28.980  1.00  0.00    -0.354 N 
ATOM     46  C   UNL A   1      44.562  27.785  27.437  1.00  0.00     0.074 A 
ATOM     47  C   UNL A   1      44.572  26.430  26.925  1.00  0.00     0.031 C 
ATOM     48  C   UNL A   1      38.493  28.446  29.476  1.00  0.00     0.029 A 
ATOM     49  C   UNL A   1      39.576  29.420  29.592  1.00  0.00     0.049 A 
ATOM     50  H   UNL A   1      41.512  29.240  28.842  1.00  0.00     0.167 HD
ATOM     51  C   UNL A   1      45.622  28.629  27.396  1.00  0.00     0.034 A 
ATOM     52  C   UNL A   1      39.497  30.620  30.204  1.00  0.00     0.034 A 
ATOM     53  C   UNL A   1      45.603  29.965  27.939  1.00  0.00     0.049 A 
ATOM     54  C   UNL A   1      40.717  31.510  30.236  1.00  0.00     0.074 A 
ATOM     55  C   UNL A   1      46.617  30.907  27.953  1.00  0.00     0.029 A 
ATOM     56  N   UNL A   1      44.517  30.546  28.584  1.00  0.00    -0.354 N 
ATOM     57  N   UNL A   1      41.918  31.289  29.748  1.00  0.00    -0.248 NA
ATOM     58  C   UNL A   1      40.570  32.815  30.895  1.00  0.00     0.031 C 
ATOM     59  C   UNL A   1      46.172  32.023  28.670  1.00  0.00     0.029 A 
ATOM     60  C   UNL A   1      44.849  31.818  29.029  1.00  0.00     0.049 A 
ATOM     61  H   UNL A   1      43.639  30.118  28.706  1.00  0.00     0.167 HD
ATOM     62  C   UNL A   1      42.657  32.440  30.017  1.00  0.00     0.074 A 
ATOM     63  C   UNL A   1      41.764  33.355  30.697  1.00  0.00     0.031 C 
ATOM     64  C   UNL A   1      43.953  32.718  29.721  1.00  0.00     0.034 A 
BRANCH  51  65
ATOM     65  C   UNL A   1      46.900  28.096  26.790  1.00  0.00     0.023 A 
ATOM     66  C   UNL A   1      47.160  28.193  25.411  1.00  0.00     0.031 A 
ATOM     67  C   UNL A   1      47.845  27.433  27.592  1.00  0.00     0.131 A 
ATOM     68  C   UNL A   1      48.287  27.561  24.865  1.00  0.00     0.055 A 
ATOM     69  C   UNL A   1      49.010  26.882  27.054  1.00  0.00     0.041 A 
ATOM     70  F   UNL A   1      47.641  27.287  28.911  1.00  0.00    -0.206 F 
ATOM     71  C   UNL A   1      49.228  26.928  25.681  1.00  0.00     0.022 A 
BRANCH  68  72
ATOM     72  S   UNL A   1      48.417  27.431  23.060  1.00  0.00     0.124 S 
ATOM     73  O   UNL A   1      49.726  28.034  22.815  1.00  0.00    -0.237 OA
ATOM     74  O   UNL A   1      48.325  25.993  22.839  1.00  0.00    -0.237 OA
ATOM     75  O   UNL A   1      47.281  28.212  22.576  1.00  0.00    -0.744 OA
ENDBRANCH  68  72
ENDBRANCH  51  65
BRANCH  52  76
ATOM     76  C   UNL A   1      38.237  31.032  30.887  1.00  0.00     0.023 A 
ATOM     77  C   UNL A   1      37.238  31.752  30.214  1.00  0.00     0.031 A 
ATOM     78  C   UNL A   1      38.038  30.747  32.251  1.00  0.00     0.131 A 
ATOM     79  C   UNL A   1      36.105  32.199  30.914  1.00  0.00     0.055 A 
ATOM     80  C   UNL A   1      36.884  31.146  32.929  1.00  0.00     0.041 A 
ATOM     81  F   UNL A   1      38.964  30.066  32.944  1.00  0.00    -0.206 F 
ATOM     82  C   UNL A   1      35.915  31.887  32.262  1.00  0.00     0.022 A 
BRANCH  79  83
ATOM     83  S   UNL A   1      34.915  33.265  30.055  1.00  0.00     0.124 S 
ATOM     84  O   UNL A   1      35.795  34.235  29.413  1.00  0.00    -0.237 OA
ATOM     85  O   UNL A   1      34.246  32.321  29.167  1.00  0.00    -0.237 OA
ATOM     86  O   UNL A   1      34.088  33.794  31.138  1.00  0.00    -0.744 OA
ENDBRANCH  79  83
ENDBRANCH  52  76
BRANCH  64  87
ATOM     87  C   UNL A   1      44.468  34.089  30.092  1.00  0.00     0.023 A 
ATOM     88  C   UNL A   1      44.258  35.212  29.273  1.00  0.00     0.031 A 
ATOM     89  C   UNL A   1      45.186  34.272  31.289  1.00  0.00     0.131 A 
ATOM     90  C   UNL A   1      44.804  36.454  29.634  1.00  0.00     0.055 A 
ATOM     91  C   UNL A   1      45.673  35.522  31.673  1.00  0.00     0.041 A 
ATOM     92  F   UNL A   1      45.420  33.236  32.111  1.00  0.00    -0.206 F 
ATOM     93  C   UNL A   1      45.494  36.620  30.837  1.00  0.00     0.022 A 
BRANCH  90  94
ATOM     94  S   UNL A   1      44.681  37.836  28.464  1.00  0.00     0.124 S 
ATOM     95  O   UNL A   1      45.067  38.972  29.294  1.00  0.00    -0.237 OA
ATOM     96  O   UNL A   1      45.630  37.452  27.425  1.00  0.00    -0.237 OA
ATOM     97  O   UNL A   1      43.276  37.815  28.057  1.00  0.00    -0.744 OA
ENDBRANCH  90  94
ENDBRANCH  64  87
ENDBRANCH  38  39
ENDBRANCH  31  33
ENDBRANCH  30  31
ENDBRANCH  29  30
ENDBRANCH  28  29
ENDBRANCH  27  28
ENDBRANCH  26  27
ENDBRANCH   1  26
TORSDOF 25
ENDMDL
MODEL 2
REMARK VINA RESULT:      -9.3      5.629     11.363
REMARK SMILES CC[C@H](C)[C@@H](C)NC(=O)c1ccncc1/C=C/C(=O)OCCOCCOCCOC(=O)c1ccc(-c2c3nc(c(-c4cc(S(=O)(=O)[O-])ccc4F)c4ccc([nH]4)c(-c4cc(S(=O)(=O)[O-])ccc4F)c4nc(c(-c5cc(S(=O)(=O)[O-])ccc5F)c5ccc2[nH]5)C=C4)C=C3)cc1
REMARK SMILES IDX 24 1 23 2 22 3 21 4 20 5 18 6 19 7 17 8 16 9 15 10 10 11
REMARK SMILES IDX 11 12 12 13 14 14 13 15 8 16 7 17 9 19 5 20 6 21 3 22 4 23
REMARK SMILES IDX 2 24 1 25 25 26 26 27 27 28 28 29 29 30 30 31 31 32 32 33
REMARK SMILES IDX 33 34 94 35 34 36 93 37 35 38 36 39 37 40 87 41 38 42 92 43
REMARK SMILES IDX 86 44 88 45 39 46 91 47 85 48 84 49 40 51 72 52 52 53 71 54
REMARK SMILES IDX 53 55 56 56 70 57 89 58 54 59 55 60 69 62 90 63 57 64 41 65
REMARK SMILES IDX 42 66 50 67 43 68 49 69 51 70 48 71 44 72 45 73 46 74 47 75
REMARK SMILES IDX 73 76 74 77 82 78 75 79 81 80 83 81 80 82 76 83 77 84 78 85
REMARK SMILES IDX 79 86 58 87 59 88 67 89 60 90 66 91 68 92 65 93 61 94 62 95
REMARK SMILES IDX 63 96 64 97
REMARK H PARENT 7 18 88 50 56 61
REMARK Flexibility Score: inf
ROOT
ATOM      1  C   UNL A   1      50.989  27.351  24.323  1.00  0.00     0.188 C 
ENDROOT
BRANCH   1   2
ATOM      2  O   UNL A   1      50.089  27.821  23.328  1.00  0.00    -0.376 OA
BRANCH   2   3
ATOM      3  C   UNL A   1      48.781  27.272  23.241  1.00  0.00     0.202 C 
BRANCH   3   4
ATOM      4  C   UNL A   1      48.114  26.629  24.466  1.00  0.00     0.261 C 
BRANCH   4   5
ATOM      5  O   UNL A   1      47.555  27.551  25.415  1.00  0.00    -0.460 OA
BRANCH   5   6
ATOM      6  C   UNL A   1      46.202  27.592  25.446  1.00  0.00     0.330 C 
ATOM      7  O   UNL A   1      45.480  28.241  24.703  1.00  0.00    -0.247 OA
BRANCH   6   8
ATOM      8  C   UNL A   1      45.619  26.664  26.439  1.00  0.00     0.094 C 
ATOM      9  C   UNL A   1      44.859  25.581  26.195  1.00  0.00     0.018 C 
BRANCH   9  10
ATOM     10  C   UNL A   1      44.384  24.716  27.296  1.00  0.00     0.006 A 
ATOM     11  C   UNL A   1      43.313  23.814  27.189  1.00  0.00     0.050 A 
ATOM     12  C   UNL A   1      43.073  22.891  28.215  1.00  0.00     0.034 A 
ATOM     13  C   UNL A   1      43.796  22.999  29.386  1.00  0.00     0.112 A 
ATOM     14  C   UNL A   1      45.016  24.756  28.541  1.00  0.00     0.119 A 
ATOM     15  N   UNL A   1      44.736  23.937  29.583  1.00  0.00    -0.264 NA
BRANCH  11  16
ATOM     16  C   UNL A   1      42.438  23.784  25.992  1.00  0.00     0.252 C 
ATOM     17  N   UNL A   1      41.236  24.458  25.985  1.00  0.00    -0.349 N 
ATOM     18  H   UNL A   1      40.756  24.426  25.126  1.00  0.00     0.164 HD
ATOM     19  O   UNL A   1      42.789  23.177  24.983  1.00  0.00    -0.269 OA
BRANCH  17  20
ATOM     20  C   UNL A   1      40.547  25.216  27.038  1.00  0.00     0.082 C 
ATOM     21  C   UNL A   1      39.097  24.720  27.077  1.00  0.00     0.031 C 
BRANCH  20  22
ATOM     22  C   UNL A   1      40.638  26.753  26.819  1.00  0.00     0.008 C 
ATOM     23  C   UNL A   1      40.761  27.473  28.174  1.00  0.00     0.010 C 
BRANCH  22  24
ATOM     24  C   UNL A   1      41.836  27.125  25.915  1.00  0.00     0.002 C 
ATOM     25  C   UNL A   1      41.804  28.578  25.457  1.00  0.00     0.004 C 
ENDBRANCH  22  24
ENDBRANCH  20  22
ENDBRANCH  17  20
ENDBRANCH  11  16
ENDBRANCH   9  10
ENDBRANCH   6   8
ENDBRANCH   5   6
ENDBRANCH   4   5
ENDBRANCH   3   4
ENDBRANCH   2   3
ENDBRANCH   1   2
BRANCH   1  26
ATOM     26  C   UNL A   1      52.422  27.917  24.387  1.00  0.00     0.188 C 
BRANCH  26  27
ATOM     27  O   UNL A   1      53.435  27.022  23.992  1.00  0.00    -0.376 OA
BRANCH  27  28
ATOM     28  C   UNL A   1      53.520  25.739  24.587  1.00  0.00     0.202 C 
BRANCH  28  29
ATOM     29  C   UNL A   1      53.829  25.453  26.071  1.00  0.00     0.261 C 
BRANCH  29  30
ATOM     30  O   UNL A   1      52.750  25.431  27.006  1.00  0.00    -0.460 OA
BRANCH  30  31
ATOM     31  C   UNL A   1      52.855  26.266  28.063  1.00  0.00     0.338 C 
ATOM     32  O   UNL A   1      53.894  26.687  28.567  1.00  0.00    -0.246 OA
BRANCH  31  33
ATOM     33  C   UNL A   1      51.507  26.742  28.415  1.00  0.00     0.060 A 
ATOM     34  C   UNL A   1      51.368  27.687  29.439  1.00  0.00     0.016 A 
ATOM     35  C   UNL A   1      50.385  26.251  27.743  1.00  0.00     0.016 A 
ATOM     36  C   UNL A   1      50.098  28.130  29.809  1.00  0.00     0.010 A 
ATOM     37  C   UNL A   1      49.112  26.683  28.129  1.00  0.00     0.010 A 
ATOM     38  C   UNL A   1      48.962  27.606  29.180  1.00  0.00    -0.014 A 
BRANCH  38  39
ATOM     39  C   UNL A   1      47.614  27.888  29.732  1.00  0.00     0.031 A 
ATOM     40  C   UNL A   1      46.871  29.095  29.228  1.00  0.00     0.074 A 
ATOM     41  C   UNL A   1      47.055  27.085  30.655  1.00  0.00     0.049 A 
ATOM     42  N   UNL A   1      45.717  29.582  29.605  1.00  0.00    -0.248 NA
ATOM     43  C   UNL A   1      47.530  29.859  28.158  1.00  0.00     0.031 C 
ATOM     44  C   UNL A   1      47.661  25.867  31.191  1.00  0.00     0.029 A 
ATOM     45  N   UNL A   1      45.855  27.185  31.315  1.00  0.00    -0.354 N 
ATOM     46  C   UNL A   1      45.507  30.708  28.817  1.00  0.00     0.074 A 
ATOM     47  C   UNL A   1      46.678  30.855  27.977  1.00  0.00     0.031 C 
ATOM     48  C   UNL A   1      46.837  25.343  32.115  1.00  0.00     0.029 A 
ATOM     49  C   UNL A   1      45.667  26.208  32.265  1.00  0.00     0.049 A 
ATOM     50  H   UNL A   1      45.194  27.888  31.127  1.00  0.00     0.167 HD
ATOM     51  C   UNL A   1      44.434  31.536  28.789  1.00  0.00     0.034 A 
ATOM     52  C   UNL A   1      44.681  26.052  33.173  1.00  0.00     0.034 A 
ATOM     53  C   UNL A   1      43.290  31.393  29.656  1.00  0.00     0.049 A 
ATOM     54  C   UNL A   1      43.540  27.041  33.195  1.00  0.00     0.074 A 
ATOM     55  C   UNL A   1      42.148  32.173  29.715  1.00  0.00     0.029 A 
ATOM     56  N   UNL A   1      43.149  30.413  30.631  1.00  0.00    -0.354 N 
ATOM     57  N   UNL A   1      43.345  28.098  32.439  1.00  0.00    -0.248 NA
ATOM     58  C   UNL A   1      42.482  26.811  34.188  1.00  0.00     0.031 C 
ATOM     59  C   UNL A   1      41.355  31.712  30.772  1.00  0.00     0.029 A 
ATOM     60  C   UNL A   1      41.957  30.590  31.319  1.00  0.00     0.049 A 
ATOM     61  H   UNL A   1      43.800  29.696  30.809  1.00  0.00     0.167 HD
ATOM     62  C   UNL A   1      42.128  28.640  32.848  1.00  0.00     0.074 A 
ATOM     63  C   UNL A   1      41.630  27.786  33.906  1.00  0.00     0.031 C 
ATOM     64  C   UNL A   1      41.477  29.739  32.385  1.00  0.00     0.034 A 
BRANCH  51  65
ATOM     65  C   UNL A   1      44.490  32.699  27.825  1.00  0.00     0.023 A 
ATOM     66  C   UNL A   1      44.904  33.979  28.236  1.00  0.00     0.031 A 
ATOM     67  C   UNL A   1      44.073  32.539  26.493  1.00  0.00     0.131 A 
ATOM     68  C   UNL A   1      44.806  35.064  27.352  1.00  0.00     0.055 A 
ATOM     69  C   UNL A   1      44.062  33.607  25.591  1.00  0.00     0.041 A 
ATOM     70  F   UNL A   1      43.644  31.347  26.048  1.00  0.00    -0.206 F 
ATOM     71  C   UNL A   1      44.413  34.882  26.024  1.00  0.00     0.022 A 
BRANCH  68  72
ATOM     72  S   UNL A   1      45.038  36.740  28.008  1.00  0.00     0.124 S 
ATOM     73  O   UNL A   1      43.872  37.433  27.464  1.00  0.00    -0.237 OA
ATOM     74  O   UNL A   1      45.036  36.518  29.448  1.00  0.00    -0.237 OA
ATOM     75  O   UNL A   1      46.319  37.156  27.441  1.00  0.00    -0.744 OA
ENDBRANCH  68  72
ENDBRANCH  51  65
BRANCH  52  76
ATOM     76  C   UNL A   1      44.752  24.950  34.175  1.00  0.00     0.023 A 
ATOM     77  C   UNL A   1      45.293  25.153  35.455  1.00  0.00     0.031 A 
ATOM     78  C   UNL A   1      44.317  23.653  33.843  1.00  0.00     0.131 A 
ATOM     79  C   UNL A   1      45.424  24.071  36.340  1.00  0.00     0.055 A 
ATOM     80  C   UNL A   1      44.399  22.591  34.747  1.00  0.00     0.041 A 
ATOM     81  F   UNL A   1      43.796  23.401  32.632  1.00  0.00    -0.206 F 
ATOM     82  C   UNL A   1      44.966  22.796  36.000  1.00  0.00     0.022 A 
BRANCH  79  83
ATOM     83  S   UNL A   1      46.276  24.336  37.919  1.00  0.00     0.124 S 
ATOM     84  O   UNL A   1      46.328  25.792  37.988  1.00  0.00    -0.237 OA
ATOM     85  O   UNL A   1      45.378  23.681  38.863  1.00  0.00    -0.237 OA
ATOM     86  O   UNL A   1      47.565  23.673  37.726  1.00  0.00    -0.744 OA
ENDBRANCH  79  83
ENDBRANCH  52  76
BRANCH  64  87
ATOM     87  C   UNL A   1      40.129  30.052  32.993  1.00  0.00     0.023 A 
ATOM     88  C   UNL A   1      40.002  30.746  34.209  1.00  0.00     0.031 A 
ATOM     89  C   UNL A   1      38.951  29.643  32.341  1.00  0.00     0.131 A 
ATOM     90  C   UNL A   1      38.729  30.963  34.762  1.00  0.00     0.055 A 
ATOM     91  C   UNL A   1      37.686  29.917  32.864  1.00  0.00     0.041 A 
ATOM     92  F   UNL A   1      39.009  28.974  31.178  1.00  0.00    -0.206 F 
ATOM     93  C   UNL A   1      37.571  30.570  34.088  1.00  0.00     0.022 A 
BRANCH  90  94
ATOM     94  S   UNL A   1      38.610  31.689  36.421  1.00  0.00     0.124 S 
ATOM     95  O   UNL A   1      38.029  32.997  36.138  1.00  0.00    -0.237 OA
ATOM     96  O   UNL A   1      37.743  30.742  37.114  1.00  0.00    -0.237 OA
ATOM     97  O   UNL A   1      39.996  31.712  36.885  1.00  0.00    -0.744 OA
ENDBRANCH  90  94
ENDBRANCH  64  87
ENDBRANCH  38  39
ENDBRANCH  31  33
ENDBRANCH  30  31
ENDBRANCH  29  30
ENDBRANCH  28  29
ENDBRANCH  27  28
ENDBRANCH  26  27
ENDBRANCH   1  26
TORSDOF 25
ENDMDL
MODEL 3
REMARK VINA RESULT:      -8.9      5.439      9.991
REMARK SMILES CC[C@H](C)[C@@H](C)NC(=O)c1ccncc1/C=C/C(=O)OCCOCCOCCOC(=O)c1ccc(-c2c3nc(c(-c4cc(S(=O)(=O)[O-])ccc4F)c4ccc([nH]4)c(-c4cc(S(=O)(=O)[O-])ccc4F)c4nc(c(-c5cc(S(=O)(=O)[O-])ccc5F)c5ccc2[nH]5)C=C4)C=C3)cc1
REMARK SMILES IDX 24 1 23 2 22 3 21 4 20 5 18 6 19 7 17 8 16 9 15 10 10 11
REMARK SMILES IDX 11 12 12 13 14 14 13 15 8 16 7 17 9 19 5 20 6 21 3 22 4 23
REMARK SMILES IDX 2 24 1 25 25 26 26 27 27 28 28 29 29 30 30 31 31 32 32 33
REMARK SMILES IDX 33 34 94 35 34 36 93 37 35 38 36 39 37 40 87 41 38 42 92 43
REMARK SMILES IDX 86 44 88 45 39 46 91 47 85 48 84 49 40 51 72 52 52 53 71 54
REMARK SMILES IDX 53 55 56 56 70 57 89 58 54 59 55 60 69 62 90 63 57 64 41 65
REMARK SMILES IDX 42 66 50 67 43 68 49 69 51 70 48 71 44 72 45 73 46 74 47 75
REMARK SMILES IDX 73 76 74 77 82 78 75 79 81 80 83 81 80 82 76 83 77 84 78 85
REMARK SMILES IDX 79 86 58 87 59 88 67 89 60 90 66 91 68 92 65 93 61 94 62 95
REMARK SMILES IDX 63 96 64 97
REMARK H PARENT 7 18 88 50 56 61
REMARK Flexibility Score: inf
ROOT
ATOM      1  C   UNL A   1      46.936  21.781  34.787  1.00  0.00     0.188 C 
ENDROOT
BRANCH   1   2
ATOM      2  O   UNL A   1      46.000  22.845  34.670  1.00  0.00    -0.376 OA
BRANCH   2   3
ATOM      3  C   UNL A   1      45.014  22.811  33.646  1.00  0.00     0.202 C 
BRANCH   3   4
ATOM      4  C   UNL A   1      44.639  24.083  32.872  1.00  0.00     0.261 C 
BRANCH   4   5
ATOM      5  O   UNL A   1      43.627  23.915  31.867  1.00  0.00    -0.460 OA
BRANCH   5   6
ATOM      6  C   UNL A   1      44.071  23.447  30.678  1.00  0.00     0.330 C 
ATOM      7  O   UNL A   1      45.214  23.100  30.417  1.00  0.00    -0.247 OA
BRANCH   6   8
ATOM      8  C   UNL A   1      42.990  23.281  29.683  1.00  0.00     0.094 C 
ATOM      9  C   UNL A   1      42.927  22.375  28.690  1.00  0.00     0.018 C 
BRANCH   9  10
ATOM     10  C   UNL A   1      41.753  22.299  27.796  1.00  0.00     0.006 A 
ATOM     11  C   UNL A   1      41.588  21.341  26.782  1.00  0.00     0.050 A 
ATOM     12  C   UNL A   1      40.354  21.219  26.131  1.00  0.00     0.034 A 
ATOM     13  C   UNL A   1      39.375  22.158  26.385  1.00  0.00     0.112 A 
ATOM     14  C   UNL A   1      40.706  23.214  27.935  1.00  0.00     0.119 A 
ATOM     15  N   UNL A   1      39.541  23.174  27.246  1.00  0.00    -0.264 NA
BRANCH  11  16
ATOM     16  C   UNL A   1      42.684  20.417  26.402  1.00  0.00     0.252 C 
ATOM     17  N   UNL A   1      43.889  20.908  25.950  1.00  0.00    -0.349 N 
ATOM     18  H   UNL A   1      44.572  20.219  25.778  1.00  0.00     0.164 HD
ATOM     19  O   UNL A   1      42.536  19.202  26.509  1.00  0.00    -0.269 OA
BRANCH  17  20
ATOM     20  C   UNL A   1      44.333  22.283  25.680  1.00  0.00     0.082 C 
ATOM     21  C   UNL A   1      43.615  22.748  24.408  1.00  0.00     0.031 C 
BRANCH  20  22
ATOM     22  C   UNL A   1      45.880  22.395  25.558  1.00  0.00     0.008 C 
ATOM     23  C   UNL A   1      46.311  22.171  24.097  1.00  0.00     0.010 C 
BRANCH  22  24
ATOM     24  C   UNL A   1      46.387  23.769  26.052  1.00  0.00     0.002 C 
ATOM     25  C   UNL A   1      45.699  24.229  27.333  1.00  0.00     0.004 C 
ENDBRANCH  22  24
ENDBRANCH  20  22
ENDBRANCH  17  20
ENDBRANCH  11  16
ENDBRANCH   9  10
ENDBRANCH   6   8
ENDBRANCH   5   6
ENDBRANCH   4   5
ENDBRANCH   3   4
ENDBRANCH   2   3
ENDBRANCH   1   2
BRANCH   1  26
ATOM     26  C   UNL A   1      48.084  21.881  35.812  1.00  0.00     0.188 C 
BRANCH  26  27
ATOM     27  O   UNL A   1      47.954  22.924  36.750  1.00  0.00    -0.376 OA
BRANCH  27  28
ATOM     28  C   UNL A   1      47.888  24.269  36.312  1.00  0.00     0.202 C 
BRANCH  28  29
ATOM     29  C   UNL A   1      49.002  25.324  36.471  1.00  0.00     0.261 C 
BRANCH  29  30
ATOM     30  O   UNL A   1      48.729  26.674  36.094  1.00  0.00    -0.460 OA
BRANCH  30  31
ATOM     31  C   UNL A   1      47.751  27.304  36.781  1.00  0.00     0.338 C 
ATOM     32  O   UNL A   1      47.818  27.730  37.931  1.00  0.00    -0.246 OA
BRANCH  31  33
ATOM     33  C   UNL A   1      46.631  27.563  35.862  1.00  0.00     0.060 A 
ATOM     34  C   UNL A   1      46.672  28.702  35.048  1.00  0.00     0.016 A 
ATOM     35  C   UNL A   1      45.540  26.692  35.811  1.00  0.00     0.016 A 
ATOM     36  C   UNL A   1      45.608  28.983  34.190  1.00  0.00     0.010 A 
ATOM     37  C   UNL A   1      44.467  26.987  34.964  1.00  0.00     0.010 A 
ATOM     38  C   UNL A   1      44.485  28.146  34.169  1.00  0.00    -0.014 A 
BRANCH  38  39
ATOM     39  C   UNL A   1      43.259  28.572  33.449  1.00  0.00     0.031 A 
ATOM     40  C   UNL A   1      43.154  28.275  31.977  1.00  0.00     0.074 A 
ATOM     41  C   UNL A   1      42.255  29.199  34.087  1.00  0.00     0.049 A 
ATOM     42  N   UNL A   1      42.218  28.604  31.126  1.00  0.00    -0.248 NA
ATOM     43  C   UNL A   1      44.264  27.510  31.391  1.00  0.00     0.031 C 
ATOM     44  C   UNL A   1      42.227  29.505  35.516  1.00  0.00     0.029 A 
ATOM     45  N   UNL A   1      41.072  29.703  33.609  1.00  0.00    -0.354 N 
ATOM     46  C   UNL A   1      42.622  28.084  29.901  1.00  0.00     0.074 A 
ATOM     47  C   UNL A   1      43.911  27.460  30.117  1.00  0.00     0.031 C 
ATOM     48  C   UNL A   1      41.090  30.166  35.796  1.00  0.00     0.029 A 
ATOM     49  C   UNL A   1      40.331  30.363  34.562  1.00  0.00     0.049 A 
ATOM     50  H   UNL A   1      40.781  29.603  32.675  1.00  0.00     0.167 HD
ATOM     51  C   UNL A   1      41.974  28.115  28.710  1.00  0.00     0.034 A 
ATOM     52  C   UNL A   1      39.190  31.074  34.442  1.00  0.00     0.034 A 
ATOM     53  C   UNL A   1      40.704  28.768  28.506  1.00  0.00     0.049 A 
ATOM     54  C   UNL A   1      38.530  31.182  33.087  1.00  0.00     0.074 A 
ATOM     55  C   UNL A   1      39.958  28.863  27.345  1.00  0.00     0.029 A 
ATOM     56  N   UNL A   1      39.999  29.459  29.486  1.00  0.00    -0.354 N 
ATOM     57  N   UNL A   1      38.916  30.678  31.936  1.00  0.00    -0.248 NA
ATOM     58  C   UNL A   1      37.279  31.948  33.017  1.00  0.00     0.031 C 
ATOM     59  C   UNL A   1      38.844  29.670  27.603  1.00  0.00     0.029 A 
ATOM     60  C   UNL A   1      38.846  30.010  28.946  1.00  0.00     0.049 A 
ATOM     61  H   UNL A   1      40.277  29.544  30.427  1.00  0.00     0.167 HD
ATOM     62  C   UNL A   1      37.937  31.044  31.013  1.00  0.00     0.074 A 
ATOM     63  C   UNL A   1      36.940  31.797  31.745  1.00  0.00     0.031 C 
ATOM     64  C   UNL A   1      37.864  30.774  29.684  1.00  0.00     0.034 A 
BRANCH  51  65
ATOM     65  C   UNL A   1      42.669  27.468  27.535  1.00  0.00     0.023 A 
ATOM     66  C   UNL A   1      43.959  27.861  27.133  1.00  0.00     0.031 A 
ATOM     67  C   UNL A   1      42.014  26.486  26.772  1.00  0.00     0.131 A 
ATOM     68  C   UNL A   1      44.514  27.341  25.953  1.00  0.00     0.055 A 
ATOM     69  C   UNL A   1      42.609  25.907  25.649  1.00  0.00     0.041 A 
ATOM     70  F   UNL A   1      40.772  26.088  27.091  1.00  0.00    -0.206 F 
ATOM     71  C   UNL A   1      43.858  26.347  25.223  1.00  0.00     0.022 A 
BRANCH  68  72
ATOM     72  S   UNL A   1      46.024  28.102  25.297  1.00  0.00     0.124 S 
ATOM     73  O   UNL A   1      45.897  29.475  25.783  1.00  0.00    -0.237 OA
ATOM     74  O   UNL A   1      47.075  27.302  25.914  1.00  0.00    -0.237 OA
ATOM     75  O   UNL A   1      45.887  27.947  23.851  1.00  0.00    -0.744 OA
ENDBRANCH  68  72
ENDBRANCH  51  65
BRANCH  52  76
ATOM     76  C   UNL A   1      38.623  31.788  35.622  1.00  0.00     0.023 A 
ATOM     77  C   UNL A   1      38.068  31.090  36.707  1.00  0.00     0.031 A 
ATOM     78  C   UNL A   1      38.588  33.195  35.657  1.00  0.00     0.131 A 
ATOM     79  C   UNL A   1      37.465  31.798  37.760  1.00  0.00     0.055 A 
ATOM     80  C   UNL A   1      38.037  33.895  36.733  1.00  0.00     0.041 A 
ATOM     81  F   UNL A   1      39.101  33.912  34.645  1.00  0.00    -0.206 F 
ATOM     82  C   UNL A   1      37.460  33.194  37.787  1.00  0.00     0.022 A 
BRANCH  79  83
ATOM     83  S   UNL A   1      36.614  30.864  39.061  1.00  0.00     0.124 S 
ATOM     84  O   UNL A   1      36.365  29.589  38.397  1.00  0.00    -0.237 OA
ATOM     85  O   UNL A   1      37.610  30.849  40.126  1.00  0.00    -0.237 OA
ATOM     86  O   UNL A   1      35.424  31.668  39.334  1.00  0.00    -0.744 OA
ENDBRANCH  79  83
ENDBRANCH  52  76
BRANCH  64  87
ATOM     87  C   UNL A   1      36.638  31.259  28.946  1.00  0.00     0.023 A 
ATOM     88  C   UNL A   1      35.631  30.379  28.513  1.00  0.00     0.031 A 
ATOM     89  C   UNL A   1      36.479  32.630  28.669  1.00  0.00     0.131 A 
ATOM     90  C   UNL A   1      34.538  30.871  27.781  1.00  0.00     0.055 A 
ATOM     91  C   UNL A   1      35.360  33.121  27.996  1.00  0.00     0.041 A 
ATOM     92  F   UNL A   1      37.410  33.517  29.055  1.00  0.00    -0.206 F 
ATOM     93  C   UNL A   1      34.387  32.238  27.536  1.00  0.00     0.022 A 
BRANCH  90  94
ATOM     94  S   UNL A   1      33.357  29.690  27.073  1.00  0.00     0.124 S 
ATOM     95  O   UNL A   1      33.883  29.507  25.724  1.00  0.00    -0.237 OA
ATOM     96  O   UNL A   1      33.485  28.545  27.968  1.00  0.00    -0.237 OA
ATOM     97  O   UNL A   1      32.079  30.395  27.149  1.00  0.00    -0.744 OA
ENDBRANCH  90  94
ENDBRANCH  64  87
ENDBRANCH  38  39
ENDBRANCH  31  33
ENDBRANCH  30  31
ENDBRANCH  29  30
ENDBRANCH  28  29
ENDBRANCH  27  28
ENDBRANCH  26  27
ENDBRANCH   1  26
TORSDOF 25
ENDMDL
