MODEL 1
REMARK VINA RESULT:      -7.8      0.000      0.000
REMARK SMILES C[C@H]1[C@H](C)CC[C@@]2(C(=O)OCCOCCOCCOC(=O)c3ccc(-c4c5nc(c(-c6cc(S(=O)(=O)[O-])ccc6F)c6ccc([nH]6)c(-c6cc(S(=O)(=O)[O-])ccc6F)c6nc(c(-c7cc(S(=O)(=O)[O-])ccc7F)c7ccc4[nH]7)C=C6)C=C5)cc3)CC[C@@]3(C)C(=CC[C@@H]4[C@@]5(C)CC[C@H](O)C(C)(C)[C@@H]5CC[C@]43C)[C@H]12
REMARK SMILES IDX 15 1 14 2 13 3 12 4 11 5 10 6 8 7 9 8 7 9 1 10 2 11 3 12
REMARK SMILES IDX 107 13 4 14 5 15 89 16 6 17 85 18 87 19 90 20 86 21 88 22
REMARK SMILES IDX 105 23 91 24 92 25 104 26 106 27 93 28 103 29 94 30 95 31
REMARK SMILES IDX 102 32 96 33 99 34 97 35 100 36 101 37 98 38 16 40 17 41
REMARK SMILES IDX 18 42 19 43 20 44 21 45 22 46 23 47 84 48 24 49 83 50 25 51
REMARK SMILES IDX 26 52 27 53 77 54 28 55 82 56 76 57 78 58 29 59 81 60 75 61
REMARK SMILES IDX 74 62 30 64 62 65 42 66 61 67 43 68 46 69 60 70 79 71 44 72
REMARK SMILES IDX 45 73 59 75 80 76 47 77 31 78 32 79 40 80 33 81 39 82 41 83
REMARK SMILES IDX 38 84 34 85 35 86 36 87 37 88 63 89 64 90 72 91 65 92 71 93
REMARK SMILES IDX 73 94 70 95 66 96 67 97 68 98 69 99 48 100 49 101 57 102
REMARK SMILES IDX 50 103 56 104 58 105 55 106 51 107 52 108 53 109 54 110
REMARK H PARENT 98 39 78 63 46 74
REMARK Flexibility Score: inf
ROOT
ATOM      1  C   UNL A   1      50.454  42.331  35.551  1.00  0.00     0.188 C 
ENDROOT
BRANCH   1   2
ATOM      2  C   UNL A   1      48.961  42.763  35.359  1.00  0.00     0.188 C 
BRANCH   2   3
ATOM      3  O   UNL A   1      48.510  42.626  34.030  1.00  0.00    -0.376 OA
BRANCH   3   4
ATOM      4  C   UNL A   1      47.463  41.692  33.922  1.00  0.00     0.202 C 
BRANCH   4   5
ATOM      5  C   UNL A   1      46.077  42.221  33.556  1.00  0.00     0.261 C 
BRANCH   5   6
ATOM      6  O   UNL A   1      45.165  41.599  32.541  1.00  0.00    -0.463 OA
BRANCH   6   7
ATOM      7  C   UNL A   1      44.488  40.549  32.008  1.00  0.00     0.312 C 
ATOM      8  O   UNL A   1      44.643  39.357  32.240  1.00  0.00    -0.252 OA
BRANCH   7   9
ATOM      9  C   UNL A   1      43.353  41.037  31.074  1.00  0.00     0.075 C 
ATOM     10  C   UNL A   1      44.525  44.721  30.151  1.00  0.00     0.008 C 
ATOM     11  C   UNL A   1      44.081  43.520  30.985  1.00  0.00    -0.003 C 
ATOM     12  C   UNL A   1      42.862  43.874  31.918  1.00  0.00    -0.011 C 
ATOM     13  C   UNL A   1      43.918  42.145  30.136  1.00  0.00     0.036 C 
ATOM     14  C   UNL A   1      43.165  44.981  32.953  1.00  0.00     0.008 C 
ATOM     15  C   UNL A   1      42.373  42.691  32.758  1.00  0.00     0.005 C 
ATOM     16  C   UNL A   1      45.139  41.388  29.421  1.00  0.00    -0.063 C 
ATOM     17  C   UNL A   1      42.154  41.448  31.941  1.00  0.00     0.020 C 
ATOM     18  C   UNL A   1      42.813  39.862  30.222  1.00  0.00     0.020 C 
ATOM     19  C   UNL A   1      44.847  40.033  28.637  1.00  0.00    -0.006 C 
ATOM     20  C   UNL A   1      46.417  41.701  29.713  1.00  0.00    -0.027 C 
ATOM     21  C   UNL A   1      43.885  39.125  29.446  1.00  0.00     0.013 C 
ATOM     22  C   UNL A   1      44.107  40.424  27.335  1.00  0.00     0.017 C 
ATOM     23  C   UNL A   1      46.218  39.162  28.287  1.00  0.00    -0.020 C 
ATOM     24  C   UNL A   1      47.557  40.712  29.670  1.00  0.00     0.032 C 
ATOM     25  C   UNL A   1      47.130  39.223  29.562  1.00  0.00     0.006 C 
ATOM     26  C   UNL A   1      45.956  37.676  27.932  1.00  0.00     0.008 C 
ATOM     27  C   UNL A   1      46.925  39.777  27.044  1.00  0.00     0.012 C 
ATOM     28  C   UNL A   1      48.330  38.152  29.736  1.00  0.00    -0.025 C 
ATOM     29  C   UNL A   1      47.245  36.850  27.768  1.00  0.00     0.005 C 
ATOM     30  C   UNL A   1      49.648  38.794  29.251  1.00  0.00     0.012 C 
ATOM     31  C   UNL A   1      48.544  37.804  31.256  1.00  0.00     0.010 C 
ATOM     32  C   UNL A   1      47.992  36.744  29.104  1.00  0.00     0.003 C 
ATOM     33  C   UNL A   1      49.645  36.756  31.513  1.00  0.00     0.033 C 
ATOM     34  C   UNL A   1      49.167  35.679  29.160  1.00  0.00    -0.006 C 
ATOM     35  C   UNL A   1      49.547  35.478  30.665  1.00  0.00     0.120 C 
ATOM     36  C   UNL A   1      50.386  36.014  28.266  1.00  0.00     0.014 C 
ATOM     37  C   UNL A   1      48.690  34.294  28.636  1.00  0.00     0.014 C 
BRANCH  35  38
ATOM     38  O   UNL A   1      50.763  34.739  30.814  1.00  0.00    -0.393 OA
ATOM     39  H   UNL A   1      51.340  34.908  30.053  1.00  0.00     0.210 HD
ENDBRANCH  35  38
ENDBRANCH   7   9
ENDBRANCH   6   7
ENDBRANCH   5   6
ENDBRANCH   4   5
ENDBRANCH   3   4
ENDBRANCH   2   3
ENDBRANCH   1   2
BRANCH   1  40
ATOM     40  O   UNL A   1      50.757  41.245  36.415  1.00  0.00    -0.376 OA
BRANCH  40  41
ATOM     41  C   UNL A   1      51.758  40.346  35.993  1.00  0.00     0.202 C 
BRANCH  41  42
ATOM     42  C   UNL A   1      51.361  39.223  35.015  1.00  0.00     0.261 C 
BRANCH  42  43
ATOM     43  O   UNL A   1      51.285  37.867  35.533  1.00  0.00    -0.460 OA
BRANCH  43  44
ATOM     44  C   UNL A   1      50.214  37.552  36.316  1.00  0.00     0.338 C 
ATOM     45  O   UNL A   1      50.153  37.747  37.528  1.00  0.00    -0.246 OA
BRANCH  44  46
ATOM     46  C   UNL A   1      49.006  37.143  35.521  1.00  0.00     0.060 A 
ATOM     47  C   UNL A   1      48.017  38.103  35.232  1.00  0.00     0.016 A 
ATOM     48  C   UNL A   1      48.791  35.825  35.115  1.00  0.00     0.016 A 
ATOM     49  C   UNL A   1      46.790  37.741  34.648  1.00  0.00     0.010 A 
ATOM     50  C   UNL A   1      47.551  35.457  34.548  1.00  0.00     0.010 A 
ATOM     51  C   UNL A   1      46.511  36.398  34.373  1.00  0.00    -0.014 A 
BRANCH  51  52
ATOM     52  C   UNL A   1      45.090  35.933  34.215  1.00  0.00     0.031 A 
ATOM     53  C   UNL A   1      44.569  35.737  32.807  1.00  0.00     0.074 A 
ATOM     54  C   UNL A   1      44.264  35.650  35.243  1.00  0.00     0.049 A 
ATOM     55  N   UNL A   1      43.364  35.445  32.386  1.00  0.00    -0.248 NA
ATOM     56  C   UNL A   1      45.556  35.898  31.728  1.00  0.00     0.031 C 
ATOM     57  C   UNL A   1      44.625  35.688  36.656  1.00  0.00     0.029 A 
ATOM     58  N   UNL A   1      42.933  35.284  35.253  1.00  0.00    -0.354 N 
ATOM     59  C   UNL A   1      43.444  35.406  30.996  1.00  0.00     0.074 A 
ATOM     60  C   UNL A   1      44.807  35.748  30.649  1.00  0.00     0.031 C 
ATOM     61  C   UNL A   1      43.538  35.396  37.395  1.00  0.00     0.029 A 
ATOM     62  C   UNL A   1      42.389  35.179  36.515  1.00  0.00     0.049 A 
ATOM     63  H   UNL A   1      42.418  35.114  34.432  1.00  0.00     0.167 HD
ATOM     64  C   UNL A   1      42.484  35.104  30.087  1.00  0.00     0.034 A 
ATOM     65  C   UNL A   1      41.114  34.962  36.919  1.00  0.00     0.034 A 
ATOM     66  C   UNL A   1      41.123  34.764  30.425  1.00  0.00     0.049 A 
ATOM     67  C   UNL A   1      40.025  34.747  35.887  1.00  0.00     0.074 A 
ATOM     68  C   UNL A   1      40.085  34.425  29.573  1.00  0.00     0.029 A 
ATOM     69  N   UNL A   1      40.603  34.731  31.711  1.00  0.00    -0.354 N 
ATOM     70  N   UNL A   1      40.116  34.717  34.577  1.00  0.00    -0.248 NA
ATOM     71  C   UNL A   1      38.660  34.524  36.391  1.00  0.00     0.031 C 
ATOM     72  C   UNL A   1      38.921  34.276  30.333  1.00  0.00     0.029 A 
ATOM     73  C   UNL A   1      39.250  34.420  31.671  1.00  0.00     0.049 A 
ATOM     74  H   UNL A   1      41.118  34.903  32.533  1.00  0.00     0.167 HD
ATOM     75  C   UNL A   1      38.833  34.426  34.110  1.00  0.00     0.074 A 
ATOM     76  C   UNL A   1      37.989  34.283  35.276  1.00  0.00     0.031 C 
ATOM     77  C   UNL A   1      38.400  34.279  32.831  1.00  0.00     0.034 A 
BRANCH  64  78
ATOM     78  C   UNL A   1      42.863  35.188  28.625  1.00  0.00     0.023 A 
ATOM     79  C   UNL A   1      43.658  34.209  28.005  1.00  0.00     0.031 A 
ATOM     80  C   UNL A   1      42.446  36.286  27.849  1.00  0.00     0.131 A 
ATOM     81  C   UNL A   1      44.076  34.386  26.676  1.00  0.00     0.055 A 
ATOM     82  C   UNL A   1      42.792  36.410  26.503  1.00  0.00     0.041 A 
ATOM     83  F   UNL A   1      41.703  37.264  28.391  1.00  0.00    -0.206 F 
ATOM     84  C   UNL A   1      43.625  35.466  25.913  1.00  0.00     0.022 A 
BRANCH  81  85
ATOM     85  S   UNL A   1      45.343  33.273  26.010  1.00  0.00     0.124 S 
ATOM     86  O   UNL A   1      46.236  34.210  25.334  1.00  0.00    -0.237 OA
ATOM     87  O   UNL A   1      45.873  32.641  27.215  1.00  0.00    -0.237 OA
ATOM     88  O   UNL A   1      44.591  32.389  25.122  1.00  0.00    -0.744 OA
ENDBRANCH  81  85
ENDBRANCH  64  78
BRANCH  65  89
ATOM     89  C   UNL A   1      40.758  34.989  38.373  1.00  0.00     0.023 A 
ATOM     90  C   UNL A   1      40.904  33.854  39.191  1.00  0.00     0.031 A 
ATOM     91  C   UNL A   1      40.175  36.133  38.946  1.00  0.00     0.131 A 
ATOM     92  C   UNL A   1      40.434  33.875  40.516  1.00  0.00     0.055 A 
ATOM     93  C   UNL A   1      39.763  36.169  40.281  1.00  0.00     0.041 A 
ATOM     94  F   UNL A   1      39.986  37.239  38.209  1.00  0.00    -0.206 F 
ATOM     95  C   UNL A   1      39.879  35.031  41.070  1.00  0.00     0.022 A 
BRANCH  92  96
ATOM     96  S   UNL A   1      40.467  32.338  41.481  1.00  0.00     0.124 S 
ATOM     97  O   UNL A   1      40.684  32.840  42.833  1.00  0.00    -0.237 OA
ATOM     98  O   UNL A   1      39.147  31.780  41.206  1.00  0.00    -0.237 OA
ATOM     99  O   UNL A   1      41.586  31.596  40.902  1.00  0.00    -0.744 OA
ENDBRANCH  92  96
ENDBRANCH  65  89
BRANCH  77 100
ATOM    100  C   UNL A   1      36.955  33.878  32.617  1.00  0.00     0.023 A 
ATOM    101  C   UNL A   1      35.943  34.821  32.363  1.00  0.00     0.031 A 
ATOM    102  C   UNL A   1      36.586  32.520  32.673  1.00  0.00     0.131 A 
ATOM    103  C   UNL A   1      34.608  34.401  32.236  1.00  0.00     0.055 A 
ATOM    104  C   UNL A   1      35.268  32.102  32.476  1.00  0.00     0.041 A 
ATOM    105  F   UNL A   1      37.503  31.570  32.917  1.00  0.00    -0.206 F 
ATOM    106  C   UNL A   1      34.267  33.046  32.269  1.00  0.00     0.022 A 
BRANCH 103 107
ATOM    107  S   UNL A   1      33.302  35.656  32.133  1.00  0.00     0.124 S 
ATOM    108  O   UNL A   1      33.805  36.692  33.028  1.00  0.00    -0.237 OA
ATOM    109  O   UNL A   1      33.298  35.988  30.711  1.00  0.00    -0.237 OA
ATOM    110  O   UNL A   1      32.111  34.953  32.607  1.00  0.00    -0.744 OA
ENDBRANCH 103 107
ENDBRANCH  77 100
ENDBRANCH  51  52
ENDBRANCH  44  46
ENDBRANCH  43  44
ENDBRANCH  42  43
ENDBRANCH  41  42
ENDBRANCH  40  41
ENDBRANCH   1  40
TORSDOF 21
ENDMDL
MODEL 2
REMARK VINA RESULT:      -7.6      3.871      7.945
REMARK SMILES C[C@H]1[C@H](C)CC[C@@]2(C(=O)OCCOCCOCCOC(=O)c3ccc(-c4c5nc(c(-c6cc(S(=O)(=O)[O-])ccc6F)c6ccc([nH]6)c(-c6cc(S(=O)(=O)[O-])ccc6F)c6nc(c(-c7cc(S(=O)(=O)[O-])ccc7F)c7ccc4[nH]7)C=C6)C=C5)cc3)CC[C@@]3(C)C(=CC[C@@H]4[C@@]5(C)CC[C@H](O)C(C)(C)[C@@H]5CC[C@]43C)[C@H]12
REMARK SMILES IDX 15 1 14 2 13 3 12 4 11 5 10 6 8 7 9 8 7 9 1 10 2 11 3 12
REMARK SMILES IDX 107 13 4 14 5 15 89 16 6 17 85 18 87 19 90 20 86 21 88 22
REMARK SMILES IDX 105 23 91 24 92 25 104 26 106 27 93 28 103 29 94 30 95 31
REMARK SMILES IDX 102 32 96 33 99 34 97 35 100 36 101 37 98 38 16 40 17 41
REMARK SMILES IDX 18 42 19 43 20 44 21 45 22 46 23 47 84 48 24 49 83 50 25 51
REMARK SMILES IDX 26 52 27 53 77 54 28 55 82 56 76 57 78 58 29 59 81 60 75 61
REMARK SMILES IDX 74 62 30 64 62 65 42 66 61 67 43 68 46 69 60 70 79 71 44 72
REMARK SMILES IDX 45 73 59 75 80 76 47 77 31 78 32 79 40 80 33 81 39 82 41 83
REMARK SMILES IDX 38 84 34 85 35 86 36 87 37 88 63 89 64 90 72 91 65 92 71 93
REMARK SMILES IDX 73 94 70 95 66 96 67 97 68 98 69 99 48 100 49 101 57 102
REMARK SMILES IDX 50 103 56 104 58 105 55 106 51 107 52 108 53 109 54 110
REMARK H PARENT 98 39 78 63 46 74
REMARK Flexibility Score: inf
ROOT
ATOM      1  C   UNL A   1      43.240  42.093  30.833  1.00  0.00     0.188 C 
ENDROOT
BRANCH   1   2
ATOM      2  C   UNL A   1      41.886  41.333  31.035  1.00  0.00     0.188 C 
BRANCH   2   3
ATOM      3  O   UNL A   1      41.133  41.214  29.848  1.00  0.00    -0.376 OA
BRANCH   3   4
ATOM      4  C   UNL A   1      41.954  41.096  28.712  1.00  0.00     0.202 C 
BRANCH   4   5
ATOM      5  C   UNL A   1      41.928  39.770  27.954  1.00  0.00     0.261 C 
BRANCH   5   6
ATOM      6  O   UNL A   1      43.031  38.753  27.969  1.00  0.00    -0.463 OA
BRANCH   6   7
ATOM      7  C   UNL A   1      43.583  37.564  27.614  1.00  0.00     0.312 C 
ATOM      8  O   UNL A   1      43.624  37.056  26.501  1.00  0.00    -0.252 OA
BRANCH   7   9
ATOM      9  C   UNL A   1      44.290  36.899  28.820  1.00  0.00     0.075 C 
ATOM     10  C   UNL A   1      46.607  34.187  27.066  1.00  0.00     0.008 C 
ATOM     11  C   UNL A   1      45.349  34.937  27.504  1.00  0.00    -0.003 C 
ATOM     12  C   UNL A   1      44.291  33.972  28.160  1.00  0.00    -0.011 C 
ATOM     13  C   UNL A   1      45.645  36.300  28.337  1.00  0.00     0.036 C 
ATOM     14  C   UNL A   1      43.779  32.865  27.212  1.00  0.00     0.008 C 
ATOM     15  C   UNL A   1      43.023  34.688  28.631  1.00  0.00     0.005 C 
ATOM     16  C   UNL A   1      46.377  37.585  27.714  1.00  0.00    -0.063 C 
ATOM     17  C   UNL A   1      43.316  35.903  29.467  1.00  0.00     0.020 C 
ATOM     18  C   UNL A   1      44.552  37.942  29.934  1.00  0.00     0.020 C 
ATOM     19  C   UNL A   1      46.585  38.868  28.634  1.00  0.00    -0.006 C 
ATOM     20  C   UNL A   1      46.546  37.711  26.384  1.00  0.00    -0.027 C 
ATOM     21  C   UNL A   1      45.307  39.166  29.461  1.00  0.00     0.013 C 
ATOM     22  C   UNL A   1      47.701  38.513  29.646  1.00  0.00     0.017 C 
ATOM     23  C   UNL A   1      46.988  40.235  27.781  1.00  0.00    -0.020 C 
ATOM     24  C   UNL A   1      46.570  39.037  25.660  1.00  0.00     0.032 C 
ATOM     25  C   UNL A   1      46.084  40.251  26.498  1.00  0.00     0.006 C 
ATOM     26  C   UNL A   1      46.772  41.559  28.558  1.00  0.00     0.008 C 
ATOM     27  C   UNL A   1      48.501  40.199  27.418  1.00  0.00     0.012 C 
ATOM     28  C   UNL A   1      45.901  41.627  25.668  1.00  0.00    -0.025 C 
ATOM     29  C   UNL A   1      46.997  42.817  27.699  1.00  0.00     0.005 C 
ATOM     30  C   UNL A   1      46.893  41.632  24.485  1.00  0.00     0.012 C 
ATOM     31  C   UNL A   1      44.462  41.703  25.036  1.00  0.00     0.010 C 
ATOM     32  C   UNL A   1      45.942  42.910  26.590  1.00  0.00     0.003 C 
ATOM     33  C   UNL A   1      44.184  43.005  24.258  1.00  0.00     0.033 C 
ATOM     34  C   UNL A   1      45.861  44.296  25.821  1.00  0.00    -0.006 C 
ATOM     35  C   UNL A   1      44.526  44.303  25.006  1.00  0.00     0.120 C 
ATOM     36  C   UNL A   1      47.102  44.629  24.957  1.00  0.00     0.014 C 
ATOM     37  C   UNL A   1      45.775  45.484  26.822  1.00  0.00     0.014 C 
BRANCH  35  38
ATOM     38  O   UNL A   1      44.475  45.390  24.076  1.00  0.00    -0.393 OA
ATOM     39  H   UNL A   1      45.133  46.058  24.323  1.00  0.00     0.210 HD
ENDBRANCH  35  38
ENDBRANCH   7   9
ENDBRANCH   6   7
ENDBRANCH   5   6
ENDBRANCH   4   5
ENDBRANCH   3   4
ENDBRANCH   2   3
ENDBRANCH   1   2
BRANCH   1  40
ATOM     40  O   UNL A   1      43.548  43.198  31.670  1.00  0.00    -0.376 OA
BRANCH  40  41
ATOM     41  C   UNL A   1      44.807  43.195  32.304  1.00  0.00     0.202 C 
BRANCH  41  42
ATOM     42  C   UNL A   1      44.863  43.517  33.811  1.00  0.00     0.261 C 
BRANCH  42  43
ATOM     43  O   UNL A   1      44.500  42.463  34.744  1.00  0.00    -0.460 OA
BRANCH  43  44
ATOM     44  C   UNL A   1      45.371  41.424  34.887  1.00  0.00     0.338 C 
ATOM     45  O   UNL A   1      46.501  41.518  35.361  1.00  0.00    -0.246 OA
BRANCH  44  46
ATOM     46  C   UNL A   1      44.739  40.087  34.615  1.00  0.00     0.060 A 
ATOM     47  C   UNL A   1      45.141  38.971  35.374  1.00  0.00     0.016 A 
ATOM     48  C   UNL A   1      43.814  39.894  33.588  1.00  0.00     0.016 A 
ATOM     49  C   UNL A   1      44.717  37.670  35.049  1.00  0.00     0.010 A 
ATOM     50  C   UNL A   1      43.404  38.586  33.248  1.00  0.00     0.010 A 
ATOM     51  C   UNL A   1      43.906  37.454  33.931  1.00  0.00    -0.014 A 
BRANCH  51  52
ATOM     52  C   UNL A   1      43.839  36.095  33.291  1.00  0.00     0.031 A 
ATOM     53  C   UNL A   1      45.089  35.579  32.610  1.00  0.00     0.074 A 
ATOM     54  C   UNL A   1      42.751  35.297  33.311  1.00  0.00     0.049 A 
ATOM     55  N   UNL A   1      45.277  34.496  31.898  1.00  0.00    -0.248 NA
ATOM     56  C   UNL A   1      46.293  36.412  32.758  1.00  0.00     0.031 C 
ATOM     57  C   UNL A   1      41.500  35.588  34.001  1.00  0.00     0.029 A 
ATOM     58  N   UNL A   1      42.524  34.071  32.718  1.00  0.00    -0.354 N 
ATOM     59  C   UNL A   1      46.611  34.528  31.499  1.00  0.00     0.074 A 
ATOM     60  C   UNL A   1      47.169  35.760  32.014  1.00  0.00     0.031 C 
ATOM     61  C   UNL A   1      40.625  34.592  33.762  1.00  0.00     0.029 A 
ATOM     62  C   UNL A   1      41.238  33.601  32.877  1.00  0.00     0.049 A 
ATOM     63  H   UNL A   1      43.218  33.577  32.225  1.00  0.00     0.167 HD
ATOM     64  C   UNL A   1      47.316  33.618  30.782  1.00  0.00     0.034 A 
ATOM     65  C   UNL A   1      40.616  32.519  32.352  1.00  0.00     0.034 A 
ATOM     66  C   UNL A   1      46.767  32.388  30.264  1.00  0.00     0.049 A 
ATOM     67  C   UNL A   1      41.385  31.573  31.451  1.00  0.00     0.074 A 
ATOM     68  C   UNL A   1      47.410  31.396  29.543  1.00  0.00     0.029 A 
ATOM     69  N   UNL A   1      45.446  31.985  30.397  1.00  0.00    -0.354 N 
ATOM     70  N   UNL A   1      42.644  31.619  31.080  1.00  0.00    -0.248 NA
ATOM     71  C   UNL A   1      40.649  30.420  30.907  1.00  0.00     0.031 C 
ATOM     72  C   UNL A   1      46.462  30.441  29.164  1.00  0.00     0.029 A 
ATOM     73  C   UNL A   1      45.246  30.781  29.734  1.00  0.00     0.049 A 
ATOM     74  H   UNL A   1      44.751  32.479  30.889  1.00  0.00     0.167 HD
ATOM     75  C   UNL A   1      42.856  30.479  30.301  1.00  0.00     0.074 A 
ATOM     76  C   UNL A   1      41.600  29.763  30.262  1.00  0.00     0.031 C 
ATOM     77  C   UNL A   1      43.993  30.061  29.687  1.00  0.00     0.034 A 
BRANCH  64  78
ATOM     78  C   UNL A   1      48.757  33.953  30.464  1.00  0.00     0.023 A 
ATOM     79  C   UNL A   1      49.110  34.753  29.364  1.00  0.00     0.031 A 
ATOM     80  C   UNL A   1      49.794  33.435  31.262  1.00  0.00     0.131 A 
ATOM     81  C   UNL A   1      50.463  34.946  29.045  1.00  0.00     0.055 A 
ATOM     82  C   UNL A   1      51.137  33.705  30.990  1.00  0.00     0.041 A 
ATOM     83  F   UNL A   1      49.521  32.647  32.313  1.00  0.00    -0.206 F 
ATOM     84  C   UNL A   1      51.478  34.451  29.867  1.00  0.00     0.022 A 
BRANCH  81  85
ATOM     85  S   UNL A   1      50.879  35.717  27.457  1.00  0.00     0.124 S 
ATOM     86  O   UNL A   1      52.140  36.382  27.771  1.00  0.00    -0.237 OA
ATOM     87  O   UNL A   1      50.968  34.567  26.562  1.00  0.00    -0.237 OA
ATOM     88  O   UNL A   1      49.754  36.616  27.207  1.00  0.00    -0.744 OA
ENDBRANCH  81  85
ENDBRANCH  64  78
BRANCH  65  89
ATOM     89  C   UNL A   1      39.160  32.276  32.605  1.00  0.00     0.023 A 
ATOM     90  C   UNL A   1      38.162  32.868  31.810  1.00  0.00     0.031 A 
ATOM     91  C   UNL A   1      38.743  31.515  33.713  1.00  0.00     0.131 A 
ATOM     92  C   UNL A   1      36.807  32.728  32.160  1.00  0.00     0.055 A 
ATOM     93  C   UNL A   1      37.394  31.329  34.022  1.00  0.00     0.041 A 
ATOM     94  F   UNL A   1      39.649  30.946  34.522  1.00  0.00    -0.206 F 
ATOM     95  C   UNL A   1      36.417  31.949  33.250  1.00  0.00     0.022 A 
BRANCH  92  96
ATOM     96  S   UNL A   1      35.561  33.659  31.225  1.00  0.00     0.124 S 
ATOM     97  O   UNL A   1      35.508  34.913  31.967  1.00  0.00    -0.237 OA
ATOM     98  O   UNL A   1      36.162  33.722  29.897  1.00  0.00    -0.237 OA
ATOM     99  O   UNL A   1      34.365  32.822  31.324  1.00  0.00    -0.744 OA
ENDBRANCH  92  96
ENDBRANCH  65  89
BRANCH  77 100
ATOM    100  C   UNL A   1      43.958  28.729  28.968  1.00  0.00     0.023 A 
ATOM    101  C   UNL A   1      43.550  28.608  27.628  1.00  0.00     0.031 A 
ATOM    102  C   UNL A   1      44.338  27.553  29.646  1.00  0.00     0.131 A 
ATOM    103  C   UNL A   1      43.475  27.339  27.028  1.00  0.00     0.055 A 
ATOM    104  C   UNL A   1      44.328  26.303  29.022  1.00  0.00     0.041 A 
ATOM    105  F   UNL A   1      44.732  27.599  30.928  1.00  0.00    -0.206 F 
ATOM    106  C   UNL A   1      43.881  26.189  27.710  1.00  0.00     0.022 A 
BRANCH 103 107
ATOM    107  S   UNL A   1      42.736  27.195  25.377  1.00  0.00     0.124 S 
ATOM    108  O   UNL A   1      43.798  26.536  24.626  1.00  0.00    -0.237 OA
ATOM    109  O   UNL A   1      41.545  26.392  25.636  1.00  0.00    -0.237 OA
ATOM    110  O   UNL A   1      42.476  28.581  24.994  1.00  0.00    -0.744 OA
ENDBRANCH 103 107
ENDBRANCH  77 100
ENDBRANCH  51  52
ENDBRANCH  44  46
ENDBRANCH  43  44
ENDBRANCH  42  43
ENDBRANCH  41  42
ENDBRANCH  40  41
ENDBRANCH   1  40
TORSDOF 21
ENDMDL
MODEL 3
REMARK VINA RESULT:      -7.6      5.339     10.747
REMARK SMILES C[C@H]1[C@H](C)CC[C@@]2(C(=O)OCCOCCOCCOC(=O)c3ccc(-c4c5nc(c(-c6cc(S(=O)(=O)[O-])ccc6F)c6ccc([nH]6)c(-c6cc(S(=O)(=O)[O-])ccc6F)c6nc(c(-c7cc(S(=O)(=O)[O-])ccc7F)c7ccc4[nH]7)C=C6)C=C5)cc3)CC[C@@]3(C)C(=CC[C@@H]4[C@@]5(C)CC[C@H](O)C(C)(C)[C@@H]5CC[C@]43C)[C@H]12
REMARK SMILES IDX 15 1 14 2 13 3 12 4 11 5 10 6 8 7 9 8 7 9 1 10 2 11 3 12
REMARK SMILES IDX 107 13 4 14 5 15 89 16 6 17 85 18 87 19 90 20 86 21 88 22
REMARK SMILES IDX 105 23 91 24 92 25 104 26 106 27 93 28 103 29 94 30 95 31
REMARK SMILES IDX 102 32 96 33 99 34 97 35 100 36 101 37 98 38 16 40 17 41
REMARK SMILES IDX 18 42 19 43 20 44 21 45 22 46 23 47 84 48 24 49 83 50 25 51
REMARK SMILES IDX 26 52 27 53 77 54 28 55 82 56 76 57 78 58 29 59 81 60 75 61
REMARK SMILES IDX 74 62 30 64 62 65 42 66 61 67 43 68 46 69 60 70 79 71 44 72
REMARK SMILES IDX 45 73 59 75 80 76 47 77 31 78 32 79 40 80 33 81 39 82 41 83
REMARK SMILES IDX 38 84 34 85 35 86 36 87 37 88 63 89 64 90 72 91 65 92 71 93
REMARK SMILES IDX 73 94 70 95 66 96 67 97 68 98 69 99 48 100 49 101 57 102
REMARK SMILES IDX 50 103 56 104 58 105 55 106 51 107 52 108 53 109 54 110
REMARK H PARENT 98 39 78 63 46 74
REMARK Flexibility Score: inf
ROOT
ATOM      1  C   UNL A   1      45.061  29.190  26.638  1.00  0.00     0.188 C 
ENDROOT
BRANCH   1   2
ATOM      2  C   UNL A   1      44.451  29.034  28.073  1.00  0.00     0.188 C 
BRANCH   2   3
ATOM      3  O   UNL A   1      45.335  29.428  29.098  1.00  0.00    -0.376 OA
BRANCH   3   4
ATOM      4  C   UNL A   1      45.981  28.328  29.690  1.00  0.00     0.202 C 
BRANCH   4   5
ATOM      5  C   UNL A   1      45.243  27.588  30.805  1.00  0.00     0.261 C 
BRANCH   5   6
ATOM      6  O   UNL A   1      43.961  28.047  31.433  1.00  0.00    -0.463 OA
BRANCH   6   7
ATOM      7  C   UNL A   1      42.707  28.565  31.378  1.00  0.00     0.312 C 
ATOM      8  O   UNL A   1      41.678  28.012  31.014  1.00  0.00    -0.252 OA
BRANCH   7   9
ATOM      9  C   UNL A   1      42.677  30.005  31.948  1.00  0.00     0.075 C 
ATOM     10  C   UNL A   1      38.878  30.415  33.042  1.00  0.00     0.008 C 
ATOM     11  C   UNL A   1      40.103  30.194  32.156  1.00  0.00    -0.003 C 
ATOM     12  C   UNL A   1      40.110  31.162  30.914  1.00  0.00    -0.011 C 
ATOM     13  C   UNL A   1      41.507  30.114  32.971  1.00  0.00     0.036 C 
ATOM     14  C   UNL A   1      38.902  30.977  29.968  1.00  0.00     0.008 C 
ATOM     15  C   UNL A   1      41.333  30.986  30.010  1.00  0.00     0.005 C 
ATOM     16  C   UNL A   1      41.866  28.951  34.017  1.00  0.00    -0.063 C 
ATOM     17  C   UNL A   1      42.628  30.993  30.773  1.00  0.00     0.020 C 
ATOM     18  C   UNL A   1      44.016  30.333  32.655  1.00  0.00     0.020 C 
ATOM     19  C   UNL A   1      43.289  28.977  34.732  1.00  0.00    -0.006 C 
ATOM     20  C   UNL A   1      41.134  27.821  34.078  1.00  0.00    -0.027 C 
ATOM     21  C   UNL A   1      44.408  29.329  33.718  1.00  0.00     0.013 C 
ATOM     22  C   UNL A   1      43.243  30.126  35.768  1.00  0.00     0.017 C 
ATOM     23  C   UNL A   1      43.683  27.544  35.472  1.00  0.00    -0.020 C 
ATOM     24  C   UNL A   1      41.697  26.474  34.462  1.00  0.00     0.032 C 
ATOM     25  C   UNL A   1      43.248  26.395  34.495  1.00  0.00     0.006 C 
ATOM     26  C   UNL A   1      45.193  27.383  35.788  1.00  0.00     0.008 C 
ATOM     27  C   UNL A   1      42.950  27.442  36.842  1.00  0.00     0.012 C 
ATOM     28  C   UNL A   1      43.854  24.908  34.691  1.00  0.00    -0.025 C 
ATOM     29  C   UNL A   1      45.560  25.987  36.325  1.00  0.00     0.005 C 
ATOM     30  C   UNL A   1      42.848  24.061  35.499  1.00  0.00     0.012 C 
ATOM     31  C   UNL A   1      44.016  24.191  33.300  1.00  0.00     0.010 C 
ATOM     32  C   UNL A   1      45.332  24.917  35.250  1.00  0.00     0.003 C 
ATOM     33  C   UNL A   1      44.629  22.778  33.388  1.00  0.00     0.033 C 
ATOM     34  C   UNL A   1      45.948  23.486  35.551  1.00  0.00    -0.006 C 
ATOM     35  C   UNL A   1      45.919  22.672  34.216  1.00  0.00     0.120 C 
ATOM     36  C   UNL A   1      45.290  22.736  36.735  1.00  0.00     0.014 C 
ATOM     37  C   UNL A   1      47.443  23.600  35.968  1.00  0.00     0.014 C 
BRANCH  35  38
ATOM     38  O   UNL A   1      46.209  21.286  34.429  1.00  0.00    -0.393 OA
ATOM     39  H   UNL A   1      45.380  20.782  34.449  1.00  0.00     0.210 HD
ENDBRANCH  35  38
ENDBRANCH   7   9
ENDBRANCH   6   7
ENDBRANCH   5   6
ENDBRANCH   4   5
ENDBRANCH   3   4
ENDBRANCH   2   3
ENDBRANCH   1   2
BRANCH   1  40
ATOM     40  O   UNL A   1      45.183  30.486  26.073  1.00  0.00    -0.376 OA
BRANCH  40  41
ATOM     41  C   UNL A   1      44.330  31.491  26.573  1.00  0.00     0.202 C 
BRANCH  41  42
ATOM     42  C   UNL A   1      44.479  32.918  26.010  1.00  0.00     0.261 C 
BRANCH  42  43
ATOM     43  O   UNL A   1      43.480  33.903  26.389  1.00  0.00    -0.460 OA
BRANCH  43  44
ATOM     44  C   UNL A   1      43.921  35.052  26.975  1.00  0.00     0.338 C 
ATOM     45  O   UNL A   1      44.285  36.055  26.364  1.00  0.00    -0.246 OA
BRANCH  44  46
ATOM     46  C   UNL A   1      43.715  35.069  28.464  1.00  0.00     0.060 A 
ATOM     47  C   UNL A   1      44.248  34.023  29.243  1.00  0.00     0.016 A 
ATOM     48  C   UNL A   1      42.951  36.048  29.101  1.00  0.00     0.016 A 
ATOM     49  C   UNL A   1      43.939  33.892  30.608  1.00  0.00     0.010 A 
ATOM     50  C   UNL A   1      42.624  35.906  30.468  1.00  0.00     0.010 A 
ATOM     51  C   UNL A   1      43.057  34.789  31.218  1.00  0.00    -0.014 A 
BRANCH  51  52
ATOM     52  C   UNL A   1      42.347  34.412  32.489  1.00  0.00     0.031 A 
ATOM     53  C   UNL A   1      40.833  34.375  32.461  1.00  0.00     0.074 A 
ATOM     54  C   UNL A   1      42.970  34.076  33.638  1.00  0.00     0.049 A 
ATOM     55  N   UNL A   1      39.975  34.185  33.433  1.00  0.00    -0.248 NA
ATOM     56  C   UNL A   1      40.209  34.587  31.146  1.00  0.00     0.031 C 
ATOM     57  C   UNL A   1      44.412  33.963  33.818  1.00  0.00     0.029 A 
ATOM     58  N   UNL A   1      42.457  33.778  34.884  1.00  0.00    -0.354 N 
ATOM     59  C   UNL A   1      38.713  34.273  32.850  1.00  0.00     0.074 A 
ATOM     60  C   UNL A   1      38.922  34.576  31.450  1.00  0.00     0.031 C 
ATOM     61  C   UNL A   1      44.672  33.658  35.103  1.00  0.00     0.029 A 
ATOM     62  C   UNL A   1      43.418  33.582  35.854  1.00  0.00     0.049 A 
ATOM     63  H   UNL A   1      41.492  33.712  35.066  1.00  0.00     0.167 HD
ATOM     64  C   UNL A   1      37.492  34.106  33.415  1.00  0.00     0.034 A 
ATOM     65  C   UNL A   1      43.307  33.393  37.190  1.00  0.00     0.034 A 
ATOM     66  C   UNL A   1      37.276  33.804  34.810  1.00  0.00     0.049 A 
ATOM     67  C   UNL A   1      41.933  33.330  37.829  1.00  0.00     0.074 A 
ATOM     68  C   UNL A   1      36.075  33.599  35.468  1.00  0.00     0.029 A 
ATOM     69  N   UNL A   1      38.275  33.677  35.764  1.00  0.00    -0.354 N 
ATOM     70  N   UNL A   1      40.750  33.418  37.266  1.00  0.00    -0.248 NA
ATOM     71  C   UNL A   1      41.882  33.129  39.286  1.00  0.00     0.031 C 
ATOM     72  C   UNL A   1      36.341  33.438  36.831  1.00  0.00     0.029 A 
ATOM     73  C   UNL A   1      37.714  33.439  37.012  1.00  0.00     0.049 A 
ATOM     74  H   UNL A   1      39.240  33.745  35.584  1.00  0.00     0.167 HD
ATOM     75  C   UNL A   1      39.822  33.237  38.293  1.00  0.00     0.074 A 
ATOM     76  C   UNL A   1      40.580  33.028  39.506  1.00  0.00     0.031 C 
ATOM     77  C   UNL A   1      38.465  33.233  38.230  1.00  0.00     0.034 A 
BRANCH  64  78
ATOM     78  C   UNL A   1      36.285  34.308  32.526  1.00  0.00     0.023 A 
ATOM     79  C   UNL A   1      35.527  35.491  32.557  1.00  0.00     0.031 A 
ATOM     80  C   UNL A   1      35.870  33.283  31.656  1.00  0.00     0.131 A 
ATOM     81  C   UNL A   1      34.352  35.589  31.795  1.00  0.00     0.055 A 
ATOM     82  C   UNL A   1      34.750  33.423  30.834  1.00  0.00     0.041 A 
ATOM     83  F   UNL A   1      36.540  32.121  31.598  1.00  0.00    -0.206 F 
ATOM     84  C   UNL A   1      33.974  34.574  30.913  1.00  0.00     0.022 A 
BRANCH  81  85
ATOM     85  S   UNL A   1      33.241  36.992  32.090  1.00  0.00     0.124 S 
ATOM     86  O   UNL A   1      33.987  37.755  33.089  1.00  0.00    -0.237 OA
ATOM     87  O   UNL A   1      33.140  37.599  30.767  1.00  0.00    -0.237 OA
ATOM     88  O   UNL A   1      32.018  36.363  32.583  1.00  0.00    -0.744 OA
ENDBRANCH  81  85
ENDBRANCH  64  78
BRANCH  65  89
ATOM     89  C   UNL A   1      44.527  33.301  38.053  1.00  0.00     0.023 A 
ATOM     90  C   UNL A   1      45.078  32.061  38.424  1.00  0.00     0.031 A 
ATOM     91  C   UNL A   1      45.107  34.461  38.598  1.00  0.00     0.131 A 
ATOM     92  C   UNL A   1      46.141  32.010  39.344  1.00  0.00     0.055 A 
ATOM     93  C   UNL A   1      46.201  34.408  39.466  1.00  0.00     0.041 A 
ATOM     94  F   UNL A   1      44.610  35.670  38.301  1.00  0.00    -0.206 F 
ATOM     95  C   UNL A   1      46.715  33.176  39.854  1.00  0.00     0.022 A 
BRANCH  92  96
ATOM     96  S   UNL A   1      46.702  30.391  39.944  1.00  0.00     0.124 S 
ATOM     97  O   UNL A   1      47.235  30.729  41.258  1.00  0.00    -0.237 OA
ATOM     98  O   UNL A   1      45.465  29.618  39.931  1.00  0.00    -0.237 OA
ATOM     99  O   UNL A   1      47.696  29.986  38.951  1.00  0.00    -0.744 OA
ENDBRANCH  92  96
ENDBRANCH  65  89
BRANCH  77 100
ATOM    100  C   UNL A   1      37.701  32.927  39.501  1.00  0.00     0.023 A 
ATOM    101  C   UNL A   1      37.711  33.790  40.611  1.00  0.00     0.031 A 
ATOM    102  C   UNL A   1      36.949  31.739  39.602  1.00  0.00     0.131 A 
ATOM    103  C   UNL A   1      37.036  33.427  41.789  1.00  0.00     0.055 A 
ATOM    104  C   UNL A   1      36.223  31.418  40.751  1.00  0.00     0.041 A 
ATOM    105  F   UNL A   1      36.902  30.870  38.580  1.00  0.00    -0.206 F 
ATOM    106  C   UNL A   1      36.276  32.257  41.859  1.00  0.00     0.022 A 
BRANCH 103 107
ATOM    107  S   UNL A   1      37.252  34.452  43.271  1.00  0.00     0.124 S 
ATOM    108  O   UNL A   1      35.882  34.580  43.754  1.00  0.00    -0.237 OA
ATOM    109  O   UNL A   1      38.143  33.635  44.090  1.00  0.00    -0.237 OA
ATOM    110  O   UNL A   1      37.844  35.684  42.754  1.00  0.00    -0.744 OA
ENDBRANCH 103 107
ENDBRANCH  77 100
ENDBRANCH  51  52
ENDBRANCH  44  46
ENDBRANCH  43  44
ENDBRANCH  42  43
ENDBRANCH  41  42
ENDBRANCH  40  41
ENDBRANCH   1  40
TORSDOF 21
ENDMDL
