MODEL 1
REMARK VINA RESULT:      -9.6      0.000      0.000
REMARK SMILES O=C(OCCOCCOCCOC(=O)c1ccc(Br)c(NC(=S)NC(=O)c2cccs2)c1)c1ccc(-c2c3nc(c(-c4cc(S(=O)(=O)[O-])ccc4F)c4ccc([nH]4)c(-c4cc(S(=O)(=O)[O-])ccc4F)c4nc(c(-c5cc(S(=O)(=O)[O-])ccc5F)c5ccc2[nH]5)C=C4)C=C3)cc1
REMARK SMILES IDX 8 1 7 2 6 3 5 4 4 5 3 6 2 7 1 8 33 9 34 10 95 11 35 12 94 13
REMARK SMILES IDX 36 14 37 15 38 16 88 17 39 18 93 19 87 20 89 21 40 22 92 23
REMARK SMILES IDX 86 24 85 25 41 27 73 28 53 29 72 30 54 31 57 32 71 33 90 34
REMARK SMILES IDX 55 35 56 36 70 38 91 39 58 40 42 41 43 42 51 43 44 44 50 45
REMARK SMILES IDX 52 46 49 47 45 48 46 49 47 50 48 51 74 52 75 53 83 54 76 55
REMARK SMILES IDX 82 56 84 57 81 58 77 59 78 60 79 61 80 62 59 63 60 64 68 65
REMARK SMILES IDX 61 66 67 67 69 68 66 69 62 70 63 71 64 72 65 73 9 74 10 75
REMARK SMILES IDX 11 76 12 77 13 78 14 79 15 80 16 81 32 82 17 83 20 84 18 85
REMARK SMILES IDX 19 86 21 87 22 89 23 90 24 91 25 92 26 94 27 95 28 96 31 97
REMARK SMILES IDX 29 98 30 99
REMARK H PARENT 89 26 57 37 21 88 24 93
REMARK Flexibility Score: inf
ROOT
ATOM      1  C   UNL A   1      36.323  22.481  24.804  1.00  0.00     0.188 C 
ENDROOT
BRANCH   1   2
ATOM      2  C   UNL A   1      37.295  21.299  24.773  1.00  0.00     0.188 C 
BRANCH   2   3
ATOM      3  O   UNL A   1      38.144  21.212  25.914  1.00  0.00    -0.376 OA
BRANCH   3   4
ATOM      4  C   UNL A   1      39.497  20.812  25.691  1.00  0.00     0.202 C 
BRANCH   4   5
ATOM      5  C   UNL A   1      39.856  19.327  25.899  1.00  0.00     0.261 C 
BRANCH   5   6
ATOM      6  O   UNL A   1      41.231  18.939  25.671  1.00  0.00    -0.460 OA
BRANCH   6   7
ATOM      7  C   UNL A   1      42.410  19.518  26.001  1.00  0.00     0.338 C 
ATOM      8  O   UNL A   1      43.421  18.819  26.062  1.00  0.00    -0.246 OA
BRANCH   7   9
ATOM      9  C   UNL A   1      42.549  20.956  26.351  1.00  0.00     0.060 A 
ATOM     10  C   UNL A   1      42.620  21.968  25.407  1.00  0.00     0.016 A 
ATOM     11  C   UNL A   1      42.484  21.336  27.699  1.00  0.00     0.016 A 
ATOM     12  C   UNL A   1      42.766  23.296  25.739  1.00  0.00     0.010 A 
ATOM     13  C   UNL A   1      42.524  22.691  28.055  1.00  0.00     0.010 A 
ATOM     14  C   UNL A   1      42.692  23.674  27.064  1.00  0.00    -0.014 A 
BRANCH  14  15
ATOM     15  C   UNL A   1      42.961  25.088  27.364  1.00  0.00     0.031 A 
ATOM     16  C   UNL A   1      44.339  25.579  27.070  1.00  0.00     0.074 A 
ATOM     17  C   UNL A   1      41.972  25.944  27.688  1.00  0.00     0.049 A 
ATOM     18  N   UNL A   1      44.846  26.756  27.285  1.00  0.00    -0.248 NA
ATOM     19  C   UNL A   1      45.245  24.636  26.387  1.00  0.00     0.031 C 
ATOM     20  C   UNL A   1      40.542  25.632  27.694  1.00  0.00     0.029 A 
ATOM     21  N   UNL A   1      42.005  27.260  28.065  1.00  0.00    -0.354 N 
ATOM     22  C   UNL A   1      46.125  26.702  26.756  1.00  0.00     0.074 A 
ATOM     23  C   UNL A   1      46.338  25.366  26.251  1.00  0.00     0.031 C 
ATOM     24  C   UNL A   1      39.849  26.687  28.152  1.00  0.00     0.029 A 
ATOM     25  C   UNL A   1      40.784  27.738  28.492  1.00  0.00     0.049 A 
ATOM     26  H   UNL A   1      42.821  27.811  28.036  1.00  0.00     0.167 HD
ATOM     27  C   UNL A   1      47.023  27.705  26.686  1.00  0.00     0.034 A 
ATOM     28  C   UNL A   1      40.472  28.878  29.132  1.00  0.00     0.034 A 
ATOM     29  C   UNL A   1      46.764  29.015  27.211  1.00  0.00     0.049 A 
ATOM     30  C   UNL A   1      41.574  29.874  29.308  1.00  0.00     0.074 A 
ATOM     31  C   UNL A   1      47.612  30.104  27.253  1.00  0.00     0.029 A 
ATOM     32  N   UNL A   1      45.570  29.408  27.806  1.00  0.00    -0.354 N 
ATOM     33  N   UNL A   1      42.814  29.794  28.885  1.00  0.00    -0.248 NA
ATOM     34  C   UNL A   1      41.236  31.119  29.998  1.00  0.00     0.031 C 
ATOM     35  C   UNL A   1      46.972  31.116  27.971  1.00  0.00     0.029 A 
ATOM     36  C   UNL A   1      45.683  30.704  28.274  1.00  0.00     0.049 A 
ATOM     37  H   UNL A   1      44.765  28.846  27.882  1.00  0.00     0.167 HD
ATOM     38  C   UNL A   1      43.388  31.014  29.195  1.00  0.00     0.074 A 
ATOM     39  C   UNL A   1      42.360  31.802  29.850  1.00  0.00     0.031 C 
ATOM     40  C   UNL A   1      44.644  31.453  28.935  1.00  0.00     0.034 A 
BRANCH  27  41
ATOM     41  C   UNL A   1      48.374  27.375  26.126  1.00  0.00     0.023 A 
ATOM     42  C   UNL A   1      49.432  26.927  26.935  1.00  0.00     0.031 A 
ATOM     43  C   UNL A   1      48.615  27.567  24.756  1.00  0.00     0.131 A 
ATOM     44  C   UNL A   1      50.700  26.733  26.369  1.00  0.00     0.055 A 
ATOM     45  C   UNL A   1      49.855  27.291  24.186  1.00  0.00     0.041 A 
ATOM     46  F   UNL A   1      47.651  28.048  23.956  1.00  0.00    -0.206 F 
ATOM     47  C   UNL A   1      50.909  26.878  24.995  1.00  0.00     0.022 A 
BRANCH  44  48
ATOM     48  S   UNL A   1      52.105  26.427  27.473  1.00  0.00     0.124 S 
ATOM     49  O   UNL A   1      52.779  25.323  26.792  1.00  0.00    -0.237 OA
ATOM     50  O   UNL A   1      52.805  27.706  27.459  1.00  0.00    -0.237 OA
ATOM     51  O   UNL A   1      51.473  26.076  28.743  1.00  0.00    -0.744 OA
ENDBRANCH  44  48
ENDBRANCH  27  41
BRANCH  28  52
ATOM     52  C   UNL A   1      39.138  29.103  29.751  1.00  0.00     0.023 A 
ATOM     53  C   UNL A   1      38.177  29.953  29.189  1.00  0.00     0.031 A 
ATOM     54  C   UNL A   1      38.880  28.577  31.027  1.00  0.00     0.131 A 
ATOM     55  C   UNL A   1      37.028  30.289  29.927  1.00  0.00     0.055 A 
ATOM     56  C   UNL A   1      37.706  28.859  31.728  1.00  0.00     0.041 A 
ATOM     57  F   UNL A   1      39.789  27.787  31.616  1.00  0.00    -0.206 F 
ATOM     58  C   UNL A   1      36.772  29.726  31.180  1.00  0.00     0.022 A 
BRANCH  55  59
ATOM     59  S   UNL A   1      35.961  31.618  29.306  1.00  0.00     0.124 S 
ATOM     60  O   UNL A   1      35.269  30.946  28.213  1.00  0.00    -0.237 OA
ATOM     61  O   UNL A   1      35.156  31.932  30.481  1.00  0.00    -0.237 OA
ATOM     62  O   UNL A   1      36.909  32.655  28.906  1.00  0.00    -0.744 OA
ENDBRANCH  55  59
ENDBRANCH  28  52
BRANCH  40  63
ATOM     63  C   UNL A   1      44.937  32.875  29.308  1.00  0.00     0.023 A 
ATOM     64  C   UNL A   1      45.394  33.216  30.588  1.00  0.00     0.031 A 
ATOM     65  C   UNL A   1      44.730  33.902  28.371  1.00  0.00     0.131 A 
ATOM     66  C   UNL A   1      45.553  34.563  30.924  1.00  0.00     0.055 A 
ATOM     67  C   UNL A   1      44.987  35.233  28.681  1.00  0.00     0.041 A 
ATOM     68  F   UNL A   1      44.278  33.622  27.137  1.00  0.00    -0.206 F 
ATOM     69  C   UNL A   1      45.383  35.572  29.972  1.00  0.00     0.022 A 
BRANCH  66  70
ATOM     70  S   UNL A   1      45.844  34.981  32.661  1.00  0.00     0.124 S 
ATOM     71  O   UNL A   1      47.097  34.282  32.929  1.00  0.00    -0.237 OA
ATOM     72  O   UNL A   1      45.924  36.438  32.622  1.00  0.00    -0.237 OA
ATOM     73  O   UNL A   1      44.671  34.440  33.343  1.00  0.00    -0.744 OA
ENDBRANCH  66  70
ENDBRANCH  40  63
ENDBRANCH  14  15
ENDBRANCH   7   9
ENDBRANCH   6   7
ENDBRANCH   5   6
ENDBRANCH   4   5
ENDBRANCH   3   4
ENDBRANCH   2   3
ENDBRANCH   1   2
BRANCH   1  74
ATOM     74  O   UNL A   1      35.994  23.003  26.081  1.00  0.00    -0.376 OA
BRANCH  74  75
ATOM     75  C   UNL A   1      35.329  22.098  26.955  1.00  0.00     0.202 C 
BRANCH  75  76
ATOM     76  C   UNL A   1      33.861  21.675  26.673  1.00  0.00     0.261 C 
BRANCH  76  77
ATOM     77  O   UNL A   1      33.606  20.362  26.100  1.00  0.00    -0.460 OA
BRANCH  77  78
ATOM     78  C   UNL A   1      33.040  20.381  24.859  1.00  0.00     0.338 C 
ATOM     79  O   UNL A   1      33.047  19.425  24.090  1.00  0.00    -0.246 OA
BRANCH  78  80
ATOM     80  C   UNL A   1      32.555  21.771  24.332  1.00  0.00     0.062 A 
ATOM     81  C   UNL A   1      33.858  22.222  23.150  1.00  0.00     0.017 A 
ATOM     82  C   UNL A   1      30.882  22.973  24.211  1.00  0.00     0.043 A 
ATOM     83  C   UNL A   1      33.534  23.606  22.080  1.00  0.00     0.019 A 
ATOM     84  C   UNL A   1      30.756  24.325  23.271  1.00  0.00     0.055 A 
ATOM     85  C   UNL A   1      32.052  24.605  22.164  1.00  0.00     0.041 A 
ATOM     86  Br  UNL A   1      31.924  26.135  21.054  1.00  0.00    -0.049 Br
BRANCH  84  87
ATOM     87  N   UNL A   1      29.847  25.206  23.897  1.00  0.00    -0.331 N 
ATOM     88  H   UNL A   1      28.901  24.934  23.850  1.00  0.00     0.169 HD
BRANCH  87  89
ATOM     89  C   UNL A   1      30.081  26.403  24.572  1.00  0.00     0.177 C 
ATOM     90  S   UNL A   1      30.456  26.270  26.208  1.00  0.00    -0.040 S 
BRANCH  89  91
ATOM     91  N   UNL A   1      30.083  27.757  24.048  1.00  0.00    -0.298 N 
ATOM     92  C   UNL A   1      30.664  29.164  23.918  1.00  0.00     0.267 C 
ATOM     93  H   UNL A   1      29.287  27.780  23.469  1.00  0.00     0.172 HD
ATOM     94  O   UNL A   1      29.912  30.080  23.589  1.00  0.00    -0.268 OA
BRANCH  92  95
ATOM     95  C   UNL A   1      32.143  29.386  24.259  1.00  0.00     0.092 A 
ATOM     96  C   UNL A   1      33.090  28.042  23.892  1.00  0.00     0.025 A 
ATOM     97  S   UNL A   1      32.337  30.171  26.423  1.00  0.00    -0.139 S 
ATOM     98  C   UNL A   1      33.776  27.155  25.430  1.00  0.00     0.012 A 
ATOM     99  C   UNL A   1      33.446  28.213  27.078  1.00  0.00     0.065 A 
ENDBRANCH  92  95
ENDBRANCH  89  91
ENDBRANCH  87  89
ENDBRANCH  84  87
ENDBRANCH  78  80
ENDBRANCH  77  78
ENDBRANCH  76  77
ENDBRANCH  75  76
ENDBRANCH  74  75
ENDBRANCH   1  74
TORSDOF 24
ENDMDL
MODEL 2
REMARK VINA RESULT:      -9.4      5.139     10.071
REMARK SMILES O=C(OCCOCCOCCOC(=O)c1ccc(Br)c(NC(=S)NC(=O)c2cccs2)c1)c1ccc(-c2c3nc(c(-c4cc(S(=O)(=O)[O-])ccc4F)c4ccc([nH]4)c(-c4cc(S(=O)(=O)[O-])ccc4F)c4nc(c(-c5cc(S(=O)(=O)[O-])ccc5F)c5ccc2[nH]5)C=C4)C=C3)cc1
REMARK SMILES IDX 8 1 7 2 6 3 5 4 4 5 3 6 2 7 1 8 33 9 34 10 95 11 35 12 94 13
REMARK SMILES IDX 36 14 37 15 38 16 88 17 39 18 93 19 87 20 89 21 40 22 92 23
REMARK SMILES IDX 86 24 85 25 41 27 73 28 53 29 72 30 54 31 57 32 71 33 90 34
REMARK SMILES IDX 55 35 56 36 70 38 91 39 58 40 42 41 43 42 51 43 44 44 50 45
REMARK SMILES IDX 52 46 49 47 45 48 46 49 47 50 48 51 74 52 75 53 83 54 76 55
REMARK SMILES IDX 82 56 84 57 81 58 77 59 78 60 79 61 80 62 59 63 60 64 68 65
REMARK SMILES IDX 61 66 67 67 69 68 66 69 62 70 63 71 64 72 65 73 9 74 10 75
REMARK SMILES IDX 11 76 12 77 13 78 14 79 15 80 16 81 32 82 17 83 20 84 18 85
REMARK SMILES IDX 19 86 21 87 22 89 23 90 24 91 25 92 26 94 27 95 28 96 31 97
REMARK SMILES IDX 29 98 30 99
REMARK H PARENT 89 26 57 37 21 88 24 93
REMARK Flexibility Score: inf
ROOT
ATOM      1  C   UNL A   1      33.695  34.857  28.805  1.00  0.00     0.188 C 
ENDROOT
BRANCH   1   2
ATOM      2  C   UNL A   1      33.136  35.633  30.000  1.00  0.00     0.188 C 
BRANCH   2   3
ATOM      3  O   UNL A   1      33.422  35.042  31.264  1.00  0.00    -0.376 OA
BRANCH   3   4
ATOM      4  C   UNL A   1      34.119  35.847  32.217  1.00  0.00     0.202 C 
BRANCH   4   5
ATOM      5  C   UNL A   1      35.424  35.288  32.819  1.00  0.00     0.261 C 
BRANCH   5   6
ATOM      6  O   UNL A   1      36.510  35.009  31.904  1.00  0.00    -0.460 OA
BRANCH   6   7
ATOM      7  C   UNL A   1      37.487  34.071  31.906  1.00  0.00     0.338 C 
ATOM      8  O   UNL A   1      37.325  33.043  32.562  1.00  0.00    -0.246 OA
BRANCH   7   9
ATOM      9  C   UNL A   1      38.783  34.234  31.198  1.00  0.00     0.060 A 
ATOM     10  C   UNL A   1      40.014  34.050  31.807  1.00  0.00     0.016 A 
ATOM     11  C   UNL A   1      38.777  34.465  29.814  1.00  0.00     0.016 A 
ATOM     12  C   UNL A   1      41.211  34.219  31.149  1.00  0.00     0.010 A 
ATOM     13  C   UNL A   1      39.984  34.534  29.103  1.00  0.00     0.010 A 
ATOM     14  C   UNL A   1      41.209  34.435  29.786  1.00  0.00    -0.014 A 
BRANCH  14  15
ATOM     15  C   UNL A   1      42.509  34.715  29.159  1.00  0.00     0.031 A 
ATOM     16  C   UNL A   1      43.425  33.551  28.979  1.00  0.00     0.074 A 
ATOM     17  C   UNL A   1      42.779  35.906  28.589  1.00  0.00     0.049 A 
ATOM     18  N   UNL A   1      44.634  33.534  28.503  1.00  0.00    -0.248 NA
ATOM     19  C   UNL A   1      42.882  32.224  29.325  1.00  0.00     0.031 C 
ATOM     20  C   UNL A   1      41.831  37.011  28.432  1.00  0.00     0.029 A 
ATOM     21  N   UNL A   1      43.925  36.396  28.021  1.00  0.00    -0.354 N 
ATOM     22  C   UNL A   1      44.995  32.196  28.481  1.00  0.00     0.074 A 
ATOM     23  C   UNL A   1      43.901  31.434  29.033  1.00  0.00     0.031 C 
ATOM     24  C   UNL A   1      42.457  38.075  27.906  1.00  0.00     0.029 A 
ATOM     25  C   UNL A   1      43.851  37.738  27.711  1.00  0.00     0.049 A 
ATOM     26  H   UNL A   1      44.723  35.845  27.851  1.00  0.00     0.167 HD
ATOM     27  C   UNL A   1      46.143  31.668  28.011  1.00  0.00     0.034 A 
ATOM     28  C   UNL A   1      44.818  38.603  27.357  1.00  0.00     0.034 A 
ATOM     29  C   UNL A   1      47.206  32.473  27.480  1.00  0.00     0.049 A 
ATOM     30  C   UNL A   1      46.179  38.030  27.122  1.00  0.00     0.074 A 
ATOM     31  C   UNL A   1      48.443  32.064  27.023  1.00  0.00     0.029 A 
ATOM     32  N   UNL A   1      47.164  33.857  27.353  1.00  0.00    -0.354 N 
ATOM     33  N   UNL A   1      46.552  36.774  27.182  1.00  0.00    -0.248 NA
ATOM     34  C   UNL A   1      47.232  38.968  26.731  1.00  0.00     0.031 C 
ATOM     35  C   UNL A   1      49.187  33.207  26.725  1.00  0.00     0.029 A 
ATOM     36  C   UNL A   1      48.378  34.323  26.883  1.00  0.00     0.049 A 
ATOM     37  H   UNL A   1      46.385  34.421  27.565  1.00  0.00     0.167 HD
ATOM     38  C   UNL A   1      47.871  36.760  26.765  1.00  0.00     0.074 A 
ATOM     39  C   UNL A   1      48.226  38.135  26.468  1.00  0.00     0.031 C 
ATOM     40  C   UNL A   1      48.703  35.701  26.613  1.00  0.00     0.034 A 
BRANCH  27  41
ATOM     41  C   UNL A   1      46.327  30.188  28.163  1.00  0.00     0.023 A 
ATOM     42  C   UNL A   1      45.951  29.278  27.160  1.00  0.00     0.031 A 
ATOM     43  C   UNL A   1      46.842  29.680  29.367  1.00  0.00     0.131 A 
ATOM     44  C   UNL A   1      46.054  27.902  27.402  1.00  0.00     0.055 A 
ATOM     45  C   UNL A   1      47.021  28.314  29.567  1.00  0.00     0.041 A 
ATOM     46  F   UNL A   1      47.161  30.508  30.374  1.00  0.00    -0.206 F 
ATOM     47  C   UNL A   1      46.618  27.415  28.585  1.00  0.00     0.022 A 
BRANCH  44  48
ATOM     48  S   UNL A   1      45.310  26.754  26.212  1.00  0.00     0.124 S 
ATOM     49  O   UNL A   1      46.473  25.978  25.785  1.00  0.00    -0.237 OA
ATOM     50  O   UNL A   1      44.333  26.040  27.028  1.00  0.00    -0.237 OA
ATOM     51  O   UNL A   1      44.747  27.635  25.193  1.00  0.00    -0.744 OA
ENDBRANCH  44  48
ENDBRANCH  27  41
BRANCH  28  52
ATOM     52  C   UNL A   1      44.595  40.074  27.321  1.00  0.00     0.023 A 
ATOM     53  C   UNL A   1      44.248  40.756  26.148  1.00  0.00     0.031 A 
ATOM     54  C   UNL A   1      44.894  40.838  28.459  1.00  0.00     0.131 A 
ATOM     55  C   UNL A   1      44.263  42.163  26.132  1.00  0.00     0.055 A 
ATOM     56  C   UNL A   1      44.840  42.234  28.458  1.00  0.00     0.041 A 
ATOM     57  F   UNL A   1      45.264  40.225  29.593  1.00  0.00    -0.206 F 
ATOM     58  C   UNL A   1      44.527  42.906  27.285  1.00  0.00     0.022 A 
BRANCH  55  59
ATOM     59  S   UNL A   1      44.110  43.009  24.535  1.00  0.00     0.124 S 
ATOM     60  O   UNL A   1      45.068  42.268  23.722  1.00  0.00    -0.237 OA
ATOM     61  O   UNL A   1      42.701  42.804  24.218  1.00  0.00    -0.237 OA
ATOM     62  O   UNL A   1      44.484  44.388  24.845  1.00  0.00    -0.744 OA
ENDBRANCH  55  59
ENDBRANCH  28  52
BRANCH  40  63
ATOM     63  C   UNL A   1      50.055  36.000  26.039  1.00  0.00     0.023 A 
ATOM     64  C   UNL A   1      51.190  36.099  26.855  1.00  0.00     0.031 A 
ATOM     65  C   UNL A   1      50.198  36.212  24.657  1.00  0.00     0.131 A 
ATOM     66  C   UNL A   1      52.409  36.483  26.291  1.00  0.00     0.055 A 
ATOM     67  C   UNL A   1      51.435  36.496  24.089  1.00  0.00     0.041 A 
ATOM     68  F   UNL A   1      49.134  36.143  23.840  1.00  0.00    -0.206 F 
ATOM     69  C   UNL A   1      52.548  36.653  24.910  1.00  0.00     0.022 A 
BRANCH  66  70
ATOM     70  S   UNL A   1      53.772  36.900  27.407  1.00  0.00     0.124 S 
ATOM     71  O   UNL A   1      53.126  36.809  28.713  1.00  0.00    -0.237 OA
ATOM     72  O   UNL A   1      54.750  35.858  27.108  1.00  0.00    -0.237 OA
ATOM     73  O   UNL A   1      54.152  38.248  26.993  1.00  0.00    -0.744 OA
ENDBRANCH  66  70
ENDBRANCH  40  63
ENDBRANCH  14  15
ENDBRANCH   7   9
ENDBRANCH   6   7
ENDBRANCH   5   6
ENDBRANCH   4   5
ENDBRANCH   3   4
ENDBRANCH   2   3
ENDBRANCH   1   2
BRANCH   1  74
ATOM     74  O   UNL A   1      34.111  33.523  29.049  1.00  0.00    -0.376 OA
BRANCH  74  75
ATOM     75  C   UNL A   1      33.842  32.602  27.998  1.00  0.00     0.202 C 
BRANCH  75  76
ATOM     76  C   UNL A   1      34.025  31.077  28.230  1.00  0.00     0.261 C 
BRANCH  76  77
ATOM     77  O   UNL A   1      33.529  30.148  27.224  1.00  0.00    -0.460 OA
BRANCH  77  78
ATOM     78  C   UNL A   1      34.450  29.251  26.774  1.00  0.00     0.338 C 
ATOM     79  O   UNL A   1      35.654  29.335  26.999  1.00  0.00    -0.246 OA
BRANCH  78  80
ATOM     80  C   UNL A   1      33.948  28.189  25.741  1.00  0.00     0.062 A 
ATOM     81  C   UNL A   1      33.209  29.221  24.441  1.00  0.00     0.017 A 
ATOM     82  C   UNL A   1      34.185  26.215  25.190  1.00  0.00     0.043 A 
ATOM     83  C   UNL A   1      32.792  28.415  22.911  1.00  0.00     0.019 A 
ATOM     84  C   UNL A   1      33.623  25.552  23.784  1.00  0.00     0.055 A 
ATOM     85  C   UNL A   1      32.984  26.660  22.623  1.00  0.00     0.041 A 
ATOM     86  Br  UNL A   1      32.354  25.933  20.992  1.00  0.00    -0.049 Br
BRANCH  84  87
ATOM     87  N   UNL A   1      33.360  24.185  24.024  1.00  0.00    -0.331 N 
ATOM     88  H   UNL A   1      34.117  23.578  23.854  1.00  0.00     0.169 HD
BRANCH  87  89
ATOM     89  C   UNL A   1      32.193  23.562  24.464  1.00  0.00     0.177 C 
ATOM     90  S   UNL A   1      30.821  24.535  24.550  1.00  0.00    -0.040 S 
BRANCH  89  91
ATOM     91  N   UNL A   1      31.986  22.172  24.827  1.00  0.00    -0.298 N 
ATOM     92  C   UNL A   1      32.456  20.824  25.370  1.00  0.00     0.267 C 
ATOM     93  H   UNL A   1      31.039  22.016  24.608  1.00  0.00     0.172 HD
ATOM     94  O   UNL A   1      31.846  19.811  25.033  1.00  0.00    -0.268 OA
BRANCH  92  95
ATOM     95  C   UNL A   1      33.702  20.782  26.264  1.00  0.00     0.092 A 
ATOM     96  C   UNL A   1      33.757  22.075  27.343  1.00  0.00     0.025 A 
ATOM     97  S   UNL A   1      35.589  20.502  24.961  1.00  0.00    -0.139 S 
ATOM     98  C   UNL A   1      35.145  23.320  26.965  1.00  0.00     0.012 A 
ATOM     99  C   UNL A   1      36.373  22.627  25.566  1.00  0.00     0.065 A 
ENDBRANCH  92  95
ENDBRANCH  89  91
ENDBRANCH  87  89
ENDBRANCH  84  87
ENDBRANCH  78  80
ENDBRANCH  77  78
ENDBRANCH  76  77
ENDBRANCH  75  76
ENDBRANCH  74  75
ENDBRANCH   1  74
TORSDOF 24
ENDMDL
MODEL 3
REMARK VINA RESULT:      -9.3      2.035      2.524
REMARK SMILES O=C(OCCOCCOCCOC(=O)c1ccc(Br)c(NC(=S)NC(=O)c2cccs2)c1)c1ccc(-c2c3nc(c(-c4cc(S(=O)(=O)[O-])ccc4F)c4ccc([nH]4)c(-c4cc(S(=O)(=O)[O-])ccc4F)c4nc(c(-c5cc(S(=O)(=O)[O-])ccc5F)c5ccc2[nH]5)C=C4)C=C3)cc1
REMARK SMILES IDX 8 1 7 2 6 3 5 4 4 5 3 6 2 7 1 8 33 9 34 10 95 11 35 12 94 13
REMARK SMILES IDX 36 14 37 15 38 16 88 17 39 18 93 19 87 20 89 21 40 22 92 23
REMARK SMILES IDX 86 24 85 25 41 27 73 28 53 29 72 30 54 31 57 32 71 33 90 34
REMARK SMILES IDX 55 35 56 36 70 38 91 39 58 40 42 41 43 42 51 43 44 44 50 45
REMARK SMILES IDX 52 46 49 47 45 48 46 49 47 50 48 51 74 52 75 53 83 54 76 55
REMARK SMILES IDX 82 56 84 57 81 58 77 59 78 60 79 61 80 62 59 63 60 64 68 65
REMARK SMILES IDX 61 66 67 67 69 68 66 69 62 70 63 71 64 72 65 73 9 74 10 75
REMARK SMILES IDX 11 76 12 77 13 78 14 79 15 80 16 81 32 82 17 83 20 84 18 85
REMARK SMILES IDX 19 86 21 87 22 89 23 90 24 91 25 92 26 94 27 95 28 96 31 97
REMARK SMILES IDX 29 98 30 99
REMARK H PARENT 89 26 57 37 21 88 24 93
REMARK Flexibility Score: inf
ROOT
ATOM      1  C   UNL A   1      36.629  22.528  24.722  1.00  0.00     0.188 C 
ENDROOT
BRANCH   1   2
ATOM      2  C   UNL A   1      37.710  21.450  24.837  1.00  0.00     0.188 C 
BRANCH   2   3
ATOM      3  O   UNL A   1      38.390  21.436  26.089  1.00  0.00    -0.376 OA
BRANCH   3   4
ATOM      4  C   UNL A   1      39.802  21.222  26.062  1.00  0.00     0.202 C 
BRANCH   4   5
ATOM      5  C   UNL A   1      40.311  19.768  25.991  1.00  0.00     0.261 C 
BRANCH   5   6
ATOM      6  O   UNL A   1      41.663  19.562  25.518  1.00  0.00    -0.460 OA
BRANCH   6   7
ATOM      7  C   UNL A   1      42.821  20.225  25.745  1.00  0.00     0.338 C 
ATOM      8  O   UNL A   1      43.888  19.629  25.600  1.00  0.00    -0.246 OA
BRANCH   7   9
ATOM      9  C   UNL A   1      42.883  21.633  26.218  1.00  0.00     0.060 A 
ATOM     10  C   UNL A   1      42.848  22.726  25.367  1.00  0.00     0.016 A 
ATOM     11  C   UNL A   1      42.851  21.888  27.596  1.00  0.00     0.016 A 
ATOM     12  C   UNL A   1      42.923  24.026  25.811  1.00  0.00     0.010 A 
ATOM     13  C   UNL A   1      42.818  23.207  28.072  1.00  0.00     0.010 A 
ATOM     14  C   UNL A   1      42.880  24.281  27.167  1.00  0.00    -0.014 A 
BRANCH  14  15
ATOM     15  C   UNL A   1      43.071  25.678  27.583  1.00  0.00     0.031 A 
ATOM     16  C   UNL A   1      44.467  26.201  27.538  1.00  0.00     0.074 A 
ATOM     17  C   UNL A   1      42.026  26.504  27.793  1.00  0.00     0.049 A 
ATOM     18  N   UNL A   1      44.910  27.370  27.895  1.00  0.00    -0.248 NA
ATOM     19  C   UNL A   1      45.488  25.310  26.956  1.00  0.00     0.031 C 
ATOM     20  C   UNL A   1      40.619  26.176  27.556  1.00  0.00     0.029 A 
ATOM     21  N   UNL A   1      41.973  27.796  28.243  1.00  0.00    -0.354 N 
ATOM     22  C   UNL A   1      46.257  27.361  27.572  1.00  0.00     0.074 A 
ATOM     23  C   UNL A   1      46.574  26.059  27.035  1.00  0.00     0.031 C 
ATOM     24  C   UNL A   1      39.842  27.194  27.956  1.00  0.00     0.029 A 
ATOM     25  C   UNL A   1      40.691  28.235  28.497  1.00  0.00     0.049 A 
ATOM     26  H   UNL A   1      42.772  28.358  28.373  1.00  0.00     0.167 HD
ATOM     27  C   UNL A   1      47.135  28.376  27.699  1.00  0.00     0.034 A 
ATOM     28  C   UNL A   1      40.259  29.333  29.141  1.00  0.00     0.034 A 
ATOM     29  C   UNL A   1      46.770  29.651  28.249  1.00  0.00     0.049 A 
ATOM     30  C   UNL A   1      41.300  30.329  29.544  1.00  0.00     0.074 A 
ATOM     31  C   UNL A   1      47.579  30.745  28.484  1.00  0.00     0.029 A 
ATOM     32  N   UNL A   1      45.490  29.995  28.669  1.00  0.00    -0.354 N 
ATOM     33  N   UNL A   1      42.591  30.288  29.318  1.00  0.00    -0.248 NA
ATOM     34  C   UNL A   1      40.832  31.528  30.240  1.00  0.00     0.031 C 
ATOM     35  C   UNL A   1      46.814  31.707  29.146  1.00  0.00     0.029 A 
ATOM     36  C   UNL A   1      45.502  31.264  29.219  1.00  0.00     0.049 A 
ATOM     37  H   UNL A   1      44.694  29.421  28.585  1.00  0.00     0.167 HD
ATOM     38  C   UNL A   1      43.085  31.495  29.782  1.00  0.00     0.074 A 
ATOM     39  C   UNL A   1      41.951  32.232  30.308  1.00  0.00     0.031 C 
ATOM     40  C   UNL A   1      44.357  31.962  29.748  1.00  0.00     0.034 A 
BRANCH  27  41
ATOM     41  C   UNL A   1      48.563  28.094  27.343  1.00  0.00     0.023 A 
ATOM     42  C   UNL A   1      49.082  28.350  26.062  1.00  0.00     0.031 A 
ATOM     43  C   UNL A   1      49.406  27.504  28.299  1.00  0.00     0.131 A 
ATOM     44  C   UNL A   1      50.397  27.971  25.760  1.00  0.00     0.055 A 
ATOM     45  C   UNL A   1      50.737  27.208  28.017  1.00  0.00     0.041 A 
ATOM     46  F   UNL A   1      48.938  27.189  29.517  1.00  0.00    -0.206 F 
ATOM     47  C   UNL A   1      51.238  27.434  26.739  1.00  0.00     0.022 A 
BRANCH  44  48
ATOM     48  S   UNL A   1      50.950  28.056  24.036  1.00  0.00     0.124 S 
ATOM     49  O   UNL A   1      49.687  27.911  23.314  1.00  0.00    -0.237 OA
ATOM     50  O   UNL A   1      51.575  29.372  23.967  1.00  0.00    -0.237 OA
ATOM     51  O   UNL A   1      51.865  26.924  23.914  1.00  0.00    -0.744 OA
ENDBRANCH  44  48
ENDBRANCH  27  41
BRANCH  28  52
ATOM     52  C   UNL A   1      38.839  29.507  29.554  1.00  0.00     0.023 A 
ATOM     53  C   UNL A   1      37.941  30.316  28.848  1.00  0.00     0.031 A 
ATOM     54  C   UNL A   1      38.415  28.975  30.782  1.00  0.00     0.131 A 
ATOM     55  C   UNL A   1      36.683  30.609  29.404  1.00  0.00     0.055 A 
ATOM     56  C   UNL A   1      37.140  29.213  31.299  1.00  0.00     0.041 A 
ATOM     57  F   UNL A   1      39.257  28.223  31.507  1.00  0.00    -0.206 F 
ATOM     58  C   UNL A   1      36.265  30.040  30.610  1.00  0.00     0.022 A 
BRANCH  55  59
ATOM     59  S   UNL A   1      35.670  31.893  28.620  1.00  0.00     0.124 S 
ATOM     60  O   UNL A   1      36.673  32.906  28.315  1.00  0.00    -0.237 OA
ATOM     61  O   UNL A   1      35.109  31.178  27.478  1.00  0.00    -0.237 OA
ATOM     62  O   UNL A   1      34.710  32.252  29.662  1.00  0.00    -0.744 OA
ENDBRANCH  55  59
ENDBRANCH  28  52
BRANCH  40  63
ATOM     63  C   UNL A   1      44.560  33.363  30.240  1.00  0.00     0.023 A 
ATOM     64  C   UNL A   1      44.445  34.464  29.380  1.00  0.00     0.031 A 
ATOM     65  C   UNL A   1      44.899  33.591  31.584  1.00  0.00     0.131 A 
ATOM     66  C   UNL A   1      44.746  35.742  29.857  1.00  0.00     0.055 A 
ATOM     67  C   UNL A   1      45.100  34.877  32.076  1.00  0.00     0.041 A 
ATOM     68  F   UNL A   1      45.036  32.565  32.440  1.00  0.00    -0.206 F 
ATOM     69  C   UNL A   1      45.042  35.961  31.205  1.00  0.00     0.022 A 
BRANCH  66  70
ATOM     70  S   UNL A   1      44.886  37.090  28.657  1.00  0.00     0.124 S 
ATOM     71  O   UNL A   1      45.232  38.218  29.516  1.00  0.00    -0.237 OA
ATOM     72  O   UNL A   1      45.948  36.614  27.775  1.00  0.00    -0.237 OA
ATOM     73  O   UNL A   1      43.557  37.151  28.054  1.00  0.00    -0.744 OA
ENDBRANCH  66  70
ENDBRANCH  40  63
ENDBRANCH  14  15
ENDBRANCH   7   9
ENDBRANCH   6   7
ENDBRANCH   5   6
ENDBRANCH   4   5
ENDBRANCH   3   4
ENDBRANCH   2   3
ENDBRANCH   1   2
BRANCH   1  74
ATOM     74  O   UNL A   1      36.205  23.137  25.931  1.00  0.00    -0.376 OA
BRANCH  74  75
ATOM     75  C   UNL A   1      35.535  22.275  26.843  1.00  0.00     0.202 C 
BRANCH  75  76
ATOM     76  C   UNL A   1      33.999  22.387  27.040  1.00  0.00     0.261 C 
BRANCH  76  77
ATOM     77  O   UNL A   1      33.180  21.194  26.873  1.00  0.00    -0.460 OA
BRANCH  77  78
ATOM     78  C   UNL A   1      32.658  21.032  25.624  1.00  0.00     0.338 C 
ATOM     79  O   UNL A   1      32.135  19.993  25.231  1.00  0.00    -0.246 OA
BRANCH  78  80
ATOM     80  C   UNL A   1      32.947  22.169  24.590  1.00  0.00     0.062 A 
ATOM     81  C   UNL A   1      32.425  21.419  23.020  1.00  0.00     0.017 A 
ATOM     82  C   UNL A   1      33.293  24.199  24.457  1.00  0.00     0.043 A 
ATOM     83  C   UNL A   1      32.293  22.500  21.614  1.00  0.00     0.019 A 
ATOM     84  C   UNL A   1      33.276  25.071  23.054  1.00  0.00     0.055 A 
ATOM     85  C   UNL A   1      32.717  24.238  21.647  1.00  0.00     0.041 A 
ATOM     86  Br  UNL A   1      32.662  25.218  20.028  1.00  0.00    -0.049 Br
BRANCH  84  87
ATOM     87  N   UNL A   1      34.155  26.165  23.211  1.00  0.00    -0.331 N 
ATOM     88  H   UNL A   1      35.039  26.055  22.791  1.00  0.00     0.169 HD
BRANCH  87  89
ATOM     89  C   UNL A   1      33.963  27.379  23.870  1.00  0.00     0.177 C 
ATOM     90  S   UNL A   1      34.060  28.763  22.915  1.00  0.00    -0.040 S 
BRANCH  89  91
ATOM     91  N   UNL A   1      33.655  27.616  25.268  1.00  0.00    -0.298 N 
ATOM     92  C   UNL A   1      32.723  28.039  26.402  1.00  0.00     0.267 C 
ATOM     93  H   UNL A   1      34.489  27.375  25.732  1.00  0.00     0.172 HD
ATOM     94  O   UNL A   1      33.221  28.432  27.455  1.00  0.00    -0.268 OA
BRANCH  92  95
ATOM     95  C   UNL A   1      31.208  28.013  26.161  1.00  0.00     0.092 A 
ATOM     96  C   UNL A   1      30.605  26.443  26.064  1.00  0.00     0.025 A 
ATOM     97  S   UNL A   1      30.675  29.387  24.382  1.00  0.00    -0.139 S 
ATOM     98  C   UNL A   1      30.004  25.967  24.322  1.00  0.00     0.012 A 
ATOM     99  C   UNL A   1      29.965  27.545  23.118  1.00  0.00     0.065 A 
ENDBRANCH  92  95
ENDBRANCH  89  91
ENDBRANCH  87  89
ENDBRANCH  84  87
ENDBRANCH  78  80
ENDBRANCH  77  78
ENDBRANCH  76  77
ENDBRANCH  75  76
ENDBRANCH  74  75
ENDBRANCH   1  74
TORSDOF 24
ENDMDL
