MODEL 1
REMARK VINA RESULT:      -9.6      0.000      0.000
REMARK SMILES COc1ccc(CCN2C(=O)C[C@@H](C(=O)OCCOCCOCCOC(=O)c3ccc(-c4c5nc(c(-c6cc(S(=O)(=O)[O-])ccc6F)c6ccc([nH]6)c(-c6cc(S(=O)(=O)[O-])ccc6F)c6nc(c(-c7cc(S(=O)(=O)[O-])ccc7F)c7ccc4[nH]7)C=C6)C=C5)cc3)S/C2=[NH+]\c2ccc(F)cc2)cc1OC
REMARK SMILES IDX 20 1 19 2 18 3 17 4 16 5 14 6 15 7 13 8 9 9 10 10 92 11
REMARK SMILES IDX 11 12 12 13 91 14 93 15 8 17 7 18 6 19 3 20 4 21 102 22 5 23
REMARK SMILES IDX 101 24 2 25 1 26 103 27 104 28 94 29 95 30 100 31 96 32
REMARK SMILES IDX 99 33 97 34 98 35 21 36 22 37 23 38 24 39 25 40 26 41 27 42
REMARK SMILES IDX 28 43 29 44 90 45 30 46 89 47 31 48 32 49 33 50 83 51 34 52
REMARK SMILES IDX 88 53 82 54 84 55 35 56 87 57 81 58 80 59 36 61 68 62 48 63
REMARK SMILES IDX 67 64 49 65 52 66 66 67 85 68 50 69 51 70 65 72 86 73 53 74
REMARK SMILES IDX 37 75 38 76 46 77 39 78 45 79 47 80 44 81 40 82 41 83 42 84
REMARK SMILES IDX 43 85 69 86 70 87 78 88 71 89 77 90 79 91 76 92 72 93 73 94
REMARK SMILES IDX 74 95 75 96 54 97 55 98 63 99 56 100 62 101 64 102 61 103
REMARK SMILES IDX 57 104 58 105 59 106 60 107
REMARK H PARENT 93 16 84 60 52 71
REMARK Flexibility Score: inf
ROOT
ATOM      1  C   UNL A   1      35.564  33.694  29.666  1.00  0.00     0.188 C 
ENDROOT
BRANCH   1   2
ATOM      2  O   UNL A   1      34.461  32.842  29.385  1.00  0.00    -0.376 OA
BRANCH   2   3
ATOM      3  C   UNL A   1      34.626  31.784  28.467  1.00  0.00     0.202 C 
BRANCH   3   4
ATOM      4  C   UNL A   1      33.420  31.368  27.612  1.00  0.00     0.261 C 
BRANCH   4   5
ATOM      5  O   UNL A   1      33.691  30.480  26.508  1.00  0.00    -0.462 OA
BRANCH   5   6
ATOM      6  C   UNL A   1      34.010  29.187  26.813  1.00  0.00     0.320 C 
ATOM      7  O   UNL A   1      35.137  28.818  27.120  1.00  0.00    -0.251 OA
BRANCH   6   8
ATOM      8  C   UNL A   1      32.861  28.210  26.555  1.00  0.00     0.180 C 
ATOM      9  N   UNL A   1      31.840  26.202  24.607  1.00  0.00    -0.191 N 
ATOM     10  C   UNL A   1      32.483  25.891  25.799  1.00  0.00     0.311 C 
ATOM     11  C   UNL A   1      31.147  27.394  24.419  1.00  0.00     0.319 C 
ATOM     12  O   UNL A   1      32.344  24.825  26.395  1.00  0.00    -0.247 OA
ATOM     13  C   UNL A   1      33.494  26.889  26.233  1.00  0.00     0.155 C 
ATOM     14  S   UNL A   1      31.656  28.797  25.335  1.00  0.00    -0.022 SA
ATOM     15  N   UNL A   1      30.219  27.431  23.516  1.00  0.00    -0.235 N 
ATOM     16  H   UNL A   1      29.941  26.570  23.128  1.00  0.00     0.313 HD
BRANCH   9  17
ATOM     17  C   UNL A   1      31.734  25.036  23.720  1.00  0.00     0.251 C 
BRANCH  17  18
ATOM     18  C   UNL A   1      32.954  24.279  23.161  1.00  0.00     0.082 C 
BRANCH  18  19
ATOM     19  C   UNL A   1      33.109  22.776  23.311  1.00  0.00    -0.040 A 
ATOM     20  C   UNL A   1      33.118  20.073  24.141  1.00  0.00     0.160 A 
ATOM     21  C   UNL A   1      32.258  20.507  23.131  1.00  0.00     0.051 A 
ATOM     22  C   UNL A   1      34.081  20.944  24.653  1.00  0.00     0.160 A 
ATOM     23  C   UNL A   1      32.274  21.840  22.703  1.00  0.00     0.008 A 
ATOM     24  C   UNL A   1      34.041  22.291  24.252  1.00  0.00     0.054 A 
BRANCH  20  25
ATOM     25  O   UNL A   1      32.985  18.776  24.564  1.00  0.00    -0.493 OA
ATOM     26  C   UNL A   1      32.715  17.906  23.456  1.00  0.00     0.278 C 
ENDBRANCH  20  25
BRANCH  22  27
ATOM     27  O   UNL A   1      35.083  20.678  25.546  1.00  0.00    -0.493 OA
ATOM     28  C   UNL A   1      36.424  20.921  25.150  1.00  0.00     0.278 C 
ENDBRANCH  22  27
ENDBRANCH  18  19
ENDBRANCH  17  18
ENDBRANCH   9  17
BRANCH  15  29
ATOM     29  C   UNL A   1      29.573  28.583  23.041  1.00  0.00     0.125 A 
ATOM     30  C   UNL A   1      28.206  28.803  23.238  1.00  0.00     0.055 A 
ATOM     31  C   UNL A   1      30.255  29.428  22.152  1.00  0.00     0.055 A 
ATOM     32  C   UNL A   1      27.551  29.854  22.574  1.00  0.00     0.043 A 
ATOM     33  C   UNL A   1      29.607  30.459  21.472  1.00  0.00     0.043 A 
ATOM     34  C   UNL A   1      28.256  30.668  21.694  1.00  0.00     0.123 A 
ATOM     35  F   UNL A   1      27.638  31.675  21.067  1.00  0.00    -0.207 F 
ENDBRANCH  15  29
ENDBRANCH   6   8
ENDBRANCH   5   6
ENDBRANCH   4   5
ENDBRANCH   3   4
ENDBRANCH   2   3
ENDBRANCH   1   2
BRANCH   1  36
ATOM     36  C   UNL A   1      36.838  33.141  30.350  1.00  0.00     0.188 C 
BRANCH  36  37
ATOM     37  O   UNL A   1      36.815  33.235  31.765  1.00  0.00    -0.376 OA
BRANCH  37  38
ATOM     38  C   UNL A   1      35.885  32.383  32.411  1.00  0.00     0.202 C 
BRANCH  38  39
ATOM     39  C   UNL A   1      36.064  30.890  32.103  1.00  0.00     0.261 C 
BRANCH  39  40
ATOM     40  O   UNL A   1      37.048  30.193  32.889  1.00  0.00    -0.460 OA
BRANCH  40  41
ATOM     41  C   UNL A   1      37.889  29.359  32.238  1.00  0.00     0.338 C 
ATOM     42  O   UNL A   1      37.696  28.172  32.020  1.00  0.00    -0.246 OA
BRANCH  41  43
ATOM     43  C   UNL A   1      39.005  30.159  31.677  1.00  0.00     0.060 A 
ATOM     44  C   UNL A   1      39.191  30.196  30.290  1.00  0.00     0.016 A 
ATOM     45  C   UNL A   1      39.870  30.871  32.504  1.00  0.00     0.016 A 
ATOM     46  C   UNL A   1      40.276  30.873  29.728  1.00  0.00     0.010 A 
ATOM     47  C   UNL A   1      40.954  31.562  31.940  1.00  0.00     0.010 A 
ATOM     48  C   UNL A   1      41.188  31.537  30.552  1.00  0.00    -0.014 A 
BRANCH  48  49
ATOM     49  C   UNL A   1      42.460  32.074  29.992  1.00  0.00     0.031 A 
ATOM     50  C   UNL A   1      43.593  31.117  29.730  1.00  0.00     0.074 A 
ATOM     51  C   UNL A   1      42.616  33.383  29.710  1.00  0.00     0.049 A 
ATOM     52  N   UNL A   1      44.832  31.363  29.388  1.00  0.00    -0.248 NA
ATOM     53  C   UNL A   1      43.284  29.688  29.884  1.00  0.00     0.031 C 
ATOM     54  C   UNL A   1      41.580  34.405  29.839  1.00  0.00     0.029 A 
ATOM     55  N   UNL A   1      43.717  34.077  29.269  1.00  0.00    -0.354 N 
ATOM     56  C   UNL A   1      45.458  30.123  29.312  1.00  0.00     0.074 A 
ATOM     57  C   UNL A   1      44.466  29.132  29.672  1.00  0.00     0.031 C 
ATOM     58  C   UNL A   1      42.100  35.598  29.502  1.00  0.00     0.029 A 
ATOM     59  C   UNL A   1      43.519  35.437  29.187  1.00  0.00     0.049 A 
ATOM     60  H   UNL A   1      44.569  33.643  29.032  1.00  0.00     0.167 HD
ATOM     61  C   UNL A   1      46.740  29.838  28.971  1.00  0.00     0.034 A 
ATOM     62  C   UNL A   1      44.388  36.439  28.932  1.00  0.00     0.034 A 
ATOM     63  C   UNL A   1      47.719  30.836  28.612  1.00  0.00     0.049 A 
ATOM     64  C   UNL A   1      45.839  36.107  28.660  1.00  0.00     0.074 A 
ATOM     65  C   UNL A   1      49.040  30.650  28.236  1.00  0.00     0.029 A 
ATOM     66  N   UNL A   1      47.493  32.206  28.591  1.00  0.00    -0.354 N 
ATOM     67  N   UNL A   1      46.426  34.933  28.610  1.00  0.00    -0.248 NA
ATOM     68  C   UNL A   1      46.744  37.238  28.411  1.00  0.00     0.031 C 
ATOM     69  C   UNL A   1      49.632  31.906  28.072  1.00  0.00     0.029 A 
ATOM     70  C   UNL A   1      48.658  32.877  28.249  1.00  0.00     0.049 A 
ATOM     71  H   UNL A   1      46.632  32.639  28.790  1.00  0.00     0.167 HD
ATOM     72  C   UNL A   1      47.758  35.186  28.283  1.00  0.00     0.074 A 
ATOM     73  C   UNL A   1      47.884  36.621  28.138  1.00  0.00     0.031 C 
ATOM     74  C   UNL A   1      48.782  34.310  28.110  1.00  0.00     0.034 A 
BRANCH  61  75
ATOM     75  C   UNL A   1      47.171  28.391  29.036  1.00  0.00     0.023 A 
ATOM     76  C   UNL A   1      47.200  27.570  27.896  1.00  0.00     0.031 A 
ATOM     77  C   UNL A   1      47.538  27.819  30.268  1.00  0.00     0.131 A 
ATOM     78  C   UNL A   1      47.515  26.208  28.023  1.00  0.00     0.055 A 
ATOM     79  C   UNL A   1      47.934  26.485  30.373  1.00  0.00     0.041 A 
ATOM     80  F   UNL A   1      47.508  28.547  31.395  1.00  0.00    -0.206 F 
ATOM     81  C   UNL A   1      47.909  25.667  29.249  1.00  0.00     0.022 A 
BRANCH  78  82
ATOM     82  S   UNL A   1      47.259  25.120  26.594  1.00  0.00     0.124 S 
ATOM     83  O   UNL A   1      48.532  25.255  25.889  1.00  0.00    -0.237 OA
ATOM     84  O   UNL A   1      47.011  23.827  27.222  1.00  0.00    -0.237 OA
ATOM     85  O   UNL A   1      46.111  25.714  25.911  1.00  0.00    -0.744 OA
ENDBRANCH  78  82
ENDBRANCH  61  75
BRANCH  62  86
ATOM     86  C   UNL A   1      43.942  37.864  28.975  1.00  0.00     0.023 A 
ATOM     87  C   UNL A   1      43.845  38.560  30.191  1.00  0.00     0.031 A 
ATOM     88  C   UNL A   1      43.529  38.529  27.805  1.00  0.00     0.131 A 
ATOM     89  C   UNL A   1      43.302  39.856  30.218  1.00  0.00     0.055 A 
ATOM     90  C   UNL A   1      43.049  39.839  27.829  1.00  0.00     0.041 A 
ATOM     91  F   UNL A   1      43.586  37.908  26.615  1.00  0.00    -0.206 F 
ATOM     92  C   UNL A   1      42.919  40.506  29.042  1.00  0.00     0.022 A 
BRANCH  89  93
ATOM     93  S   UNL A   1      43.003  40.641  31.826  1.00  0.00     0.124 S 
ATOM     94  O   UNL A   1      41.680  41.222  31.630  1.00  0.00    -0.237 OA
ATOM     95  O   UNL A   1      43.077  39.504  32.736  1.00  0.00    -0.237 OA
ATOM     96  O   UNL A   1      44.098  41.602  31.944  1.00  0.00    -0.744 OA
ENDBRANCH  89  93
ENDBRANCH  62  86
BRANCH  74  97
ATOM     97  C   UNL A   1      50.118  34.875  27.681  1.00  0.00     0.023 A 
ATOM     98  C   UNL A   1      50.584  34.775  26.358  1.00  0.00     0.031 A 
ATOM     99  C   UNL A   1      50.943  35.522  28.620  1.00  0.00     0.131 A 
ATOM    100  C   UNL A   1      51.859  35.261  26.025  1.00  0.00     0.055 A 
ATOM    101  C   UNL A   1      52.179  36.065  28.267  1.00  0.00     0.041 A 
ATOM    102  F   UNL A   1      50.555  35.645  29.900  1.00  0.00    -0.206 F 
ATOM    103  C   UNL A   1      52.650  35.924  26.966  1.00  0.00     0.022 A 
BRANCH 100 104
ATOM    104  S   UNL A   1      52.515  34.929  24.365  1.00  0.00     0.124 S 
ATOM    105  O   UNL A   1      51.544  33.975  23.840  1.00  0.00    -0.237 OA
ATOM    106  O   UNL A   1      52.503  36.253  23.754  1.00  0.00    -0.237 OA
ATOM    107  O   UNL A   1      53.845  34.380  24.627  1.00  0.00    -0.744 OA
ENDBRANCH 100 104
ENDBRANCH  74  97
ENDBRANCH  48  49
ENDBRANCH  41  43
ENDBRANCH  40  41
ENDBRANCH  39  40
ENDBRANCH  38  39
ENDBRANCH  37  38
ENDBRANCH  36  37
ENDBRANCH   1  36
TORSDOF 26
ENDMDL
MODEL 2
REMARK VINA RESULT:      -9.6      2.056      7.220
REMARK SMILES COc1ccc(CCN2C(=O)C[C@@H](C(=O)OCCOCCOCCOC(=O)c3ccc(-c4c5nc(c(-c6cc(S(=O)(=O)[O-])ccc6F)c6ccc([nH]6)c(-c6cc(S(=O)(=O)[O-])ccc6F)c6nc(c(-c7cc(S(=O)(=O)[O-])ccc7F)c7ccc4[nH]7)C=C6)C=C5)cc3)S/C2=[NH+]\c2ccc(F)cc2)cc1OC
REMARK SMILES IDX 20 1 19 2 18 3 17 4 16 5 14 6 15 7 13 8 9 9 10 10 92 11
REMARK SMILES IDX 11 12 12 13 91 14 93 15 8 17 7 18 6 19 3 20 4 21 102 22 5 23
REMARK SMILES IDX 101 24 2 25 1 26 103 27 104 28 94 29 95 30 100 31 96 32
REMARK SMILES IDX 99 33 97 34 98 35 21 36 22 37 23 38 24 39 25 40 26 41 27 42
REMARK SMILES IDX 28 43 29 44 90 45 30 46 89 47 31 48 32 49 33 50 83 51 34 52
REMARK SMILES IDX 88 53 82 54 84 55 35 56 87 57 81 58 80 59 36 61 68 62 48 63
REMARK SMILES IDX 67 64 49 65 52 66 66 67 85 68 50 69 51 70 65 72 86 73 53 74
REMARK SMILES IDX 37 75 38 76 46 77 39 78 45 79 47 80 44 81 40 82 41 83 42 84
REMARK SMILES IDX 43 85 69 86 70 87 78 88 71 89 77 90 79 91 76 92 72 93 73 94
REMARK SMILES IDX 74 95 75 96 54 97 55 98 63 99 56 100 62 101 64 102 61 103
REMARK SMILES IDX 57 104 58 105 59 106 60 107
REMARK H PARENT 93 16 84 60 52 71
REMARK Flexibility Score: inf
ROOT
ATOM      1  C   UNL A   1      35.461  33.375  29.876  1.00  0.00     0.188 C 
ENDROOT
BRANCH   1   2
ATOM      2  O   UNL A   1      34.404  32.531  29.440  1.00  0.00    -0.376 OA
BRANCH   2   3
ATOM      3  C   UNL A   1      34.530  31.849  28.210  1.00  0.00     0.202 C 
BRANCH   3   4
ATOM      4  C   UNL A   1      33.270  31.231  27.589  1.00  0.00     0.261 C 
BRANCH   4   5
ATOM      5  O   UNL A   1      33.472  30.371  26.448  1.00  0.00    -0.462 OA
BRANCH   5   6
ATOM      6  C   UNL A   1      33.703  29.048  26.700  1.00  0.00     0.320 C 
ATOM      7  O   UNL A   1      34.817  28.574  26.886  1.00  0.00    -0.251 OA
BRANCH   6   8
ATOM      8  C   UNL A   1      32.450  28.182  26.544  1.00  0.00     0.180 C 
ATOM      9  N   UNL A   1      31.242  26.028  24.880  1.00  0.00    -0.191 N 
ATOM     10  C   UNL A   1      31.814  25.834  26.131  1.00  0.00     0.311 C 
ATOM     11  C   UNL A   1      30.703  27.248  24.485  1.00  0.00     0.319 C 
ATOM     12  O   UNL A   1      31.533  24.896  26.875  1.00  0.00    -0.247 OA
ATOM     13  C   UNL A   1      32.927  26.762  26.452  1.00  0.00     0.155 C 
ATOM     14  S   UNL A   1      31.355  28.708  25.199  1.00  0.00    -0.022 SA
ATOM     15  N   UNL A   1      29.808  27.252  23.549  1.00  0.00    -0.235 N 
ATOM     16  H   UNL A   1      29.437  26.380  23.283  1.00  0.00     0.313 HD
BRANCH   9  17
ATOM     17  C   UNL A   1      31.018  24.759  24.176  1.00  0.00     0.251 C 
BRANCH  17  18
ATOM     18  C   UNL A   1      32.062  24.101  23.254  1.00  0.00     0.082 C 
BRANCH  18  19
ATOM     19  C   UNL A   1      33.337  23.476  23.793  1.00  0.00    -0.040 A 
ATOM     20  C   UNL A   1      35.480  21.791  24.541  1.00  0.00     0.160 A 
ATOM     21  C   UNL A   1      35.638  22.740  23.530  1.00  0.00     0.051 A 
ATOM     22  C   UNL A   1      34.301  21.762  25.287  1.00  0.00     0.160 A 
ATOM     23  C   UNL A   1      34.583  23.592  23.180  1.00  0.00     0.008 A 
ATOM     24  C   UNL A   1      33.235  22.585  24.881  1.00  0.00     0.054 A 
BRANCH  20  25
ATOM     25  O   UNL A   1      36.528  20.938  24.770  1.00  0.00    -0.493 OA
ATOM     26  C   UNL A   1      37.749  21.669  24.942  1.00  0.00     0.278 C 
ENDBRANCH  20  25
BRANCH  22  27
ATOM     27  O   UNL A   1      34.004  21.000  26.384  1.00  0.00    -0.493 OA
ATOM     28  C   UNL A   1      33.754  21.658  27.617  1.00  0.00     0.278 C 
ENDBRANCH  22  27
ENDBRANCH  18  19
ENDBRANCH  17  18
ENDBRANCH   9  17
BRANCH  15  29
ATOM     29  C   UNL A   1      29.317  28.383  22.877  1.00  0.00     0.125 A 
ATOM     30  C   UNL A   1      30.145  29.213  22.115  1.00  0.00     0.055 A 
ATOM     31  C   UNL A   1      28.015  28.827  23.154  1.00  0.00     0.055 A 
ATOM     32  C   UNL A   1      29.671  30.444  21.632  1.00  0.00     0.043 A 
ATOM     33  C   UNL A   1      27.543  30.057  22.696  1.00  0.00     0.043 A 
ATOM     34  C   UNL A   1      28.377  30.856  21.931  1.00  0.00     0.123 A 
ATOM     35  F   UNL A   1      27.917  32.023  21.466  1.00  0.00    -0.207 F 
ENDBRANCH  15  29
ENDBRANCH   6   8
ENDBRANCH   5   6
ENDBRANCH   4   5
ENDBRANCH   3   4
ENDBRANCH   2   3
ENDBRANCH   1   2
BRANCH   1  36
ATOM     36  C   UNL A   1      36.881  32.808  30.110  1.00  0.00     0.188 C 
BRANCH  36  37
ATOM     37  O   UNL A   1      37.356  32.983  31.436  1.00  0.00    -0.376 OA
BRANCH  37  38
ATOM     38  C   UNL A   1      36.667  32.237  32.426  1.00  0.00     0.202 C 
BRANCH  38  39
ATOM     39  C   UNL A   1      36.626  30.724  32.174  1.00  0.00     0.261 C 
BRANCH  39  40
ATOM     40  O   UNL A   1      37.674  29.950  32.788  1.00  0.00    -0.460 OA
BRANCH  40  41
ATOM     41  C   UNL A   1      38.460  29.210  31.973  1.00  0.00     0.338 C 
ATOM     42  O   UNL A   1      38.217  28.081  31.573  1.00  0.00    -0.246 OA
BRANCH  41  43
ATOM     43  C   UNL A   1      39.582  30.060  31.503  1.00  0.00     0.060 A 
ATOM     44  C   UNL A   1      39.835  30.160  30.130  1.00  0.00     0.016 A 
ATOM     45  C   UNL A   1      40.386  30.756  32.402  1.00  0.00     0.016 A 
ATOM     46  C   UNL A   1      40.929  30.886  29.652  1.00  0.00     0.010 A 
ATOM     47  C   UNL A   1      41.478  31.496  31.923  1.00  0.00     0.010 A 
ATOM     48  C   UNL A   1      41.782  31.535  30.548  1.00  0.00    -0.014 A 
BRANCH  48  49
ATOM     49  C   UNL A   1      43.066  32.125  30.077  1.00  0.00     0.031 A 
ATOM     50  C   UNL A   1      43.098  33.588  29.719  1.00  0.00     0.074 A 
ATOM     51  C   UNL A   1      44.190  31.390  29.972  1.00  0.00     0.049 A 
ATOM     52  N   UNL A   1      44.047  34.289  29.154  1.00  0.00    -0.248 NA
ATOM     53  C   UNL A   1      41.888  34.360  30.039  1.00  0.00     0.031 C 
ATOM     54  C   UNL A   1      44.323  29.987  30.358  1.00  0.00     0.029 A 
ATOM     55  N   UNL A   1      45.435  31.724  29.493  1.00  0.00    -0.354 N 
ATOM     56  C   UNL A   1      43.540  35.578  29.023  1.00  0.00     0.074 A 
ATOM     57  C   UNL A   1      42.190  35.551  29.544  1.00  0.00     0.031 C 
ATOM     58  C   UNL A   1      45.573  29.576  30.083  1.00  0.00     0.029 A 
ATOM     59  C   UNL A   1      46.315  30.666  29.451  1.00  0.00     0.049 A 
ATOM     60  H   UNL A   1      45.676  32.636  29.206  1.00  0.00     0.167 HD
ATOM     61  C   UNL A   1      44.146  36.682  28.519  1.00  0.00     0.034 A 
ATOM     62  C   UNL A   1      47.556  30.574  28.927  1.00  0.00     0.034 A 
ATOM     63  C   UNL A   1      45.494  36.698  28.004  1.00  0.00     0.049 A 
ATOM     64  C   UNL A   1      48.173  31.791  28.271  1.00  0.00     0.074 A 
ATOM     65  C   UNL A   1      46.206  37.766  27.484  1.00  0.00     0.029 A 
ATOM     66  N   UNL A   1      46.335  35.594  27.933  1.00  0.00    -0.354 N 
ATOM     67  N   UNL A   1      47.679  33.000  28.135  1.00  0.00    -0.248 NA
ATOM     68  C   UNL A   1      49.517  31.628  27.697  1.00  0.00     0.031 C 
ATOM     69  C   UNL A   1      47.438  37.293  27.023  1.00  0.00     0.029 A 
ATOM     70  C   UNL A   1      47.539  35.948  27.342  1.00  0.00     0.049 A 
ATOM     71  H   UNL A   1      46.109  34.691  28.254  1.00  0.00     0.167 HD
ATOM     72  C   UNL A   1      48.669  33.747  27.498  1.00  0.00     0.074 A 
ATOM     73  C   UNL A   1      49.790  32.856  27.287  1.00  0.00     0.031 C 
ATOM     74  C   UNL A   1      48.655  35.055  27.128  1.00  0.00     0.034 A 
BRANCH  61  75
ATOM     75  C   UNL A   1      43.327  37.950  28.440  1.00  0.00     0.023 A 
ATOM     76  C   UNL A   1      43.325  38.902  29.474  1.00  0.00     0.031 A 
ATOM     77  C   UNL A   1      42.516  38.197  27.317  1.00  0.00     0.131 A 
ATOM     78  C   UNL A   1      42.474  40.016  29.397  1.00  0.00     0.055 A 
ATOM     79  C   UNL A   1      41.738  39.351  27.209  1.00  0.00     0.041 A 
ATOM     80  F   UNL A   1      42.458  37.314  26.308  1.00  0.00    -0.206 F 
ATOM     81  C   UNL A   1      41.702  40.261  28.259  1.00  0.00     0.022 A 
BRANCH  78  82
ATOM     82  S   UNL A   1      42.279  41.062  30.866  1.00  0.00     0.124 S 
ATOM     83  O   UNL A   1      43.114  42.211  30.522  1.00  0.00    -0.237 OA
ATOM     84  O   UNL A   1      40.841  41.303  30.893  1.00  0.00    -0.237 OA
ATOM     85  O   UNL A   1      42.793  40.230  31.952  1.00  0.00    -0.744 OA
ENDBRANCH  78  82
ENDBRANCH  61  75
BRANCH  62  86
ATOM     86  C   UNL A   1      48.294  29.275  28.937  1.00  0.00     0.023 A 
ATOM     87  C   UNL A   1      49.151  28.933  29.996  1.00  0.00     0.031 A 
ATOM     88  C   UNL A   1      48.213  28.389  27.847  1.00  0.00     0.131 A 
ATOM     89  C   UNL A   1      49.930  27.767  29.920  1.00  0.00     0.055 A 
ATOM     90  C   UNL A   1      48.942  27.199  27.805  1.00  0.00     0.041 A 
ATOM     91  F   UNL A   1      47.420  28.670  26.800  1.00  0.00    -0.206 F 
ATOM     92  C   UNL A   1      49.818  26.889  28.840  1.00  0.00     0.022 A 
BRANCH  89  93
ATOM     93  S   UNL A   1      51.173  27.466  31.207  1.00  0.00     0.124 S 
ATOM     94  O   UNL A   1      50.345  27.387  32.405  1.00  0.00    -0.237 OA
ATOM     95  O   UNL A   1      51.777  26.216  30.759  1.00  0.00    -0.237 OA
ATOM     96  O   UNL A   1      52.040  28.640  31.123  1.00  0.00    -0.744 OA
ENDBRANCH  89  93
ENDBRANCH  62  86
BRANCH  74  97
ATOM     97  C   UNL A   1      49.916  35.619  26.513  1.00  0.00     0.023 A 
ATOM     98  C   UNL A   1      50.984  36.093  27.296  1.00  0.00     0.031 A 
ATOM     99  C   UNL A   1      50.047  35.688  25.114  1.00  0.00     0.131 A 
ATOM    100  C   UNL A   1      52.107  36.665  26.676  1.00  0.00     0.055 A 
ATOM    101  C   UNL A   1      51.195  36.193  24.503  1.00  0.00     0.041 A 
ATOM    102  F   UNL A   1      49.059  35.255  24.313  1.00  0.00    -0.206 F 
ATOM    103  C   UNL A   1      52.229  36.699  25.285  1.00  0.00     0.022 A 
BRANCH 100 104
ATOM    104  S   UNL A   1      53.370  37.456  27.713  1.00  0.00     0.124 S 
ATOM    105  O   UNL A   1      52.987  37.012  29.049  1.00  0.00    -0.237 OA
ATOM    106  O   UNL A   1      54.607  36.893  27.184  1.00  0.00    -0.237 OA
ATOM    107  O   UNL A   1      53.179  38.883  27.456  1.00  0.00    -0.744 OA
ENDBRANCH 100 104
ENDBRANCH  74  97
ENDBRANCH  48  49
ENDBRANCH  41  43
ENDBRANCH  40  41
ENDBRANCH  39  40
ENDBRANCH  38  39
ENDBRANCH  37  38
ENDBRANCH  36  37
ENDBRANCH   1  36
TORSDOF 26
ENDMDL
MODEL 3
REMARK VINA RESULT:      -9.5      7.325     11.461
REMARK SMILES COc1ccc(CCN2C(=O)C[C@@H](C(=O)OCCOCCOCCOC(=O)c3ccc(-c4c5nc(c(-c6cc(S(=O)(=O)[O-])ccc6F)c6ccc([nH]6)c(-c6cc(S(=O)(=O)[O-])ccc6F)c6nc(c(-c7cc(S(=O)(=O)[O-])ccc7F)c7ccc4[nH]7)C=C6)C=C5)cc3)S/C2=[NH+]\c2ccc(F)cc2)cc1OC
REMARK SMILES IDX 20 1 19 2 18 3 17 4 16 5 14 6 15 7 13 8 9 9 10 10 92 11
REMARK SMILES IDX 11 12 12 13 91 14 93 15 8 17 7 18 6 19 3 20 4 21 102 22 5 23
REMARK SMILES IDX 101 24 2 25 1 26 103 27 104 28 94 29 95 30 100 31 96 32
REMARK SMILES IDX 99 33 97 34 98 35 21 36 22 37 23 38 24 39 25 40 26 41 27 42
REMARK SMILES IDX 28 43 29 44 90 45 30 46 89 47 31 48 32 49 33 50 83 51 34 52
REMARK SMILES IDX 88 53 82 54 84 55 35 56 87 57 81 58 80 59 36 61 68 62 48 63
REMARK SMILES IDX 67 64 49 65 52 66 66 67 85 68 50 69 51 70 65 72 86 73 53 74
REMARK SMILES IDX 37 75 38 76 46 77 39 78 45 79 47 80 44 81 40 82 41 83 42 84
REMARK SMILES IDX 43 85 69 86 70 87 78 88 71 89 77 90 79 91 76 92 72 93 73 94
REMARK SMILES IDX 74 95 75 96 54 97 55 98 63 99 56 100 62 101 64 102 61 103
REMARK SMILES IDX 57 104 58 105 59 106 60 107
REMARK H PARENT 93 16 84 60 52 71
REMARK Flexibility Score: inf
ROOT
ATOM      1  C   UNL A   1      36.079  33.096  28.700  1.00  0.00     0.188 C 
ENDROOT
BRANCH   1   2
ATOM      2  O   UNL A   1      34.791  33.677  28.552  1.00  0.00    -0.376 OA
BRANCH   2   3
ATOM      3  C   UNL A   1      33.712  32.864  28.145  1.00  0.00     0.202 C 
BRANCH   3   4
ATOM      4  C   UNL A   1      34.012  31.638  27.273  1.00  0.00     0.261 C 
BRANCH   4   5
ATOM      5  O   UNL A   1      33.001  30.609  27.239  1.00  0.00    -0.462 OA
BRANCH   5   6
ATOM      6  C   UNL A   1      33.422  29.332  26.995  1.00  0.00     0.320 C 
ATOM      7  O   UNL A   1      34.598  29.015  26.868  1.00  0.00    -0.251 OA
BRANCH   6   8
ATOM      8  C   UNL A   1      32.268  28.366  26.711  1.00  0.00     0.180 C 
ATOM      9  N   UNL A   1      31.357  26.237  24.840  1.00  0.00    -0.191 N 
ATOM     10  C   UNL A   1      31.884  26.006  26.104  1.00  0.00     0.311 C 
ATOM     11  C   UNL A   1      30.721  27.427  24.500  1.00  0.00     0.319 C 
ATOM     12  O   UNL A   1      31.661  24.993  26.765  1.00  0.00    -0.247 OA
ATOM     13  C   UNL A   1      32.886  27.009  26.549  1.00  0.00     0.155 C 
ATOM     14  S   UNL A   1      31.193  28.885  25.348  1.00  0.00    -0.022 SA
ATOM     15  N   UNL A   1      29.876  27.416  23.519  1.00  0.00    -0.235 N 
ATOM     16  H   UNL A   1      29.605  26.535  23.175  1.00  0.00     0.313 HD
BRANCH   9  17
ATOM     17  C   UNL A   1      31.292  25.008  24.039  1.00  0.00     0.251 C 
BRANCH  17  18
ATOM     18  C   UNL A   1      32.504  24.405  23.306  1.00  0.00     0.082 C 
BRANCH  18  19
ATOM     19  C   UNL A   1      32.911  22.952  23.478  1.00  0.00    -0.040 A 
ATOM     20  C   UNL A   1      33.703  20.400  24.404  1.00  0.00     0.160 A 
ATOM     21  C   UNL A   1      32.396  20.628  23.971  1.00  0.00     0.051 A 
ATOM     22  C   UNL A   1      34.668  21.397  24.252  1.00  0.00     0.160 A 
ATOM     23  C   UNL A   1      32.013  21.886  23.488  1.00  0.00     0.008 A 
ATOM     24  C   UNL A   1      34.250  22.669  23.819  1.00  0.00     0.054 A 
BRANCH  20  25
ATOM     25  O   UNL A   1      33.980  19.171  24.942  1.00  0.00    -0.493 OA
ATOM     26  C   UNL A   1      32.778  18.406  25.106  1.00  0.00     0.278 C 
ENDBRANCH  20  25
BRANCH  22  27
ATOM     27  O   UNL A   1      36.012  21.328  24.498  1.00  0.00    -0.493 OA
ATOM     28  C   UNL A   1      36.458  21.402  25.844  1.00  0.00     0.278 C 
ENDBRANCH  22  27
ENDBRANCH  18  19
ENDBRANCH  17  18
ENDBRANCH   9  17
BRANCH  15  29
ATOM     29  C   UNL A   1      29.310  28.542  22.902  1.00  0.00     0.125 A 
ATOM     30  C   UNL A   1      30.041  29.361  22.035  1.00  0.00     0.055 A 
ATOM     31  C   UNL A   1      28.053  28.995  23.331  1.00  0.00     0.055 A 
ATOM     32  C   UNL A   1      29.514  30.589  21.600  1.00  0.00     0.043 A 
ATOM     33  C   UNL A   1      27.533  30.223  22.922  1.00  0.00     0.043 A 
ATOM     34  C   UNL A   1      28.269  31.010  22.052  1.00  0.00     0.123 A 
ATOM     35  F   UNL A   1      27.759  32.174  21.635  1.00  0.00    -0.207 F 
ENDBRANCH  15  29
ENDBRANCH   6   8
ENDBRANCH   5   6
ENDBRANCH   4   5
ENDBRANCH   3   4
ENDBRANCH   2   3
ENDBRANCH   1   2
BRANCH   1  36
ATOM     36  C   UNL A   1      36.672  32.830  30.104  1.00  0.00     0.188 C 
BRANCH  36  37
ATOM     37  O   UNL A   1      38.067  33.075  30.192  1.00  0.00    -0.376 OA
BRANCH  37  38
ATOM     38  C   UNL A   1      38.892  32.062  29.642  1.00  0.00     0.202 C 
BRANCH  38  39
ATOM     39  C   UNL A   1      38.307  30.646  29.722  1.00  0.00     0.261 C 
BRANCH  39  40
ATOM     40  O   UNL A   1      38.494  29.951  30.969  1.00  0.00    -0.460 OA
BRANCH  40  41
ATOM     41  C   UNL A   1      37.452  29.928  31.831  1.00  0.00     0.338 C 
ATOM     42  O   UNL A   1      36.395  29.338  31.662  1.00  0.00    -0.246 OA
BRANCH  41  43
ATOM     43  C   UNL A   1      37.869  30.588  33.092  1.00  0.00     0.060 A 
ATOM     44  C   UNL A   1      37.161  31.708  33.545  1.00  0.00     0.016 A 
ATOM     45  C   UNL A   1      38.950  30.115  33.832  1.00  0.00     0.016 A 
ATOM     46  C   UNL A   1      37.569  32.404  34.684  1.00  0.00     0.010 A 
ATOM     47  C   UNL A   1      39.355  30.806  34.985  1.00  0.00     0.010 A 
ATOM     48  C   UNL A   1      38.692  31.978  35.398  1.00  0.00    -0.014 A 
BRANCH  48  49
ATOM     49  C   UNL A   1      39.268  32.827  36.479  1.00  0.00     0.031 A 
ATOM     50  C   UNL A   1      38.611  32.811  37.835  1.00  0.00     0.074 A 
ATOM     51  C   UNL A   1      40.357  33.594  36.277  1.00  0.00     0.049 A 
ATOM     52  N   UNL A   1      38.836  33.563  38.881  1.00  0.00    -0.248 NA
ATOM     53  C   UNL A   1      37.550  31.811  38.029  1.00  0.00     0.031 C 
ATOM     54  C   UNL A   1      41.138  33.646  35.043  1.00  0.00     0.029 A 
ATOM     55  N   UNL A   1      40.985  34.492  37.108  1.00  0.00    -0.354 N 
ATOM     56  C   UNL A   1      37.927  33.149  39.849  1.00  0.00     0.074 A 
ATOM     57  C   UNL A   1      37.131  32.098  39.252  1.00  0.00     0.031 C 
ATOM     58  C   UNL A   1      42.129  34.542  35.192  1.00  0.00     0.029 A 
ATOM     59  C   UNL A   1      42.023  35.169  36.509  1.00  0.00     0.049 A 
ATOM     60  H   UNL A   1      40.718  34.636  38.046  1.00  0.00     0.167 HD
ATOM     61  C   UNL A   1      37.773  33.602  41.119  1.00  0.00     0.034 A 
ATOM     62  C   UNL A   1      42.771  36.202  36.952  1.00  0.00     0.034 A 
ATOM     63  C   UNL A   1      38.575  34.650  41.704  1.00  0.00     0.049 A 
ATOM     64  C   UNL A   1      42.511  36.764  38.334  1.00  0.00     0.074 A 
ATOM     65  C   UNL A   1      38.509  35.171  42.985  1.00  0.00     0.029 A 
ATOM     66  N   UNL A   1      39.582  35.346  41.047  1.00  0.00    -0.354 N 
ATOM     67  N   UNL A   1      41.637  36.378  39.235  1.00  0.00    -0.248 NA
ATOM     68  C   UNL A   1      43.340  37.902  38.756  1.00  0.00     0.031 C 
ATOM     69  C   UNL A   1      39.413  36.234  43.076  1.00  0.00     0.029 A 
ATOM     70  C   UNL A   1      40.115  36.316  41.884  1.00  0.00     0.049 A 
ATOM     71  H   UNL A   1      39.875  35.176  40.124  1.00  0.00     0.167 HD
ATOM     72  C   UNL A   1      41.842  37.201  40.342  1.00  0.00     0.074 A 
ATOM     73  C   UNL A   1      42.928  38.094  39.999  1.00  0.00     0.031 C 
ATOM     74  C   UNL A   1      41.196  37.210  41.537  1.00  0.00     0.034 A 
BRANCH  61  75
ATOM     75  C   UNL A   1      36.651  33.007  41.938  1.00  0.00     0.023 A 
ATOM     76  C   UNL A   1      35.333  33.486  41.856  1.00  0.00     0.031 A 
ATOM     77  C   UNL A   1      36.914  31.954  42.834  1.00  0.00     0.131 A 
ATOM     78  C   UNL A   1      34.345  32.965  42.707  1.00  0.00     0.055 A 
ATOM     79  C   UNL A   1      35.908  31.382  43.616  1.00  0.00     0.041 A 
ATOM     80  F   UNL A   1      38.158  31.470  42.974  1.00  0.00    -0.206 F 
ATOM     81  C   UNL A   1      34.618  31.898  43.566  1.00  0.00     0.022 A 
BRANCH  78  82
ATOM     82  S   UNL A   1      32.736  33.799  42.783  1.00  0.00     0.124 S 
ATOM     83  O   UNL A   1      32.018  32.967  43.745  1.00  0.00    -0.237 OA
ATOM     84  O   UNL A   1      33.096  35.137  43.239  1.00  0.00    -0.237 OA
ATOM     85  O   UNL A   1      32.243  33.719  41.409  1.00  0.00    -0.744 OA
ENDBRANCH  78  82
ENDBRANCH  61  75
BRANCH  62  86
ATOM     86  C   UNL A   1      43.806  36.826  36.074  1.00  0.00     0.023 A 
ATOM     87  C   UNL A   1      43.481  37.880  35.203  1.00  0.00     0.031 A 
ATOM     88  C   UNL A   1      45.121  36.326  36.035  1.00  0.00     0.131 A 
ATOM     89  C   UNL A   1      44.440  38.362  34.297  1.00  0.00     0.055 A 
ATOM     90  C   UNL A   1      46.088  36.851  35.177  1.00  0.00     0.041 A 
ATOM     91  F   UNL A   1      45.485  35.310  36.835  1.00  0.00    -0.206 F 
ATOM     92  C   UNL A   1      45.746  37.867  34.289  1.00  0.00     0.022 A 
BRANCH  89  93
ATOM     93  S   UNL A   1      43.925  39.577  33.051  1.00  0.00     0.124 S 
ATOM     94  O   UNL A   1      44.047  38.806  31.818  1.00  0.00    -0.237 OA
ATOM     95  O   UNL A   1      42.567  39.893  33.479  1.00  0.00    -0.237 OA
ATOM     96  O   UNL A   1      44.894  40.659  33.210  1.00  0.00    -0.744 OA
ENDBRANCH  89  93
ENDBRANCH  62  86
BRANCH  74  97
ATOM     97  C   UNL A   1      41.690  38.178  42.589  1.00  0.00     0.023 A 
ATOM     98  C   UNL A   1      41.172  39.480  42.711  1.00  0.00     0.031 A 
ATOM     99  C   UNL A   1      42.703  37.788  43.485  1.00  0.00     0.131 A 
ATOM    100  C   UNL A   1      41.708  40.360  43.665  1.00  0.00     0.055 A 
ATOM    101  C   UNL A   1      43.183  38.645  44.476  1.00  0.00     0.041 A 
ATOM    102  F   UNL A   1      43.240  36.559  43.415  1.00  0.00    -0.206 F 
ATOM    103  C   UNL A   1      42.695  39.945  44.562  1.00  0.00     0.022 A 
BRANCH 100 104
ATOM    104  S   UNL A   1      41.167  42.093  43.656  1.00  0.00     0.124 S 
ATOM    105  O   UNL A   1      40.727  42.267  42.276  1.00  0.00    -0.237 OA
ATOM    106  O   UNL A   1      40.113  42.097  44.666  1.00  0.00    -0.237 OA
ATOM    107  O   UNL A   1      42.375  42.832  44.020  1.00  0.00    -0.744 OA
ENDBRANCH 100 104
ENDBRANCH  74  97
ENDBRANCH  48  49
ENDBRANCH  41  43
ENDBRANCH  40  41
ENDBRANCH  39  40
ENDBRANCH  38  39
ENDBRANCH  37  38
ENDBRANCH  36  37
ENDBRANCH   1  36
TORSDOF 26
ENDMDL
