MODEL 1
REMARK VINA RESULT:     -13.3      0.000      0.000
REMARK SMILES Cc1ccc(-c2nc(NC(=O)[C@H]3[C@@H](C(=O)OCCOCCOCCOC(=O)c4ccc(-c5c6nc(c(-c7cc(S(=O)(=O)[O-])ccc7F)c7ccc([nH]7)c(-c7cc(S(=O)(=O)[O-])ccc7F)c7nc(c(-c8cc(S(=O)(=O)[O-])ccc8F)c8ccc5[nH]8)C=C7)C=C6)cc4)[C@@H]4CC[C@H]3O4)sc2C)cc1
REMARK SMILES IDX 20 1 19 2 18 3 17 4 16 5 14 6 15 7 13 8 12 9 94 10 91 11
REMARK SMILES IDX 93 12 95 13 92 14 10 15 9 16 11 18 8 19 6 20 7 21 97 22
REMARK SMILES IDX 96 23 98 24 5 25 1 26 2 27 3 28 100 29 4 30 99 31 21 32
REMARK SMILES IDX 22 33 23 34 24 35 25 36 26 37 27 38 28 39 29 40 90 41 30 42
REMARK SMILES IDX 89 43 31 44 32 45 33 46 83 47 34 48 88 49 82 50 84 51 35 52
REMARK SMILES IDX 87 53 81 54 80 55 36 57 68 58 48 59 67 60 49 61 52 62 66 63
REMARK SMILES IDX 85 64 50 65 51 66 65 68 86 69 53 70 37 71 38 72 46 73 39 74
REMARK SMILES IDX 45 75 47 76 44 77 40 78 41 79 42 80 43 81 69 82 70 83 78 84
REMARK SMILES IDX 71 85 77 86 79 87 76 88 72 89 73 90 74 91 75 92 54 93 55 94
REMARK SMILES IDX 63 95 56 96 62 97 64 98 61 99 57 100 58 101 59 102 60 103
REMARK H PARENT 9 17 84 56 52 67
REMARK Flexibility Score: inf
ROOT
ATOM      1  C   UNL A   1      40.707  20.786  26.959  1.00  0.00     0.188 C 
ENDROOT
BRANCH   1   2
ATOM      2  O   UNL A   1      40.237  21.850  26.134  1.00  0.00    -0.376 OA
BRANCH   2   3
ATOM      3  C   UNL A   1      39.047  22.552  26.482  1.00  0.00     0.202 C 
BRANCH   3   4
ATOM      4  C   UNL A   1      37.739  22.385  25.635  1.00  0.00     0.261 C 
BRANCH   4   5
ATOM      5  O   UNL A   1      36.579  21.401  25.805  1.00  0.00    -0.463 OA
BRANCH   5   6
ATOM      6  C   UNL A   1      35.225  21.400  26.024  1.00  0.00     0.312 C 
ATOM      7  O   UNL A   1      34.454  21.769  26.912  1.00  0.00    -0.252 OA
BRANCH   6   8
ATOM      8  C   UNL A   1      34.533  20.609  25.055  1.00  0.00     0.143 C 
ATOM      9  C   UNL A   1      34.092  21.333  23.786  1.00  0.00     0.124 C 
ATOM     10  C   UNL A   1      32.573  20.892  24.082  1.00  0.00     0.132 C 
ATOM     11  C   UNL A   1      33.369  20.199  25.963  1.00  0.00     0.133 C 
ATOM     12  C   UNL A   1      32.344  19.304  24.144  1.00  0.00     0.035 C 
ATOM     13  O   UNL A   1      32.379  21.127  25.507  1.00  0.00    -0.373 OA
ATOM     14  C   UNL A   1      32.899  18.856  25.500  1.00  0.00     0.036 C 
BRANCH   9  15
ATOM     15  C   UNL A   1      34.555  23.027  23.426  1.00  0.00     0.232 C 
ATOM     16  N   UNL A   1      34.121  24.286  24.103  1.00  0.00    -0.302 N 
ATOM     17  H   UNL A   1      34.564  24.418  24.973  1.00  0.00     0.172 HD
ATOM     18  O   UNL A   1      35.527  23.158  22.658  1.00  0.00    -0.274 OA
BRANCH  16  19
ATOM     19  C   UNL A   1      33.135  25.440  23.761  1.00  0.00     0.190 A 
ATOM     20  C   UNL A   1      31.438  27.082  23.190  1.00  0.00     0.086 A 
ATOM     21  N   UNL A   1      32.050  25.692  22.933  1.00  0.00    -0.220 NA
ATOM     22  C   UNL A   1      32.010  27.487  24.368  1.00  0.00     0.031 A 
ATOM     23  S   UNL A   1      33.624  26.938  24.378  1.00  0.00    -0.101 S 
ATOM     24  C   UNL A   1      31.355  28.211  25.464  1.00  0.00     0.059 C 
BRANCH  20  25
ATOM     25  C   UNL A   1      30.211  28.009  22.777  1.00  0.00     0.001 A 
ATOM     26  C   UNL A   1      27.513  31.597  22.963  1.00  0.00     0.044 C 
ATOM     27  C   UNL A   1      28.368  30.359  22.768  1.00  0.00    -0.051 A 
ATOM     28  C   UNL A   1      27.952  29.050  23.087  1.00  0.00     0.004 A 
ATOM     29  C   UNL A   1      29.679  30.475  22.344  1.00  0.00     0.004 A 
ATOM     30  C   UNL A   1      28.860  27.903  23.131  1.00  0.00     0.010 A 
ATOM     31  C   UNL A   1      30.520  29.322  22.252  1.00  0.00     0.010 A 
ENDBRANCH  20  25
ENDBRANCH  16  19
ENDBRANCH   9  15
ENDBRANCH   6   8
ENDBRANCH   5   6
ENDBRANCH   4   5
ENDBRANCH   3   4
ENDBRANCH   2   3
ENDBRANCH   1   2
BRANCH   1  32
ATOM     32  C   UNL A   1      41.287  19.582  26.219  1.00  0.00     0.188 C 
BRANCH  32  33
ATOM     33  O   UNL A   1      42.236  18.953  27.068  1.00  0.00    -0.376 OA
BRANCH  33  34
ATOM     34  C   UNL A   1      43.085  18.000  26.470  1.00  0.00     0.202 C 
BRANCH  34  35
ATOM     35  C   UNL A   1      43.818  18.607  25.269  1.00  0.00     0.261 C 
BRANCH  35  36
ATOM     36  O   UNL A   1      45.127  19.096  25.677  1.00  0.00    -0.460 OA
BRANCH  36  37
ATOM     37  C   UNL A   1      45.780  20.001  24.852  1.00  0.00     0.338 C 
ATOM     38  O   UNL A   1      46.776  19.733  24.229  1.00  0.00    -0.246 OA
BRANCH  37  39
ATOM     39  C   UNL A   1      45.092  21.362  24.891  1.00  0.00     0.060 A 
ATOM     40  C   UNL A   1      45.404  22.546  24.184  1.00  0.00     0.016 A 
ATOM     41  C   UNL A   1      44.261  21.548  25.933  1.00  0.00     0.016 A 
ATOM     42  C   UNL A   1      44.975  23.902  24.634  1.00  0.00     0.010 A 
ATOM     43  C   UNL A   1      44.272  22.837  26.463  1.00  0.00     0.010 A 
ATOM     44  C   UNL A   1      44.413  24.136  25.893  1.00  0.00    -0.014 A 
BRANCH  44  45
ATOM     45  C   UNL A   1      44.221  25.670  26.761  1.00  0.00     0.031 A 
ATOM     46  C   UNL A   1      42.847  26.882  27.041  1.00  0.00     0.074 A 
ATOM     47  C   UNL A   1      45.246  25.550  27.636  1.00  0.00     0.049 A 
ATOM     48  N   UNL A   1      42.780  28.237  27.203  1.00  0.00    -0.248 NA
ATOM     49  C   UNL A   1      41.413  26.543  27.194  1.00  0.00     0.031 C 
ATOM     50  C   UNL A   1      45.429  25.780  29.050  1.00  0.00     0.029 A 
ATOM     51  N   UNL A   1      46.546  25.492  27.195  1.00  0.00    -0.354 N 
ATOM     52  C   UNL A   1      41.366  28.642  27.558  1.00  0.00     0.074 A 
ATOM     53  C   UNL A   1      40.628  27.590  26.990  1.00  0.00     0.031 C 
ATOM     54  C   UNL A   1      46.634  26.286  29.300  1.00  0.00     0.029 A 
ATOM     55  C   UNL A   1      47.312  26.279  28.061  1.00  0.00     0.049 A 
ATOM     56  H   UNL A   1      46.877  24.991  26.415  1.00  0.00     0.167 HD
ATOM     57  C   UNL A   1      40.843  29.499  28.572  1.00  0.00     0.034 A 
ATOM     58  C   UNL A   1      48.148  27.205  27.579  1.00  0.00     0.034 A 
ATOM     59  C   UNL A   1      41.896  30.299  29.204  1.00  0.00     0.049 A 
ATOM     60  C   UNL A   1      47.535  28.636  27.683  1.00  0.00     0.074 A 
ATOM     61  C   UNL A   1      42.298  30.591  30.509  1.00  0.00     0.029 A 
ATOM     62  N   UNL A   1      42.965  30.662  28.405  1.00  0.00    -0.354 N 
ATOM     63  N   UNL A   1      46.450  29.078  28.320  1.00  0.00    -0.248 NA
ATOM     64  C   UNL A   1      48.265  29.727  27.051  1.00  0.00     0.031 C 
ATOM     65  C   UNL A   1      43.688  30.953  30.474  1.00  0.00     0.029 A 
ATOM     66  C   UNL A   1      44.108  30.881  29.154  1.00  0.00     0.049 A 
ATOM     67  H   UNL A   1      42.920  30.754  27.426  1.00  0.00     0.167 HD
ATOM     68  C   UNL A   1      46.306  30.471  28.097  1.00  0.00     0.074 A 
ATOM     69  C   UNL A   1      47.540  30.798  27.398  1.00  0.00     0.031 C 
ATOM     70  C   UNL A   1      45.254  31.332  28.406  1.00  0.00     0.034 A 
BRANCH  57  71
ATOM     71  C   UNL A   1      39.351  29.402  29.378  1.00  0.00     0.023 A 
ATOM     72  C   UNL A   1      38.454  30.530  29.413  1.00  0.00     0.031 A 
ATOM     73  C   UNL A   1      38.875  28.368  30.239  1.00  0.00     0.131 A 
ATOM     74  C   UNL A   1      37.339  30.651  30.317  1.00  0.00     0.055 A 
ATOM     75  C   UNL A   1      37.760  28.479  31.120  1.00  0.00     0.041 A 
ATOM     76  F   UNL A   1      39.408  27.147  30.292  1.00  0.00    -0.206 F 
ATOM     77  C   UNL A   1      37.001  29.627  31.184  1.00  0.00     0.022 A 
BRANCH  74  78
ATOM     78  S   UNL A   1      36.298  32.162  30.393  1.00  0.00     0.124 S 
ATOM     79  O   UNL A   1      35.164  31.793  29.552  1.00  0.00    -0.237 OA
ATOM     80  O   UNL A   1      36.030  32.301  31.818  1.00  0.00    -0.237 OA
ATOM     81  O   UNL A   1      37.163  33.201  29.830  1.00  0.00    -0.744 OA
ENDBRANCH  74  78
ENDBRANCH  57  71
BRANCH  58  82
ATOM     82  C   UNL A   1      48.980  26.410  26.567  1.00  0.00     0.023 A 
ATOM     83  C   UNL A   1      48.475  26.500  25.212  1.00  0.00     0.031 A 
ATOM     84  C   UNL A   1      50.372  26.276  26.697  1.00  0.00     0.131 A 
ATOM     85  C   UNL A   1      49.344  26.734  24.123  1.00  0.00     0.055 A 
ATOM     86  C   UNL A   1      51.228  26.400  25.579  1.00  0.00     0.041 A 
ATOM     87  F   UNL A   1      50.938  26.244  27.911  1.00  0.00    -0.206 F 
ATOM     88  C   UNL A   1      50.723  26.695  24.307  1.00  0.00     0.022 A 
BRANCH  85  89
ATOM     89  S   UNL A   1      48.717  27.470  22.559  1.00  0.00     0.124 S 
ATOM     90  O   UNL A   1      49.740  28.460  22.249  1.00  0.00    -0.237 OA
ATOM     91  O   UNL A   1      48.636  26.332  21.648  1.00  0.00    -0.237 OA
ATOM     92  O   UNL A   1      47.417  28.006  22.964  1.00  0.00    -0.744 OA
ENDBRANCH  85  89
ENDBRANCH  58  82
BRANCH  70  93
ATOM     93  C   UNL A   1      45.007  32.784  27.899  1.00  0.00     0.023 A 
ATOM     94  C   UNL A   1      44.989  33.890  28.735  1.00  0.00     0.031 A 
ATOM     95  C   UNL A   1      44.957  33.113  26.496  1.00  0.00     0.131 A 
ATOM     96  C   UNL A   1      44.848  35.192  28.220  1.00  0.00     0.055 A 
ATOM     97  C   UNL A   1      44.987  34.413  25.988  1.00  0.00     0.041 A 
ATOM     98  F   UNL A   1      44.888  32.190  25.527  1.00  0.00    -0.206 F 
ATOM     99  C   UNL A   1      44.909  35.473  26.859  1.00  0.00     0.022 A 
BRANCH  96 100
ATOM    100  S   UNL A   1      44.415  36.485  29.397  1.00  0.00     0.124 S 
ATOM    101  O   UNL A   1      43.207  35.930  30.005  1.00  0.00    -0.237 OA
ATOM    102  O   UNL A   1      45.594  36.529  30.254  1.00  0.00    -0.237 OA
ATOM    103  O   UNL A   1      44.202  37.658  28.554  1.00  0.00    -0.744 OA
ENDBRANCH  96 100
ENDBRANCH  70  93
ENDBRANCH  44  45
ENDBRANCH  37  39
ENDBRANCH  36  37
ENDBRANCH  35  36
ENDBRANCH  34  35
ENDBRANCH  33  34
ENDBRANCH  32  33
ENDBRANCH   1  32
TORSDOF 23
ENDMDL
MODEL 2
REMARK VINA RESULT:     -12.5      1.571      2.272
REMARK SMILES Cc1ccc(-c2nc(NC(=O)[C@H]3[C@@H](C(=O)OCCOCCOCCOC(=O)c4ccc(-c5c6nc(c(-c7cc(S(=O)(=O)[O-])ccc7F)c7ccc([nH]7)c(-c7cc(S(=O)(=O)[O-])ccc7F)c7nc(c(-c8cc(S(=O)(=O)[O-])ccc8F)c8ccc5[nH]8)C=C7)C=C6)cc4)[C@@H]4CC[C@H]3O4)sc2C)cc1
REMARK SMILES IDX 20 1 19 2 18 3 17 4 16 5 14 6 15 7 13 8 12 9 94 10 91 11
REMARK SMILES IDX 93 12 95 13 92 14 10 15 9 16 11 18 8 19 6 20 7 21 97 22
REMARK SMILES IDX 96 23 98 24 5 25 1 26 2 27 3 28 100 29 4 30 99 31 21 32
REMARK SMILES IDX 22 33 23 34 24 35 25 36 26 37 27 38 28 39 29 40 90 41 30 42
REMARK SMILES IDX 89 43 31 44 32 45 33 46 83 47 34 48 88 49 82 50 84 51 35 52
REMARK SMILES IDX 87 53 81 54 80 55 36 57 68 58 48 59 67 60 49 61 52 62 66 63
REMARK SMILES IDX 85 64 50 65 51 66 65 68 86 69 53 70 37 71 38 72 46 73 39 74
REMARK SMILES IDX 45 75 47 76 44 77 40 78 41 79 42 80 43 81 69 82 70 83 78 84
REMARK SMILES IDX 71 85 77 86 79 87 76 88 72 89 73 90 74 91 75 92 54 93 55 94
REMARK SMILES IDX 63 95 56 96 62 97 64 98 61 99 57 100 58 101 59 102 60 103
REMARK H PARENT 9 17 84 56 52 67
REMARK Flexibility Score: inf
ROOT
ATOM      1  C   UNL A   1      40.614  21.156  26.621  1.00  0.00     0.188 C 
ENDROOT
BRANCH   1   2
ATOM      2  O   UNL A   1      39.804  21.959  25.763  1.00  0.00    -0.376 OA
BRANCH   2   3
ATOM      3  C   UNL A   1      38.590  22.524  26.249  1.00  0.00     0.202 C 
BRANCH   3   4
ATOM      4  C   UNL A   1      37.355  22.708  25.304  1.00  0.00     0.261 C 
BRANCH   4   5
ATOM      5  O   UNL A   1      35.862  22.521  25.591  1.00  0.00    -0.463 OA
BRANCH   5   6
ATOM      6  C   UNL A   1      34.665  23.157  25.384  1.00  0.00     0.312 C 
ATOM      7  O   UNL A   1      34.163  24.248  25.661  1.00  0.00    -0.252 OA
BRANCH   6   8
ATOM      8  C   UNL A   1      33.674  22.265  24.869  1.00  0.00     0.143 C 
ATOM      9  C   UNL A   1      32.293  22.348  25.513  1.00  0.00     0.124 C 
ATOM     10  C   UNL A   1      32.389  20.783  25.878  1.00  0.00     0.132 C 
ATOM     11  C   UNL A   1      34.424  20.968  25.188  1.00  0.00     0.133 C 
ATOM     12  C   UNL A   1      32.554  19.815  24.608  1.00  0.00     0.035 C 
ATOM     13  O   UNL A   1      33.740  20.593  26.389  1.00  0.00    -0.373 OA
ATOM     14  C   UNL A   1      34.014  19.956  24.164  1.00  0.00     0.036 C 
BRANCH   9  15
ATOM     15  C   UNL A   1      31.861  23.599  26.722  1.00  0.00     0.232 C 
ATOM     16  N   UNL A   1      30.988  24.801  26.562  1.00  0.00    -0.302 N 
ATOM     17  H   UNL A   1      30.030  24.572  26.552  1.00  0.00     0.172 HD
ATOM     18  O   UNL A   1      32.146  23.316  27.900  1.00  0.00    -0.274 OA
BRANCH  16  19
ATOM     19  C   UNL A   1      31.232  26.330  26.408  1.00  0.00     0.190 A 
ATOM     20  C   UNL A   1      31.757  28.700  26.341  1.00  0.00     0.086 A 
ATOM     21  N   UNL A   1      31.527  27.437  27.191  1.00  0.00    -0.220 NA
ATOM     22  C   UNL A   1      31.873  28.226  25.060  1.00  0.00     0.031 A 
ATOM     23  S   UNL A   1      30.786  26.924  24.887  1.00  0.00    -0.101 S 
ATOM     24  C   UNL A   1      32.802  28.697  24.025  1.00  0.00     0.059 C 
BRANCH  20  25
ATOM     25  C   UNL A   1      32.211  30.223  26.453  1.00  0.00     0.001 A 
ATOM     26  C   UNL A   1      33.391  34.027  28.530  1.00  0.00     0.044 C 
ATOM     27  C   UNL A   1      33.052  32.799  27.708  1.00  0.00    -0.051 A 
ATOM     28  C   UNL A   1      31.877  32.658  26.942  1.00  0.00     0.004 A 
ATOM     29  C   UNL A   1      33.865  31.681  27.752  1.00  0.00     0.004 A 
ATOM     30  C   UNL A   1      31.441  31.388  26.358  1.00  0.00     0.010 A 
ATOM     31  C   UNL A   1      33.500  30.486  27.057  1.00  0.00     0.010 A 
ENDBRANCH  20  25
ENDBRANCH  16  19
ENDBRANCH   9  15
ENDBRANCH   6   8
ENDBRANCH   5   6
ENDBRANCH   4   5
ENDBRANCH   3   4
ENDBRANCH   2   3
ENDBRANCH   1   2
BRANCH   1  32
ATOM     32  C   UNL A   1      40.871  19.730  26.142  1.00  0.00     0.188 C 
BRANCH  32  33
ATOM     33  O   UNL A   1      42.033  19.242  26.797  1.00  0.00    -0.376 OA
BRANCH  33  34
ATOM     34  C   UNL A   1      42.763  18.239  26.128  1.00  0.00     0.202 C 
BRANCH  34  35
ATOM     35  C   UNL A   1      43.649  18.853  25.038  1.00  0.00     0.261 C 
BRANCH  35  36
ATOM     36  O   UNL A   1      45.013  18.996  25.524  1.00  0.00    -0.460 OA
BRANCH  36  37
ATOM     37  C   UNL A   1      45.803  20.003  24.986  1.00  0.00     0.338 C 
ATOM     38  O   UNL A   1      46.921  19.822  24.575  1.00  0.00    -0.246 OA
BRANCH  37  39
ATOM     39  C   UNL A   1      45.078  21.344  25.037  1.00  0.00     0.060 A 
ATOM     40  C   UNL A   1      45.304  22.516  24.276  1.00  0.00     0.016 A 
ATOM     41  C   UNL A   1      44.317  21.537  26.129  1.00  0.00     0.016 A 
ATOM     42  C   UNL A   1      44.866  23.871  24.718  1.00  0.00     0.010 A 
ATOM     43  C   UNL A   1      44.326  22.841  26.621  1.00  0.00     0.010 A 
ATOM     44  C   UNL A   1      44.387  24.126  26.008  1.00  0.00    -0.014 A 
BRANCH  44  45
ATOM     45  C   UNL A   1      44.210  25.680  26.844  1.00  0.00     0.031 A 
ATOM     46  C   UNL A   1      42.839  26.895  27.125  1.00  0.00     0.074 A 
ATOM     47  C   UNL A   1      45.252  25.580  27.700  1.00  0.00     0.049 A 
ATOM     48  N   UNL A   1      42.773  28.253  27.257  1.00  0.00    -0.248 NA
ATOM     49  C   UNL A   1      41.409  26.558  27.314  1.00  0.00     0.031 C 
ATOM     50  C   UNL A   1      45.463  25.843  29.105  1.00  0.00     0.029 A 
ATOM     51  N   UNL A   1      46.543  25.515  27.235  1.00  0.00    -0.354 N 
ATOM     52  C   UNL A   1      41.366  28.664  27.631  1.00  0.00     0.074 A 
ATOM     53  C   UNL A   1      40.618  27.599  27.102  1.00  0.00     0.031 C 
ATOM     54  C   UNL A   1      46.671  26.356  29.319  1.00  0.00     0.029 A 
ATOM     55  C   UNL A   1      47.324  26.321  28.068  1.00  0.00     0.049 A 
ATOM     56  H   UNL A   1      46.859  24.997  26.460  1.00  0.00     0.167 HD
ATOM     57  C   UNL A   1      40.861  29.544  28.636  1.00  0.00     0.034 A 
ATOM     58  C   UNL A   1      48.150  27.238  27.549  1.00  0.00     0.034 A 
ATOM     59  C   UNL A   1      41.926  30.359  29.228  1.00  0.00     0.049 A 
ATOM     60  C   UNL A   1      47.536  28.670  27.632  1.00  0.00     0.074 A 
ATOM     61  C   UNL A   1      42.353  30.681  30.518  1.00  0.00     0.029 A 
ATOM     62  N   UNL A   1      42.978  30.706  28.400  1.00  0.00    -0.354 N 
ATOM     63  N   UNL A   1      46.462  29.124  28.281  1.00  0.00    -0.248 NA
ATOM     64  C   UNL A   1      48.251  29.748  26.962  1.00  0.00     0.031 C 
ATOM     65  C   UNL A   1      43.741  31.044  30.447  1.00  0.00     0.029 A 
ATOM     66  C   UNL A   1      44.135  30.943  29.121  1.00  0.00     0.049 A 
ATOM     67  H   UNL A   1      42.912  30.775  27.420  1.00  0.00     0.167 HD
ATOM     68  C   UNL A   1      46.312  30.512  28.029  1.00  0.00     0.074 A 
ATOM     69  C   UNL A   1      47.531  30.825  27.299  1.00  0.00     0.031 C 
ATOM     70  C   UNL A   1      45.265  31.379  28.340  1.00  0.00     0.034 A 
BRANCH  57  71
ATOM     71  C   UNL A   1      39.386  29.462  29.474  1.00  0.00     0.023 A 
ATOM     72  C   UNL A   1      38.555  30.632  29.625  1.00  0.00     0.031 A 
ATOM     73  C   UNL A   1      38.873  28.389  30.261  1.00  0.00     0.131 A 
ATOM     74  C   UNL A   1      37.472  30.739  30.567  1.00  0.00     0.055 A 
ATOM     75  C   UNL A   1      37.787  28.489  31.180  1.00  0.00     0.041 A 
ATOM     76  F   UNL A   1      39.337  27.141  30.200  1.00  0.00    -0.206 F 
ATOM     77  C   UNL A   1      37.097  29.667  31.358  1.00  0.00     0.022 A 
BRANCH  74  78
ATOM     78  S   UNL A   1      36.520  32.293  30.794  1.00  0.00     0.124 S 
ATOM     79  O   UNL A   1      36.592  32.891  29.465  1.00  0.00    -0.237 OA
ATOM     80  O   UNL A   1      35.211  31.814  31.218  1.00  0.00    -0.237 OA
ATOM     81  O   UNL A   1      37.273  33.006  31.828  1.00  0.00    -0.744 OA
ENDBRANCH  74  78
ENDBRANCH  57  71
BRANCH  58  82
ATOM     82  C   UNL A   1      48.962  26.422  26.538  1.00  0.00     0.023 A 
ATOM     83  C   UNL A   1      48.461  26.522  25.182  1.00  0.00     0.031 A 
ATOM     84  C   UNL A   1      50.350  26.254  26.669  1.00  0.00     0.131 A 
ATOM     85  C   UNL A   1      49.336  26.733  24.094  1.00  0.00     0.055 A 
ATOM     86  C   UNL A   1      51.210  26.355  25.551  1.00  0.00     0.041 A 
ATOM     87  F   UNL A   1      50.914  26.210  27.883  1.00  0.00    -0.206 F 
ATOM     88  C   UNL A   1      50.713  26.661  24.278  1.00  0.00     0.022 A 
BRANCH  85  89
ATOM     89  S   UNL A   1      48.727  27.482  22.528  1.00  0.00     0.124 S 
ATOM     90  O   UNL A   1      47.462  28.076  22.939  1.00  0.00    -0.237 OA
ATOM     91  O   UNL A   1      49.781  28.422  22.161  1.00  0.00    -0.237 OA
ATOM     92  O   UNL A   1      48.626  26.321  21.644  1.00  0.00    -0.744 OA
ENDBRANCH  85  89
ENDBRANCH  58  82
BRANCH  70  93
ATOM     93  C   UNL A   1      45.005  32.818  27.806  1.00  0.00     0.023 A 
ATOM     94  C   UNL A   1      45.405  33.963  28.476  1.00  0.00     0.031 A 
ATOM     95  C   UNL A   1      44.487  33.068  26.484  1.00  0.00     0.131 A 
ATOM     96  C   UNL A   1      45.225  35.240  27.913  1.00  0.00     0.055 A 
ATOM     97  C   UNL A   1      44.468  34.320  25.866  1.00  0.00     0.041 A 
ATOM     98  F   UNL A   1      43.977  32.108  25.700  1.00  0.00    -0.206 F 
ATOM     99  C   UNL A   1      44.820  35.431  26.596  1.00  0.00     0.022 A 
BRANCH  96 100
ATOM    100  S   UNL A   1      45.383  36.646  29.028  1.00  0.00     0.124 S 
ATOM    101  O   UNL A   1      45.933  36.008  30.222  1.00  0.00    -0.237 OA
ATOM    102  O   UNL A   1      46.295  37.518  28.297  1.00  0.00    -0.237 OA
ATOM    103  O   UNL A   1      44.013  37.134  29.160  1.00  0.00    -0.744 OA
ENDBRANCH  96 100
ENDBRANCH  70  93
ENDBRANCH  44  45
ENDBRANCH  37  39
ENDBRANCH  36  37
ENDBRANCH  35  36
ENDBRANCH  34  35
ENDBRANCH  33  34
ENDBRANCH  32  33
ENDBRANCH   1  32
TORSDOF 23
ENDMDL
MODEL 3
REMARK VINA RESULT:     -12.5      3.549      6.736
REMARK SMILES Cc1ccc(-c2nc(NC(=O)[C@H]3[C@@H](C(=O)OCCOCCOCCOC(=O)c4ccc(-c5c6nc(c(-c7cc(S(=O)(=O)[O-])ccc7F)c7ccc([nH]7)c(-c7cc(S(=O)(=O)[O-])ccc7F)c7nc(c(-c8cc(S(=O)(=O)[O-])ccc8F)c8ccc5[nH]8)C=C7)C=C6)cc4)[C@@H]4CC[C@H]3O4)sc2C)cc1
REMARK SMILES IDX 20 1 19 2 18 3 17 4 16 5 14 6 15 7 13 8 12 9 94 10 91 11
REMARK SMILES IDX 93 12 95 13 92 14 10 15 9 16 11 18 8 19 6 20 7 21 97 22
REMARK SMILES IDX 96 23 98 24 5 25 1 26 2 27 3 28 100 29 4 30 99 31 21 32
REMARK SMILES IDX 22 33 23 34 24 35 25 36 26 37 27 38 28 39 29 40 90 41 30 42
REMARK SMILES IDX 89 43 31 44 32 45 33 46 83 47 34 48 88 49 82 50 84 51 35 52
REMARK SMILES IDX 87 53 81 54 80 55 36 57 68 58 48 59 67 60 49 61 52 62 66 63
REMARK SMILES IDX 85 64 50 65 51 66 65 68 86 69 53 70 37 71 38 72 46 73 39 74
REMARK SMILES IDX 45 75 47 76 44 77 40 78 41 79 42 80 43 81 69 82 70 83 78 84
REMARK SMILES IDX 71 85 77 86 79 87 76 88 72 89 73 90 74 91 75 92 54 93 55 94
REMARK SMILES IDX 63 95 56 96 62 97 64 98 61 99 57 100 58 101 59 102 60 103
REMARK H PARENT 9 17 84 56 52 67
REMARK Flexibility Score: inf
ROOT
ATOM      1  C   UNL A   1      34.563  24.250  24.129  1.00  0.00     0.188 C 
ENDROOT
BRANCH   1   2
ATOM      2  O   UNL A   1      33.352  24.691  23.518  1.00  0.00    -0.376 OA
BRANCH   2   3
ATOM      3  C   UNL A   1      33.392  25.632  22.449  1.00  0.00     0.202 C 
BRANCH   3   4
ATOM      4  C   UNL A   1      33.355  27.173  22.733  1.00  0.00     0.261 C 
BRANCH   4   5
ATOM      5  O   UNL A   1      32.232  28.037  23.314  1.00  0.00    -0.463 OA
BRANCH   5   6
ATOM      6  C   UNL A   1      31.944  28.770  24.437  1.00  0.00     0.312 C 
ATOM      7  O   UNL A   1      31.120  29.623  24.771  1.00  0.00    -0.252 OA
BRANCH   6   8
ATOM      8  C   UNL A   1      32.968  28.648  25.426  1.00  0.00     0.143 C 
ATOM      9  C   UNL A   1      32.832  27.476  26.395  1.00  0.00     0.124 C 
ATOM     10  C   UNL A   1      32.854  28.514  27.625  1.00  0.00     0.132 C 
ATOM     11  C   UNL A   1      32.744  30.014  26.080  1.00  0.00     0.133 C 
ATOM     12  C   UNL A   1      34.190  29.400  27.721  1.00  0.00     0.035 C 
ATOM     13  O   UNL A   1      31.979  29.606  27.219  1.00  0.00    -0.373 OA
ATOM     14  C   UNL A   1      34.062  30.466  26.627  1.00  0.00     0.036 C 
BRANCH   9  15
ATOM     15  C   UNL A   1      31.573  26.213  26.218  1.00  0.00     0.232 C 
ATOM     16  N   UNL A   1      31.484  24.873  26.874  1.00  0.00    -0.302 N 
ATOM     17  H   UNL A   1      31.199  24.934  27.815  1.00  0.00     0.172 HD
ATOM     18  O   UNL A   1      30.531  26.582  25.645  1.00  0.00    -0.274 OA
BRANCH  16  19
ATOM     19  C   UNL A   1      31.733  23.405  26.425  1.00  0.00     0.190 A 
ATOM     20  C   UNL A   1      32.069  21.179  25.513  1.00  0.00     0.086 A 
ATOM     21  N   UNL A   1      31.264  22.492  25.490  1.00  0.00    -0.220 NA
ATOM     22  C   UNL A   1      33.174  21.475  26.267  1.00  0.00     0.031 A 
ATOM     23  S   UNL A   1      32.684  22.528  27.516  1.00  0.00    -0.101 S 
ATOM     24  C   UNL A   1      34.552  21.029  26.028  1.00  0.00     0.059 C 
BRANCH  20  25
ATOM     25  C   UNL A   1      32.229  19.792  24.746  1.00  0.00     0.001 A 
ATOM     26  C   UNL A   1      34.401  16.209  23.123  1.00  0.00     0.044 C 
ATOM     27  C   UNL A   1      33.544  17.343  23.654  1.00  0.00    -0.051 A 
ATOM     28  C   UNL A   1      32.934  18.322  22.843  1.00  0.00     0.004 A 
ATOM     29  C   UNL A   1      33.397  17.531  25.016  1.00  0.00     0.004 A 
ATOM     30  C   UNL A   1      32.324  19.543  23.372  1.00  0.00     0.010 A 
ATOM     31  C   UNL A   1      32.672  18.654  25.523  1.00  0.00     0.010 A 
ENDBRANCH  20  25
ENDBRANCH  16  19
ENDBRANCH   9  15
ENDBRANCH   6   8
ENDBRANCH   5   6
ENDBRANCH   4   5
ENDBRANCH   3   4
ENDBRANCH   2   3
ENDBRANCH   1   2
BRANCH   1  32
ATOM     32  C   UNL A   1      35.221  23.031  23.486  1.00  0.00     0.188 C 
BRANCH  32  33
ATOM     33  O   UNL A   1      36.627  23.231  23.487  1.00  0.00    -0.376 OA
BRANCH  33  34
ATOM     34  C   UNL A   1      37.225  23.513  24.732  1.00  0.00     0.202 C 
BRANCH  34  35
ATOM     35  C   UNL A   1      37.796  22.236  25.358  1.00  0.00     0.261 C 
BRANCH  35  36
ATOM     36  O   UNL A   1      39.232  22.372  25.551  1.00  0.00    -0.460 OA
BRANCH  36  37
ATOM     37  C   UNL A   1      39.693  22.824  26.779  1.00  0.00     0.338 C 
ATOM     38  O   UNL A   1      40.091  22.091  27.650  1.00  0.00    -0.246 OA
BRANCH  37  39
ATOM     39  C   UNL A   1      39.578  24.342  26.875  1.00  0.00     0.060 A 
ATOM     40  C   UNL A   1      40.456  25.341  26.391  1.00  0.00     0.016 A 
ATOM     41  C   UNL A   1      38.681  24.788  27.772  1.00  0.00     0.016 A 
ATOM     42  C   UNL A   1      40.487  26.731  26.931  1.00  0.00     0.010 A 
ATOM     43  C   UNL A   1      39.066  25.939  28.458  1.00  0.00     0.010 A 
ATOM     44  C   UNL A   1      39.803  27.103  28.094  1.00  0.00    -0.014 A 
BRANCH  44  45
ATOM     45  C   UNL A   1      40.028  28.542  29.107  1.00  0.00     0.031 A 
ATOM     46  C   UNL A   1      39.081  30.100  29.439  1.00  0.00     0.074 A 
ATOM     47  C   UNL A   1      40.887  28.030  30.016  1.00  0.00     0.049 A 
ATOM     48  N   UNL A   1      39.426  31.387  29.738  1.00  0.00    -0.248 NA
ATOM     49  C   UNL A   1      37.606  30.223  29.480  1.00  0.00     0.031 C 
ATOM     50  C   UNL A   1      41.014  28.072  31.455  1.00  0.00     0.029 A 
ATOM     51  N   UNL A   1      42.137  27.598  29.641  1.00  0.00    -0.354 N 
ATOM     52  C   UNL A   1      38.185  32.190  30.058  1.00  0.00     0.074 A 
ATOM     53  C   UNL A   1      37.205  31.479  29.345  1.00  0.00     0.031 C 
ATOM     54  C   UNL A   1      42.292  28.146  31.819  1.00  0.00     0.029 A 
ATOM     55  C   UNL A   1      43.034  28.026  30.624  1.00  0.00     0.049 A 
ATOM     56  H   UNL A   1      42.359  27.084  28.831  1.00  0.00     0.167 HD
ATOM     57  C   UNL A   1      37.871  33.083  31.128  1.00  0.00     0.034 A 
ATOM     58  C   UNL A   1      44.155  28.674  30.287  1.00  0.00     0.034 A 
ATOM     59  C   UNL A   1      39.065  33.450  31.894  1.00  0.00     0.049 A 
ATOM     60  C   UNL A   1      44.011  30.212  30.507  1.00  0.00     0.074 A 
ATOM     61  C   UNL A   1      39.428  33.491  33.242  1.00  0.00     0.029 A 
ATOM     62  N   UNL A   1      40.257  33.520  31.195  1.00  0.00    -0.354 N 
ATOM     63  N   UNL A   1      43.069  30.922  31.129  1.00  0.00    -0.248 NA
ATOM     64  C   UNL A   1      45.095  31.063  30.033  1.00  0.00     0.031 C 
ATOM     65  C   UNL A   1      40.859  33.393  33.319  1.00  0.00     0.029 A 
ATOM     66  C   UNL A   1      41.345  33.301  32.023  1.00  0.00     0.049 A 
ATOM     67  H   UNL A   1      40.324  33.702  30.230  1.00  0.00     0.167 HD
ATOM     68  C   UNL A   1      43.386  32.302  31.046  1.00  0.00     0.074 A 
ATOM     69  C   UNL A   1      44.714  32.276  30.451  1.00  0.00     0.031 C 
ATOM     70  C   UNL A   1      42.632  33.425  31.387  1.00  0.00     0.034 A 
BRANCH  57  71
ATOM     71  C   UNL A   1      36.362  33.398  31.839  1.00  0.00     0.023 A 
ATOM     72  C   UNL A   1      35.424  34.298  31.214  1.00  0.00     0.031 A 
ATOM     73  C   UNL A   1      35.900  33.028  33.137  1.00  0.00     0.131 A 
ATOM     74  C   UNL A   1      34.280  34.866  31.880  1.00  0.00     0.055 A 
ATOM     75  C   UNL A   1      34.757  33.575  33.789  1.00  0.00     0.041 A 
ATOM     76  F   UNL A   1      36.475  32.087  33.885  1.00  0.00    -0.206 F 
ATOM     77  C   UNL A   1      33.955  34.514  33.178  1.00  0.00     0.022 A 
BRANCH  74  78
ATOM     78  S   UNL A   1      33.183  36.095  31.069  1.00  0.00     0.124 S 
ATOM     79  O   UNL A   1      31.861  35.521  31.298  1.00  0.00    -0.237 OA
ATOM     80  O   UNL A   1      33.488  37.326  31.785  1.00  0.00    -0.237 OA
ATOM     81  O   UNL A   1      33.624  36.076  29.672  1.00  0.00    -0.744 OA
ENDBRANCH  74  78
ENDBRANCH  57  71
BRANCH  58  82
ATOM     82  C   UNL A   1      44.779  27.743  29.242  1.00  0.00     0.023 A 
ATOM     83  C   UNL A   1      44.974  28.374  27.953  1.00  0.00     0.031 A 
ATOM     84  C   UNL A   1      45.719  26.762  29.595  1.00  0.00     0.131 A 
ATOM     85  C   UNL A   1      46.185  28.223  27.242  1.00  0.00     0.055 A 
ATOM     86  C   UNL A   1      46.876  26.540  28.813  1.00  0.00     0.041 A 
ATOM     87  F   UNL A   1      45.656  26.164  30.793  1.00  0.00    -0.206 F 
ATOM     88  C   UNL A   1      47.144  27.313  27.677  1.00  0.00     0.022 A 
BRANCH  85  89
ATOM     89  S   UNL A   1      46.701  29.464  25.987  1.00  0.00     0.124 S 
ATOM     90  O   UNL A   1      46.900  28.642  24.800  1.00  0.00    -0.237 OA
ATOM     91  O   UNL A   1      45.575  30.393  25.935  1.00  0.00    -0.237 OA
ATOM     92  O   UNL A   1      47.913  30.027  26.582  1.00  0.00    -0.744 OA
ENDBRANCH  85  89
ENDBRANCH  58  82
BRANCH  70  93
ATOM     93  C   UNL A   1      42.893  34.916  31.023  1.00  0.00     0.023 A 
ATOM     94  C   UNL A   1      43.385  35.846  31.926  1.00  0.00     0.031 A 
ATOM     95  C   UNL A   1      42.812  35.404  29.669  1.00  0.00     0.131 A 
ATOM     96  C   UNL A   1      43.686  37.161  31.527  1.00  0.00     0.055 A 
ATOM     97  C   UNL A   1      43.271  36.655  29.252  1.00  0.00     0.041 A 
ATOM     98  F   UNL A   1      42.294  34.691  28.660  1.00  0.00    -0.206 F 
ATOM     99  C   UNL A   1      43.694  37.561  30.195  1.00  0.00     0.022 A 
BRANCH  96 100
ATOM    100  S   UNL A   1      43.905  38.374  32.841  1.00  0.00     0.124 S 
ATOM    101  O   UNL A   1      43.393  37.643  33.999  1.00  0.00    -0.237 OA
ATOM    102  O   UNL A   1      45.345  38.597  32.818  1.00  0.00    -0.237 OA
ATOM    103  O   UNL A   1      43.084  39.501  32.407  1.00  0.00    -0.744 OA
ENDBRANCH  96 100
ENDBRANCH  70  93
ENDBRANCH  44  45
ENDBRANCH  37  39
ENDBRANCH  36  37
ENDBRANCH  35  36
ENDBRANCH  34  35
ENDBRANCH  33  34
ENDBRANCH  32  33
ENDBRANCH   1  32
TORSDOF 23
ENDMDL
