MODEL 1
REMARK VINA RESULT:      -8.8      0.000      0.000
REMARK SMILES Cn1c(COc2ccc(C(=O)OCCOCCOCCOC(=O)c3ccc(-c4c5nc(c(-c6cc(S(=O)(=O)[O-])ccc6F)c6ccc([nH]6)c(-c6cc(S(=O)(=O)[O-])ccc6F)c6nc(c(-c7cc(S(=O)(=O)[O-])ccc7F)c7ccc4[nH]7)C=C6)C=C5)cc3)cc2)nc2ccccc21
REMARK SMILES IDX 16 1 15 2 14 3 13 4 12 5 10 6 11 7 9 8 6 9 7 10 88 11 8 12
REMARK SMILES IDX 87 13 5 14 4 15 3 16 1 17 2 18 95 19 89 20 90 21 94 22 91 23
REMARK SMILES IDX 93 24 92 25 17 26 18 27 19 28 20 29 21 30 22 31 23 32 24 33
REMARK SMILES IDX 25 34 86 35 26 36 85 37 27 38 28 39 29 40 79 41 30 42 84 43
REMARK SMILES IDX 78 44 80 45 31 46 83 47 77 48 76 49 32 51 64 52 44 53 63 54
REMARK SMILES IDX 45 55 48 56 62 57 81 58 46 59 47 60 61 62 82 63 49 64 33 65
REMARK SMILES IDX 34 66 42 67 35 68 41 69 43 70 40 71 36 72 37 73 38 74 39 75
REMARK SMILES IDX 65 76 66 77 74 78 67 79 73 80 75 81 72 82 68 83 69 84 70 85
REMARK SMILES IDX 71 86 50 87 51 88 59 89 52 90 58 91 60 92 57 93 53 94 54 95
REMARK SMILES IDX 55 96 56 97
REMARK H PARENT 80 50 48 61
REMARK Flexibility Score: inf
ROOT
ATOM      1  C   UNL A   1      34.056  33.199  33.259  1.00  0.00     0.188 C 
ENDROOT
BRANCH   1   2
ATOM      2  O   UNL A   1      35.056  33.504  34.224  1.00  0.00    -0.376 OA
BRANCH   2   3
ATOM      3  C   UNL A   1      36.038  34.495  33.955  1.00  0.00     0.202 C 
BRANCH   3   4
ATOM      4  C   UNL A   1      37.529  34.132  33.863  1.00  0.00     0.261 C 
BRANCH   4   5
ATOM      5  O   UNL A   1      38.298  34.944  32.969  1.00  0.00    -0.460 OA
BRANCH   5   6
ATOM      6  C   UNL A   1      38.347  34.527  31.682  1.00  0.00     0.338 C 
ATOM      7  O   UNL A   1      37.402  34.387  30.920  1.00  0.00    -0.246 OA
BRANCH   6   8
ATOM      8  C   UNL A   1      39.758  34.376  31.257  1.00  0.00     0.060 A 
ATOM      9  C   UNL A   1      42.376  34.068  30.376  1.00  0.00     0.120 A 
ATOM     10  C   UNL A   1      41.408  34.515  29.484  1.00  0.00     0.047 A 
ATOM     11  C   UNL A   1      42.072  33.896  31.727  1.00  0.00     0.047 A 
ATOM     12  C   UNL A   1      40.093  34.668  29.926  1.00  0.00     0.019 A 
ATOM     13  C   UNL A   1      40.756  34.006  32.164  1.00  0.00     0.019 A 
BRANCH   9  14
ATOM     14  O   UNL A   1      43.643  33.820  29.920  1.00  0.00    -0.486 OA
BRANCH  14  15
ATOM     15  C   UNL A   1      43.685  33.780  28.473  1.00  0.00     0.304 C 
BRANCH  15  16
ATOM     16  C   UNL A   1      44.131  32.416  28.031  1.00  0.00     0.147 A 
ATOM     17  C   UNL A   1      43.308  31.074  30.025  1.00  0.00     0.151 C 
ATOM     18  N   UNL A   1      44.015  31.260  28.780  1.00  0.00    -0.328 N 
ATOM     19  C   UNL A   1      44.849  30.310  28.226  1.00  0.00     0.068 A 
ATOM     20  N   UNL A   1      44.844  32.183  26.941  1.00  0.00    -0.229 NA
ATOM     21  C   UNL A   1      45.355  30.923  27.086  1.00  0.00     0.089 A 
ATOM     22  C   UNL A   1      45.238  29.024  28.624  1.00  0.00     0.028 A 
ATOM     23  C   UNL A   1      46.304  30.256  26.300  1.00  0.00     0.030 A 
ATOM     24  C   UNL A   1      46.198  28.377  27.836  1.00  0.00     0.002 A 
ATOM     25  C   UNL A   1      46.729  28.983  26.695  1.00  0.00     0.002 A 
ENDBRANCH  15  16
ENDBRANCH  14  15
ENDBRANCH   9  14
ENDBRANCH   6   8
ENDBRANCH   5   6
ENDBRANCH   4   5
ENDBRANCH   3   4
ENDBRANCH   2   3
ENDBRANCH   1   2
BRANCH   1  26
ATOM     26  C   UNL A   1      34.388  33.270  31.753  1.00  0.00     0.188 C 
BRANCH  26  27
ATOM     27  O   UNL A   1      33.652  34.244  31.049  1.00  0.00    -0.376 OA
BRANCH  27  28
ATOM     28  C   UNL A   1      34.135  34.689  29.793  1.00  0.00     0.202 C 
BRANCH  28  29
ATOM     29  C   UNL A   1      33.618  34.186  28.427  1.00  0.00     0.261 C 
BRANCH  29  30
ATOM     30  O   UNL A   1      34.448  33.313  27.654  1.00  0.00    -0.460 OA
BRANCH  30  31
ATOM     31  C   UNL A   1      34.208  31.986  27.760  1.00  0.00     0.338 C 
ATOM     32  O   UNL A   1      33.173  31.405  27.461  1.00  0.00    -0.246 OA
BRANCH  31  33
ATOM     33  C   UNL A   1      35.467  31.314  28.139  1.00  0.00     0.060 A 
ATOM     34  C   UNL A   1      35.461  29.930  28.364  1.00  0.00     0.016 A 
ATOM     35  C   UNL A   1      36.646  32.048  28.281  1.00  0.00     0.016 A 
ATOM     36  C   UNL A   1      36.636  29.280  28.750  1.00  0.00     0.010 A 
ATOM     37  C   UNL A   1      37.817  31.396  28.688  1.00  0.00     0.010 A 
ATOM     38  C   UNL A   1      37.814  30.013  28.947  1.00  0.00    -0.014 A 
BRANCH  38  39
ATOM     39  C   UNL A   1      38.993  29.376  29.590  1.00  0.00     0.031 A 
ATOM     40  C   UNL A   1      39.407  29.847  30.959  1.00  0.00     0.074 A 
ATOM     41  C   UNL A   1      39.679  28.392  28.980  1.00  0.00     0.049 A 
ATOM     42  N   UNL A   1      40.440  29.502  31.683  1.00  0.00    -0.248 NA
ATOM     43  C   UNL A   1      38.535  30.850  31.589  1.00  0.00     0.031 C 
ATOM     44  C   UNL A   1      39.348  27.812  27.680  1.00  0.00     0.029 A 
ATOM     45  N   UNL A   1      40.807  27.712  29.373  1.00  0.00    -0.354 N 
ATOM     46  C   UNL A   1      40.348  30.250  32.853  1.00  0.00     0.074 A 
ATOM     47  C   UNL A   1      39.179  31.094  32.719  1.00  0.00     0.031 C 
ATOM     48  C   UNL A   1      40.260  26.871  27.378  1.00  0.00     0.029 A 
ATOM     49  C   UNL A   1      41.264  26.812  28.439  1.00  0.00     0.049 A 
ATOM     50  H   UNL A   1      41.245  27.856  30.242  1.00  0.00     0.167 HD
ATOM     51  C   UNL A   1      41.158  30.228  33.939  1.00  0.00     0.034 A 
ATOM     52  C   UNL A   1      42.381  26.053  28.429  1.00  0.00     0.034 A 
ATOM     53  C   UNL A   1      42.330  29.392  34.049  1.00  0.00     0.049 A 
ATOM     54  C   UNL A   1      43.330  26.124  29.605  1.00  0.00     0.074 A 
ATOM     55  C   UNL A   1      43.215  29.286  35.108  1.00  0.00     0.029 A 
ATOM     56  N   UNL A   1      42.792  28.532  33.061  1.00  0.00    -0.354 N 
ATOM     57  N   UNL A   1      43.230  26.831  30.708  1.00  0.00    -0.248 NA
ATOM     58  C   UNL A   1      44.537  25.290  29.535  1.00  0.00     0.031 C 
ATOM     59  C   UNL A   1      44.252  28.428  34.729  1.00  0.00     0.029 A 
ATOM     60  C   UNL A   1      43.969  27.922  33.471  1.00  0.00     0.049 A 
ATOM     61  H   UNL A   1      42.348  28.377  32.196  1.00  0.00     0.167 HD
ATOM     62  C   UNL A   1      44.344  26.495  31.478  1.00  0.00     0.074 A 
ATOM     63  C   UNL A   1      45.092  25.515  30.718  1.00  0.00     0.031 C 
ATOM     64  C   UNL A   1      44.712  26.950  32.703  1.00  0.00     0.034 A 
BRANCH  51  65
ATOM     65  C   UNL A   1      40.834  31.178  35.067  1.00  0.00     0.023 A 
ATOM     66  C   UNL A   1      39.718  30.985  35.902  1.00  0.00     0.031 A 
ATOM     67  C   UNL A   1      41.635  32.312  35.292  1.00  0.00     0.131 A 
ATOM     68  C   UNL A   1      39.397  31.947  36.872  1.00  0.00     0.055 A 
ATOM     69  C   UNL A   1      41.357  33.220  36.315  1.00  0.00     0.041 A 
ATOM     70  F   UNL A   1      42.698  32.564  34.512  1.00  0.00    -0.206 F 
ATOM     71  C   UNL A   1      40.224  33.048  37.103  1.00  0.00     0.022 A 
BRANCH  68  72
ATOM     72  S   UNL A   1      37.802  31.816  37.726  1.00  0.00     0.124 S 
ATOM     73  O   UNL A   1      38.157  32.231  39.081  1.00  0.00    -0.237 OA
ATOM     74  O   UNL A   1      36.963  32.741  36.973  1.00  0.00    -0.237 OA
ATOM     75  O   UNL A   1      37.454  30.403  37.587  1.00  0.00    -0.744 OA
ENDBRANCH  68  72
ENDBRANCH  51  65
BRANCH  52  76
ATOM     76  C   UNL A   1      42.705  25.192  27.253  1.00  0.00     0.023 A 
ATOM     77  C   UNL A   1      42.352  23.832  27.229  1.00  0.00     0.031 A 
ATOM     78  C   UNL A   1      43.437  25.699  26.164  1.00  0.00     0.131 A 
ATOM     79  C   UNL A   1      42.776  23.016  26.166  1.00  0.00     0.055 A 
ATOM     80  C   UNL A   1      43.802  24.899  25.080  1.00  0.00     0.041 A 
ATOM     81  F   UNL A   1      43.808  26.989  26.138  1.00  0.00    -0.206 F 
ATOM     82  C   UNL A   1      43.484  23.545  25.084  1.00  0.00     0.022 A 
BRANCH  79  83
ATOM     83  S   UNL A   1      42.475  21.231  26.268  1.00  0.00     0.124 S 
ATOM     84  O   UNL A   1      43.689  20.691  25.667  1.00  0.00    -0.237 OA
ATOM     85  O   UNL A   1      42.324  21.029  27.705  1.00  0.00    -0.237 OA
ATOM     86  O   UNL A   1      41.254  21.046  25.485  1.00  0.00    -0.744 OA
ENDBRANCH  79  83
ENDBRANCH  52  76
BRANCH  64  87
ATOM     87  C   UNL A   1      45.951  26.346  33.326  1.00  0.00     0.023 A 
ATOM     88  C   UNL A   1      45.932  25.091  33.960  1.00  0.00     0.031 A 
ATOM     89  C   UNL A   1      47.172  27.044  33.285  1.00  0.00     0.131 A 
ATOM     90  C   UNL A   1      47.094  24.600  34.577  1.00  0.00     0.055 A 
ATOM     91  C   UNL A   1      48.340  26.520  33.841  1.00  0.00     0.041 A 
ATOM     92  F   UNL A   1      47.251  28.249  32.698  1.00  0.00    -0.206 F 
ATOM     93  C   UNL A   1      48.302  25.298  34.504  1.00  0.00     0.022 A 
BRANCH  90  94
ATOM     94  S   UNL A   1      46.983  23.084  35.567  1.00  0.00     0.124 S 
ATOM     95  O   UNL A   1      47.588  23.500  36.828  1.00  0.00    -0.237 OA
ATOM     96  O   UNL A   1      45.546  22.836  35.600  1.00  0.00    -0.237 OA
ATOM     97  O   UNL A   1      47.760  22.114  34.797  1.00  0.00    -0.744 OA
ENDBRANCH  90  94
ENDBRANCH  64  87
ENDBRANCH  38  39
ENDBRANCH  31  33
ENDBRANCH  30  31
ENDBRANCH  29  30
ENDBRANCH  28  29
ENDBRANCH  27  28
ENDBRANCH  26  27
ENDBRANCH   1  26
TORSDOF 23
ENDMDL
MODEL 2
REMARK VINA RESULT:      -8.4      5.824     13.214
REMARK SMILES Cn1c(COc2ccc(C(=O)OCCOCCOCCOC(=O)c3ccc(-c4c5nc(c(-c6cc(S(=O)(=O)[O-])ccc6F)c6ccc([nH]6)c(-c6cc(S(=O)(=O)[O-])ccc6F)c6nc(c(-c7cc(S(=O)(=O)[O-])ccc7F)c7ccc4[nH]7)C=C6)C=C5)cc3)cc2)nc2ccccc21
REMARK SMILES IDX 16 1 15 2 14 3 13 4 12 5 10 6 11 7 9 8 6 9 7 10 88 11 8 12
REMARK SMILES IDX 87 13 5 14 4 15 3 16 1 17 2 18 95 19 89 20 90 21 94 22 91 23
REMARK SMILES IDX 93 24 92 25 17 26 18 27 19 28 20 29 21 30 22 31 23 32 24 33
REMARK SMILES IDX 25 34 86 35 26 36 85 37 27 38 28 39 29 40 79 41 30 42 84 43
REMARK SMILES IDX 78 44 80 45 31 46 83 47 77 48 76 49 32 51 64 52 44 53 63 54
REMARK SMILES IDX 45 55 48 56 62 57 81 58 46 59 47 60 61 62 82 63 49 64 33 65
REMARK SMILES IDX 34 66 42 67 35 68 41 69 43 70 40 71 36 72 37 73 38 74 39 75
REMARK SMILES IDX 65 76 66 77 74 78 67 79 73 80 75 81 72 82 68 83 69 84 70 85
REMARK SMILES IDX 71 86 50 87 51 88 59 89 52 90 58 91 60 92 57 93 53 94 54 95
REMARK SMILES IDX 55 96 56 97
REMARK H PARENT 80 50 48 61
REMARK Flexibility Score: inf
ROOT
ATOM      1  C   UNL A   1      40.939  22.651  27.074  1.00  0.00     0.188 C 
ENDROOT
BRANCH   1   2
ATOM      2  O   UNL A   1      39.974  23.463  27.732  1.00  0.00    -0.376 OA
BRANCH   2   3
ATOM      3  C   UNL A   1      39.256  24.455  27.012  1.00  0.00     0.202 C 
BRANCH   3   4
ATOM      4  C   UNL A   1      38.127  24.072  26.041  1.00  0.00     0.261 C 
BRANCH   4   5
ATOM      5  O   UNL A   1      36.972  23.488  26.652  1.00  0.00    -0.460 OA
BRANCH   5   6
ATOM      6  C   UNL A   1      36.100  22.880  25.813  1.00  0.00     0.338 C 
ATOM      7  O   UNL A   1      36.234  21.787  25.283  1.00  0.00    -0.246 OA
BRANCH   6   8
ATOM      8  C   UNL A   1      34.858  23.680  25.714  1.00  0.00     0.060 A 
ATOM      9  C   UNL A   1      32.478  25.107  25.556  1.00  0.00     0.120 A 
ATOM     10  C   UNL A   1      32.610  24.113  26.518  1.00  0.00     0.047 A 
ATOM     11  C   UNL A   1      33.564  25.476  24.761  1.00  0.00     0.047 A 
ATOM     12  C   UNL A   1      33.805  23.395  26.597  1.00  0.00     0.019 A 
ATOM     13  C   UNL A   1      34.742  24.737  24.806  1.00  0.00     0.019 A 
BRANCH   9  14
ATOM     14  O   UNL A   1      31.273  25.742  25.409  1.00  0.00    -0.486 OA
BRANCH  14  15
ATOM     15  C   UNL A   1      30.552  25.246  24.256  1.00  0.00     0.304 C 
BRANCH  15  16
ATOM     16  C   UNL A   1      29.908  26.400  23.543  1.00  0.00     0.147 A 
ATOM     17  C   UNL A   1      31.970  27.347  22.400  1.00  0.00     0.151 C 
ATOM     18  N   UNL A   1      30.582  27.349  22.797  1.00  0.00    -0.328 N 
ATOM     19  C   UNL A   1      29.738  28.427  22.621  1.00  0.00     0.068 A 
ATOM     20  N   UNL A   1      28.639  26.746  23.682  1.00  0.00    -0.229 NA
ATOM     21  C   UNL A   1      28.539  28.018  23.192  1.00  0.00     0.089 A 
ATOM     22  C   UNL A   1      29.915  29.705  22.074  1.00  0.00     0.028 A 
ATOM     23  C   UNL A   1      27.458  28.908  23.251  1.00  0.00     0.030 A 
ATOM     24  C   UNL A   1      28.829  30.586  22.153  1.00  0.00     0.002 A 
ATOM     25  C   UNL A   1      27.621  30.199  22.737  1.00  0.00     0.002 A 
ENDBRANCH  15  16
ENDBRANCH  14  15
ENDBRANCH   9  14
ENDBRANCH   6   8
ENDBRANCH   5   6
ENDBRANCH   4   5
ENDBRANCH   3   4
ENDBRANCH   2   3
ENDBRANCH   1   2
BRANCH   1  26
ATOM     26  C   UNL A   1      40.493  21.379  26.319  1.00  0.00     0.188 C 
BRANCH  26  27
ATOM     27  O   UNL A   1      40.894  20.177  26.935  1.00  0.00    -0.376 OA
BRANCH  27  28
ATOM     28  C   UNL A   1      41.412  19.136  26.125  1.00  0.00     0.202 C 
BRANCH  28  29
ATOM     29  C   UNL A   1      42.901  18.980  25.742  1.00  0.00     0.261 C 
BRANCH  29  30
ATOM     30  O   UNL A   1      43.377  19.616  24.553  1.00  0.00    -0.460 OA
BRANCH  30  31
ATOM     31  C   UNL A   1      44.718  19.738  24.418  1.00  0.00     0.338 C 
ATOM     32  O   UNL A   1      45.486  18.899  23.966  1.00  0.00    -0.246 OA
BRANCH  31  33
ATOM     33  C   UNL A   1      45.095  21.127  24.749  1.00  0.00     0.060 A 
ATOM     34  C   UNL A   1      45.526  21.427  26.048  1.00  0.00     0.016 A 
ATOM     35  C   UNL A   1      45.015  22.132  23.781  1.00  0.00     0.016 A 
ATOM     36  C   UNL A   1      45.862  22.740  26.388  1.00  0.00     0.010 A 
ATOM     37  C   UNL A   1      45.333  23.449  24.131  1.00  0.00     0.010 A 
ATOM     38  C   UNL A   1      45.736  23.766  25.442  1.00  0.00    -0.014 A 
BRANCH  38  39
ATOM     39  C   UNL A   1      45.852  25.187  25.860  1.00  0.00     0.031 A 
ATOM     40  C   UNL A   1      47.215  25.826  25.863  1.00  0.00     0.074 A 
ATOM     41  C   UNL A   1      44.772  25.903  26.221  1.00  0.00     0.049 A 
ATOM     42  N   UNL A   1      47.578  27.018  26.260  1.00  0.00    -0.248 NA
ATOM     43  C   UNL A   1      48.319  24.998  25.353  1.00  0.00     0.031 C 
ATOM     44  C   UNL A   1      43.393  25.417  26.211  1.00  0.00     0.029 A 
ATOM     45  N   UNL A   1      44.667  27.196  26.678  1.00  0.00    -0.354 N 
ATOM     46  C   UNL A   1      48.952  27.084  26.054  1.00  0.00     0.074 A 
ATOM     47  C   UNL A   1      49.360  25.795  25.535  1.00  0.00     0.031 C 
ATOM     48  C   UNL A   1      42.583  26.395  26.651  1.00  0.00     0.029 A 
ATOM     49  C   UNL A   1      43.386  27.561  27.018  1.00  0.00     0.049 A 
ATOM     50  H   UNL A   1      45.439  27.803  26.753  1.00  0.00     0.167 HD
ATOM     51  C   UNL A   1      49.793  28.125  26.271  1.00  0.00     0.034 A 
ATOM     52  C   UNL A   1      42.921  28.692  27.591  1.00  0.00     0.034 A 
ATOM     53  C   UNL A   1      49.373  29.397  26.805  1.00  0.00     0.049 A 
ATOM     54  C   UNL A   1      43.895  29.801  27.924  1.00  0.00     0.074 A 
ATOM     55  C   UNL A   1      50.142  30.521  27.056  1.00  0.00     0.029 A 
ATOM     56  N   UNL A   1      48.076  29.713  27.189  1.00  0.00    -0.354 N 
ATOM     57  N   UNL A   1      45.192  29.855  27.721  1.00  0.00    -0.248 NA
ATOM     58  C   UNL A   1      43.338  31.004  28.559  1.00  0.00     0.031 C 
ATOM     59  C   UNL A   1      49.328  31.482  27.665  1.00  0.00     0.029 A 
ATOM     60  C   UNL A   1      48.031  30.998  27.709  1.00  0.00     0.049 A 
ATOM     61  H   UNL A   1      47.301  29.112  27.103  1.00  0.00     0.167 HD
ATOM     62  C   UNL A   1      45.596  31.112  28.169  1.00  0.00     0.074 A 
ATOM     63  C   UNL A   1      44.405  31.786  28.640  1.00  0.00     0.031 C 
ATOM     64  C   UNL A   1      46.838  31.661  28.183  1.00  0.00     0.034 A 
BRANCH  51  65
ATOM     65  C   UNL A   1      51.259  27.904  25.983  1.00  0.00     0.023 A 
ATOM     66  C   UNL A   1      51.770  27.928  24.672  1.00  0.00     0.031 A 
ATOM     67  C   UNL A   1      52.156  27.635  27.033  1.00  0.00     0.131 A 
ATOM     68  C   UNL A   1      53.119  27.618  24.442  1.00  0.00     0.055 A 
ATOM     69  C   UNL A   1      53.514  27.412  26.803  1.00  0.00     0.041 A 
ATOM     70  F   UNL A   1      51.723  27.573  28.302  1.00  0.00    -0.206 F 
ATOM     71  C   UNL A   1      54.001  27.388  25.500  1.00  0.00     0.022 A 
BRANCH  68  72
ATOM     72  S   UNL A   1      53.672  27.373  22.732  1.00  0.00     0.124 S 
ATOM     73  O   UNL A   1      55.123  27.462  22.874  1.00  0.00    -0.237 OA
ATOM     74  O   UNL A   1      53.140  26.053  22.414  1.00  0.00    -0.237 OA
ATOM     75  O   UNL A   1      53.055  28.485  22.010  1.00  0.00    -0.744 OA
ENDBRANCH  68  72
ENDBRANCH  51  65
BRANCH  52  76
ATOM     76  C   UNL A   1      41.475  28.832  27.936  1.00  0.00     0.023 A 
ATOM     77  C   UNL A   1      41.017  28.624  29.247  1.00  0.00     0.031 A 
ATOM     78  C   UNL A   1      40.518  29.105  26.942  1.00  0.00     0.131 A 
ATOM     79  C   UNL A   1      39.639  28.640  29.520  1.00  0.00     0.055 A 
ATOM     80  C   UNL A   1      39.153  29.182  27.229  1.00  0.00     0.041 A 
ATOM     81  F   UNL A   1      40.898  29.304  25.670  1.00  0.00    -0.206 F 
ATOM     82  C   UNL A   1      38.706  28.934  28.523  1.00  0.00     0.022 A 
BRANCH  79  83
ATOM     83  S   UNL A   1      39.076  28.170  31.179  1.00  0.00     0.124 S 
ATOM     84  O   UNL A   1      38.079  29.197  31.454  1.00  0.00    -0.237 OA
ATOM     85  O   UNL A   1      38.565  26.821  30.955  1.00  0.00    -0.237 OA
ATOM     86  O   UNL A   1      40.292  28.246  31.986  1.00  0.00    -0.744 OA
ENDBRANCH  79  83
ENDBRANCH  52  76
BRANCH  64  87
ATOM     87  C   UNL A   1      46.962  33.087  28.672  1.00  0.00     0.023 A 
ATOM     88  C   UNL A   1      46.910  34.185  27.795  1.00  0.00     0.031 A 
ATOM     89  C   UNL A   1      47.139  33.349  30.043  1.00  0.00     0.131 A 
ATOM     90  C   UNL A   1      47.091  35.486  28.290  1.00  0.00     0.055 A 
ATOM     91  C   UNL A   1      47.250  34.649  30.538  1.00  0.00     0.041 A 
ATOM     92  F   UNL A   1      47.202  32.342  30.929  1.00  0.00    -0.206 F 
ATOM     93  C   UNL A   1      47.241  35.727  29.658  1.00  0.00     0.022 A 
BRANCH  90  94
ATOM     94  S   UNL A   1      47.231  36.857  27.110  1.00  0.00     0.124 S 
ATOM     95  O   UNL A   1      47.041  38.020  27.971  1.00  0.00    -0.237 OA
ATOM     96  O   UNL A   1      48.576  36.673  26.575  1.00  0.00    -0.237 OA
ATOM     97  O   UNL A   1      46.149  36.606  26.160  1.00  0.00    -0.744 OA
ENDBRANCH  90  94
ENDBRANCH  64  87
ENDBRANCH  38  39
ENDBRANCH  31  33
ENDBRANCH  30  31
ENDBRANCH  29  30
ENDBRANCH  28  29
ENDBRANCH  27  28
ENDBRANCH  26  27
ENDBRANCH   1  26
TORSDOF 23
ENDMDL
MODEL 3
REMARK VINA RESULT:      -8.4      1.902      3.103
REMARK SMILES Cn1c(COc2ccc(C(=O)OCCOCCOCCOC(=O)c3ccc(-c4c5nc(c(-c6cc(S(=O)(=O)[O-])ccc6F)c6ccc([nH]6)c(-c6cc(S(=O)(=O)[O-])ccc6F)c6nc(c(-c7cc(S(=O)(=O)[O-])ccc7F)c7ccc4[nH]7)C=C6)C=C5)cc3)cc2)nc2ccccc21
REMARK SMILES IDX 16 1 15 2 14 3 13 4 12 5 10 6 11 7 9 8 6 9 7 10 88 11 8 12
REMARK SMILES IDX 87 13 5 14 4 15 3 16 1 17 2 18 95 19 89 20 90 21 94 22 91 23
REMARK SMILES IDX 93 24 92 25 17 26 18 27 19 28 20 29 21 30 22 31 23 32 24 33
REMARK SMILES IDX 25 34 86 35 26 36 85 37 27 38 28 39 29 40 79 41 30 42 84 43
REMARK SMILES IDX 78 44 80 45 31 46 83 47 77 48 76 49 32 51 64 52 44 53 63 54
REMARK SMILES IDX 45 55 48 56 62 57 81 58 46 59 47 60 61 62 82 63 49 64 33 65
REMARK SMILES IDX 34 66 42 67 35 68 41 69 43 70 40 71 36 72 37 73 38 74 39 75
REMARK SMILES IDX 65 76 66 77 74 78 67 79 73 80 75 81 72 82 68 83 69 84 70 85
REMARK SMILES IDX 71 86 50 87 51 88 59 89 52 90 58 91 60 92 57 93 53 94 54 95
REMARK SMILES IDX 55 96 56 97
REMARK H PARENT 80 50 48 61
REMARK Flexibility Score: inf
ROOT
ATOM      1  C   UNL A   1      34.290  33.223  33.269  1.00  0.00     0.188 C 
ENDROOT
BRANCH   1   2
ATOM      2  O   UNL A   1      35.375  33.573  34.121  1.00  0.00    -0.376 OA
BRANCH   2   3
ATOM      3  C   UNL A   1      36.331  34.539  33.708  1.00  0.00     0.202 C 
BRANCH   3   4
ATOM      4  C   UNL A   1      37.815  34.170  33.547  1.00  0.00     0.261 C 
BRANCH   4   5
ATOM      5  O   UNL A   1      38.531  34.940  32.576  1.00  0.00    -0.460 OA
BRANCH   5   6
ATOM      6  C   UNL A   1      38.554  34.436  31.319  1.00  0.00     0.338 C 
ATOM      7  O   UNL A   1      37.590  34.103  30.645  1.00  0.00    -0.246 OA
BRANCH   6   8
ATOM      8  C   UNL A   1      39.939  34.457  30.795  1.00  0.00     0.060 A 
ATOM      9  C   UNL A   1      42.569  34.511  29.898  1.00  0.00     0.120 A 
ATOM     10  C   UNL A   1      42.292  33.993  31.158  1.00  0.00     0.047 A 
ATOM     11  C   UNL A   1      41.534  34.883  29.040  1.00  0.00     0.047 A 
ATOM     12  C   UNL A   1      40.971  33.967  31.609  1.00  0.00     0.019 A 
ATOM     13  C   UNL A   1      40.221  34.899  29.498  1.00  0.00     0.019 A 
BRANCH   9  14
ATOM     14  O   UNL A   1      43.872  34.632  29.495  1.00  0.00    -0.486 OA
BRANCH  14  15
ATOM     15  C   UNL A   1      44.474  35.843  30.011  1.00  0.00     0.304 C 
BRANCH  15  16
ATOM     16  C   UNL A   1      44.101  36.995  29.123  1.00  0.00     0.147 A 
ATOM     17  C   UNL A   1      45.438  36.343  27.063  1.00  0.00     0.151 C 
ATOM     18  N   UNL A   1      44.610  37.219  27.857  1.00  0.00    -0.328 N 
ATOM     19  C   UNL A   1      44.335  38.529  27.516  1.00  0.00     0.068 A 
ATOM     20  N   UNL A   1      43.370  38.027  29.510  1.00  0.00    -0.229 NA
ATOM     21  C   UNL A   1      43.568  39.003  28.573  1.00  0.00     0.089 A 
ATOM     22  C   UNL A   1      44.713  39.338  26.437  1.00  0.00     0.028 A 
ATOM     23  C   UNL A   1      43.161  40.344  28.590  1.00  0.00     0.030 A 
ATOM     24  C   UNL A   1      44.309  40.679  26.476  1.00  0.00     0.002 A 
ATOM     25  C   UNL A   1      43.550  41.178  27.537  1.00  0.00     0.002 A 
ENDBRANCH  15  16
ENDBRANCH  14  15
ENDBRANCH   9  14
ENDBRANCH   6   8
ENDBRANCH   5   6
ENDBRANCH   4   5
ENDBRANCH   3   4
ENDBRANCH   2   3
ENDBRANCH   1   2
BRANCH   1  26
ATOM     26  C   UNL A   1      34.487  33.194  31.738  1.00  0.00     0.188 C 
BRANCH  26  27
ATOM     27  O   UNL A   1      33.655  34.089  31.036  1.00  0.00    -0.376 OA
BRANCH  27  28
ATOM     28  C   UNL A   1      34.081  34.566  29.771  1.00  0.00     0.202 C 
BRANCH  28  29
ATOM     29  C   UNL A   1      33.593  34.011  28.414  1.00  0.00     0.261 C 
BRANCH  29  30
ATOM     30  O   UNL A   1      34.461  33.153  27.667  1.00  0.00    -0.460 OA
BRANCH  30  31
ATOM     31  C   UNL A   1      34.226  31.823  27.748  1.00  0.00     0.338 C 
ATOM     32  O   UNL A   1      33.193  31.244  27.442  1.00  0.00    -0.246 OA
BRANCH  31  33
ATOM     33  C   UNL A   1      35.490  31.148  28.107  1.00  0.00     0.060 A 
ATOM     34  C   UNL A   1      35.471  29.779  28.410  1.00  0.00     0.016 A 
ATOM     35  C   UNL A   1      36.687  31.865  28.154  1.00  0.00     0.016 A 
ATOM     36  C   UNL A   1      36.651  29.129  28.779  1.00  0.00     0.010 A 
ATOM     37  C   UNL A   1      37.863  31.214  28.543  1.00  0.00     0.010 A 
ATOM     38  C   UNL A   1      37.849  29.848  28.880  1.00  0.00    -0.014 A 
BRANCH  38  39
ATOM     39  C   UNL A   1      39.045  29.224  29.504  1.00  0.00     0.031 A 
ATOM     40  C   UNL A   1      39.524  29.756  30.828  1.00  0.00     0.074 A 
ATOM     41  C   UNL A   1      39.690  28.200  28.916  1.00  0.00     0.049 A 
ATOM     42  N   UNL A   1      40.583  29.431  31.524  1.00  0.00    -0.248 NA
ATOM     43  C   UNL A   1      38.696  30.804  31.443  1.00  0.00     0.031 C 
ATOM     44  C   UNL A   1      39.295  27.561  27.662  1.00  0.00     0.029 A 
ATOM     45  N   UNL A   1      40.824  27.522  29.295  1.00  0.00    -0.354 N 
ATOM     46  C   UNL A   1      40.552  30.238  32.658  1.00  0.00     0.074 A 
ATOM     47  C   UNL A   1      39.391  31.093  32.532  1.00  0.00     0.031 C 
ATOM     48  C   UNL A   1      40.179  26.591  27.370  1.00  0.00     0.029 A 
ATOM     49  C   UNL A   1      41.228  26.569  28.389  1.00  0.00     0.049 A 
ATOM     50  H   UNL A   1      41.302  27.702  30.136  1.00  0.00     0.167 HD
ATOM     51  C   UNL A   1      41.409  30.257  33.709  1.00  0.00     0.034 A 
ATOM     52  C   UNL A   1      42.332  25.793  28.370  1.00  0.00     0.034 A 
ATOM     53  C   UNL A   1      42.571  29.409  33.811  1.00  0.00     0.049 A 
ATOM     54  C   UNL A   1      43.332  25.907  29.500  1.00  0.00     0.074 A 
ATOM     55  C   UNL A   1      43.500  29.341  34.836  1.00  0.00     0.029 A 
ATOM     56  N   UNL A   1      42.978  28.493  32.849  1.00  0.00    -0.354 N 
ATOM     57  N   UNL A   1      43.290  26.670  30.569  1.00  0.00    -0.248 NA
ATOM     58  C   UNL A   1      44.523  25.050  29.421  1.00  0.00     0.031 C 
ATOM     59  C   UNL A   1      44.507  28.448  34.457  1.00  0.00     0.029 A 
ATOM     60  C   UNL A   1      44.163  27.885  33.239  1.00  0.00     0.049 A 
ATOM     61  H   UNL A   1      42.495  28.302  32.013  1.00  0.00     0.167 HD
ATOM     62  C   UNL A   1      44.431  26.354  31.306  1.00  0.00     0.074 A 
ATOM     63  C   UNL A   1      45.131  25.325  30.566  1.00  0.00     0.031 C 
ATOM     64  C   UNL A   1      44.858  26.863  32.491  1.00  0.00     0.034 A 
BRANCH  51  65
ATOM     65  C   UNL A   1      41.146  31.268  34.800  1.00  0.00     0.023 A 
ATOM     66  C   UNL A   1      40.064  31.137  35.688  1.00  0.00     0.031 A 
ATOM     67  C   UNL A   1      41.975  32.397  34.934  1.00  0.00     0.131 A 
ATOM     68  C   UNL A   1      39.799  32.151  36.621  1.00  0.00     0.055 A 
ATOM     69  C   UNL A   1      41.754  33.359  35.921  1.00  0.00     0.041 A 
ATOM     70  F   UNL A   1      43.007  32.590  34.099  1.00  0.00    -0.206 F 
ATOM     71  C   UNL A   1      40.652  33.247  36.763  1.00  0.00     0.022 A 
BRANCH  68  72
ATOM     72  S   UNL A   1      38.239  32.091  37.545  1.00  0.00     0.124 S 
ATOM     73  O   UNL A   1      37.693  30.804  37.121  1.00  0.00    -0.237 OA
ATOM     74  O   UNL A   1      38.688  32.170  38.930  1.00  0.00    -0.237 OA
ATOM     75  O   UNL A   1      37.507  33.259  37.058  1.00  0.00    -0.744 OA
ENDBRANCH  68  72
ENDBRANCH  51  65
BRANCH  52  76
ATOM     76  C   UNL A   1      42.592  24.868  27.226  1.00  0.00     0.023 A 
ATOM     77  C   UNL A   1      42.081  23.560  27.219  1.00  0.00     0.031 A 
ATOM     78  C   UNL A   1      43.418  25.256  26.155  1.00  0.00     0.131 A 
ATOM     79  C   UNL A   1      42.442  22.672  26.192  1.00  0.00     0.055 A 
ATOM     80  C   UNL A   1      43.723  24.390  25.104  1.00  0.00     0.041 A 
ATOM     81  F   UNL A   1      43.941  26.492  26.115  1.00  0.00    -0.206 F 
ATOM     82  C   UNL A   1      43.246  23.084  25.126  1.00  0.00     0.022 A 
BRANCH  79  83
ATOM     83  S   UNL A   1      41.927  20.937  26.321  1.00  0.00     0.124 S 
ATOM     84  O   UNL A   1      40.498  21.032  26.052  1.00  0.00    -0.237 OA
ATOM     85  O   UNL A   1      42.735  20.303  25.284  1.00  0.00    -0.237 OA
ATOM     86  O   UNL A   1      42.284  20.577  27.692  1.00  0.00    -0.744 OA
ENDBRANCH  79  83
ENDBRANCH  52  76
BRANCH  64  87
ATOM     87  C   UNL A   1      46.114  26.271  33.090  1.00  0.00     0.023 A 
ATOM     88  C   UNL A   1      46.078  25.160  33.951  1.00  0.00     0.031 A 
ATOM     89  C   UNL A   1      47.369  26.834  32.795  1.00  0.00     0.131 A 
ATOM     90  C   UNL A   1      47.265  24.684  34.531  1.00  0.00     0.055 A 
ATOM     91  C   UNL A   1      48.552  26.314  33.321  1.00  0.00     0.041 A 
ATOM     92  F   UNL A   1      47.466  27.899  31.984  1.00  0.00    -0.206 F 
ATOM     93  C   UNL A   1      48.504  25.242  34.205  1.00  0.00     0.022 A 
BRANCH  90  94
ATOM     94  S   UNL A   1      47.161  23.390  35.798  1.00  0.00     0.124 S 
ATOM     95  O   UNL A   1      47.902  23.987  36.904  1.00  0.00    -0.237 OA
ATOM     96  O   UNL A   1      45.721  23.258  35.993  1.00  0.00    -0.237 OA
ATOM     97  O   UNL A   1      47.807  22.240  35.168  1.00  0.00    -0.744 OA
ENDBRANCH  90  94
ENDBRANCH  64  87
ENDBRANCH  38  39
ENDBRANCH  31  33
ENDBRANCH  30  31
ENDBRANCH  29  30
ENDBRANCH  28  29
ENDBRANCH  27  28
ENDBRANCH  26  27
ENDBRANCH   1  26
TORSDOF 23
ENDMDL
