MODEL 1
REMARK VINA RESULT:      -9.2      0.000      0.000
REMARK SMILES CC(C)(C)NS(=O)(=O)c1csc(C(=O)Nc2ccccc2C(=O)OCCOCCOCCOC(=O)c2ccc(-c3c4nc(c(-c5cc(S(=O)(=O)[O-])ccc5F)c5ccc([nH]5)c(-c5cc(S(=O)(=O)[O-])ccc5F)c5nc(c(-c6cc(S(=O)(=O)[O-])ccc6F)c6ccc3[nH]6)C=C5)C=C4)cc2)c1
REMARK SMILES IDX 28 1 27 2 26 3 25 4 24 5 22 6 23 7 21 8 16 9 17 10 18 11
REMARK SMILES IDX 20 12 19 13 15 14 13 15 14 16 12 18 9 19 10 20 99 21 11 22
REMARK SMILES IDX 6 23 7 24 8 25 5 26 2 28 1 29 3 30 4 31 29 32 30 33 31 34
REMARK SMILES IDX 32 35 33 36 34 37 35 38 36 39 37 40 98 41 38 42 97 43 39 44
REMARK SMILES IDX 40 45 41 46 91 47 42 48 96 49 90 50 92 51 43 52 95 53 89 54
REMARK SMILES IDX 88 55 44 57 76 58 56 59 75 60 57 61 60 62 74 63 93 64 58 65
REMARK SMILES IDX 59 66 73 68 94 69 61 70 45 71 46 72 54 73 47 74 53 75 55 76
REMARK SMILES IDX 52 77 48 78 49 79 50 80 51 81 77 82 78 83 86 84 79 85 85 86
REMARK SMILES IDX 87 87 84 88 80 89 81 90 82 91 83 92 62 93 63 94 71 95 64 96
REMARK SMILES IDX 70 97 72 98 69 99 65 100 66 101 67 102 68 103
REMARK H PARENT 15 17 5 27 92 56 60 67
REMARK Flexibility Score: inf
ROOT
ATOM      1  C   UNL A   1      34.797  32.519  29.216  1.00  0.00     0.188 C 
ENDROOT
BRANCH   1   2
ATOM      2  O   UNL A   1      35.461  31.354  28.790  1.00  0.00    -0.376 OA
BRANCH   2   3
ATOM      3  C   UNL A   1      34.892  30.510  27.816  1.00  0.00     0.202 C 
BRANCH   3   4
ATOM      4  C   UNL A   1      33.550  30.745  27.098  1.00  0.00     0.261 C 
BRANCH   4   5
ATOM      5  O   UNL A   1      32.500  29.771  27.153  1.00  0.00    -0.460 OA
BRANCH   5   6
ATOM      6  C   UNL A   1      32.798  28.587  26.575  1.00  0.00     0.340 C 
ATOM      7  O   UNL A   1      33.392  27.676  27.131  1.00  0.00    -0.246 OA
BRANCH   6   8
ATOM      8  C   UNL A   1      32.282  28.408  25.209  1.00  0.00     0.083 A 
ATOM      9  C   UNL A   1      31.282  27.490  24.875  1.00  0.00     0.056 A 
ATOM     10  C   UNL A   1      30.996  27.285  23.517  1.00  0.00     0.027 A 
ATOM     11  C   UNL A   1      31.555  28.111  22.536  1.00  0.00     0.002 A 
ATOM     12  C   UNL A   1      32.823  29.256  24.223  1.00  0.00     0.018 A 
ATOM     13  C   UNL A   1      32.439  29.123  22.893  1.00  0.00     0.001 A 
BRANCH   9  14
ATOM     14  N   UNL A   1      30.470  26.801  25.794  1.00  0.00    -0.320 N 
ATOM     15  C   UNL A   1      30.199  25.445  25.942  1.00  0.00     0.265 C 
ATOM     16  O   UNL A   1      29.267  25.169  26.705  1.00  0.00    -0.268 OA
ATOM     17  H   UNL A   1      30.013  27.379  26.446  1.00  0.00     0.170 HD
BRANCH  15  18
ATOM     18  C   UNL A   1      31.003  24.421  25.260  1.00  0.00     0.094 A 
ATOM     19  C   UNL A   1      32.840  23.127  24.596  1.00  0.00     0.093 A 
ATOM     20  C   UNL A   1      32.159  23.248  23.406  1.00  0.00     0.087 A 
ATOM     21  C   UNL A   1      32.035  23.597  25.696  1.00  0.00     0.047 A 
ATOM     22  S   UNL A   1      30.686  24.101  23.593  1.00  0.00    -0.137 S 
BRANCH  19  23
ATOM     23  S   UNL A   1      34.448  22.455  24.744  1.00  0.00     0.241 S 
ATOM     24  O   UNL A   1      34.766  22.629  26.142  1.00  0.00    -0.207 OA
ATOM     25  O   UNL A   1      35.179  23.163  23.713  1.00  0.00    -0.207 OA
BRANCH  23  26
ATOM     26  N   UNL A   1      34.578  20.829  24.332  1.00  0.00    -0.206 NA
ATOM     27  H   UNL A   1      34.730  20.829  23.323  1.00  0.00     0.141 HD
BRANCH  26  28
ATOM     28  C   UNL A   1      33.587  19.739  24.562  1.00  0.00     0.025 C 
ATOM     29  C   UNL A   1      32.529  19.623  23.470  1.00  0.00     0.028 C 
ATOM     30  C   UNL A   1      32.911  19.880  25.923  1.00  0.00     0.028 C 
ATOM     31  C   UNL A   1      34.382  18.412  24.554  1.00  0.00     0.028 C 
ENDBRANCH  26  28
ENDBRANCH  23  26
ENDBRANCH  19  23
ENDBRANCH  15  18
ENDBRANCH   9  14
ENDBRANCH   6   8
ENDBRANCH   5   6
ENDBRANCH   4   5
ENDBRANCH   3   4
ENDBRANCH   2   3
ENDBRANCH   1   2
BRANCH   1  32
ATOM     32  C   UNL A   1      35.414  33.837  28.693  1.00  0.00     0.188 C 
BRANCH  32  33
ATOM     33  O   UNL A   1      34.601  34.989  28.545  1.00  0.00    -0.376 OA
BRANCH  33  34
ATOM     34  C   UNL A   1      33.228  34.890  28.882  1.00  0.00     0.202 C 
BRANCH  34  35
ATOM     35  C   UNL A   1      32.545  36.002  29.704  1.00  0.00     0.261 C 
BRANCH  35  36
ATOM     36  O   UNL A   1      33.195  36.414  30.922  1.00  0.00    -0.460 OA
BRANCH  36  37
ATOM     37  C   UNL A   1      33.011  35.613  32.007  1.00  0.00     0.338 C 
ATOM     38  O   UNL A   1      31.970  35.449  32.619  1.00  0.00    -0.246 OA
BRANCH  37  39
ATOM     39  C   UNL A   1      34.221  34.773  32.218  1.00  0.00     0.060 A 
ATOM     40  C   UNL A   1      34.077  33.443  32.659  1.00  0.00     0.016 A 
ATOM     41  C   UNL A   1      35.493  35.298  32.005  1.00  0.00     0.016 A 
ATOM     42  C   UNL A   1      35.199  32.645  32.904  1.00  0.00     0.010 A 
ATOM     43  C   UNL A   1      36.617  34.513  32.294  1.00  0.00     0.010 A 
ATOM     44  C   UNL A   1      36.479  33.195  32.774  1.00  0.00    -0.014 A 
BRANCH  44  45
ATOM     45  C   UNL A   1      37.663  32.527  33.376  1.00  0.00     0.031 A 
ATOM     46  C   UNL A   1      38.002  32.873  34.800  1.00  0.00     0.074 A 
ATOM     47  C   UNL A   1      38.450  31.681  32.687  1.00  0.00     0.049 A 
ATOM     48  N   UNL A   1      39.088  32.624  35.482  1.00  0.00    -0.248 NA
ATOM     49  C   UNL A   1      36.973  33.616  35.544  1.00  0.00     0.031 C 
ATOM     50  C   UNL A   1      38.182  31.190  31.341  1.00  0.00     0.029 A 
ATOM     51  N   UNL A   1      39.656  31.110  33.019  1.00  0.00    -0.354 N 
ATOM     52  C   UNL A   1      38.885  33.204  36.730  1.00  0.00     0.074 A 
ATOM     53  C   UNL A   1      37.584  33.834  36.697  1.00  0.00     0.031 C 
ATOM     54  C   UNL A   1      39.213  30.424  30.942  1.00  0.00     0.029 A 
ATOM     55  C   UNL A   1      40.240  30.415  31.984  1.00  0.00     0.049 A 
ATOM     56  H   UNL A   1      40.063  31.189  33.913  1.00  0.00     0.167 HD
ATOM     57  C   UNL A   1      39.714  33.212  37.802  1.00  0.00     0.034 A 
ATOM     58  C   UNL A   1      41.477  29.883  31.872  1.00  0.00     0.034 A 
ATOM     59  C   UNL A   1      41.015  32.593  37.808  1.00  0.00     0.049 A 
ATOM     60  C   UNL A   1      42.439  30.009  33.035  1.00  0.00     0.074 A 
ATOM     61  C   UNL A   1      41.937  32.539  38.839  1.00  0.00     0.029 A 
ATOM     62  N   UNL A   1      41.587  31.932  36.728  1.00  0.00    -0.354 N 
ATOM     63  N   UNL A   1      42.254  30.583  34.203  1.00  0.00    -0.248 NA
ATOM     64  C   UNL A   1      43.776  29.419  32.868  1.00  0.00     0.031 C 
ATOM     65  C   UNL A   1      43.096  31.925  38.356  1.00  0.00     0.029 A 
ATOM     66  C   UNL A   1      42.862  31.501  37.058  1.00  0.00     0.049 A 
ATOM     67  H   UNL A   1      41.151  31.791  35.858  1.00  0.00     0.167 HD
ATOM     68  C   UNL A   1      43.431  30.375  34.922  1.00  0.00     0.074 A 
ATOM     69  C   UNL A   1      44.321  29.632  34.056  1.00  0.00     0.031 C 
ATOM     70  C   UNL A   1      43.738  30.749  36.190  1.00  0.00     0.034 A 
BRANCH  57  71
ATOM     71  C   UNL A   1      39.261  33.973  39.022  1.00  0.00     0.023 A 
ATOM     72  C   UNL A   1      39.681  35.290  39.274  1.00  0.00     0.031 A 
ATOM     73  C   UNL A   1      38.422  33.357  39.968  1.00  0.00     0.131 A 
ATOM     74  C   UNL A   1      39.326  35.918  40.476  1.00  0.00     0.055 A 
ATOM     75  C   UNL A   1      37.998  34.020  41.120  1.00  0.00     0.041 A 
ATOM     76  F   UNL A   1      38.013  32.089  39.795  1.00  0.00    -0.206 F 
ATOM     77  C   UNL A   1      38.463  35.304  41.388  1.00  0.00     0.022 A 
BRANCH  74  78
ATOM     78  S   UNL A   1      40.134  37.484  40.904  1.00  0.00     0.124 S 
ATOM     79  O   UNL A   1      38.998  38.289  41.348  1.00  0.00    -0.237 OA
ATOM     80  O   UNL A   1      41.074  37.081  41.943  1.00  0.00    -0.237 OA
ATOM     81  O   UNL A   1      40.738  37.913  39.645  1.00  0.00    -0.744 OA
ENDBRANCH  74  78
ENDBRANCH  57  71
BRANCH  58  82
ATOM     82  C   UNL A   1      41.916  29.233  30.601  1.00  0.00     0.023 A 
ATOM     83  C   UNL A   1      42.858  29.845  29.759  1.00  0.00     0.031 A 
ATOM     84  C   UNL A   1      41.346  28.020  30.170  1.00  0.00     0.131 A 
ATOM     85  C   UNL A   1      43.165  29.274  28.514  1.00  0.00     0.055 A 
ATOM     86  C   UNL A   1      41.700  27.424  28.958  1.00  0.00     0.041 A 
ATOM     87  F   UNL A   1      40.434  27.391  30.928  1.00  0.00    -0.206 F 
ATOM     88  C   UNL A   1      42.605  28.059  28.114  1.00  0.00     0.022 A 
BRANCH  85  89
ATOM     89  S   UNL A   1      44.226  30.202  27.371  1.00  0.00     0.124 S 
ATOM     90  O   UNL A   1      45.442  29.396  27.380  1.00  0.00    -0.237 OA
ATOM     91  O   UNL A   1      43.444  30.169  26.140  1.00  0.00    -0.237 OA
ATOM     92  O   UNL A   1      44.341  31.514  28.002  1.00  0.00    -0.744 OA
ENDBRANCH  85  89
ENDBRANCH  58  82
BRANCH  70  93
ATOM     93  C   UNL A   1      45.059  30.291  36.762  1.00  0.00     0.023 A 
ATOM     94  C   UNL A   1      45.207  29.063  37.429  1.00  0.00     0.031 A 
ATOM     95  C   UNL A   1      46.204  31.090  36.589  1.00  0.00     0.131 A 
ATOM     96  C   UNL A   1      46.466  28.685  37.923  1.00  0.00     0.055 A 
ATOM     97  C   UNL A   1      47.464  30.683  37.029  1.00  0.00     0.041 A 
ATOM     98  F   UNL A   1      46.121  32.276  35.963  1.00  0.00    -0.206 F 
ATOM     99  C   UNL A   1      47.598  29.476  37.708  1.00  0.00     0.022 A 
BRANCH  96 100
ATOM    100  S   UNL A   1      46.601  27.170  38.912  1.00  0.00     0.124 S 
ATOM    101  O   UNL A   1      45.329  27.160  39.627  1.00  0.00    -0.237 OA
ATOM    102  O   UNL A   1      46.766  26.141  37.890  1.00  0.00    -0.237 OA
ATOM    103  O   UNL A   1      47.778  27.407  39.747  1.00  0.00    -0.744 OA
ENDBRANCH  96 100
ENDBRANCH  70  93
ENDBRANCH  44  45
ENDBRANCH  37  39
ENDBRANCH  36  37
ENDBRANCH  35  36
ENDBRANCH  34  35
ENDBRANCH  33  34
ENDBRANCH  32  33
ENDBRANCH   1  32
TORSDOF 25
ENDMDL
MODEL 2
REMARK VINA RESULT:      -9.0      5.489      7.422
REMARK SMILES CC(C)(C)NS(=O)(=O)c1csc(C(=O)Nc2ccccc2C(=O)OCCOCCOCCOC(=O)c2ccc(-c3c4nc(c(-c5cc(S(=O)(=O)[O-])ccc5F)c5ccc([nH]5)c(-c5cc(S(=O)(=O)[O-])ccc5F)c5nc(c(-c6cc(S(=O)(=O)[O-])ccc6F)c6ccc3[nH]6)C=C5)C=C4)cc2)c1
REMARK SMILES IDX 28 1 27 2 26 3 25 4 24 5 22 6 23 7 21 8 16 9 17 10 18 11
REMARK SMILES IDX 20 12 19 13 15 14 13 15 14 16 12 18 9 19 10 20 99 21 11 22
REMARK SMILES IDX 6 23 7 24 8 25 5 26 2 28 1 29 3 30 4 31 29 32 30 33 31 34
REMARK SMILES IDX 32 35 33 36 34 37 35 38 36 39 37 40 98 41 38 42 97 43 39 44
REMARK SMILES IDX 40 45 41 46 91 47 42 48 96 49 90 50 92 51 43 52 95 53 89 54
REMARK SMILES IDX 88 55 44 57 76 58 56 59 75 60 57 61 60 62 74 63 93 64 58 65
REMARK SMILES IDX 59 66 73 68 94 69 61 70 45 71 46 72 54 73 47 74 53 75 55 76
REMARK SMILES IDX 52 77 48 78 49 79 50 80 51 81 77 82 78 83 86 84 79 85 85 86
REMARK SMILES IDX 87 87 84 88 80 89 81 90 82 91 83 92 62 93 63 94 71 95 64 96
REMARK SMILES IDX 70 97 72 98 69 99 65 100 66 101 67 102 68 103
REMARK H PARENT 15 17 5 27 92 56 60 67
REMARK Flexibility Score: inf
ROOT
ATOM      1  C   UNL A   1      34.661  32.465  29.711  1.00  0.00     0.188 C 
ENDROOT
BRANCH   1   2
ATOM      2  O   UNL A   1      34.798  32.205  28.336  1.00  0.00    -0.376 OA
BRANCH   2   3
ATOM      3  C   UNL A   1      33.732  31.661  27.591  1.00  0.00     0.202 C 
BRANCH   3   4
ATOM      4  C   UNL A   1      33.391  30.164  27.472  1.00  0.00     0.261 C 
BRANCH   4   5
ATOM      5  O   UNL A   1      32.344  29.710  26.607  1.00  0.00    -0.460 OA
BRANCH   5   6
ATOM      6  C   UNL A   1      32.450  28.420  26.221  1.00  0.00     0.340 C 
ATOM      7  O   UNL A   1      32.277  27.461  26.957  1.00  0.00    -0.246 OA
BRANCH   6   8
ATOM      8  C   UNL A   1      32.718  28.214  24.789  1.00  0.00     0.083 A 
ATOM      9  C   UNL A   1      31.790  27.667  23.899  1.00  0.00     0.056 A 
ATOM     10  C   UNL A   1      32.217  27.357  22.600  1.00  0.00     0.027 A 
ATOM     11  C   UNL A   1      33.478  27.759  22.148  1.00  0.00     0.002 A 
ATOM     12  C   UNL A   1      33.977  28.642  24.324  1.00  0.00     0.018 A 
ATOM     13  C   UNL A   1      34.345  28.437  22.999  1.00  0.00     0.001 A 
BRANCH   9  14
ATOM     14  N   UNL A   1      30.423  27.469  24.169  1.00  0.00    -0.320 N 
ATOM     15  C   UNL A   1      29.680  26.307  24.341  1.00  0.00     0.265 C 
ATOM     16  O   UNL A   1      28.453  26.455  24.344  1.00  0.00    -0.268 OA
ATOM     17  H   UNL A   1      29.901  28.299  24.250  1.00  0.00     0.170 HD
BRANCH  15  18
ATOM     18  C   UNL A   1      30.327  25.004  24.543  1.00  0.00     0.094 A 
ATOM     19  C   UNL A   1      31.758  23.347  25.380  1.00  0.00     0.093 A 
ATOM     20  C   UNL A   1      31.725  23.016  24.044  1.00  0.00     0.087 A 
ATOM     21  C   UNL A   1      30.757  24.337  25.686  1.00  0.00     0.047 A 
ATOM     22  S   UNL A   1      30.667  24.029  23.158  1.00  0.00    -0.137 S 
BRANCH  19  23
ATOM     23  S   UNL A   1      32.845  22.626  26.544  1.00  0.00     0.241 S 
ATOM     24  O   UNL A   1      32.901  21.238  26.151  1.00  0.00    -0.207 OA
ATOM     25  O   UNL A   1      32.260  23.026  27.808  1.00  0.00    -0.207 OA
BRANCH  23  26
ATOM     26  N   UNL A   1      34.399  23.273  26.560  1.00  0.00    -0.206 NA
ATOM     27  H   UNL A   1      34.351  24.043  27.228  1.00  0.00     0.141 HD
BRANCH  26  28
ATOM     28  C   UNL A   1      35.181  23.815  25.413  1.00  0.00     0.025 C 
ATOM     29  C   UNL A   1      36.658  24.040  25.722  1.00  0.00     0.028 C 
ATOM     30  C   UNL A   1      34.563  25.104  24.878  1.00  0.00     0.028 C 
ATOM     31  C   UNL A   1      35.118  22.749  24.294  1.00  0.00     0.028 C 
ENDBRANCH  26  28
ENDBRANCH  23  26
ENDBRANCH  19  23
ENDBRANCH  15  18
ENDBRANCH   9  14
ENDBRANCH   6   8
ENDBRANCH   5   6
ENDBRANCH   4   5
ENDBRANCH   3   4
ENDBRANCH   2   3
ENDBRANCH   1   2
BRANCH   1  32
ATOM     32  C   UNL A   1      35.650  33.516  30.267  1.00  0.00     0.188 C 
BRANCH  32  33
ATOM     33  O   UNL A   1      35.413  34.111  31.532  1.00  0.00    -0.376 OA
BRANCH  33  34
ATOM     34  C   UNL A   1      34.771  33.335  32.530  1.00  0.00     0.202 C 
BRANCH  34  35
ATOM     35  C   UNL A   1      35.077  33.577  34.022  1.00  0.00     0.261 C 
BRANCH  35  36
ATOM     36  O   UNL A   1      36.356  34.156  34.346  1.00  0.00    -0.460 OA
BRANCH  36  37
ATOM     37  C   UNL A   1      37.203  33.381  35.077  1.00  0.00     0.338 C 
ATOM     38  O   UNL A   1      36.947  32.818  36.127  1.00  0.00    -0.246 OA
BRANCH  37  39
ATOM     39  C   UNL A   1      38.443  33.123  34.295  1.00  0.00     0.060 A 
ATOM     40  C   UNL A   1      39.625  32.757  34.967  1.00  0.00     0.016 A 
ATOM     41  C   UNL A   1      38.448  33.264  32.910  1.00  0.00     0.016 A 
ATOM     42  C   UNL A   1      40.814  32.549  34.260  1.00  0.00     0.010 A 
ATOM     43  C   UNL A   1      39.649  33.099  32.208  1.00  0.00     0.010 A 
ATOM     44  C   UNL A   1      40.844  32.772  32.880  1.00  0.00    -0.014 A 
BRANCH  44  45
ATOM     45  C   UNL A   1      42.135  32.935  32.159  1.00  0.00     0.031 A 
ATOM     46  C   UNL A   1      42.799  34.282  32.227  1.00  0.00     0.074 A 
ATOM     47  C   UNL A   1      42.688  31.952  31.425  1.00  0.00     0.049 A 
ATOM     48  N   UNL A   1      43.787  34.761  31.519  1.00  0.00    -0.248 NA
ATOM     49  C   UNL A   1      42.257  35.218  33.225  1.00  0.00     0.031 C 
ATOM     50  C   UNL A   1      42.201  30.580  31.354  1.00  0.00     0.029 A 
ATOM     51  N   UNL A   1      43.767  31.971  30.574  1.00  0.00    -0.354 N 
ATOM     52  C   UNL A   1      43.969  36.065  31.967  1.00  0.00     0.074 A 
ATOM     53  C   UNL A   1      42.973  36.304  32.988  1.00  0.00     0.031 C 
ATOM     54  C   UNL A   1      42.952  29.895  30.472  1.00  0.00     0.029 A 
ATOM     55  C   UNL A   1      43.938  30.796  29.875  1.00  0.00     0.049 A 
ATOM     56  H   UNL A   1      44.362  32.749  30.473  1.00  0.00     0.167 HD
ATOM     57  C   UNL A   1      44.881  36.979  31.557  1.00  0.00     0.034 A 
ATOM     58  C   UNL A   1      44.756  30.502  28.841  1.00  0.00     0.034 A 
ATOM     59  C   UNL A   1      45.854  36.727  30.524  1.00  0.00     0.049 A 
ATOM     60  C   UNL A   1      45.685  31.574  28.310  1.00  0.00     0.074 A 
ATOM     61  C   UNL A   1      46.825  37.580  30.031  1.00  0.00     0.029 A 
ATOM     62  N   UNL A   1      45.970  35.538  29.814  1.00  0.00    -0.354 N 
ATOM     63  N   UNL A   1      45.833  32.815  28.717  1.00  0.00    -0.248 NA
ATOM     64  C   UNL A   1      46.554  31.210  27.181  1.00  0.00     0.031 C 
ATOM     65  C   UNL A   1      47.468  36.941  28.968  1.00  0.00     0.029 A 
ATOM     66  C   UNL A   1      46.972  35.651  28.864  1.00  0.00     0.049 A 
ATOM     67  H   UNL A   1      45.422  34.735  29.963  1.00  0.00     0.167 HD
ATOM     68  C   UNL A   1      46.848  33.357  27.928  1.00  0.00     0.074 A 
ATOM     69  C   UNL A   1      47.268  32.314  27.017  1.00  0.00     0.031 C 
ATOM     70  C   UNL A   1      47.392  34.599  27.967  1.00  0.00     0.034 A 
BRANCH  57  71
ATOM     71  C   UNL A   1      44.815  38.351  32.180  1.00  0.00     0.023 A 
ATOM     72  C   UNL A   1      43.945  39.343  31.698  1.00  0.00     0.031 A 
ATOM     73  C   UNL A   1      45.664  38.683  33.250  1.00  0.00     0.131 A 
ATOM     74  C   UNL A   1      43.997  40.638  32.234  1.00  0.00     0.055 A 
ATOM     75  C   UNL A   1      45.648  39.947  33.839  1.00  0.00     0.041 A 
ATOM     76  F   UNL A   1      46.539  37.784  33.732  1.00  0.00    -0.206 F 
ATOM     77  C   UNL A   1      44.822  40.940  33.321  1.00  0.00     0.022 A 
BRANCH  74  78
ATOM     78  S   UNL A   1      43.090  41.961  31.388  1.00  0.00     0.124 S 
ATOM     79  O   UNL A   1      43.561  41.807  30.013  1.00  0.00    -0.237 OA
ATOM     80  O   UNL A   1      41.700  41.595  31.629  1.00  0.00    -0.237 OA
ATOM     81  O   UNL A   1      43.545  43.174  32.062  1.00  0.00    -0.744 OA
ENDBRANCH  74  78
ENDBRANCH  57  71
BRANCH  58  82
ATOM     82  C   UNL A   1      44.707  29.159  28.188  1.00  0.00     0.023 A 
ATOM     83  C   UNL A   1      43.747  28.864  27.206  1.00  0.00     0.031 A 
ATOM     84  C   UNL A   1      45.575  28.124  28.586  1.00  0.00     0.131 A 
ATOM     85  C   UNL A   1      43.643  27.560  26.694  1.00  0.00     0.055 A 
ATOM     86  C   UNL A   1      45.508  26.846  28.029  1.00  0.00     0.041 A 
ATOM     87  F   UNL A   1      46.508  28.345  29.526  1.00  0.00    -0.206 F 
ATOM     88  C   UNL A   1      44.528  26.553  27.086  1.00  0.00     0.022 A 
BRANCH  85  89
ATOM     89  S   UNL A   1      42.260  27.171  25.586  1.00  0.00     0.124 S 
ATOM     90  O   UNL A   1      42.546  28.034  24.446  1.00  0.00    -0.237 OA
ATOM     91  O   UNL A   1      42.442  25.739  25.370  1.00  0.00    -0.237 OA
ATOM     92  O   UNL A   1      41.083  27.538  26.369  1.00  0.00    -0.744 OA
ENDBRANCH  85  89
ENDBRANCH  58  82
BRANCH  70  93
ATOM     93  C   UNL A   1      48.567  34.885  27.061  1.00  0.00     0.023 A 
ATOM     94  C   UNL A   1      49.894  34.627  27.442  1.00  0.00     0.031 A 
ATOM     95  C   UNL A   1      48.337  35.386  25.766  1.00  0.00     0.131 A 
ATOM     96  C   UNL A   1      50.942  34.899  26.547  1.00  0.00     0.055 A 
ATOM     97  C   UNL A   1      49.376  35.597  24.859  1.00  0.00     0.041 A 
ATOM     98  F   UNL A   1      47.088  35.655  25.350  1.00  0.00    -0.206 F 
ATOM     99  C   UNL A   1      50.690  35.360  25.251  1.00  0.00     0.022 A 
BRANCH  96 100
ATOM    100  S   UNL A   1      52.654  34.702  27.115  1.00  0.00     0.124 S 
ATOM    101  O   UNL A   1      52.960  33.340  26.689  1.00  0.00    -0.237 OA
ATOM    102  O   UNL A   1      53.347  35.765  26.395  1.00  0.00    -0.237 OA
ATOM    103  O   UNL A   1      52.561  34.893  28.561  1.00  0.00    -0.744 OA
ENDBRANCH  96 100
ENDBRANCH  70  93
ENDBRANCH  44  45
ENDBRANCH  37  39
ENDBRANCH  36  37
ENDBRANCH  35  36
ENDBRANCH  34  35
ENDBRANCH  33  34
ENDBRANCH  32  33
ENDBRANCH   1  32
TORSDOF 25
ENDMDL
MODEL 3
REMARK VINA RESULT:      -8.7      4.787      7.807
REMARK SMILES CC(C)(C)NS(=O)(=O)c1csc(C(=O)Nc2ccccc2C(=O)OCCOCCOCCOC(=O)c2ccc(-c3c4nc(c(-c5cc(S(=O)(=O)[O-])ccc5F)c5ccc([nH]5)c(-c5cc(S(=O)(=O)[O-])ccc5F)c5nc(c(-c6cc(S(=O)(=O)[O-])ccc6F)c6ccc3[nH]6)C=C5)C=C4)cc2)c1
REMARK SMILES IDX 28 1 27 2 26 3 25 4 24 5 22 6 23 7 21 8 16 9 17 10 18 11
REMARK SMILES IDX 20 12 19 13 15 14 13 15 14 16 12 18 9 19 10 20 99 21 11 22
REMARK SMILES IDX 6 23 7 24 8 25 5 26 2 28 1 29 3 30 4 31 29 32 30 33 31 34
REMARK SMILES IDX 32 35 33 36 34 37 35 38 36 39 37 40 98 41 38 42 97 43 39 44
REMARK SMILES IDX 40 45 41 46 91 47 42 48 96 49 90 50 92 51 43 52 95 53 89 54
REMARK SMILES IDX 88 55 44 57 76 58 56 59 75 60 57 61 60 62 74 63 93 64 58 65
REMARK SMILES IDX 59 66 73 68 94 69 61 70 45 71 46 72 54 73 47 74 53 75 55 76
REMARK SMILES IDX 52 77 48 78 49 79 50 80 51 81 77 82 78 83 86 84 79 85 85 86
REMARK SMILES IDX 87 87 84 88 80 89 81 90 82 91 83 92 62 93 63 94 71 95 64 96
REMARK SMILES IDX 70 97 72 98 69 99 65 100 66 101 67 102 68 103
REMARK H PARENT 15 17 5 27 92 56 60 67
REMARK Flexibility Score: inf
ROOT
ATOM      1  C   UNL A   1      34.787  32.239  29.533  1.00  0.00     0.188 C 
ENDROOT
BRANCH   1   2
ATOM      2  O   UNL A   1      34.677  32.060  28.143  1.00  0.00    -0.376 OA
BRANCH   2   3
ATOM      3  C   UNL A   1      33.627  31.298  27.591  1.00  0.00     0.202 C 
BRANCH   3   4
ATOM      4  C   UNL A   1      33.635  29.771  27.394  1.00  0.00     0.261 C 
BRANCH   4   5
ATOM      5  O   UNL A   1      32.414  29.042  27.212  1.00  0.00    -0.460 OA
BRANCH   5   6
ATOM      6  C   UNL A   1      32.504  27.991  26.369  1.00  0.00     0.340 C 
ATOM      7  O   UNL A   1      33.301  27.073  26.490  1.00  0.00    -0.246 OA
BRANCH   6   8
ATOM      8  C   UNL A   1      31.501  27.962  25.293  1.00  0.00     0.083 A 
ATOM      9  C   UNL A   1      30.516  26.977  25.181  1.00  0.00     0.056 A 
ATOM     10  C   UNL A   1      29.728  26.953  24.021  1.00  0.00     0.027 A 
ATOM     11  C   UNL A   1      29.794  27.997  23.092  1.00  0.00     0.002 A 
ATOM     12  C   UNL A   1      31.547  29.025  24.370  1.00  0.00     0.018 A 
ATOM     13  C   UNL A   1      30.677  29.054  23.286  1.00  0.00     0.001 A 
BRANCH   9  14
ATOM     14  N   UNL A   1      30.184  26.041  26.179  1.00  0.00    -0.320 N 
ATOM     15  C   UNL A   1      30.434  24.677  26.276  1.00  0.00     0.265 C 
ATOM     16  O   UNL A   1      29.819  24.086  27.170  1.00  0.00    -0.268 OA
ATOM     17  H   UNL A   1      29.689  26.418  26.941  1.00  0.00     0.170 HD
BRANCH  15  18
ATOM     18  C   UNL A   1      31.397  24.006  25.392  1.00  0.00     0.094 A 
ATOM     19  C   UNL A   1      33.379  23.515  24.243  1.00  0.00     0.093 A 
ATOM     20  C   UNL A   1      32.438  23.223  23.281  1.00  0.00     0.087 A 
ATOM     21  C   UNL A   1      32.753  23.726  25.524  1.00  0.00     0.047 A 
ATOM     22  S   UNL A   1      30.841  23.413  23.868  1.00  0.00    -0.137 S 
BRANCH  19  23
ATOM     23  S   UNL A   1      35.102  23.578  23.945  1.00  0.00     0.241 S 
ATOM     24  O   UNL A   1      35.591  24.492  24.950  1.00  0.00    -0.207 OA
ATOM     25  O   UNL A   1      35.164  23.908  22.535  1.00  0.00    -0.207 OA
BRANCH  23  26
ATOM     26  N   UNL A   1      35.900  22.104  24.083  1.00  0.00    -0.206 NA
ATOM     27  H   UNL A   1      35.792  21.664  23.168  1.00  0.00     0.141 HD
BRANCH  26  28
ATOM     28  C   UNL A   1      35.644  21.007  25.060  1.00  0.00     0.025 C 
ATOM     29  C   UNL A   1      34.464  20.112  24.691  1.00  0.00     0.028 C 
ATOM     30  C   UNL A   1      35.457  21.551  26.473  1.00  0.00     0.028 C 
ATOM     31  C   UNL A   1      36.903  20.107  25.052  1.00  0.00     0.028 C 
ENDBRANCH  26  28
ENDBRANCH  23  26
ENDBRANCH  19  23
ENDBRANCH  15  18
ENDBRANCH   9  14
ENDBRANCH   6   8
ENDBRANCH   5   6
ENDBRANCH   4   5
ENDBRANCH   3   4
ENDBRANCH   2   3
ENDBRANCH   1   2
BRANCH   1  32
ATOM     32  C   UNL A   1      36.044  33.018  29.983  1.00  0.00     0.188 C 
BRANCH  32  33
ATOM     33  O   UNL A   1      36.151  33.478  31.320  1.00  0.00    -0.376 OA
BRANCH  33  34
ATOM     34  C   UNL A   1      35.305  32.900  32.299  1.00  0.00     0.202 C 
BRANCH  34  35
ATOM     35  C   UNL A   1      35.738  32.861  33.779  1.00  0.00     0.261 C 
BRANCH  35  36
ATOM     36  O   UNL A   1      37.104  33.212  34.075  1.00  0.00    -0.460 OA
BRANCH  36  37
ATOM     37  C   UNL A   1      37.886  32.221  34.585  1.00  0.00     0.338 C 
ATOM     38  O   UNL A   1      37.604  31.481  35.512  1.00  0.00    -0.246 OA
BRANCH  37  39
ATOM     39  C   UNL A   1      39.064  32.010  33.702  1.00  0.00     0.060 A 
ATOM     40  C   UNL A   1      38.880  31.480  32.410  1.00  0.00     0.016 A 
ATOM     41  C   UNL A   1      40.348  32.311  34.151  1.00  0.00     0.016 A 
ATOM     42  C   UNL A   1      39.974  31.234  31.575  1.00  0.00     0.010 A 
ATOM     43  C   UNL A   1      41.446  32.023  33.331  1.00  0.00     0.010 A 
ATOM     44  C   UNL A   1      41.270  31.455  32.053  1.00  0.00    -0.014 A 
BRANCH  44  45
ATOM     45  C   UNL A   1      42.449  30.863  31.366  1.00  0.00     0.031 A 
ATOM     46  C   UNL A   1      42.918  29.514  31.836  1.00  0.00     0.074 A 
ATOM     47  C   UNL A   1      43.124  31.506  30.395  1.00  0.00     0.049 A 
ATOM     48  N   UNL A   1      44.034  28.885  31.581  1.00  0.00    -0.248 NA
ATOM     49  C   UNL A   1      42.002  28.789  32.730  1.00  0.00     0.031 C 
ATOM     50  C   UNL A   1      42.720  32.766  29.785  1.00  0.00     0.029 A 
ATOM     51  N   UNL A   1      44.310  31.195  29.773  1.00  0.00    -0.354 N 
ATOM     52  C   UNL A   1      43.966  27.699  32.305  1.00  0.00     0.074 A 
ATOM     53  C   UNL A   1      42.712  27.713  33.024  1.00  0.00     0.031 C 
ATOM     54  C   UNL A   1      43.665  33.147  28.904  1.00  0.00     0.029 A 
ATOM     55  C   UNL A   1      44.765  32.183  28.930  1.00  0.00     0.049 A 
ATOM     56  H   UNL A   1      44.788  30.346  29.917  1.00  0.00     0.167 HD
ATOM     57  C   UNL A   1      44.873  26.694  32.365  1.00  0.00     0.034 A 
ATOM     58  C   UNL A   1      45.952  32.319  28.298  1.00  0.00     0.034 A 
ATOM     59  C   UNL A   1      46.126  26.707  31.654  1.00  0.00     0.049 A 
ATOM     60  C   UNL A   1      47.005  31.246  28.475  1.00  0.00     0.074 A 
ATOM     61  C   UNL A   1      47.118  25.742  31.642  1.00  0.00     0.029 A 
ATOM     62  N   UNL A   1      46.569  27.742  30.840  1.00  0.00    -0.354 N 
ATOM     63  N   UNL A   1      46.949  30.140  29.182  1.00  0.00    -0.248 NA
ATOM     64  C   UNL A   1      48.283  31.437  27.771  1.00  0.00     0.031 C 
ATOM     65  C   UNL A   1      48.193  26.231  30.895  1.00  0.00     0.029 A 
ATOM     66  C   UNL A   1      47.833  27.454  30.353  1.00  0.00     0.049 A 
ATOM     67  H   UNL A   1      46.060  28.560  30.640  1.00  0.00     0.167 HD
ATOM     68  C   UNL A   1      48.161  29.484  28.965  1.00  0.00     0.074 A 
ATOM     69  C   UNL A   1      48.930  30.319  28.069  1.00  0.00     0.031 C 
ATOM     70  C   UNL A   1      48.588  28.290  29.449  1.00  0.00     0.034 A 
BRANCH  57  71
ATOM     71  C   UNL A   1      44.566  25.539  33.285  1.00  0.00     0.023 A 
ATOM     72  C   UNL A   1      44.747  25.628  34.675  1.00  0.00     0.031 A 
ATOM     73  C   UNL A   1      44.120  24.314  32.756  1.00  0.00     0.131 A 
ATOM     74  C   UNL A   1      44.557  24.495  35.479  1.00  0.00     0.055 A 
ATOM     75  C   UNL A   1      43.846  23.216  33.571  1.00  0.00     0.041 A 
ATOM     76  F   UNL A   1      43.959  24.160  31.432  1.00  0.00    -0.206 F 
ATOM     77  C   UNL A   1      44.080  23.297  34.941  1.00  0.00     0.022 A 
BRANCH  74  78
ATOM     78  S   UNL A   1      45.094  24.563  37.209  1.00  0.00     0.124 S 
ATOM     79  O   UNL A   1      45.352  23.153  37.493  1.00  0.00    -0.237 OA
ATOM     80  O   UNL A   1      46.269  25.424  37.142  1.00  0.00    -0.237 OA
ATOM     81  O   UNL A   1      43.941  25.130  37.904  1.00  0.00    -0.744 OA
ENDBRANCH  74  78
ENDBRANCH  57  71
BRANCH  58  82
ATOM     82  C   UNL A   1      46.247  33.536  27.484  1.00  0.00     0.023 A 
ATOM     83  C   UNL A   1      46.956  34.619  28.028  1.00  0.00     0.031 A 
ATOM     84  C   UNL A   1      45.764  33.666  26.168  1.00  0.00     0.131 A 
ATOM     85  C   UNL A   1      47.117  35.799  27.284  1.00  0.00     0.055 A 
ATOM     86  C   UNL A   1      45.981  34.818  25.410  1.00  0.00     0.041 A 
ATOM     87  F   UNL A   1      45.074  32.667  25.596  1.00  0.00    -0.206 F 
ATOM     88  C   UNL A   1      46.649  35.901  25.972  1.00  0.00     0.022 A 
BRANCH  85  89
ATOM     89  S   UNL A   1      47.853  37.244  28.098  1.00  0.00     0.124 S 
ATOM     90  O   UNL A   1      49.275  37.018  27.868  1.00  0.00    -0.237 OA
ATOM     91  O   UNL A   1      47.250  38.347  27.356  1.00  0.00    -0.237 OA
ATOM     92  O   UNL A   1      47.415  37.114  29.485  1.00  0.00    -0.744 OA
ENDBRANCH  85  89
ENDBRANCH  58  82
BRANCH  70  93
ATOM     93  C   UNL A   1      49.915  27.762  28.956  1.00  0.00     0.023 A 
ATOM     94  C   UNL A   1      51.119  27.981  29.647  1.00  0.00     0.031 A 
ATOM     95  C   UNL A   1      49.957  26.978  27.788  1.00  0.00     0.131 A 
ATOM     96  C   UNL A   1      52.318  27.448  29.146  1.00  0.00     0.055 A 
ATOM     97  C   UNL A   1      51.141  26.400  27.328  1.00  0.00     0.041 A 
ATOM     98  F   UNL A   1      48.838  26.738  27.085  1.00  0.00    -0.206 F 
ATOM     99  C   UNL A   1      52.333  26.640  28.005  1.00  0.00     0.022 A 
BRANCH  96 100
ATOM    100  S   UNL A   1      53.878  27.873  29.969  1.00  0.00     0.124 S 
ATOM    101  O   UNL A   1      53.907  26.919  31.073  1.00  0.00    -0.237 OA
ATOM    102  O   UNL A   1      54.860  27.654  28.912  1.00  0.00    -0.237 OA
ATOM    103  O   UNL A   1      53.691  29.269  30.361  1.00  0.00    -0.744 OA
ENDBRANCH  96 100
ENDBRANCH  70  93
ENDBRANCH  44  45
ENDBRANCH  37  39
ENDBRANCH  36  37
ENDBRANCH  35  36
ENDBRANCH  34  35
ENDBRANCH  33  34
ENDBRANCH  32  33
ENDBRANCH   1  32
TORSDOF 25
ENDMDL
