MODEL 1
REMARK VINA RESULT:     -12.5      0.000      0.000
REMARK SMILES CC(C)(O)C#Cc1ccc(C(=O)N[C@@H](CC2=c3ccccc3=NC2)C(=O)OCCOCCOCCOC(=O)c2ccc(-c3c4nc(c(-c5cc(S(=O)(=O)[O-])ccc5F)c5ccc([nH]5)c(-c5cc(S(=O)(=O)[O-])ccc5F)c5nc(c(-c6cc(S(=O)(=O)[O-])ccc6F)c6ccc3[nH]6)C=C5)C=C4)cc2)s1
REMARK SMILES IDX 31 1 30 2 29 3 28 4 27 5 25 6 26 7 14 8 13 9 11 10 12 11
REMARK SMILES IDX 10 13 7 14 8 15 102 16 9 17 6 18 5 19 2 20 1 21 3 22 4 23
REMARK SMILES IDX 15 25 16 26 17 27 24 28 18 29 22 30 23 31 19 32 21 33 20 34
REMARK SMILES IDX 32 35 33 36 34 37 35 38 36 39 37 40 38 41 39 42 40 43 101 44
REMARK SMILES IDX 41 45 100 46 42 47 43 48 44 49 94 50 45 51 99 52 93 53 95 54
REMARK SMILES IDX 46 55 98 56 92 57 91 58 47 60 79 61 59 62 78 63 60 64 63 65
REMARK SMILES IDX 77 66 96 67 61 68 62 69 76 71 97 72 64 73 48 74 49 75 57 76
REMARK SMILES IDX 50 77 56 78 58 79 55 80 51 81 52 82 53 83 54 84 80 85 81 86
REMARK SMILES IDX 89 87 82 88 88 89 90 90 87 91 83 92 84 93 85 94 86 95 65 96
REMARK SMILES IDX 66 97 74 98 67 99 73 100 75 101 72 102 68 103 69 104 70 105
REMARK SMILES IDX 71 106
REMARK H PARENT 13 12 4 24 95 59 63 70
REMARK Flexibility Score: inf
ROOT
ATOM      1  C   UNL A   1      36.937  22.453  24.075  1.00  0.00     0.188 C 
ENDROOT
BRANCH   1   2
ATOM      2  O   UNL A   1      35.550  22.367  23.845  1.00  0.00    -0.376 OA
BRANCH   2   3
ATOM      3  C   UNL A   1      34.888  23.515  23.365  1.00  0.00     0.202 C 
BRANCH   3   4
ATOM      4  C   UNL A   1      33.518  23.431  22.669  1.00  0.00     0.261 C 
BRANCH   4   5
ATOM      5  O   UNL A   1      33.086  24.579  21.868  1.00  0.00    -0.462 OA
BRANCH   5   6
ATOM      6  C   UNL A   1      32.846  25.707  22.592  1.00  0.00     0.329 C 
ATOM      7  O   UNL A   1      33.814  26.338  23.019  1.00  0.00    -0.250 OA
BRANCH   6   8
ATOM      8  C   UNL A   1      31.333  26.104  23.049  1.00  0.00     0.196 C 
BRANCH   8   9
ATOM      9  N   UNL A   1      30.587  26.241  24.330  1.00  0.00    -0.338 N 
ATOM     10  C   UNL A   1      30.512  25.455  25.528  1.00  0.00     0.262 C 
ATOM     11  O   UNL A   1      29.715  25.975  26.329  1.00  0.00    -0.268 OA
ATOM     12  H   UNL A   1      30.021  27.047  24.362  1.00  0.00     0.164 HD
BRANCH  10  13
ATOM     13  C   UNL A   1      31.392  24.302  26.003  1.00  0.00     0.093 A 
ATOM     14  C   UNL A   1      32.495  21.866  26.158  1.00  0.00     0.078 A 
ATOM     15  C   UNL A   1      33.348  22.918  26.589  1.00  0.00     0.030 A 
ATOM     16  S   UNL A   1      30.979  22.855  26.814  1.00  0.00    -0.121 S 
ATOM     17  C   UNL A   1      32.755  24.301  26.342  1.00  0.00     0.027 A 
BRANCH  14  18
ATOM     18  C   UNL A   1      32.637  20.439  25.110  1.00  0.00    -0.053 C 
ATOM     19  C   UNL A   1      33.140  19.347  24.572  1.00  0.00    -0.063 C 
BRANCH  19  20
ATOM     20  C   UNL A   1      33.882  17.617  24.532  1.00  0.00     0.120 C 
ATOM     21  C   UNL A   1      34.223  16.758  23.184  1.00  0.00     0.056 C 
ATOM     22  C   UNL A   1      33.116  16.677  25.453  1.00  0.00     0.056 C 
BRANCH  20  23
ATOM     23  O   UNL A   1      35.306  17.428  24.890  1.00  0.00    -0.378 OA
ATOM     24  H   UNL A   1      35.853  17.512  24.093  1.00  0.00     0.212 HD
ENDBRANCH  20  23
ENDBRANCH  19  20
ENDBRANCH  14  18
ENDBRANCH  10  13
ENDBRANCH   8   9
BRANCH   8  25
ATOM     25  C   UNL A   1      31.064  27.341  22.161  1.00  0.00     0.070 C 
BRANCH  25  26
ATOM     26  C   UNL A   1      30.830  28.582  22.951  1.00  0.00    -0.037 C 
ATOM     27  C   UNL A   1      29.802  29.405  22.851  1.00  0.00     0.001 A 
ATOM     28  C   UNL A   1      31.751  28.995  24.066  1.00  0.00     0.174 C 
ATOM     29  C   UNL A   1      28.657  29.467  22.012  1.00  0.00     0.010 A 
ATOM     30  C   UNL A   1      30.034  30.333  23.961  1.00  0.00     0.065 A 
ATOM     31  N   UNL A   1      31.104  30.180  24.683  1.00  0.00    -0.280 NA
ATOM     32  C   UNL A   1      27.724  30.389  22.286  1.00  0.00     0.001 A 
ATOM     33  C   UNL A   1      28.984  31.346  24.174  1.00  0.00     0.028 A 
ATOM     34  C   UNL A   1      27.899  31.332  23.381  1.00  0.00     0.002 A 
ENDBRANCH  25  26
ENDBRANCH   8  25
ENDBRANCH   6   8
ENDBRANCH   5   6
ENDBRANCH   4   5
ENDBRANCH   3   4
ENDBRANCH   2   3
ENDBRANCH   1   2
BRANCH   1  35
ATOM     35  C   UNL A   1      37.509  21.787  25.352  1.00  0.00     0.188 C 
BRANCH  35  36
ATOM     36  O   UNL A   1      38.508  22.468  26.080  1.00  0.00    -0.376 OA
BRANCH  36  37
ATOM     37  C   UNL A   1      39.639  21.682  26.433  1.00  0.00     0.202 C 
BRANCH  37  38
ATOM     38  C   UNL A   1      41.025  22.366  26.600  1.00  0.00     0.261 C 
BRANCH  38  39
ATOM     39  O   UNL A   1      41.149  23.677  25.976  1.00  0.00    -0.460 OA
BRANCH  39  40
ATOM     40  C   UNL A   1      42.427  24.185  25.821  1.00  0.00     0.338 C 
ATOM     41  O   UNL A   1      43.203  23.861  24.977  1.00  0.00    -0.246 OA
BRANCH  40  42
ATOM     42  C   UNL A   1      42.517  25.489  26.602  1.00  0.00     0.060 A 
ATOM     43  C   UNL A   1      42.799  25.631  27.970  1.00  0.00     0.016 A 
ATOM     44  C   UNL A   1      41.998  26.595  25.946  1.00  0.00     0.016 A 
ATOM     45  C   UNL A   1      42.379  26.797  28.702  1.00  0.00     0.010 A 
ATOM     46  C   UNL A   1      41.586  27.713  26.689  1.00  0.00     0.010 A 
ATOM     47  C   UNL A   1      41.659  27.833  28.088  1.00  0.00    -0.014 A 
BRANCH  47  48
ATOM     48  C   UNL A   1      41.396  29.225  28.686  1.00  0.00     0.031 A 
ATOM     49  C   UNL A   1      42.921  30.057  28.174  1.00  0.00     0.074 A 
ATOM     50  C   UNL A   1      40.147  29.727  29.434  1.00  0.00     0.049 A 
ATOM     51  N   UNL A   1      43.737  30.619  29.023  1.00  0.00    -0.248 NA
ATOM     52  C   UNL A   1      43.604  30.389  26.898  1.00  0.00     0.031 C 
ATOM     53  C   UNL A   1      38.987  29.084  30.079  1.00  0.00     0.029 A 
ATOM     54  N   UNL A   1      39.511  31.098  29.739  1.00  0.00    -0.354 N 
ATOM     55  C   UNL A   1      44.138  31.899  28.631  1.00  0.00     0.074 A 
ATOM     56  C   UNL A   1      44.355  31.502  27.225  1.00  0.00     0.031 C 
ATOM     57  C   UNL A   1      37.853  29.890  30.144  1.00  0.00     0.029 A 
ATOM     58  C   UNL A   1      38.083  31.252  29.670  1.00  0.00     0.049 A 
ATOM     59  H   UNL A   1      40.080  31.864  29.981  1.00  0.00     0.167 HD
ATOM     60  C   UNL A   1      44.023  33.136  29.395  1.00  0.00     0.034 A 
ATOM     61  C   UNL A   1      37.280  32.421  29.597  1.00  0.00     0.034 A 
ATOM     62  C   UNL A   1      43.322  33.518  30.865  1.00  0.00     0.049 A 
ATOM     63  C   UNL A   1      37.983  33.535  30.281  1.00  0.00     0.074 A 
ATOM     64  C   UNL A   1      43.252  33.121  32.219  1.00  0.00     0.029 A 
ATOM     65  N   UNL A   1      42.139  34.339  30.976  1.00  0.00    -0.354 N 
ATOM     66  N   UNL A   1      37.999  33.672  31.571  1.00  0.00    -0.248 NA
ATOM     67  C   UNL A   1      38.683  34.604  29.561  1.00  0.00     0.031 C 
ATOM     68  C   UNL A   1      42.617  34.041  33.090  1.00  0.00     0.029 A 
ATOM     69  C   UNL A   1      41.510  34.162  32.284  1.00  0.00     0.049 A 
ATOM     70  H   UNL A   1      41.803  34.936  30.269  1.00  0.00     0.167 HD
ATOM     71  C   UNL A   1      39.173  34.321  31.757  1.00  0.00     0.074 A 
ATOM     72  C   UNL A   1      39.362  35.139  30.579  1.00  0.00     0.031 C 
ATOM     73  C   UNL A   1      40.110  33.785  32.570  1.00  0.00     0.034 A 
BRANCH  60  74
ATOM     74  C   UNL A   1      44.510  34.393  28.768  1.00  0.00     0.023 A 
ATOM     75  C   UNL A   1      45.830  34.821  28.836  1.00  0.00     0.031 A 
ATOM     76  C   UNL A   1      43.610  35.110  27.950  1.00  0.00     0.131 A 
ATOM     77  C   UNL A   1      46.210  35.963  28.132  1.00  0.00     0.055 A 
ATOM     78  C   UNL A   1      44.017  36.182  27.173  1.00  0.00     0.041 A 
ATOM     79  F   UNL A   1      42.311  34.772  27.876  1.00  0.00    -0.206 F 
ATOM     80  C   UNL A   1      45.326  36.623  27.272  1.00  0.00     0.022 A 
BRANCH  77  81
ATOM     81  S   UNL A   1      47.847  36.673  28.385  1.00  0.00     0.124 S 
ATOM     82  O   UNL A   1      48.597  36.100  27.274  1.00  0.00    -0.237 OA
ATOM     83  O   UNL A   1      47.562  38.103  28.287  1.00  0.00    -0.237 OA
ATOM     84  O   UNL A   1      48.216  36.208  29.719  1.00  0.00    -0.744 OA
ENDBRANCH  77  81
ENDBRANCH  60  74
BRANCH  61  85
ATOM     85  C   UNL A   1      36.128  33.111  28.731  1.00  0.00     0.023 A 
ATOM     86  C   UNL A   1      35.542  34.360  29.044  1.00  0.00     0.031 A 
ATOM     87  C   UNL A   1      35.255  32.261  27.960  1.00  0.00     0.131 A 
ATOM     88  C   UNL A   1      34.179  34.663  28.710  1.00  0.00     0.055 A 
ATOM     89  C   UNL A   1      33.907  32.562  27.637  1.00  0.00     0.041 A 
ATOM     90  F   UNL A   1      35.662  31.039  27.581  1.00  0.00    -0.206 F 
ATOM     91  C   UNL A   1      33.354  33.763  28.035  1.00  0.00     0.022 A 
BRANCH  88  92
ATOM     92  S   UNL A   1      33.389  36.235  29.206  1.00  0.00     0.124 S 
ATOM     93  O   UNL A   1      31.981  35.996  28.889  1.00  0.00    -0.237 OA
ATOM     94  O   UNL A   1      33.701  36.295  30.630  1.00  0.00    -0.237 OA
ATOM     95  O   UNL A   1      34.054  37.218  28.357  1.00  0.00    -0.744 OA
ENDBRANCH  88  92
ENDBRANCH  61  85
BRANCH  73  96
ATOM     96  C   UNL A   1      39.658  32.586  33.577  1.00  0.00     0.023 A 
ATOM     97  C   UNL A   1      38.925  32.813  34.759  1.00  0.00     0.031 A 
ATOM     98  C   UNL A   1      39.979  31.197  33.425  1.00  0.00     0.131 A 
ATOM     99  C   UNL A   1      38.655  31.766  35.702  1.00  0.00     0.055 A 
ATOM    100  C   UNL A   1      39.696  30.161  34.334  1.00  0.00     0.041 A 
ATOM    101  F   UNL A   1      40.597  30.710  32.363  1.00  0.00    -0.206 F 
ATOM    102  C   UNL A   1      39.046  30.444  35.501  1.00  0.00     0.022 A 
BRANCH  99 103
ATOM    103  S   UNL A   1      37.887  32.109  37.311  1.00  0.00     0.124 S 
ATOM    104  O   UNL A   1      39.037  32.492  38.126  1.00  0.00    -0.237 OA
ATOM    105  O   UNL A   1      36.959  33.195  36.995  1.00  0.00    -0.237 OA
ATOM    106  O   UNL A   1      37.254  30.841  37.651  1.00  0.00    -0.744 OA
ENDBRANCH  99 103
ENDBRANCH  73  96
ENDBRANCH  47  48
ENDBRANCH  40  42
ENDBRANCH  39  40
ENDBRANCH  38  39
ENDBRANCH  37  38
ENDBRANCH  36  37
ENDBRANCH  35  36
ENDBRANCH   1  35
TORSDOF 27
ENDMDL
MODEL 2
REMARK VINA RESULT:     -11.4      3.539      7.834
REMARK SMILES CC(C)(O)C#Cc1ccc(C(=O)N[C@@H](CC2=c3ccccc3=NC2)C(=O)OCCOCCOCCOC(=O)c2ccc(-c3c4nc(c(-c5cc(S(=O)(=O)[O-])ccc5F)c5ccc([nH]5)c(-c5cc(S(=O)(=O)[O-])ccc5F)c5nc(c(-c6cc(S(=O)(=O)[O-])ccc6F)c6ccc3[nH]6)C=C5)C=C4)cc2)s1
REMARK SMILES IDX 31 1 30 2 29 3 28 4 27 5 25 6 26 7 14 8 13 9 11 10 12 11
REMARK SMILES IDX 10 13 7 14 8 15 102 16 9 17 6 18 5 19 2 20 1 21 3 22 4 23
REMARK SMILES IDX 15 25 16 26 17 27 24 28 18 29 22 30 23 31 19 32 21 33 20 34
REMARK SMILES IDX 32 35 33 36 34 37 35 38 36 39 37 40 38 41 39 42 40 43 101 44
REMARK SMILES IDX 41 45 100 46 42 47 43 48 44 49 94 50 45 51 99 52 93 53 95 54
REMARK SMILES IDX 46 55 98 56 92 57 91 58 47 60 79 61 59 62 78 63 60 64 63 65
REMARK SMILES IDX 77 66 96 67 61 68 62 69 76 71 97 72 64 73 48 74 49 75 57 76
REMARK SMILES IDX 50 77 56 78 58 79 55 80 51 81 52 82 53 83 54 84 80 85 81 86
REMARK SMILES IDX 89 87 82 88 88 89 90 90 87 91 83 92 84 93 85 94 86 95 65 96
REMARK SMILES IDX 66 97 74 98 67 99 73 100 75 101 72 102 68 103 69 104 70 105
REMARK SMILES IDX 71 106
REMARK H PARENT 13 12 4 24 95 59 63 70
REMARK Flexibility Score: inf
ROOT
ATOM      1  C   UNL A   1      37.116  22.270  23.971  1.00  0.00     0.188 C 
ENDROOT
BRANCH   1   2
ATOM      2  O   UNL A   1      35.730  22.313  23.723  1.00  0.00    -0.376 OA
BRANCH   2   3
ATOM      3  C   UNL A   1      35.144  23.569  23.468  1.00  0.00     0.202 C 
BRANCH   3   4
ATOM      4  C   UNL A   1      33.769  23.700  22.788  1.00  0.00     0.261 C 
BRANCH   4   5
ATOM      5  O   UNL A   1      33.505  24.911  22.008  1.00  0.00    -0.462 OA
BRANCH   5   6
ATOM      6  C   UNL A   1      33.041  25.960  22.742  1.00  0.00     0.329 C 
ATOM      7  O   UNL A   1      33.867  26.717  23.256  1.00  0.00    -0.250 OA
BRANCH   6   8
ATOM      8  C   UNL A   1      31.458  26.099  23.097  1.00  0.00     0.196 C 
BRANCH   8   9
ATOM      9  N   UNL A   1      30.615  26.086  24.323  1.00  0.00    -0.338 N 
ATOM     10  C   UNL A   1      30.605  25.287  25.516  1.00  0.00     0.262 C 
ATOM     11  O   UNL A   1      29.675  25.645  26.260  1.00  0.00    -0.268 OA
ATOM     12  H   UNL A   1      29.911  26.775  24.316  1.00  0.00     0.164 HD
BRANCH  10  13
ATOM     13  C   UNL A   1      31.646  24.308  26.052  1.00  0.00     0.093 A 
ATOM     14  C   UNL A   1      33.128  22.093  26.316  1.00  0.00     0.078 A 
ATOM     15  C   UNL A   1      33.783  23.282  26.736  1.00  0.00     0.030 A 
ATOM     16  S   UNL A   1      31.450  22.836  26.897  1.00  0.00    -0.121 S 
ATOM     17  C   UNL A   1      32.979  24.542  26.428  1.00  0.00     0.027 A 
BRANCH  14  18
ATOM     18  C   UNL A   1      33.536  20.681  25.319  1.00  0.00    -0.053 C 
ATOM     19  C   UNL A   1      33.663  19.422  24.954  1.00  0.00    -0.063 C 
BRANCH  19  20
ATOM     20  C   UNL A   1      33.118  17.652  24.614  1.00  0.00     0.120 C 
ATOM     21  C   UNL A   1      33.317  16.383  25.626  1.00  0.00     0.056 C 
ATOM     22  C   UNL A   1      33.605  17.187  23.249  1.00  0.00     0.056 C 
BRANCH  20  23
ATOM     23  O   UNL A   1      31.677  17.316  24.642  1.00  0.00    -0.378 OA
ATOM     24  H   UNL A   1      31.250  17.658  23.840  1.00  0.00     0.212 HD
ENDBRANCH  20  23
ENDBRANCH  19  20
ENDBRANCH  14  18
ENDBRANCH  10  13
ENDBRANCH   8   9
BRANCH   8  25
ATOM     25  C   UNL A   1      31.053  27.298  22.208  1.00  0.00     0.070 C 
BRANCH  25  26
ATOM     26  C   UNL A   1      30.814  28.544  22.987  1.00  0.00    -0.037 C 
ATOM     27  C   UNL A   1      29.807  29.388  22.849  1.00  0.00     0.001 A 
ATOM     28  C   UNL A   1      31.701  28.940  24.137  1.00  0.00     0.174 C 
ATOM     29  C   UNL A   1      28.696  29.472  21.968  1.00  0.00     0.010 A 
ATOM     30  C   UNL A   1      30.016  30.312  23.967  1.00  0.00     0.065 A 
ATOM     31  N   UNL A   1      31.055  30.138  24.728  1.00  0.00    -0.280 NA
ATOM     32  C   UNL A   1      27.772  30.412  22.207  1.00  0.00     0.001 A 
ATOM     33  C   UNL A   1      28.979  31.346  24.141  1.00  0.00     0.028 A 
ATOM     34  C   UNL A   1      27.924  31.352  23.307  1.00  0.00     0.002 A 
ENDBRANCH  25  26
ENDBRANCH   8  25
ENDBRANCH   6   8
ENDBRANCH   5   6
ENDBRANCH   4   5
ENDBRANCH   3   4
ENDBRANCH   2   3
ENDBRANCH   1   2
BRANCH   1  35
ATOM     35  C   UNL A   1      37.603  21.641  25.301  1.00  0.00     0.188 C 
BRANCH  35  36
ATOM     36  O   UNL A   1      38.901  21.950  25.760  1.00  0.00    -0.376 OA
BRANCH  36  37
ATOM     37  C   UNL A   1      39.679  20.832  26.168  1.00  0.00     0.202 C 
BRANCH  37  38
ATOM     38  C   UNL A   1      41.228  20.950  26.209  1.00  0.00     0.261 C 
BRANCH  38  39
ATOM     39  O   UNL A   1      41.784  22.073  25.465  1.00  0.00    -0.460 OA
BRANCH  39  40
ATOM     40  C   UNL A   1      43.133  22.334  25.631  1.00  0.00     0.338 C 
ATOM     41  O   UNL A   1      43.983  22.122  24.825  1.00  0.00    -0.246 OA
BRANCH  40  42
ATOM     42  C   UNL A   1      43.288  23.307  26.793  1.00  0.00     0.060 A 
ATOM     43  C   UNL A   1      43.125  23.017  28.157  1.00  0.00     0.016 A 
ATOM     44  C   UNL A   1      43.318  24.644  26.430  1.00  0.00     0.016 A 
ATOM     45  C   UNL A   1      42.798  24.049  29.105  1.00  0.00     0.010 A 
ATOM     46  C   UNL A   1      42.982  25.628  27.374  1.00  0.00     0.010 A 
ATOM     47  C   UNL A   1      42.614  25.382  28.709  1.00  0.00    -0.014 A 
BRANCH  47  48
ATOM     48  C   UNL A   1      42.531  26.598  29.647  1.00  0.00     0.031 A 
ATOM     49  C   UNL A   1      40.918  27.249  29.142  1.00  0.00     0.074 A 
ATOM     50  C   UNL A   1      43.532  27.043  30.730  1.00  0.00     0.049 A 
ATOM     51  N   UNL A   1      40.757  28.465  28.698  1.00  0.00    -0.248 NA
ATOM     52  C   UNL A   1      39.512  26.775  29.122  1.00  0.00     0.031 C 
ATOM     53  C   UNL A   1      44.935  26.723  31.051  1.00  0.00     0.029 A 
ATOM     54  N   UNL A   1      43.480  27.920  31.997  1.00  0.00    -0.354 N 
ATOM     55  C   UNL A   1      39.673  29.123  29.288  1.00  0.00     0.074 A 
ATOM     56  C   UNL A   1      38.784  27.948  29.187  1.00  0.00     0.031 C 
ATOM     57  C   UNL A   1      45.271  26.914  32.389  1.00  0.00     0.029 A 
ATOM     58  C   UNL A   1      44.195  27.511  33.176  1.00  0.00     0.049 A 
ATOM     59  H   UNL A   1      42.961  28.756  31.999  1.00  0.00     0.167 HD
ATOM     60  C   UNL A   1      39.688  30.406  29.980  1.00  0.00     0.034 A 
ATOM     61  C   UNL A   1      44.079  27.940  34.525  1.00  0.00     0.034 A 
ATOM     62  C   UNL A   1      40.909  31.462  30.419  1.00  0.00     0.049 A 
ATOM     63  C   UNL A   1      43.619  29.350  34.548  1.00  0.00     0.074 A 
ATOM     64  C   UNL A   1      42.042  32.147  29.924  1.00  0.00     0.029 A 
ATOM     65  N   UNL A   1      41.297  31.679  31.793  1.00  0.00    -0.354 N 
ATOM     66  N   UNL A   1      44.413  30.354  34.337  1.00  0.00    -0.248 NA
ATOM     67  C   UNL A   1      42.238  29.739  34.853  1.00  0.00     0.031 C 
ATOM     68  C   UNL A   1      42.575  33.140  30.783  1.00  0.00     0.029 A 
ATOM     69  C   UNL A   1      42.623  32.292  31.864  1.00  0.00     0.049 A 
ATOM     70  H   UNL A   1      40.745  31.448  32.574  1.00  0.00     0.167 HD
ATOM     71  C   UNL A   1      43.558  31.270  33.826  1.00  0.00     0.074 A 
ATOM     72  C   UNL A   1      42.281  31.014  34.457  1.00  0.00     0.031 C 
ATOM     73  C   UNL A   1      43.803  31.808  32.610  1.00  0.00     0.034 A 
BRANCH  60  74
ATOM     74  C   UNL A   1      38.408  30.912  30.544  1.00  0.00     0.023 A 
ATOM     75  C   UNL A   1      37.528  31.723  29.838  1.00  0.00     0.031 A 
ATOM     76  C   UNL A   1      38.010  30.426  31.808  1.00  0.00     0.131 A 
ATOM     77  C   UNL A   1      36.307  32.064  30.416  1.00  0.00     0.055 A 
ATOM     78  C   UNL A   1      36.754  30.683  32.332  1.00  0.00     0.041 A 
ATOM     79  F   UNL A   1      38.832  29.672  32.558  1.00  0.00    -0.206 F 
ATOM     80  C   UNL A   1      35.896  31.520  31.638  1.00  0.00     0.022 A 
BRANCH  77  81
ATOM     81  S   UNL A   1      35.252  33.297  29.632  1.00  0.00     0.124 S 
ATOM     82  O   UNL A   1      36.158  33.889  28.655  1.00  0.00    -0.237 OA
ATOM     83  O   UNL A   1      34.186  32.461  29.083  1.00  0.00    -0.237 OA
ATOM     84  O   UNL A   1      34.851  34.156  30.742  1.00  0.00    -0.744 OA
ENDBRANCH  77  81
ENDBRANCH  60  74
BRANCH  61  85
ATOM     85  C   UNL A   1      43.853  27.393  36.009  1.00  0.00     0.023 A 
ATOM     86  C   UNL A   1      44.524  27.896  37.150  1.00  0.00     0.031 A 
ATOM     87  C   UNL A   1      43.417  26.028  36.173  1.00  0.00     0.131 A 
ATOM     88  C   UNL A   1      44.819  27.065  38.282  1.00  0.00     0.055 A 
ATOM     89  C   UNL A   1      43.718  25.210  37.292  1.00  0.00     0.041 A 
ATOM     90  F   UNL A   1      42.765  25.402  35.181  1.00  0.00    -0.206 F 
ATOM     91  C   UNL A   1      44.446  25.723  38.348  1.00  0.00     0.022 A 
BRANCH  88  92
ATOM     92  S   UNL A   1      45.777  27.686  39.711  1.00  0.00     0.124 S 
ATOM     93  O   UNL A   1      46.793  26.648  39.885  1.00  0.00    -0.237 OA
ATOM     94  O   UNL A   1      46.276  28.962  39.210  1.00  0.00    -0.237 OA
ATOM     95  O   UNL A   1      44.777  27.755  40.771  1.00  0.00    -0.744 OA
ENDBRANCH  88  92
ENDBRANCH  61  85
BRANCH  73  96
ATOM     96  C   UNL A   1      45.291  31.619  31.973  1.00  0.00     0.023 A 
ATOM     97  C   UNL A   1      45.557  30.756  30.891  1.00  0.00     0.031 A 
ATOM     98  C   UNL A   1      46.492  32.243  32.445  1.00  0.00     0.131 A 
ATOM     99  C   UNL A   1      46.893  30.497  30.432  1.00  0.00     0.055 A 
ATOM    100  C   UNL A   1      47.801  32.013  31.984  1.00  0.00     0.041 A 
ATOM    101  F   UNL A   1      46.505  33.154  33.404  1.00  0.00    -0.206 F 
ATOM    102  C   UNL A   1      48.016  31.112  30.980  1.00  0.00     0.022 A 
BRANCH  99 103
ATOM    103  S   UNL A   1      47.238  29.235  29.174  1.00  0.00     0.124 S 
ATOM    104  O   UNL A   1      45.908  28.964  28.635  1.00  0.00    -0.237 OA
ATOM    105  O   UNL A   1      48.147  29.933  28.265  1.00  0.00    -0.237 OA
ATOM    106  O   UNL A   1      47.848  28.160  29.946  1.00  0.00    -0.744 OA
ENDBRANCH  99 103
ENDBRANCH  73  96
ENDBRANCH  47  48
ENDBRANCH  40  42
ENDBRANCH  39  40
ENDBRANCH  38  39
ENDBRANCH  37  38
ENDBRANCH  36  37
ENDBRANCH  35  36
ENDBRANCH   1  35
TORSDOF 27
ENDMDL
MODEL 3
REMARK VINA RESULT:     -11.0      3.930      8.324
REMARK SMILES CC(C)(O)C#Cc1ccc(C(=O)N[C@@H](CC2=c3ccccc3=NC2)C(=O)OCCOCCOCCOC(=O)c2ccc(-c3c4nc(c(-c5cc(S(=O)(=O)[O-])ccc5F)c5ccc([nH]5)c(-c5cc(S(=O)(=O)[O-])ccc5F)c5nc(c(-c6cc(S(=O)(=O)[O-])ccc6F)c6ccc3[nH]6)C=C5)C=C4)cc2)s1
REMARK SMILES IDX 31 1 30 2 29 3 28 4 27 5 25 6 26 7 14 8 13 9 11 10 12 11
REMARK SMILES IDX 10 13 7 14 8 15 102 16 9 17 6 18 5 19 2 20 1 21 3 22 4 23
REMARK SMILES IDX 15 25 16 26 17 27 24 28 18 29 22 30 23 31 19 32 21 33 20 34
REMARK SMILES IDX 32 35 33 36 34 37 35 38 36 39 37 40 38 41 39 42 40 43 101 44
REMARK SMILES IDX 41 45 100 46 42 47 43 48 44 49 94 50 45 51 99 52 93 53 95 54
REMARK SMILES IDX 46 55 98 56 92 57 91 58 47 60 79 61 59 62 78 63 60 64 63 65
REMARK SMILES IDX 77 66 96 67 61 68 62 69 76 71 97 72 64 73 48 74 49 75 57 76
REMARK SMILES IDX 50 77 56 78 58 79 55 80 51 81 52 82 53 83 54 84 80 85 81 86
REMARK SMILES IDX 89 87 82 88 88 89 90 90 87 91 83 92 84 93 85 94 86 95 65 96
REMARK SMILES IDX 66 97 74 98 67 99 73 100 75 101 72 102 68 103 69 104 70 105
REMARK SMILES IDX 71 106
REMARK H PARENT 13 12 4 24 95 59 63 70
REMARK Flexibility Score: inf
ROOT
ATOM      1  C   UNL A   1      36.765  22.896  24.424  1.00  0.00     0.188 C 
ENDROOT
BRANCH   1   2
ATOM      2  O   UNL A   1      35.435  23.272  24.152  1.00  0.00    -0.376 OA
BRANCH   2   3
ATOM      3  C   UNL A   1      35.000  24.534  24.602  1.00  0.00     0.202 C 
BRANCH   3   4
ATOM      4  C   UNL A   1      33.887  25.314  23.879  1.00  0.00     0.261 C 
BRANCH   4   5
ATOM      5  O   UNL A   1      33.974  26.776  23.867  1.00  0.00    -0.462 OA
BRANCH   5   6
ATOM      6  C   UNL A   1      32.769  27.408  23.834  1.00  0.00     0.329 C 
ATOM      7  O   UNL A   1      32.761  28.641  23.814  1.00  0.00    -0.250 OA
BRANCH   6   8
ATOM      8  C   UNL A   1      31.380  26.576  24.013  1.00  0.00     0.196 C 
BRANCH   8   9
ATOM      9  N   UNL A   1      30.400  26.322  25.104  1.00  0.00    -0.338 N 
ATOM     10  C   UNL A   1      30.212  25.256  26.047  1.00  0.00     0.262 C 
ATOM     11  O   UNL A   1      29.220  25.487  26.759  1.00  0.00    -0.268 OA
ATOM     12  H   UNL A   1      29.735  27.042  25.201  1.00  0.00     0.164 HD
BRANCH  10  13
ATOM     13  C   UNL A   1      31.136  24.099  26.418  1.00  0.00     0.093 A 
ATOM     14  C   UNL A   1      32.531  21.820  26.227  1.00  0.00     0.078 A 
ATOM     15  C   UNL A   1      33.113  22.786  27.091  1.00  0.00     0.030 A 
ATOM     16  S   UNL A   1      30.784  22.456  26.729  1.00  0.00    -0.121 S 
ATOM     17  C   UNL A   1      32.386  24.127  27.058  1.00  0.00     0.027 A 
BRANCH  14  18
ATOM     18  C   UNL A   1      33.092  20.750  24.925  1.00  0.00    -0.053 C 
ATOM     19  C   UNL A   1      33.355  19.641  24.266  1.00  0.00    -0.063 C 
BRANCH  19  20
ATOM     20  C   UNL A   1      33.005  17.965  23.482  1.00  0.00     0.120 C 
ATOM     21  C   UNL A   1      34.092  16.759  23.287  1.00  0.00     0.056 C 
ATOM     22  C   UNL A   1      32.305  18.128  22.141  1.00  0.00     0.056 C 
BRANCH  20  23
ATOM     23  O   UNL A   1      32.192  16.973  24.221  1.00  0.00    -0.378 OA
ATOM     24  H   UNL A   1      31.295  16.951  23.851  1.00  0.00     0.212 HD
ENDBRANCH  20  23
ENDBRANCH  19  20
ENDBRANCH  14  18
ENDBRANCH  10  13
ENDBRANCH   8   9
BRANCH   8  25
ATOM     25  C   UNL A   1      30.624  26.968  22.722  1.00  0.00     0.070 C 
BRANCH  25  26
ATOM     26  C   UNL A   1      29.398  27.769  22.989  1.00  0.00    -0.037 C 
ATOM     27  C   UNL A   1      29.215  29.052  22.731  1.00  0.00     0.001 A 
ATOM     28  C   UNL A   1      28.143  27.139  23.528  1.00  0.00     0.174 C 
ATOM     29  C   UNL A   1      30.034  30.086  22.203  1.00  0.00     0.010 A 
ATOM     30  C   UNL A   1      27.798  29.238  23.055  1.00  0.00     0.065 A 
ATOM     31  N   UNL A   1      27.129  28.223  23.516  1.00  0.00    -0.280 NA
ATOM     32  C   UNL A   1      29.465  31.270  21.944  1.00  0.00     0.001 A 
ATOM     33  C   UNL A   1      27.253  30.582  22.782  1.00  0.00     0.028 A 
ATOM     34  C   UNL A   1      28.060  31.510  22.239  1.00  0.00     0.002 A 
ENDBRANCH  25  26
ENDBRANCH   8  25
ENDBRANCH   6   8
ENDBRANCH   5   6
ENDBRANCH   4   5
ENDBRANCH   3   4
ENDBRANCH   2   3
ENDBRANCH   1   2
BRANCH   1  35
ATOM     35  C   UNL A   1      37.007  21.672  25.342  1.00  0.00     0.188 C 
BRANCH  35  36
ATOM     36  O   UNL A   1      38.337  21.301  25.638  1.00  0.00    -0.376 OA
BRANCH  36  37
ATOM     37  C   UNL A   1      38.702  19.990  25.227  1.00  0.00     0.202 C 
BRANCH  37  38
ATOM     38  C   UNL A   1      39.938  19.301  25.871  1.00  0.00     0.261 C 
BRANCH  38  39
ATOM     39  O   UNL A   1      41.184  19.445  25.131  1.00  0.00    -0.460 OA
BRANCH  39  40
ATOM     40  C   UNL A   1      42.311  19.798  25.852  1.00  0.00     0.338 C 
ATOM     41  O   UNL A   1      43.386  19.296  25.748  1.00  0.00    -0.246 OA
BRANCH  40  42
ATOM     42  C   UNL A   1      42.071  21.174  26.461  1.00  0.00     0.060 A 
ATOM     43  C   UNL A   1      42.073  22.403  25.784  1.00  0.00     0.016 A 
ATOM     44  C   UNL A   1      42.136  21.215  27.845  1.00  0.00     0.016 A 
ATOM     45  C   UNL A   1      42.337  23.637  26.477  1.00  0.00     0.010 A 
ATOM     46  C   UNL A   1      42.407  22.431  28.492  1.00  0.00     0.010 A 
ATOM     47  C   UNL A   1      42.619  23.664  27.851  1.00  0.00    -0.014 A 
BRANCH  47  48
ATOM     48  C   UNL A   1      42.649  24.918  28.740  1.00  0.00     0.031 A 
ATOM     49  C   UNL A   1      41.066  25.657  28.260  1.00  0.00     0.074 A 
ATOM     50  C   UNL A   1      43.713  25.337  29.772  1.00  0.00     0.049 A 
ATOM     51  N   UNL A   1      40.970  26.863  27.772  1.00  0.00    -0.248 NA
ATOM     52  C   UNL A   1      39.632  25.278  28.304  1.00  0.00     0.031 C 
ATOM     53  C   UNL A   1      45.102  24.935  30.062  1.00  0.00     0.029 A 
ATOM     54  N   UNL A   1      43.762  26.264  31.003  1.00  0.00    -0.354 N 
ATOM     55  C   UNL A   1      39.953  27.615  28.368  1.00  0.00     0.074 A 
ATOM     56  C   UNL A   1      38.985  26.499  28.343  1.00  0.00     0.031 C 
ATOM     57  C   UNL A   1      45.495  25.156  31.380  1.00  0.00     0.029 A 
ATOM     58  C   UNL A   1      44.489  25.854  32.175  1.00  0.00     0.049 A 
ATOM     59  H   UNL A   1      43.299  27.132  30.988  1.00  0.00     0.167 HD
ATOM     60  C   UNL A   1      40.076  28.920  29.006  1.00  0.00     0.034 A 
ATOM     61  C   UNL A   1      44.447  26.341  33.508  1.00  0.00     0.034 A 
ATOM     62  C   UNL A   1      41.379  29.907  29.363  1.00  0.00     0.049 A 
ATOM     63  C   UNL A   1      44.082  27.779  33.488  1.00  0.00     0.074 A 
ATOM     64  C   UNL A   1      42.537  30.494  28.805  1.00  0.00     0.029 A 
ATOM     65  N   UNL A   1      41.827  30.151  30.714  1.00  0.00    -0.354 N 
ATOM     66  N   UNL A   1      44.933  28.719  33.211  1.00  0.00    -0.248 NA
ATOM     67  C   UNL A   1      42.741  28.272  33.820  1.00  0.00     0.031 C 
ATOM     68  C   UNL A   1      43.163  31.481  29.605  1.00  0.00     0.029 A 
ATOM     69  C   UNL A   1      43.192  30.675  30.718  1.00  0.00     0.049 A 
ATOM     70  H   UNL A   1      41.287  29.988  31.521  1.00  0.00     0.167 HD
ATOM     71  C   UNL A   1      44.123  29.669  32.690  1.00  0.00     0.074 A 
ATOM     72  C   UNL A   1      42.855  29.524  33.371  1.00  0.00     0.031 C 
ATOM     73  C   UNL A   1      44.362  30.142  31.446  1.00  0.00     0.034 A 
BRANCH  60  74
ATOM     74  C   UNL A   1      38.852  29.532  29.588  1.00  0.00     0.023 A 
ATOM     75  C   UNL A   1      38.019  30.393  28.886  1.00  0.00     0.031 A 
ATOM     76  C   UNL A   1      38.451  29.102  30.872  1.00  0.00     0.131 A 
ATOM     77  C   UNL A   1      36.842  30.837  29.485  1.00  0.00     0.055 A 
ATOM     78  C   UNL A   1      37.231  29.464  31.419  1.00  0.00     0.041 A 
ATOM     79  F   UNL A   1      39.232  28.303  31.619  1.00  0.00    -0.206 F 
ATOM     80  C   UNL A   1      36.422  30.350  30.728  1.00  0.00     0.022 A 
BRANCH  77  81
ATOM     81  S   UNL A   1      35.863  32.131  28.699  1.00  0.00     0.124 S 
ATOM     82  O   UNL A   1      35.316  31.431  27.543  1.00  0.00    -0.237 OA
ATOM     83  O   UNL A   1      34.907  32.455  29.755  1.00  0.00    -0.237 OA
ATOM     84  O   UNL A   1      36.845  33.174  28.415  1.00  0.00    -0.744 OA
ENDBRANCH  77  81
ENDBRANCH  60  74
BRANCH  61  85
ATOM     85  C   UNL A   1      44.236  25.869  35.020  1.00  0.00     0.023 A 
ATOM     86  C   UNL A   1      44.478  26.689  36.148  1.00  0.00     0.031 A 
ATOM     87  C   UNL A   1      44.351  24.462  35.316  1.00  0.00     0.131 A 
ATOM     88  C   UNL A   1      44.904  26.143  37.405  1.00  0.00     0.055 A 
ATOM     89  C   UNL A   1      44.778  23.928  36.559  1.00  0.00     0.041 A 
ATOM     90  F   UNL A   1      44.151  23.549  34.353  1.00  0.00    -0.206 F 
ATOM     91  C   UNL A   1      45.081  24.774  37.607  1.00  0.00     0.022 A 
BRANCH  88  92
ATOM     92  S   UNL A   1      45.318  27.210  38.831  1.00  0.00     0.124 S 
ATOM     93  O   UNL A   1      45.256  28.551  38.250  1.00  0.00    -0.237 OA
ATOM     94  O   UNL A   1      44.247  26.892  39.769  1.00  0.00    -0.237 OA
ATOM     95  O   UNL A   1      46.656  26.759  39.200  1.00  0.00    -0.744 OA
ENDBRANCH  88  92
ENDBRANCH  61  85
BRANCH  73  96
ATOM     96  C   UNL A   1      45.812  29.828  30.771  1.00  0.00     0.023 A 
ATOM     97  C   UNL A   1      45.958  29.099  29.574  1.00  0.00     0.031 A 
ATOM     98  C   UNL A   1      47.087  30.195  31.313  1.00  0.00     0.131 A 
ATOM     99  C   UNL A   1      47.245  28.715  29.067  1.00  0.00     0.055 A 
ATOM    100  C   UNL A   1      48.353  29.843  30.809  1.00  0.00     0.041 A 
ATOM    101  F   UNL A   1      47.225  30.947  32.392  1.00  0.00    -0.206 F 
ATOM    102  C   UNL A   1      48.441  29.073  29.683  1.00  0.00     0.022 A 
BRANCH  99 103
ATOM    103  S   UNL A   1      47.412  27.609  27.637  1.00  0.00     0.124 S 
ATOM    104  O   UNL A   1      48.565  26.794  28.011  1.00  0.00    -0.237 OA
ATOM    105  O   UNL A   1      46.129  26.905  27.629  1.00  0.00    -0.237 OA
ATOM    106  O   UNL A   1      47.612  28.533  26.528  1.00  0.00    -0.744 OA
ENDBRANCH  99 103
ENDBRANCH  73  96
ENDBRANCH  47  48
ENDBRANCH  40  42
ENDBRANCH  39  40
ENDBRANCH  38  39
ENDBRANCH  37  38
ENDBRANCH  36  37
ENDBRANCH  35  36
ENDBRANCH   1  35
TORSDOF 27
ENDMDL
