MODEL 1
REMARK VINA RESULT:     -10.9      0.000      0.000
REMARK SMILES CC1(C)[C@H](C(=O)Nc2cccc3[nH]ccc23)[C@H]1C(=O)OCCOCCOCCOC(=O)c1ccc(-c2c3nc(c(-c4cc(S(=O)(=O)[O-])ccc4F)c4ccc([nH]4)c(-c4cc(S(=O)(=O)[O-])ccc4F)c4nc(c(-c5cc(S(=O)(=O)[O-])ccc5F)c5ccc2[nH]5)C=C4)C=C3)cc1
REMARK SMILES IDX 25 1 24 2 23 3 22 4 21 5 20 6 18 7 19 8 17 9 1 10 2 11 3 12
REMARK SMILES IDX 4 13 5 14 6 15 7 16 8 18 9 19 16 20 10 21 12 22 15 23 11 24
REMARK SMILES IDX 13 25 14 26 26 28 27 29 28 30 29 31 30 32 31 33 32 34 33 35
REMARK SMILES IDX 94 36 34 37 93 38 35 39 36 40 37 41 87 42 38 43 92 44 86 45
REMARK SMILES IDX 88 46 39 47 91 48 85 49 84 50 40 52 72 53 52 54 71 55 53 56
REMARK SMILES IDX 56 57 70 58 89 59 54 60 55 61 69 63 90 64 57 65 41 66 42 67
REMARK SMILES IDX 50 68 43 69 49 70 51 71 48 72 44 73 45 74 46 75 47 76 73 77
REMARK SMILES IDX 74 78 82 79 75 80 81 81 83 82 80 83 76 84 77 85 78 86 79 87
REMARK SMILES IDX 58 88 59 89 67 90 60 91 66 92 68 93 65 94 61 95 62 96 63 97
REMARK SMILES IDX 64 98
REMARK H PARENT 7 17 13 27 88 51 56 62
REMARK Flexibility Score: inf
ROOT
ATOM      1  C   UNL A   1      37.854  21.911  25.214  1.00  0.00     0.188 C 
ENDROOT
BRANCH   1   2
ATOM      2  C   UNL A   1      36.937  22.876  25.990  1.00  0.00     0.188 C 
BRANCH   2   3
ATOM      3  O   UNL A   1      35.536  22.861  25.724  1.00  0.00    -0.376 OA
BRANCH   3   4
ATOM      4  C   UNL A   1      34.856  24.100  25.530  1.00  0.00     0.202 C 
BRANCH   4   5
ATOM      5  C   UNL A   1      33.335  24.083  25.693  1.00  0.00     0.261 C 
BRANCH   5   6
ATOM      6  O   UNL A   1      32.746  25.222  25.053  1.00  0.00    -0.463 OA
BRANCH   6   7
ATOM      7  C   UNL A   1      31.888  25.948  25.813  1.00  0.00     0.310 C 
ATOM      8  O   UNL A   1      31.392  25.601  26.864  1.00  0.00    -0.252 OA
BRANCH   7   9
ATOM      9  C   UNL A   1      31.716  27.322  25.277  1.00  0.00     0.118 C 
ATOM     10  C   UNL A   1      33.580  28.445  26.781  1.00  0.00     0.013 C 
ATOM     11  C   UNL A   1      32.511  28.551  25.719  1.00  0.00    -0.009 C 
ATOM     12  C   UNL A   1      31.769  29.864  25.792  1.00  0.00     0.013 C 
ATOM     13  C   UNL A   1      32.802  27.867  24.382  1.00  0.00     0.100 C 
BRANCH  13  14
ATOM     14  C   UNL A   1      32.530  28.437  23.028  1.00  0.00     0.228 C 
ATOM     15  O   UNL A   1      33.425  29.052  22.461  1.00  0.00    -0.274 OA
ATOM     16  N   UNL A   1      31.390  28.011  22.391  1.00  0.00    -0.325 N 
ATOM     17  H   UNL A   1      31.446  27.177  21.871  1.00  0.00     0.169 HD
BRANCH  16  18
ATOM     18  C   UNL A   1      30.146  28.672  22.420  1.00  0.00     0.050 A 
ATOM     19  C   UNL A   1      29.979  29.954  21.880  1.00  0.00     0.027 A 
ATOM     20  C   UNL A   1      29.019  28.039  22.998  1.00  0.00     0.023 A 
ATOM     21  C   UNL A   1      28.785  30.656  22.022  1.00  0.00     0.004 A 
ATOM     22  C   UNL A   1      27.827  28.762  23.112  1.00  0.00     0.047 A 
ATOM     23  C   UNL A   1      28.763  26.749  23.553  1.00  0.00     0.030 A 
ATOM     24  C   UNL A   1      27.691  30.081  22.668  1.00  0.00     0.027 A 
ATOM     25  N   UNL A   1      26.893  27.936  23.698  1.00  0.00    -0.361 N 
ATOM     26  C   UNL A   1      27.447  26.709  23.951  1.00  0.00     0.083 A 
ATOM     27  H   UNL A   1      25.965  28.190  23.905  1.00  0.00     0.166 HD
ENDBRANCH  16  18
ENDBRANCH  13  14
ENDBRANCH   7   9
ENDBRANCH   6   7
ENDBRANCH   5   6
ENDBRANCH   4   5
ENDBRANCH   3   4
ENDBRANCH   2   3
ENDBRANCH   1   2
BRANCH   1  28
ATOM     28  O   UNL A   1      37.402  20.567  25.194  1.00  0.00    -0.376 OA
BRANCH  28  29
ATOM     29  C   UNL A   1      38.409  19.589  24.978  1.00  0.00     0.202 C 
BRANCH  29  30
ATOM     30  C   UNL A   1      39.543  19.645  26.010  1.00  0.00     0.261 C 
BRANCH  30  31
ATOM     31  O   UNL A   1      40.852  19.359  25.485  1.00  0.00    -0.460 OA
BRANCH  31  32
ATOM     32  C   UNL A   1      41.895  19.552  26.326  1.00  0.00     0.338 C 
ATOM     33  O   UNL A   1      42.764  18.747  26.607  1.00  0.00    -0.246 OA
BRANCH  32  34
ATOM     34  C   UNL A   1      41.922  20.982  26.698  1.00  0.00     0.060 A 
ATOM     35  C   UNL A   1      41.702  21.942  25.703  1.00  0.00     0.016 A 
ATOM     36  C   UNL A   1      42.169  21.371  28.017  1.00  0.00     0.016 A 
ATOM     37  C   UNL A   1      41.763  23.300  26.021  1.00  0.00     0.010 A 
ATOM     38  C   UNL A   1      42.248  22.732  28.329  1.00  0.00     0.010 A 
ATOM     39  C   UNL A   1      42.076  23.703  27.326  1.00  0.00    -0.014 A 
BRANCH  39  40
ATOM     40  C   UNL A   1      42.411  25.126  27.596  1.00  0.00     0.031 A 
ATOM     41  C   UNL A   1      43.773  25.627  27.194  1.00  0.00     0.074 A 
ATOM     42  C   UNL A   1      41.524  25.963  28.161  1.00  0.00     0.049 A 
ATOM     43  N   UNL A   1      44.299  26.816  27.339  1.00  0.00    -0.248 NA
ATOM     44  C   UNL A   1      44.658  24.650  26.540  1.00  0.00     0.031 C 
ATOM     45  C   UNL A   1      40.168  25.605  28.574  1.00  0.00     0.029 A 
ATOM     46  N   UNL A   1      41.638  27.289  28.497  1.00  0.00    -0.354 N 
ATOM     47  C   UNL A   1      45.577  26.732  26.792  1.00  0.00     0.074 A 
ATOM     48  C   UNL A   1      45.755  25.365  26.351  1.00  0.00     0.031 C 
ATOM     49  C   UNL A   1      39.582  26.683  29.124  1.00  0.00     0.029 A 
ATOM     50  C   UNL A   1      40.524  27.801  29.121  1.00  0.00     0.049 A 
ATOM     51  H   UNL A   1      42.442  27.825  28.307  1.00  0.00     0.167 HD
ATOM     52  C   UNL A   1      46.512  27.705  26.663  1.00  0.00     0.034 A 
ATOM     53  C   UNL A   1      40.303  29.025  29.646  1.00  0.00     0.034 A 
ATOM     54  C   UNL A   1      46.337  29.058  27.131  1.00  0.00     0.049 A 
ATOM     55  C   UNL A   1      41.388  30.075  29.560  1.00  0.00     0.074 A 
ATOM     56  C   UNL A   1      47.221  30.120  27.051  1.00  0.00     0.029 A 
ATOM     57  N   UNL A   1      45.206  29.532  27.781  1.00  0.00    -0.354 N 
ATOM     58  N   UNL A   1      42.584  29.987  29.022  1.00  0.00    -0.248 NA
ATOM     59  C   UNL A   1      41.087  31.389  30.142  1.00  0.00     0.031 C 
ATOM     60  C   UNL A   1      46.651  31.216  27.710  1.00  0.00     0.029 A 
ATOM     61  C   UNL A   1      45.380  30.862  28.133  1.00  0.00     0.049 A 
ATOM     62  H   UNL A   1      44.397  29.001  27.966  1.00  0.00     0.167 HD
ATOM     63  C   UNL A   1      43.163  31.246  29.177  1.00  0.00     0.074 A 
ATOM     64  C   UNL A   1      42.180  32.076  29.842  1.00  0.00     0.031 C 
ATOM     65  C   UNL A   1      44.393  31.679  28.800  1.00  0.00     0.034 A 
BRANCH  52  66
ATOM     66  C   UNL A   1      47.827  27.313  26.035  1.00  0.00     0.023 A 
ATOM     67  C   UNL A   1      48.115  27.596  24.688  1.00  0.00     0.031 A 
ATOM     68  C   UNL A   1      48.789  26.609  26.781  1.00  0.00     0.131 A 
ATOM     69  C   UNL A   1      49.299  27.116  24.110  1.00  0.00     0.055 A 
ATOM     70  C   UNL A   1      50.001  26.201  26.220  1.00  0.00     0.041 A 
ATOM     71  F   UNL A   1      48.558  26.290  28.064  1.00  0.00    -0.206 F 
ATOM     72  C   UNL A   1      50.255  26.440  24.873  1.00  0.00     0.022 A 
BRANCH  69  73
ATOM     73  S   UNL A   1      49.505  27.255  22.314  1.00  0.00     0.124 S 
ATOM     74  O   UNL A   1      48.282  26.620  21.827  1.00  0.00    -0.237 OA
ATOM     75  O   UNL A   1      49.597  28.697  22.119  1.00  0.00    -0.237 OA
ATOM     76  O   UNL A   1      50.734  26.509  22.050  1.00  0.00    -0.744 OA
ENDBRANCH  69  73
ENDBRANCH  52  66
BRANCH  53  77
ATOM     77  C   UNL A   1      39.013  29.333  30.326  1.00  0.00     0.023 A 
ATOM     78  C   UNL A   1      38.061  30.171  29.727  1.00  0.00     0.031 A 
ATOM     79  C   UNL A   1      38.742  28.845  31.617  1.00  0.00     0.131 A 
ATOM     80  C   UNL A   1      36.905  30.537  30.435  1.00  0.00     0.055 A 
ATOM     81  C   UNL A   1      37.567  29.170  32.297  1.00  0.00     0.041 A 
ATOM     82  F   UNL A   1      39.620  28.041  32.236  1.00  0.00    -0.206 F 
ATOM     83  C   UNL A   1      36.646  30.032  31.710  1.00  0.00     0.022 A 
BRANCH  80  84
ATOM     84  S   UNL A   1      35.782  31.750  29.690  1.00  0.00     0.124 S 
ATOM     85  O   UNL A   1      34.958  32.128  30.831  1.00  0.00    -0.237 OA
ATOM     86  O   UNL A   1      36.718  32.761  29.209  1.00  0.00    -0.237 OA
ATOM     87  O   UNL A   1      35.099  30.986  28.648  1.00  0.00    -0.744 OA
ENDBRANCH  80  84
ENDBRANCH  53  77
BRANCH  65  88
ATOM     88  C   UNL A   1      44.722  33.132  29.049  1.00  0.00     0.023 A 
ATOM     89  C   UNL A   1      44.250  34.157  28.209  1.00  0.00     0.031 A 
ATOM     90  C   UNL A   1      45.529  33.494  30.143  1.00  0.00     0.131 A 
ATOM     91  C   UNL A   1      44.633  35.487  28.447  1.00  0.00     0.055 A 
ATOM     92  C   UNL A   1      45.858  34.825  30.408  1.00  0.00     0.041 A 
ATOM     93  F   UNL A   1      46.008  32.558  30.978  1.00  0.00    -0.206 F 
ATOM     94  C   UNL A   1      45.421  35.829  29.549  1.00  0.00     0.022 A 
BRANCH  91  95
ATOM     95  S   UNL A   1      44.164  36.758  27.239  1.00  0.00     0.124 S 
ATOM     96  O   UNL A   1      43.596  37.795  28.095  1.00  0.00    -0.237 OA
ATOM     97  O   UNL A   1      45.443  37.079  26.613  1.00  0.00    -0.237 OA
ATOM     98  O   UNL A   1      43.206  36.072  26.375  1.00  0.00    -0.744 OA
ENDBRANCH  91  95
ENDBRANCH  65  88
ENDBRANCH  39  40
ENDBRANCH  32  34
ENDBRANCH  31  32
ENDBRANCH  30  31
ENDBRANCH  29  30
ENDBRANCH  28  29
ENDBRANCH   1  28
TORSDOF 22
ENDMDL
MODEL 2
REMARK VINA RESULT:     -10.5      2.074      7.640
REMARK SMILES CC1(C)[C@H](C(=O)Nc2cccc3[nH]ccc23)[C@H]1C(=O)OCCOCCOCCOC(=O)c1ccc(-c2c3nc(c(-c4cc(S(=O)(=O)[O-])ccc4F)c4ccc([nH]4)c(-c4cc(S(=O)(=O)[O-])ccc4F)c4nc(c(-c5cc(S(=O)(=O)[O-])ccc5F)c5ccc2[nH]5)C=C4)C=C3)cc1
REMARK SMILES IDX 25 1 24 2 23 3 22 4 21 5 20 6 18 7 19 8 17 9 1 10 2 11 3 12
REMARK SMILES IDX 4 13 5 14 6 15 7 16 8 18 9 19 16 20 10 21 12 22 15 23 11 24
REMARK SMILES IDX 13 25 14 26 26 28 27 29 28 30 29 31 30 32 31 33 32 34 33 35
REMARK SMILES IDX 94 36 34 37 93 38 35 39 36 40 37 41 87 42 38 43 92 44 86 45
REMARK SMILES IDX 88 46 39 47 91 48 85 49 84 50 40 52 72 53 52 54 71 55 53 56
REMARK SMILES IDX 56 57 70 58 89 59 54 60 55 61 69 63 90 64 57 65 41 66 42 67
REMARK SMILES IDX 50 68 43 69 49 70 51 71 48 72 44 73 45 74 46 75 47 76 73 77
REMARK SMILES IDX 74 78 82 79 75 80 81 81 83 82 80 83 76 84 77 85 78 86 79 87
REMARK SMILES IDX 58 88 59 89 67 90 60 91 66 92 68 93 65 94 61 95 62 96 63 97
REMARK SMILES IDX 64 98
REMARK H PARENT 7 17 13 27 88 51 56 62
REMARK Flexibility Score: inf
ROOT
ATOM      1  C   UNL A   1      38.104  22.242  25.347  1.00  0.00     0.188 C 
ENDROOT
BRANCH   1   2
ATOM      2  C   UNL A   1      37.199  23.306  25.999  1.00  0.00     0.188 C 
BRANCH   2   3
ATOM      3  O   UNL A   1      35.784  23.127  25.958  1.00  0.00    -0.376 OA
BRANCH   3   4
ATOM      4  C   UNL A   1      34.961  24.228  25.574  1.00  0.00     0.202 C 
BRANCH   4   5
ATOM      5  C   UNL A   1      33.448  24.030  25.699  1.00  0.00     0.261 C 
BRANCH   5   6
ATOM      6  O   UNL A   1      32.746  25.095  25.045  1.00  0.00    -0.463 OA
BRANCH   6   7
ATOM      7  C   UNL A   1      31.905  25.815  25.829  1.00  0.00     0.310 C 
ATOM      8  O   UNL A   1      31.427  25.458  26.886  1.00  0.00    -0.252 OA
BRANCH   7   9
ATOM      9  C   UNL A   1      31.727  27.196  25.312  1.00  0.00     0.118 C 
ATOM     10  C   UNL A   1      33.523  28.322  26.894  1.00  0.00     0.013 C 
ATOM     11  C   UNL A   1      32.487  28.429  25.800  1.00  0.00    -0.009 C 
ATOM     12  C   UNL A   1      31.721  29.728  25.871  1.00  0.00     0.013 C 
ATOM     13  C   UNL A   1      32.831  27.773  24.462  1.00  0.00     0.100 C 
BRANCH  13  14
ATOM     14  C   UNL A   1      32.594  28.362  23.110  1.00  0.00     0.228 C 
ATOM     15  O   UNL A   1      33.505  28.976  22.569  1.00  0.00    -0.274 OA
ATOM     16  N   UNL A   1      31.463  27.955  22.443  1.00  0.00    -0.325 N 
ATOM     17  H   UNL A   1      31.523  27.127  21.914  1.00  0.00     0.169 HD
BRANCH  16  18
ATOM     18  C   UNL A   1      30.224  28.627  22.454  1.00  0.00     0.050 A 
ATOM     19  C   UNL A   1      30.079  29.913  21.919  1.00  0.00     0.027 A 
ATOM     20  C   UNL A   1      29.083  28.001  23.009  1.00  0.00     0.023 A 
ATOM     21  C   UNL A   1      28.889  30.625  22.044  1.00  0.00     0.004 A 
ATOM     22  C   UNL A   1      27.895  28.734  23.106  1.00  0.00     0.047 A 
ATOM     23  C   UNL A   1      28.806  26.710  23.552  1.00  0.00     0.030 A 
ATOM     24  C   UNL A   1      27.778  30.057  22.667  1.00  0.00     0.027 A 
ATOM     25  N   UNL A   1      26.943  27.913  23.671  1.00  0.00    -0.361 N 
ATOM     26  C   UNL A   1      27.482  26.680  23.926  1.00  0.00     0.083 A 
ATOM     27  H   UNL A   1      26.014  28.175  23.862  1.00  0.00     0.166 HD
ENDBRANCH  16  18
ENDBRANCH  13  14
ENDBRANCH   7   9
ENDBRANCH   6   7
ENDBRANCH   5   6
ENDBRANCH   4   5
ENDBRANCH   3   4
ENDBRANCH   2   3
ENDBRANCH   1   2
BRANCH   1  28
ATOM     28  O   UNL A   1      37.530  20.946  25.288  1.00  0.00    -0.376 OA
BRANCH  28  29
ATOM     29  C   UNL A   1      38.455  19.876  25.166  1.00  0.00     0.202 C 
BRANCH  29  30
ATOM     30  C   UNL A   1      39.719  20.064  26.015  1.00  0.00     0.261 C 
BRANCH  30  31
ATOM     31  O   UNL A   1      40.935  19.603  25.398  1.00  0.00    -0.460 OA
BRANCH  31  32
ATOM     32  C   UNL A   1      42.057  19.668  26.154  1.00  0.00     0.338 C 
ATOM     33  O   UNL A   1      42.815  18.752  26.414  1.00  0.00    -0.246 OA
BRANCH  32  34
ATOM     34  C   UNL A   1      42.326  21.091  26.449  1.00  0.00     0.060 A 
ATOM     35  C   UNL A   1      42.370  22.004  25.388  1.00  0.00     0.016 A 
ATOM     36  C   UNL A   1      42.539  21.519  27.762  1.00  0.00     0.016 A 
ATOM     37  C   UNL A   1      42.664  23.346  25.636  1.00  0.00     0.010 A 
ATOM     38  C   UNL A   1      42.850  22.861  28.005  1.00  0.00     0.010 A 
ATOM     39  C   UNL A   1      42.945  23.774  26.941  1.00  0.00    -0.014 A 
BRANCH  39  40
ATOM     40  C   UNL A   1      43.522  25.126  27.162  1.00  0.00     0.031 A 
ATOM     41  C   UNL A   1      42.641  26.187  27.767  1.00  0.00     0.074 A 
ATOM     42  C   UNL A   1      44.802  25.403  26.859  1.00  0.00     0.049 A 
ATOM     43  N   UNL A   1      42.911  27.437  28.040  1.00  0.00    -0.248 NA
ATOM     44  C   UNL A   1      41.270  25.777  28.108  1.00  0.00     0.031 C 
ATOM     45  C   UNL A   1      45.760  24.456  26.291  1.00  0.00     0.029 A 
ATOM     46  N   UNL A   1      45.513  26.571  26.977  1.00  0.00    -0.354 N 
ATOM     47  C   UNL A   1      41.746  27.965  28.587  1.00  0.00     0.074 A 
ATOM     48  C   UNL A   1      40.758  26.907  28.570  1.00  0.00     0.031 C 
ATOM     49  C   UNL A   1      46.931  25.088  26.094  1.00  0.00     0.029 A 
ATOM     50  C   UNL A   1      46.801  26.487  26.502  1.00  0.00     0.049 A 
ATOM     51  H   UNL A   1      45.137  27.393  27.366  1.00  0.00     0.167 HD
ATOM     52  C   UNL A   1      41.520  29.213  29.067  1.00  0.00     0.034 A 
ATOM     53  C   UNL A   1      47.755  27.435  26.392  1.00  0.00     0.034 A 
ATOM     54  C   UNL A   1      42.501  30.270  29.056  1.00  0.00     0.049 A 
ATOM     55  C   UNL A   1      47.459  28.841  26.864  1.00  0.00     0.074 A 
ATOM     56  C   UNL A   1      42.375  31.569  29.515  1.00  0.00     0.029 A 
ATOM     57  N   UNL A   1      43.786  30.154  28.543  1.00  0.00    -0.354 N 
ATOM     58  N   UNL A   1      46.358  29.320  27.398  1.00  0.00    -0.248 NA
ATOM     59  C   UNL A   1      48.538  29.828  26.726  1.00  0.00     0.031 C 
ATOM     60  C   UNL A   1      43.560  32.256  29.222  1.00  0.00     0.029 A 
ATOM     61  C   UNL A   1      44.454  31.364  28.650  1.00  0.00     0.049 A 
ATOM     62  H   UNL A   1      44.168  29.331  28.160  1.00  0.00     0.167 HD
ATOM     63  C   UNL A   1      46.627  30.657  27.686  1.00  0.00     0.074 A 
ATOM     64  C   UNL A   1      47.996  30.902  27.282  1.00  0.00     0.031 C 
ATOM     65  C   UNL A   1      45.818  31.598  28.239  1.00  0.00     0.034 A 
BRANCH  52  66
ATOM     66  C   UNL A   1      40.136  29.505  29.594  1.00  0.00     0.023 A 
ATOM     67  C   UNL A   1      39.864  29.543  30.973  1.00  0.00     0.031 A 
ATOM     68  C   UNL A   1      39.066  29.707  28.705  1.00  0.00     0.131 A 
ATOM     69  C   UNL A   1      38.545  29.704  31.421  1.00  0.00     0.055 A 
ATOM     70  C   UNL A   1      37.767  29.944  29.159  1.00  0.00     0.041 A 
ATOM     71  F   UNL A   1      39.261  29.657  27.378  1.00  0.00    -0.206 F 
ATOM     72  C   UNL A   1      37.498  29.929  30.524  1.00  0.00     0.022 A 
BRANCH  69  73
ATOM     73  S   UNL A   1      38.195  29.468  33.185  1.00  0.00     0.124 S 
ATOM     74  O   UNL A   1      39.541  29.350  33.740  1.00  0.00    -0.237 OA
ATOM     75  O   UNL A   1      37.467  30.684  33.527  1.00  0.00    -0.237 OA
ATOM     76  O   UNL A   1      37.406  28.238  33.216  1.00  0.00    -0.744 OA
ENDBRANCH  69  73
ENDBRANCH  52  66
BRANCH  53  77
ATOM     77  C   UNL A   1      49.079  27.109  25.791  1.00  0.00     0.023 A 
ATOM     78  C   UNL A   1      50.174  26.759  26.596  1.00  0.00     0.031 A 
ATOM     79  C   UNL A   1      49.286  27.207  24.404  1.00  0.00     0.131 A 
ATOM     80  C   UNL A   1      51.437  26.567  26.015  1.00  0.00     0.055 A 
ATOM     81  C   UNL A   1      50.533  26.964  23.824  1.00  0.00     0.041 A 
ATOM     82  F   UNL A   1      48.273  27.539  23.589  1.00  0.00    -0.206 F 
ATOM     83  C   UNL A   1      51.622  26.655  24.633  1.00  0.00     0.022 A 
BRANCH  80  84
ATOM     84  S   UNL A   1      52.856  26.279  27.106  1.00  0.00     0.124 S 
ATOM     85  O   UNL A   1      52.299  26.617  28.410  1.00  0.00    -0.237 OA
ATOM     86  O   UNL A   1      53.127  24.865  26.869  1.00  0.00    -0.237 OA
ATOM     87  O   UNL A   1      53.869  27.202  26.597  1.00  0.00    -0.744 OA
ENDBRANCH  80  84
ENDBRANCH  53  77
BRANCH  65  88
ATOM     88  C   UNL A   1      46.414  32.963  28.490  1.00  0.00     0.023 A 
ATOM     89  C   UNL A   1      46.618  33.889  27.452  1.00  0.00     0.031 A 
ATOM     90  C   UNL A   1      46.791  33.338  29.793  1.00  0.00     0.131 A 
ATOM     91  C   UNL A   1      47.232  35.122  27.726  1.00  0.00     0.055 A 
ATOM     92  C   UNL A   1      47.347  34.589  30.068  1.00  0.00     0.041 A 
ATOM     93  F   UNL A   1      46.621  32.494  30.824  1.00  0.00    -0.206 F 
ATOM     94  C   UNL A   1      47.583  35.483  29.029  1.00  0.00     0.022 A 
BRANCH  91  95
ATOM     95  S   UNL A   1      47.652  36.214  26.338  1.00  0.00     0.124 S 
ATOM     96  O   UNL A   1      48.765  36.983  26.883  1.00  0.00    -0.237 OA
ATOM     97  O   UNL A   1      47.990  35.261  25.285  1.00  0.00    -0.237 OA
ATOM     98  O   UNL A   1      46.423  36.973  26.115  1.00  0.00    -0.744 OA
ENDBRANCH  91  95
ENDBRANCH  65  88
ENDBRANCH  39  40
ENDBRANCH  32  34
ENDBRANCH  31  32
ENDBRANCH  30  31
ENDBRANCH  29  30
ENDBRANCH  28  29
ENDBRANCH   1  28
TORSDOF 22
ENDMDL
MODEL 3
REMARK VINA RESULT:     -10.3      0.757      7.318
REMARK SMILES CC1(C)[C@H](C(=O)Nc2cccc3[nH]ccc23)[C@H]1C(=O)OCCOCCOCCOC(=O)c1ccc(-c2c3nc(c(-c4cc(S(=O)(=O)[O-])ccc4F)c4ccc([nH]4)c(-c4cc(S(=O)(=O)[O-])ccc4F)c4nc(c(-c5cc(S(=O)(=O)[O-])ccc5F)c5ccc2[nH]5)C=C4)C=C3)cc1
REMARK SMILES IDX 25 1 24 2 23 3 22 4 21 5 20 6 18 7 19 8 17 9 1 10 2 11 3 12
REMARK SMILES IDX 4 13 5 14 6 15 7 16 8 18 9 19 16 20 10 21 12 22 15 23 11 24
REMARK SMILES IDX 13 25 14 26 26 28 27 29 28 30 29 31 30 32 31 33 32 34 33 35
REMARK SMILES IDX 94 36 34 37 93 38 35 39 36 40 37 41 87 42 38 43 92 44 86 45
REMARK SMILES IDX 88 46 39 47 91 48 85 49 84 50 40 52 72 53 52 54 71 55 53 56
REMARK SMILES IDX 56 57 70 58 89 59 54 60 55 61 69 63 90 64 57 65 41 66 42 67
REMARK SMILES IDX 50 68 43 69 49 70 51 71 48 72 44 73 45 74 46 75 47 76 73 77
REMARK SMILES IDX 74 78 82 79 75 80 81 81 83 82 80 83 76 84 77 85 78 86 79 87
REMARK SMILES IDX 58 88 59 89 67 90 60 91 66 92 68 93 65 94 61 95 62 96 63 97
REMARK SMILES IDX 64 98
REMARK H PARENT 7 17 13 27 88 51 56 62
REMARK Flexibility Score: inf
ROOT
ATOM      1  C   UNL A   1      38.197  22.141  25.426  1.00  0.00     0.188 C 
ENDROOT
BRANCH   1   2
ATOM      2  C   UNL A   1      37.318  23.282  25.973  1.00  0.00     0.188 C 
BRANCH   2   3
ATOM      3  O   UNL A   1      35.904  23.098  26.027  1.00  0.00    -0.376 OA
BRANCH   3   4
ATOM      4  C   UNL A   1      35.055  24.111  25.491  1.00  0.00     0.202 C 
BRANCH   4   5
ATOM      5  C   UNL A   1      33.548  23.846  25.546  1.00  0.00     0.261 C 
BRANCH   5   6
ATOM      6  O   UNL A   1      32.825  24.921  24.934  1.00  0.00    -0.463 OA
BRANCH   6   7
ATOM      7  C   UNL A   1      31.984  25.605  25.750  1.00  0.00     0.310 C 
ATOM      8  O   UNL A   1      31.565  25.230  26.826  1.00  0.00    -0.252 OA
BRANCH   7   9
ATOM      9  C   UNL A   1      31.723  26.975  25.238  1.00  0.00     0.118 C 
ATOM     10  C   UNL A   1      33.402  28.208  26.869  1.00  0.00     0.013 C 
ATOM     11  C   UNL A   1      32.385  28.253  25.752  1.00  0.00    -0.009 C 
ATOM     12  C   UNL A   1      31.530  29.496  25.815  1.00  0.00     0.013 C 
ATOM     13  C   UNL A   1      32.804  27.634  24.418  1.00  0.00     0.100 C 
BRANCH  13  14
ATOM     14  C   UNL A   1      32.557  28.216  23.065  1.00  0.00     0.228 C 
ATOM     15  O   UNL A   1      33.480  28.784  22.494  1.00  0.00    -0.274 OA
ATOM     16  N   UNL A   1      31.393  27.851  22.433  1.00  0.00    -0.325 N 
ATOM     17  H   UNL A   1      31.404  27.015  21.913  1.00  0.00     0.169 HD
BRANCH  16  18
ATOM     18  C   UNL A   1      30.185  28.576  22.466  1.00  0.00     0.050 A 
ATOM     19  C   UNL A   1      30.097  29.883  21.974  1.00  0.00     0.027 A 
ATOM     20  C   UNL A   1      29.016  27.982  23.001  1.00  0.00     0.023 A 
ATOM     21  C   UNL A   1      28.938  30.643  22.123  1.00  0.00     0.004 A 
ATOM     22  C   UNL A   1      27.862  28.763  23.123  1.00  0.00     0.047 A 
ATOM     23  C   UNL A   1      28.683  26.688  23.502  1.00  0.00     0.030 A 
ATOM     24  C   UNL A   1      27.804  30.103  22.728  1.00  0.00     0.027 A 
ATOM     25  N   UNL A   1      26.875  27.967  23.661  1.00  0.00    -0.361 N 
ATOM     26  C   UNL A   1      27.359  26.704  23.876  1.00  0.00     0.083 A 
ATOM     27  H   UNL A   1      25.958  28.262  23.862  1.00  0.00     0.166 HD
ENDBRANCH  16  18
ENDBRANCH  13  14
ENDBRANCH   7   9
ENDBRANCH   6   7
ENDBRANCH   5   6
ENDBRANCH   4   5
ENDBRANCH   3   4
ENDBRANCH   2   3
ENDBRANCH   1   2
BRANCH   1  28
ATOM     28  O   UNL A   1      37.549  20.880  25.373  1.00  0.00    -0.376 OA
BRANCH  28  29
ATOM     29  C   UNL A   1      38.413  19.753  25.351  1.00  0.00     0.202 C 
BRANCH  29  30
ATOM     30  C   UNL A   1      39.719  19.971  26.125  1.00  0.00     0.261 C 
BRANCH  30  31
ATOM     31  O   UNL A   1      40.848  19.232  25.625  1.00  0.00    -0.460 OA
BRANCH  31  32
ATOM     32  C   UNL A   1      42.016  19.391  26.292  1.00  0.00     0.338 C 
ATOM     33  O   UNL A   1      42.860  18.538  26.497  1.00  0.00    -0.246 OA
BRANCH  32  34
ATOM     34  C   UNL A   1      42.197  20.834  26.558  1.00  0.00     0.060 A 
ATOM     35  C   UNL A   1      42.431  21.695  25.479  1.00  0.00     0.016 A 
ATOM     36  C   UNL A   1      42.142  21.330  27.863  1.00  0.00     0.016 A 
ATOM     37  C   UNL A   1      42.646  23.055  25.708  1.00  0.00     0.010 A 
ATOM     38  C   UNL A   1      42.376  22.690  28.091  1.00  0.00     0.010 A 
ATOM     39  C   UNL A   1      42.659  23.553  27.018  1.00  0.00    -0.014 A 
BRANCH  39  40
ATOM     40  C   UNL A   1      43.157  24.930  27.275  1.00  0.00     0.031 A 
ATOM     41  C   UNL A   1      42.228  25.914  27.935  1.00  0.00     0.074 A 
ATOM     42  C   UNL A   1      44.412  25.295  26.957  1.00  0.00     0.049 A 
ATOM     43  N   UNL A   1      42.427  27.168  28.245  1.00  0.00    -0.248 NA
ATOM     44  C   UNL A   1      40.892  25.409  28.288  1.00  0.00     0.031 C 
ATOM     45  C   UNL A   1      45.413  24.430  26.337  1.00  0.00     0.029 A 
ATOM     46  N   UNL A   1      45.053  26.501  27.102  1.00  0.00    -0.354 N 
ATOM     47  C   UNL A   1      41.244  27.604  28.834  1.00  0.00     0.074 A 
ATOM     48  C   UNL A   1      40.322  26.488  28.799  1.00  0.00     0.031 C 
ATOM     49  C   UNL A   1      46.538  25.139  26.140  1.00  0.00     0.029 A 
ATOM     50  C   UNL A   1      46.333  26.512  26.599  1.00  0.00     0.049 A 
ATOM     51  H   UNL A   1      44.635  27.284  27.527  1.00  0.00     0.167 HD
ATOM     52  C   UNL A   1      40.953  28.819  29.362  1.00  0.00     0.034 A 
ATOM     53  C   UNL A   1      47.224  27.520  26.504  1.00  0.00     0.034 A 
ATOM     54  C   UNL A   1      41.867  29.934  29.368  1.00  0.00     0.049 A 
ATOM     55  C   UNL A   1      46.853  28.889  27.030  1.00  0.00     0.074 A 
ATOM     56  C   UNL A   1      41.672  31.207  29.876  1.00  0.00     0.029 A 
ATOM     57  N   UNL A   1      43.145  29.915  28.827  1.00  0.00    -0.354 N 
ATOM     58  N   UNL A   1      45.737  29.281  27.602  1.00  0.00    -0.248 NA
ATOM     59  C   UNL A   1      47.867  29.945  26.906  1.00  0.00     0.031 C 
ATOM     60  C   UNL A   1      42.806  31.975  29.583  1.00  0.00     0.029 A 
ATOM     61  C   UNL A   1      43.740  31.160  28.963  1.00  0.00     0.049 A 
ATOM     62  H   UNL A   1      43.568  29.131  28.407  1.00  0.00     0.167 HD
ATOM     63  C   UNL A   1      45.931  30.621  27.932  1.00  0.00     0.074 A 
ATOM     64  C   UNL A   1      47.272  30.964  27.510  1.00  0.00     0.031 C 
ATOM     65  C   UNL A   1      45.078  31.491  28.534  1.00  0.00     0.034 A 
BRANCH  52  66
ATOM     66  C   UNL A   1      39.565  29.007  29.926  1.00  0.00     0.023 A 
ATOM     67  C   UNL A   1      38.578  29.729  29.232  1.00  0.00     0.031 A 
ATOM     68  C   UNL A   1      39.238  28.494  31.193  1.00  0.00     0.131 A 
ATOM     69  C   UNL A   1      37.339  29.980  29.838  1.00  0.00     0.055 A 
ATOM     70  C   UNL A   1      37.976  28.681  31.759  1.00  0.00     0.041 A 
ATOM     71  F   UNL A   1      40.148  27.818  31.912  1.00  0.00    -0.206 F 
ATOM     72  C   UNL A   1      37.022  29.440  31.088  1.00  0.00     0.022 A 
BRANCH  69  73
ATOM     73  S   UNL A   1      36.202  31.144  29.038  1.00  0.00     0.124 S 
ATOM     74  O   UNL A   1      35.434  31.638  30.179  1.00  0.00    -0.237 OA
ATOM     75  O   UNL A   1      37.114  32.099  28.420  1.00  0.00    -0.237 OA
ATOM     76  O   UNL A   1      35.451  30.305  28.106  1.00  0.00    -0.744 OA
ENDBRANCH  69  73
ENDBRANCH  52  66
BRANCH  53  77
ATOM     77  C   UNL A   1      48.553  27.297  25.865  1.00  0.00     0.023 A 
ATOM     78  C   UNL A   1      48.817  27.751  24.564  1.00  0.00     0.031 A 
ATOM     79  C   UNL A   1      49.558  26.568  26.525  1.00  0.00     0.131 A 
ATOM     80  C   UNL A   1      50.034  27.430  23.944  1.00  0.00     0.055 A 
ATOM     81  C   UNL A   1      50.788  26.295  25.924  1.00  0.00     0.041 A 
ATOM     82  F   UNL A   1      49.356  26.109  27.770  1.00  0.00    -0.206 F 
ATOM     83  C   UNL A   1      51.026  26.716  24.619  1.00  0.00     0.022 A 
BRANCH  80  84
ATOM     84  S   UNL A   1      50.269  27.894  22.207  1.00  0.00     0.124 S 
ATOM     85  O   UNL A   1      50.991  29.155  22.334  1.00  0.00    -0.237 OA
ATOM     86  O   UNL A   1      51.036  26.761  21.701  1.00  0.00    -0.237 OA
ATOM     87  O   UNL A   1      48.903  28.002  21.697  1.00  0.00    -0.744 OA
ENDBRANCH  80  84
ENDBRANCH  53  77
BRANCH  65  88
ATOM     88  C   UNL A   1      45.595  32.881  28.820  1.00  0.00     0.023 A 
ATOM     89  C   UNL A   1      45.438  33.938  27.907  1.00  0.00     0.031 A 
ATOM     90  C   UNL A   1      46.264  33.148  30.030  1.00  0.00     0.131 A 
ATOM     91  C   UNL A   1      45.990  35.197  28.192  1.00  0.00     0.055 A 
ATOM     92  C   UNL A   1      46.759  34.417  30.333  1.00  0.00     0.041 A 
ATOM     93  F   UNL A   1      46.444  32.177  30.940  1.00  0.00    -0.206 F 
ATOM     94  C   UNL A   1      46.635  35.447  29.405  1.00  0.00     0.022 A 
BRANCH  91  95
ATOM     95  S   UNL A   1      45.934  36.483  26.913  1.00  0.00     0.124 S 
ATOM     96  O   UNL A   1      46.451  35.774  25.747  1.00  0.00    -0.237 OA
ATOM     97  O   UNL A   1      44.515  36.823  26.875  1.00  0.00    -0.237 OA
ATOM     98  O   UNL A   1      46.808  37.529  27.441  1.00  0.00    -0.744 OA
ENDBRANCH  91  95
ENDBRANCH  65  88
ENDBRANCH  39  40
ENDBRANCH  32  34
ENDBRANCH  31  32
ENDBRANCH  30  31
ENDBRANCH  29  30
ENDBRANCH  28  29
ENDBRANCH   1  28
TORSDOF 22
ENDMDL
