MODEL 1
REMARK VINA RESULT:     -11.5      0.000      0.000
REMARK SMILES Cc1cc2c(c(C)c1Cl)C=C(C(=O)OCCOCCOCCOC(=O)c1ccc(-c3c4nc(c(-c5cc(S(=O)(=O)[O-])ccc5F)c5ccc([nH]5)c(-c5cc(S(=O)(=O)[O-])ccc5F)c5nc(c(-c6cc(S(=O)(=O)[O-])ccc6F)c6ccc3[nH]6)C=C5)C=C4)cc1)[C@@H](C(F)(F)F)O2
REMARK SMILES IDX 19 1 18 2 17 3 16 4 15 5 14 6 12 7 13 8 11 9 1 10 2 11 3 12
REMARK SMILES IDX 8 13 4 14 6 15 9 16 5 17 94 18 7 19 10 20 89 21 90 22 91 23
REMARK SMILES IDX 92 24 93 25 20 26 21 27 22 28 23 29 24 30 25 31 26 32 27 33
REMARK SMILES IDX 88 34 28 35 87 36 29 37 30 38 31 39 81 40 32 41 86 42 80 43
REMARK SMILES IDX 82 44 33 45 85 46 79 47 78 48 34 50 66 51 46 52 65 53 47 54
REMARK SMILES IDX 50 55 64 56 83 57 48 58 49 59 63 61 84 62 51 63 35 64 36 65
REMARK SMILES IDX 44 66 37 67 43 68 45 69 42 70 38 71 39 72 40 73 41 74 67 75
REMARK SMILES IDX 68 76 76 77 69 78 75 79 77 80 74 81 70 82 71 83 72 84 73 85
REMARK SMILES IDX 52 86 53 87 61 88 54 89 60 90 62 91 59 92 55 93 56 94 57 95
REMARK SMILES IDX 58 96
REMARK H PARENT 82 49 50 60
REMARK Flexibility Score: inf
ROOT
ATOM      1  C   UNL A   1      42.316  20.051  26.473  1.00  0.00     0.188 C 
ENDROOT
BRANCH   1   2
ATOM      2  C   UNL A   1      40.783  20.237  26.458  1.00  0.00     0.188 C 
BRANCH   2   3
ATOM      3  O   UNL A   1      40.221  21.334  27.139  1.00  0.00    -0.376 OA
BRANCH   3   4
ATOM      4  C   UNL A   1      39.388  22.282  26.500  1.00  0.00     0.202 C 
BRANCH   4   5
ATOM      5  C   UNL A   1      38.118  21.965  25.694  1.00  0.00     0.261 C 
BRANCH   5   6
ATOM      6  O   UNL A   1      37.272  23.062  25.360  1.00  0.00    -0.460 OA
BRANCH   6   7
ATOM      7  C   UNL A   1      36.580  22.920  24.204  1.00  0.00     0.338 C 
ATOM      8  O   UNL A   1      37.023  22.550  23.129  1.00  0.00    -0.246 OA
BRANCH   7   9
ATOM      9  C   UNL A   1      35.154  23.195  24.455  1.00  0.00     0.087 C 
ATOM     10  C   UNL A   1      29.434  25.174  26.724  1.00  0.00     0.046 C 
ATOM     11  C   UNL A   1      30.815  25.074  26.136  1.00  0.00    -0.028 A 
ATOM     12  C   UNL A   1      31.219  23.863  25.564  1.00  0.00     0.052 A 
ATOM     13  C   UNL A   1      31.729  26.146  26.178  1.00  0.00     0.047 A 
ATOM     14  C   UNL A   1      32.522  23.689  25.108  1.00  0.00     0.128 A 
ATOM     15  C   UNL A   1      33.049  25.999  25.689  1.00  0.00    -0.021 A 
ATOM     16  Cl  UNL A   1      31.203  27.647  26.876  1.00  0.00    -0.084 Cl
ATOM     17  C   UNL A   1      33.453  24.731  25.201  1.00  0.00     0.022 A 
ATOM     18  O   UNL A   1      32.787  22.452  24.592  1.00  0.00    -0.475 OA
ATOM     19  C   UNL A   1      34.029  27.152  25.692  1.00  0.00     0.047 C 
ATOM     20  C   UNL A   1      34.842  24.435  24.851  1.00  0.00     0.027 C 
ATOM     21  C   UNL A   1      34.152  22.095  24.266  1.00  0.00     0.316 C 
BRANCH  21  22
ATOM     22  C   UNL A   1      34.512  20.819  25.042  1.00  0.00     0.430 C 
ATOM     23  F   UNL A   1      33.496  19.921  25.006  1.00  0.00    -0.167 F 
ATOM     24  F   UNL A   1      35.590  20.192  24.514  1.00  0.00    -0.167 F 
ATOM     25  F   UNL A   1      34.786  21.068  26.342  1.00  0.00    -0.167 F 
ENDBRANCH  21  22
ENDBRANCH   7   9
ENDBRANCH   6   7
ENDBRANCH   5   6
ENDBRANCH   4   5
ENDBRANCH   3   4
ENDBRANCH   2   3
ENDBRANCH   1   2
BRANCH   1  26
ATOM     26  O   UNL A   1      43.064  20.226  25.279  1.00  0.00    -0.376 OA
BRANCH  26  27
ATOM     27  C   UNL A   1      44.194  21.089  25.312  1.00  0.00     0.202 C 
BRANCH  27  28
ATOM     28  C   UNL A   1      44.295  22.235  24.297  1.00  0.00     0.261 C 
BRANCH  28  29
ATOM     29  O   UNL A   1      43.508  23.384  24.656  1.00  0.00    -0.460 OA
BRANCH  29  30
ATOM     30  C   UNL A   1      44.218  24.469  25.058  1.00  0.00     0.338 C 
ATOM     31  O   UNL A   1      45.293  24.846  24.628  1.00  0.00    -0.246 OA
BRANCH  30  32
ATOM     32  C   UNL A   1      43.389  25.274  25.978  1.00  0.00     0.060 A 
ATOM     33  C   UNL A   1      43.750  26.612  26.187  1.00  0.00     0.016 A 
ATOM     34  C   UNL A   1      42.297  24.719  26.646  1.00  0.00     0.016 A 
ATOM     35  C   UNL A   1      43.020  27.399  27.074  1.00  0.00     0.010 A 
ATOM     36  C   UNL A   1      41.585  25.502  27.562  1.00  0.00     0.010 A 
ATOM     37  C   UNL A   1      41.957  26.838  27.794  1.00  0.00    -0.014 A 
BRANCH  37  38
ATOM     38  C   UNL A   1      41.380  27.603  28.926  1.00  0.00     0.031 A 
ATOM     39  C   UNL A   1      42.149  27.648  30.218  1.00  0.00     0.074 A 
ATOM     40  C   UNL A   1      40.242  28.307  28.790  1.00  0.00     0.049 A 
ATOM     41  N   UNL A   1      41.869  28.278  31.328  1.00  0.00    -0.248 NA
ATOM     42  C   UNL A   1      43.410  26.888  30.255  1.00  0.00     0.031 C 
ATOM     43  C   UNL A   1      39.442  28.395  27.569  1.00  0.00     0.029 A 
ATOM     44  N   UNL A   1      39.567  29.093  29.691  1.00  0.00    -0.354 N 
ATOM     45  C   UNL A   1      42.930  28.015  32.187  1.00  0.00     0.074 A 
ATOM     46  C   UNL A   1      43.837  27.134  31.484  1.00  0.00     0.031 C 
ATOM     47  C   UNL A   1      38.387  29.199  27.797  1.00  0.00     0.029 A 
ATOM     48  C   UNL A   1      38.419  29.657  29.186  1.00  0.00     0.049 A 
ATOM     49  H   UNL A   1      39.877  29.241  30.614  1.00  0.00     0.167 HD
ATOM     50  C   UNL A   1      43.138  28.478  33.441  1.00  0.00     0.034 A 
ATOM     51  C   UNL A   1      37.495  30.439  29.783  1.00  0.00     0.034 A 
ATOM     52  C   UNL A   1      42.221  29.329  34.148  1.00  0.00     0.049 A 
ATOM     53  C   UNL A   1      37.674  30.819  31.234  1.00  0.00     0.074 A 
ATOM     54  C   UNL A   1      42.334  29.843  35.427  1.00  0.00     0.029 A 
ATOM     55  N   UNL A   1      41.011  29.781  33.642  1.00  0.00    -0.354 N 
ATOM     56  N   UNL A   1      38.674  30.547  32.040  1.00  0.00    -0.248 NA
ATOM     57  C   UNL A   1      36.596  31.600  31.859  1.00  0.00     0.031 C 
ATOM     58  C   UNL A   1      41.165  30.552  35.719  1.00  0.00     0.029 A 
ATOM     59  C   UNL A   1      40.350  30.533  34.598  1.00  0.00     0.049 A 
ATOM     60  H   UNL A   1      40.673  29.596  32.736  1.00  0.00     0.167 HD
ATOM     61  C   UNL A   1      38.352  31.138  33.260  1.00  0.00     0.074 A 
ATOM     62  C   UNL A   1      37.068  31.784  33.085  1.00  0.00     0.031 C 
ATOM     63  C   UNL A   1      39.060  31.152  34.416  1.00  0.00     0.034 A 
BRANCH  50  64
ATOM     64  C   UNL A   1      44.394  28.033  34.140  1.00  0.00     0.023 A 
ATOM     65  C   UNL A   1      44.414  26.878  34.938  1.00  0.00     0.031 A 
ATOM     66  C   UNL A   1      45.579  28.776  34.011  1.00  0.00     0.131 A 
ATOM     67  C   UNL A   1      45.589  26.521  35.614  1.00  0.00     0.055 A 
ATOM     68  C   UNL A   1      46.762  28.381  34.638  1.00  0.00     0.041 A 
ATOM     69  F   UNL A   1      45.603  29.901  33.277  1.00  0.00    -0.206 F 
ATOM     70  C   UNL A   1      46.769  27.251  35.451  1.00  0.00     0.022 A 
BRANCH  67  71
ATOM     71  S   UNL A   1      45.534  25.132  36.779  1.00  0.00     0.124 S 
ATOM     72  O   UNL A   1      46.741  24.394  36.413  1.00  0.00    -0.237 OA
ATOM     73  O   UNL A   1      45.562  25.802  38.074  1.00  0.00    -0.237 OA
ATOM     74  O   UNL A   1      44.277  24.461  36.453  1.00  0.00    -0.744 OA
ENDBRANCH  67  71
ENDBRANCH  50  64
BRANCH  51  75
ATOM     75  C   UNL A   1      36.289  30.885  29.032  1.00  0.00     0.023 A 
ATOM     76  C   UNL A   1      35.882  32.228  29.041  1.00  0.00     0.031 A 
ATOM     77  C   UNL A   1      35.500  29.959  28.325  1.00  0.00     0.131 A 
ATOM     78  C   UNL A   1      34.705  32.605  28.375  1.00  0.00     0.055 A 
ATOM     79  C   UNL A   1      34.352  30.344  27.634  1.00  0.00     0.041 A 
ATOM     80  F   UNL A   1      35.846  28.662  28.291  1.00  0.00    -0.206 F 
ATOM     81  C   UNL A   1      33.944  31.674  27.662  1.00  0.00     0.022 A 
BRANCH  78  82
ATOM     82  S   UNL A   1      34.154  34.331  28.482  1.00  0.00     0.124 S 
ATOM     83  O   UNL A   1      32.704  34.183  28.418  1.00  0.00    -0.237 OA
ATOM     84  O   UNL A   1      34.702  34.747  29.768  1.00  0.00    -0.237 OA
ATOM     85  O   UNL A   1      34.771  34.957  27.314  1.00  0.00    -0.744 OA
ENDBRANCH  78  82
ENDBRANCH  51  75
BRANCH  63  86
ATOM     86  C   UNL A   1      38.475  31.888  35.591  1.00  0.00     0.023 A 
ATOM     87  C   UNL A   1      37.879  31.200  36.660  1.00  0.00     0.031 A 
ATOM     88  C   UNL A   1      38.595  33.287  35.681  1.00  0.00     0.131 A 
ATOM     89  C   UNL A   1      37.410  31.915  37.774  1.00  0.00     0.055 A 
ATOM     90  C   UNL A   1      38.164  33.988  36.807  1.00  0.00     0.041 A 
ATOM     91  F   UNL A   1      39.165  33.987  34.687  1.00  0.00    -0.206 F 
ATOM     92  C   UNL A   1      37.567  33.302  37.861  1.00  0.00     0.022 A 
BRANCH  89  93
ATOM     93  S   UNL A   1      36.593  31.010  39.115  1.00  0.00     0.124 S 
ATOM     94  O   UNL A   1      35.408  31.828  39.353  1.00  0.00    -0.237 OA
ATOM     95  O   UNL A   1      36.352  29.701  38.515  1.00  0.00    -0.237 OA
ATOM     96  O   UNL A   1      37.582  31.022  40.191  1.00  0.00    -0.744 OA
ENDBRANCH  89  93
ENDBRANCH  63  86
ENDBRANCH  37  38
ENDBRANCH  30  32
ENDBRANCH  29  30
ENDBRANCH  28  29
ENDBRANCH  27  28
ENDBRANCH  26  27
ENDBRANCH   1  26
TORSDOF 21
ENDMDL
MODEL 2
REMARK VINA RESULT:     -11.2      2.739      8.856
REMARK SMILES Cc1cc2c(c(C)c1Cl)C=C(C(=O)OCCOCCOCCOC(=O)c1ccc(-c3c4nc(c(-c5cc(S(=O)(=O)[O-])ccc5F)c5ccc([nH]5)c(-c5cc(S(=O)(=O)[O-])ccc5F)c5nc(c(-c6cc(S(=O)(=O)[O-])ccc6F)c6ccc3[nH]6)C=C5)C=C4)cc1)[C@@H](C(F)(F)F)O2
REMARK SMILES IDX 19 1 18 2 17 3 16 4 15 5 14 6 12 7 13 8 11 9 1 10 2 11 3 12
REMARK SMILES IDX 8 13 4 14 6 15 9 16 5 17 94 18 7 19 10 20 89 21 90 22 91 23
REMARK SMILES IDX 92 24 93 25 20 26 21 27 22 28 23 29 24 30 25 31 26 32 27 33
REMARK SMILES IDX 88 34 28 35 87 36 29 37 30 38 31 39 81 40 32 41 86 42 80 43
REMARK SMILES IDX 82 44 33 45 85 46 79 47 78 48 34 50 66 51 46 52 65 53 47 54
REMARK SMILES IDX 50 55 64 56 83 57 48 58 49 59 63 61 84 62 51 63 35 64 36 65
REMARK SMILES IDX 44 66 37 67 43 68 45 69 42 70 38 71 39 72 40 73 41 74 67 75
REMARK SMILES IDX 68 76 76 77 69 78 75 79 77 80 74 81 70 82 71 83 72 84 73 85
REMARK SMILES IDX 52 86 53 87 61 88 54 89 60 90 62 91 59 92 55 93 56 94 57 95
REMARK SMILES IDX 58 96
REMARK H PARENT 82 49 50 60
REMARK Flexibility Score: inf
ROOT
ATOM      1  C   UNL A   1      30.404  29.644  23.983  1.00  0.00     0.188 C 
ENDROOT
BRANCH   1   2
ATOM      2  C   UNL A   1      29.776  29.015  22.721  1.00  0.00     0.188 C 
BRANCH   2   3
ATOM      3  O   UNL A   1      30.486  28.013  22.031  1.00  0.00    -0.376 OA
BRANCH   3   4
ATOM      4  C   UNL A   1      31.852  27.741  22.276  1.00  0.00     0.202 C 
BRANCH   4   5
ATOM      5  C   UNL A   1      32.479  26.346  22.421  1.00  0.00     0.261 C 
BRANCH   5   6
ATOM      6  O   UNL A   1      32.520  25.786  23.731  1.00  0.00    -0.460 OA
BRANCH   6   7
ATOM      7  C   UNL A   1      31.490  24.959  24.033  1.00  0.00     0.338 C 
ATOM      8  O   UNL A   1      30.300  25.220  23.964  1.00  0.00    -0.246 OA
BRANCH   7   9
ATOM      9  C   UNL A   1      32.022  23.627  24.376  1.00  0.00     0.087 C 
ATOM     10  C   UNL A   1      33.132  17.307  25.157  1.00  0.00     0.046 C 
ATOM     11  C   UNL A   1      32.925  18.698  24.619  1.00  0.00    -0.028 A 
ATOM     12  C   UNL A   1      33.125  19.788  25.472  1.00  0.00     0.052 A 
ATOM     13  C   UNL A   1      32.498  18.935  23.296  1.00  0.00     0.047 A 
ATOM     14  C   UNL A   1      32.839  21.084  25.052  1.00  0.00     0.128 A 
ATOM     15  C   UNL A   1      32.234  20.249  22.841  1.00  0.00    -0.021 A 
ATOM     16  Cl  UNL A   1      32.273  17.570  22.247  1.00  0.00    -0.084 Cl
ATOM     17  C   UNL A   1      32.358  21.323  23.759  1.00  0.00     0.022 A 
ATOM     18  O   UNL A   1      33.059  22.050  25.992  1.00  0.00    -0.475 OA
ATOM     19  C   UNL A   1      31.813  20.524  21.414  1.00  0.00     0.047 C 
ATOM     20  C   UNL A   1      31.929  22.682  23.434  1.00  0.00     0.027 C 
ATOM     21  C   UNL A   1      32.617  23.406  25.735  1.00  0.00     0.316 C 
BRANCH  21  22
ATOM     22  C   UNL A   1      31.679  23.828  26.875  1.00  0.00     0.430 C 
ATOM     23  F   UNL A   1      32.066  23.283  28.055  1.00  0.00    -0.167 F 
ATOM     24  F   UNL A   1      31.678  25.169  27.060  1.00  0.00    -0.167 F 
ATOM     25  F   UNL A   1      30.400  23.449  26.656  1.00  0.00    -0.167 F 
ENDBRANCH  21  22
ENDBRANCH   7   9
ENDBRANCH   6   7
ENDBRANCH   5   6
ENDBRANCH   4   5
ENDBRANCH   3   4
ENDBRANCH   2   3
ENDBRANCH   1   2
BRANCH   1  26
ATOM     26  O   UNL A   1      29.991  30.932  24.415  1.00  0.00    -0.376 OA
BRANCH  26  27
ATOM     27  C   UNL A   1      30.726  31.562  25.457  1.00  0.00     0.202 C 
BRANCH  27  28
ATOM     28  C   UNL A   1      31.525  30.700  26.442  1.00  0.00     0.261 C 
BRANCH  28  29
ATOM     29  O   UNL A   1      32.945  30.913  26.363  1.00  0.00    -0.460 OA
BRANCH  29  30
ATOM     30  C   UNL A   1      33.427  31.902  27.158  1.00  0.00     0.338 C 
ATOM     31  O   UNL A   1      32.858  32.928  27.483  1.00  0.00    -0.246 OA
BRANCH  30  32
ATOM     32  C   UNL A   1      34.700  31.458  27.761  1.00  0.00     0.060 A 
ATOM     33  C   UNL A   1      34.817  30.113  28.135  1.00  0.00     0.016 A 
ATOM     34  C   UNL A   1      35.748  32.352  27.983  1.00  0.00     0.016 A 
ATOM     35  C   UNL A   1      35.984  29.657  28.742  1.00  0.00     0.010 A 
ATOM     36  C   UNL A   1      36.909  31.899  28.623  1.00  0.00     0.010 A 
ATOM     37  C   UNL A   1      37.022  30.556  29.023  1.00  0.00    -0.014 A 
BRANCH  37  38
ATOM     38  C   UNL A   1      38.125  30.116  29.911  1.00  0.00     0.031 A 
ATOM     39  C   UNL A   1      39.166  29.189  29.346  1.00  0.00     0.074 A 
ATOM     40  C   UNL A   1      38.247  30.589  31.165  1.00  0.00     0.049 A 
ATOM     41  N   UNL A   1      40.238  28.702  29.914  1.00  0.00    -0.248 NA
ATOM     42  C   UNL A   1      38.976  28.767  27.948  1.00  0.00     0.031 C 
ATOM     43  C   UNL A   1      37.339  31.542  31.802  1.00  0.00     0.029 A 
ATOM     44  N   UNL A   1      39.196  30.336  32.125  1.00  0.00    -0.354 N 
ATOM     45  C   UNL A   1      40.865  27.938  28.937  1.00  0.00     0.074 A 
ATOM     46  C   UNL A   1      40.032  27.992  27.755  1.00  0.00     0.031 C 
ATOM     47  C   UNL A   1      37.781  31.799  33.046  1.00  0.00     0.029 A 
ATOM     48  C   UNL A   1      38.984  31.007  33.306  1.00  0.00     0.049 A 
ATOM     49  H   UNL A   1      39.958  29.730  31.980  1.00  0.00     0.167 HD
ATOM     50  C   UNL A   1      42.036  27.265  29.012  1.00  0.00     0.034 A 
ATOM     51  C   UNL A   1      39.674  30.972  34.465  1.00  0.00     0.034 A 
ATOM     52  C   UNL A   1      42.847  27.188  30.196  1.00  0.00     0.049 A 
ATOM     53  C   UNL A   1      40.897  30.093  34.571  1.00  0.00     0.074 A 
ATOM     54  C   UNL A   1      44.046  26.521  30.378  1.00  0.00     0.029 A 
ATOM     55  N   UNL A   1      42.535  27.786  31.408  1.00  0.00    -0.354 N 
ATOM     56  N   UNL A   1      41.469  29.360  33.644  1.00  0.00    -0.248 NA
ATOM     57  C   UNL A   1      41.561  30.025  35.883  1.00  0.00     0.031 C 
ATOM     58  C   UNL A   1      44.425  26.662  31.716  1.00  0.00     0.029 A 
ATOM     59  C   UNL A   1      43.497  27.470  32.353  1.00  0.00     0.049 A 
ATOM     60  H   UNL A   1      41.747  28.353  31.572  1.00  0.00     0.167 HD
ATOM     61  C   UNL A   1      42.567  28.760  34.255  1.00  0.00     0.074 A 
ATOM     62  C   UNL A   1      42.582  29.217  35.629  1.00  0.00     0.031 C 
ATOM     63  C   UNL A   1      43.485  27.914  33.725  1.00  0.00     0.034 A 
BRANCH  50  64
ATOM     64  C   UNL A   1      42.486  26.525  27.781  1.00  0.00     0.023 A 
ATOM     65  C   UNL A   1      42.126  25.185  27.566  1.00  0.00     0.031 A 
ATOM     66  C   UNL A   1      43.285  27.164  26.820  1.00  0.00     0.131 A 
ATOM     67  C   UNL A   1      42.603  24.511  26.433  1.00  0.00     0.055 A 
ATOM     68  C   UNL A   1      43.706  26.506  25.663  1.00  0.00     0.041 A 
ATOM     69  F   UNL A   1      43.673  28.438  26.993  1.00  0.00    -0.206 F 
ATOM     70  C   UNL A   1      43.371  25.169  25.469  1.00  0.00     0.022 A 
BRANCH  67  71
ATOM     71  S   UNL A   1      42.276  22.734  26.275  1.00  0.00     0.124 S 
ATOM     72  O   UNL A   1      43.077  22.190  27.369  1.00  0.00    -0.237 OA
ATOM     73  O   UNL A   1      40.829  22.661  26.445  1.00  0.00    -0.237 OA
ATOM     74  O   UNL A   1      42.761  22.414  24.935  1.00  0.00    -0.744 OA
ENDBRANCH  67  71
ENDBRANCH  50  64
BRANCH  51  75
ATOM     75  C   UNL A   1      39.207  31.757  35.642  1.00  0.00     0.023 A 
ATOM     76  C   UNL A   1      38.434  31.161  36.652  1.00  0.00     0.031 A 
ATOM     77  C   UNL A   1      39.495  33.129  35.751  1.00  0.00     0.131 A 
ATOM     78  C   UNL A   1      37.956  31.943  37.716  1.00  0.00     0.055 A 
ATOM     79  C   UNL A   1      39.049  33.894  36.829  1.00  0.00     0.041 A 
ATOM     80  F   UNL A   1      40.226  33.744  34.807  1.00  0.00    -0.206 F 
ATOM     81  C   UNL A   1      38.268  33.302  37.817  1.00  0.00     0.022 A 
BRANCH  78  82
ATOM     82  S   UNL A   1      36.883  31.168  38.957  1.00  0.00     0.124 S 
ATOM     83  O   UNL A   1      36.691  29.837  38.391  1.00  0.00    -0.237 OA
ATOM     84  O   UNL A   1      37.704  31.243  40.160  1.00  0.00    -0.237 OA
ATOM     85  O   UNL A   1      35.697  32.022  38.962  1.00  0.00    -0.744 OA
ENDBRANCH  78  82
ENDBRANCH  51  75
BRANCH  63  86
ATOM     86  C   UNL A   1      44.591  27.423  34.620  1.00  0.00     0.023 A 
ATOM     87  C   UNL A   1      44.530  26.159  35.228  1.00  0.00     0.031 A 
ATOM     88  C   UNL A   1      45.755  28.193  34.794  1.00  0.00     0.131 A 
ATOM     89  C   UNL A   1      45.612  25.703  35.996  1.00  0.00     0.055 A 
ATOM     90  C   UNL A   1      46.844  27.719  35.525  1.00  0.00     0.041 A 
ATOM     91  F   UNL A   1      45.863  29.404  34.225  1.00  0.00    -0.206 F 
ATOM     92  C   UNL A   1      46.776  26.468  36.132  1.00  0.00     0.022 A 
BRANCH  89  93
ATOM     93  S   UNL A   1      45.486  24.092  36.818  1.00  0.00     0.124 S 
ATOM     94  O   UNL A   1      46.846  23.578  36.686  1.00  0.00    -0.237 OA
ATOM     95  O   UNL A   1      45.071  24.456  38.170  1.00  0.00    -0.237 OA
ATOM     96  O   UNL A   1      44.476  23.384  36.034  1.00  0.00    -0.744 OA
ENDBRANCH  89  93
ENDBRANCH  63  86
ENDBRANCH  37  38
ENDBRANCH  30  32
ENDBRANCH  29  30
ENDBRANCH  28  29
ENDBRANCH  27  28
ENDBRANCH  26  27
ENDBRANCH   1  26
TORSDOF 21
ENDMDL
MODEL 3
REMARK VINA RESULT:     -10.9      2.983      8.672
REMARK SMILES Cc1cc2c(c(C)c1Cl)C=C(C(=O)OCCOCCOCCOC(=O)c1ccc(-c3c4nc(c(-c5cc(S(=O)(=O)[O-])ccc5F)c5ccc([nH]5)c(-c5cc(S(=O)(=O)[O-])ccc5F)c5nc(c(-c6cc(S(=O)(=O)[O-])ccc6F)c6ccc3[nH]6)C=C5)C=C4)cc1)[C@@H](C(F)(F)F)O2
REMARK SMILES IDX 19 1 18 2 17 3 16 4 15 5 14 6 12 7 13 8 11 9 1 10 2 11 3 12
REMARK SMILES IDX 8 13 4 14 6 15 9 16 5 17 94 18 7 19 10 20 89 21 90 22 91 23
REMARK SMILES IDX 92 24 93 25 20 26 21 27 22 28 23 29 24 30 25 31 26 32 27 33
REMARK SMILES IDX 88 34 28 35 87 36 29 37 30 38 31 39 81 40 32 41 86 42 80 43
REMARK SMILES IDX 82 44 33 45 85 46 79 47 78 48 34 50 66 51 46 52 65 53 47 54
REMARK SMILES IDX 50 55 64 56 83 57 48 58 49 59 63 61 84 62 51 63 35 64 36 65
REMARK SMILES IDX 44 66 37 67 43 68 45 69 42 70 38 71 39 72 40 73 41 74 67 75
REMARK SMILES IDX 68 76 76 77 69 78 75 79 77 80 74 81 70 82 71 83 72 84 73 85
REMARK SMILES IDX 52 86 53 87 61 88 54 89 60 90 62 91 59 92 55 93 56 94 57 95
REMARK SMILES IDX 58 96
REMARK H PARENT 82 49 50 60
REMARK Flexibility Score: inf
ROOT
ATOM      1  C   UNL A   1      30.736  29.570  24.226  1.00  0.00     0.188 C 
ENDROOT
BRANCH   1   2
ATOM      2  C   UNL A   1      30.342  28.634  23.064  1.00  0.00     0.188 C 
BRANCH   2   3
ATOM      3  O   UNL A   1      31.278  27.689  22.599  1.00  0.00    -0.376 OA
BRANCH   3   4
ATOM      4  C   UNL A   1      32.670  27.828  22.808  1.00  0.00     0.202 C 
BRANCH   4   5
ATOM      5  C   UNL A   1      33.682  26.678  22.916  1.00  0.00     0.261 C 
BRANCH   5   6
ATOM      6  O   UNL A   1      34.083  26.288  24.227  1.00  0.00    -0.460 OA
BRANCH   6   7
ATOM      7  C   UNL A   1      33.083  25.842  25.024  1.00  0.00     0.338 C 
ATOM      8  O   UNL A   1      32.240  26.522  25.588  1.00  0.00    -0.246 OA
BRANCH   7   9
ATOM      9  C   UNL A   1      33.096  24.368  25.041  1.00  0.00     0.087 C 
ATOM     10  C   UNL A   1      34.396  18.081  24.292  1.00  0.00     0.046 C 
ATOM     11  C   UNL A   1      34.410  19.541  24.656  1.00  0.00    -0.028 A 
ATOM     12  C   UNL A   1      33.201  20.244  24.671  1.00  0.00     0.052 A 
ATOM     13  C   UNL A   1      35.605  20.232  24.944  1.00  0.00     0.047 A 
ATOM     14  C   UNL A   1      33.177  21.618  24.893  1.00  0.00     0.128 A 
ATOM     15  C   UNL A   1      35.597  21.623  25.205  1.00  0.00    -0.021 A 
ATOM     16  Cl  UNL A   1      37.093  19.338  24.938  1.00  0.00    -0.084 Cl
ATOM     17  C   UNL A   1      34.366  22.322  25.121  1.00  0.00     0.022 A 
ATOM     18  O   UNL A   1      31.933  22.181  24.859  1.00  0.00    -0.475 OA
ATOM     19  C   UNL A   1      36.865  22.372  25.553  1.00  0.00     0.047 C 
ATOM     20  C   UNL A   1      34.289  23.781  25.190  1.00  0.00     0.027 C 
ATOM     21  C   UNL A   1      31.805  23.623  24.886  1.00  0.00     0.316 C 
BRANCH  21  22
ATOM     22  C   UNL A   1      31.010  24.055  23.645  1.00  0.00     0.430 C 
ATOM     23  F   UNL A   1      30.324  23.012  23.114  1.00  0.00    -0.167 F 
ATOM     24  F   UNL A   1      30.089  25.004  23.937  1.00  0.00    -0.167 F 
ATOM     25  F   UNL A   1      31.807  24.551  22.672  1.00  0.00    -0.167 F 
ENDBRANCH  21  22
ENDBRANCH   7   9
ENDBRANCH   6   7
ENDBRANCH   5   6
ENDBRANCH   4   5
ENDBRANCH   3   4
ENDBRANCH   2   3
ENDBRANCH   1   2
BRANCH   1  26
ATOM     26  O   UNL A   1      30.099  30.829  24.372  1.00  0.00    -0.376 OA
BRANCH  26  27
ATOM     27  C   UNL A   1      30.594  31.727  25.357  1.00  0.00     0.202 C 
BRANCH  27  28
ATOM     28  C   UNL A   1      31.304  31.168  26.596  1.00  0.00     0.261 C 
BRANCH  28  29
ATOM     29  O   UNL A   1      32.737  31.261  26.523  1.00  0.00    -0.460 OA
BRANCH  29  30
ATOM     30  C   UNL A   1      33.290  32.266  27.248  1.00  0.00     0.338 C 
ATOM     31  O   UNL A   1      32.777  33.331  27.540  1.00  0.00    -0.246 OA
BRANCH  30  32
ATOM     32  C   UNL A   1      34.564  31.796  27.828  1.00  0.00     0.060 A 
ATOM     33  C   UNL A   1      34.629  30.476  28.292  1.00  0.00     0.016 A 
ATOM     34  C   UNL A   1      35.666  32.646  27.944  1.00  0.00     0.016 A 
ATOM     35  C   UNL A   1      35.798  30.000  28.881  1.00  0.00     0.010 A 
ATOM     36  C   UNL A   1      36.830  32.176  28.566  1.00  0.00     0.010 A 
ATOM     37  C   UNL A   1      36.892  30.859  29.054  1.00  0.00    -0.014 A 
BRANCH  37  38
ATOM     38  C   UNL A   1      38.010  30.423  29.925  1.00  0.00     0.031 A 
ATOM     39  C   UNL A   1      38.994  29.429  29.373  1.00  0.00     0.074 A 
ATOM     40  C   UNL A   1      38.195  30.953  31.148  1.00  0.00     0.049 A 
ATOM     41  N   UNL A   1      40.067  28.929  29.928  1.00  0.00    -0.248 NA
ATOM     42  C   UNL A   1      38.738  28.944  28.007  1.00  0.00     0.031 C 
ATOM     43  C   UNL A   1      37.347  31.972  31.766  1.00  0.00     0.029 A 
ATOM     44  N   UNL A   1      39.168  30.713  32.086  1.00  0.00    -0.354 N 
ATOM     45  C   UNL A   1      40.630  28.093  28.971  1.00  0.00     0.074 A 
ATOM     46  C   UNL A   1      39.757  28.120  27.817  1.00  0.00     0.031 C 
ATOM     47  C   UNL A   1      37.843  32.274  32.979  1.00  0.00     0.029 A 
ATOM     48  C   UNL A   1      39.025  31.451  33.237  1.00  0.00     0.049 A 
ATOM     49  H   UNL A   1      39.902  30.071  31.946  1.00  0.00     0.167 HD
ATOM     50  C   UNL A   1      41.778  27.380  29.039  1.00  0.00     0.034 A 
ATOM     51  C   UNL A   1      39.755  31.447  34.372  1.00  0.00     0.034 A 
ATOM     52  C   UNL A   1      42.628  27.332  30.197  1.00  0.00     0.049 A 
ATOM     53  C   UNL A   1      40.948  30.528  34.481  1.00  0.00     0.074 A 
ATOM     54  C   UNL A   1      43.807  26.630  30.371  1.00  0.00     0.029 A 
ATOM     55  N   UNL A   1      42.383  28.002  31.386  1.00  0.00    -0.354 N 
ATOM     56  N   UNL A   1      41.458  29.728  33.573  1.00  0.00    -0.248 NA
ATOM     57  C   UNL A   1      41.657  30.501  35.770  1.00  0.00     0.031 C 
ATOM     58  C   UNL A   1      44.241  26.823  31.686  1.00  0.00     0.029 A 
ATOM     59  C   UNL A   1      43.366  27.697  32.312  1.00  0.00     0.049 A 
ATOM     60  H   UNL A   1      41.623  28.607  31.548  1.00  0.00     0.167 HD
ATOM     61  C   UNL A   1      42.556  29.117  34.176  1.00  0.00     0.074 A 
ATOM     62  C   UNL A   1      42.638  29.642  35.524  1.00  0.00     0.031 C 
ATOM     63  C   UNL A   1      43.421  28.211  33.659  1.00  0.00     0.034 A 
BRANCH  50  64
ATOM     64  C   UNL A   1      42.154  26.562  27.834  1.00  0.00     0.023 A 
ATOM     65  C   UNL A   1      41.925  25.177  27.794  1.00  0.00     0.031 A 
ATOM     66  C   UNL A   1      42.751  27.173  26.719  1.00  0.00     0.131 A 
ATOM     67  C   UNL A   1      42.333  24.438  26.675  1.00  0.00     0.055 A 
ATOM     68  C   UNL A   1      43.099  26.441  25.583  1.00  0.00     0.041 A 
ATOM     69  F   UNL A   1      43.010  28.490  26.720  1.00  0.00    -0.206 F 
ATOM     70  C   UNL A   1      42.897  25.064  25.560  1.00  0.00     0.022 A 
BRANCH  67  71
ATOM     71  S   UNL A   1      42.193  22.631  26.728  1.00  0.00     0.124 S 
ATOM     72  O   UNL A   1      43.346  22.223  25.930  1.00  0.00    -0.237 OA
ATOM     73  O   UNL A   1      42.272  22.347  28.157  1.00  0.00    -0.237 OA
ATOM     74  O   UNL A   1      40.893  22.370  26.114  1.00  0.00    -0.744 OA
ENDBRANCH  67  71
ENDBRANCH  50  64
BRANCH  51  75
ATOM     75  C   UNL A   1      39.361  32.308  35.522  1.00  0.00     0.023 A 
ATOM     76  C   UNL A   1      39.818  33.632  35.629  1.00  0.00     0.031 A 
ATOM     77  C   UNL A   1      38.551  31.802  36.554  1.00  0.00     0.131 A 
ATOM     78  C   UNL A   1      39.481  34.396  36.757  1.00  0.00     0.055 A 
ATOM     79  C   UNL A   1      38.188  32.578  37.655  1.00  0.00     0.041 A 
ATOM     80  F   UNL A   1      38.094  30.540  36.499  1.00  0.00    -0.206 F 
ATOM     81  C   UNL A   1      38.659  33.882  37.764  1.00  0.00     0.022 A 
BRANCH  78  82
ATOM     82  S   UNL A   1      40.161  36.071  36.913  1.00  0.00     0.124 S 
ATOM     83  O   UNL A   1      41.588  35.798  37.048  1.00  0.00    -0.237 OA
ATOM     84  O   UNL A   1      39.741  36.689  35.660  1.00  0.00    -0.237 OA
ATOM     85  O   UNL A   1      39.508  36.593  38.112  1.00  0.00    -0.744 OA
ENDBRANCH  78  82
ENDBRANCH  51  75
BRANCH  63  86
ATOM     86  C   UNL A   1      44.541  27.723  34.539  1.00  0.00     0.023 A 
ATOM     87  C   UNL A   1      44.400  26.570  35.327  1.00  0.00     0.031 A 
ATOM     88  C   UNL A   1      45.789  28.371  34.521  1.00  0.00     0.131 A 
ATOM     89  C   UNL A   1      45.489  26.102  36.078  1.00  0.00     0.055 A 
ATOM     90  C   UNL A   1      46.880  27.880  35.238  1.00  0.00     0.041 A 
ATOM     91  F   UNL A   1      45.974  29.473  33.777  1.00  0.00    -0.206 F 
ATOM     92  C   UNL A   1      46.733  26.739  36.023  1.00  0.00     0.022 A 
BRANCH  89  93
ATOM     93  S   UNL A   1      45.264  24.643  37.131  1.00  0.00     0.124 S 
ATOM     94  O   UNL A   1      46.431  24.720  38.005  1.00  0.00    -0.237 OA
ATOM     95  O   UNL A   1      43.976  24.904  37.766  1.00  0.00    -0.237 OA
ATOM     96  O   UNL A   1      45.270  23.530  36.184  1.00  0.00    -0.744 OA
ENDBRANCH  89  93
ENDBRANCH  63  86
ENDBRANCH  37  38
ENDBRANCH  30  32
ENDBRANCH  29  30
ENDBRANCH  28  29
ENDBRANCH  27  28
ENDBRANCH  26  27
ENDBRANCH   1  26
TORSDOF 21
ENDMDL
