MODEL 1
REMARK VINA RESULT:     -11.0      0.000      0.000
REMARK SMILES O=C(OCCOCCOCCOC(=O)c1ccc(-c2ccc(Cl)c3ccccc23)o1)c1ccc(-c2c3nc(c(-c4cc(S(=O)(=O)[O-])ccc4F)c4ccc([nH]4)c(-c4cc(S(=O)(=O)[O-])ccc4F)c4nc(c(-c5cc(S(=O)(=O)[O-])ccc5F)c5ccc2[nH]5)C=C4)C=C3)cc1
REMARK SMILES IDX 7 1 6 2 5 3 4 4 3 5 2 6 1 7 31 8 32 9 93 10 33 11 92 12
REMARK SMILES IDX 34 13 35 14 36 15 86 16 37 17 91 18 85 19 87 20 38 21 90 22
REMARK SMILES IDX 84 23 83 24 39 26 71 27 51 28 70 29 52 30 55 31 69 32 88 33
REMARK SMILES IDX 53 34 54 35 68 37 89 38 56 39 40 40 41 41 49 42 42 43 48 44
REMARK SMILES IDX 50 45 47 46 43 47 44 48 45 49 46 50 72 51 73 52 81 53 74 54
REMARK SMILES IDX 80 55 82 56 79 57 75 58 76 59 77 60 78 61 57 62 58 63 66 64
REMARK SMILES IDX 59 65 65 66 67 67 64 68 60 69 61 70 62 71 63 72 8 73 9 74
REMARK SMILES IDX 10 75 11 76 12 77 13 78 14 79 15 80 16 81 30 82 17 83 18 84
REMARK SMILES IDX 19 85 20 86 29 87 21 88 24 89 28 90 22 91 25 92 27 93 23 94
REMARK SMILES IDX 26 95
REMARK H PARENT 87 25 55 36
REMARK Flexibility Score: inf
ROOT
ATOM      1  C   UNL A   1      34.045  20.230  24.758  1.00  0.00     0.188 C 
ENDROOT
BRANCH   1   2
ATOM      2  O   UNL A   1      34.671  21.392  25.321  1.00  0.00    -0.376 OA
BRANCH   2   3
ATOM      3  C   UNL A   1      35.584  22.019  24.416  1.00  0.00     0.202 C 
BRANCH   3   4
ATOM      4  C   UNL A   1      36.941  21.315  24.427  1.00  0.00     0.261 C 
BRANCH   4   5
ATOM      5  O   UNL A   1      37.519  21.436  25.743  1.00  0.00    -0.460 OA
BRANCH   5   6
ATOM      6  C   UNL A   1      38.831  21.324  26.057  1.00  0.00     0.338 C 
ATOM      7  O   UNL A   1      39.458  20.313  25.754  1.00  0.00    -0.246 OA
BRANCH   6   8
ATOM      8  C   UNL A   1      39.568  22.455  26.664  1.00  0.00     0.060 A 
ATOM      9  C   UNL A   1      40.648  22.283  27.534  1.00  0.00     0.016 A 
ATOM     10  C   UNL A   1      39.235  23.740  26.231  1.00  0.00     0.016 A 
ATOM     11  C   UNL A   1      41.342  23.400  28.020  1.00  0.00     0.010 A 
ATOM     12  C   UNL A   1      39.994  24.840  26.641  1.00  0.00     0.010 A 
ATOM     13  C   UNL A   1      41.053  24.693  27.554  1.00  0.00    -0.014 A 
BRANCH  13  14
ATOM     14  C   UNL A   1      41.826  25.901  27.983  1.00  0.00     0.031 A 
ATOM     15  C   UNL A   1      41.139  26.997  28.760  1.00  0.00     0.074 A 
ATOM     16  C   UNL A   1      43.112  26.086  27.622  1.00  0.00     0.049 A 
ATOM     17  N   UNL A   1      41.498  28.243  28.941  1.00  0.00    -0.248 NA
ATOM     18  C   UNL A   1      39.853  26.645  29.377  1.00  0.00     0.031 C 
ATOM     19  C   UNL A   1      43.938  25.136  26.876  1.00  0.00     0.029 A 
ATOM     20  N   UNL A   1      43.948  27.161  27.824  1.00  0.00    -0.354 N 
ATOM     21  C   UNL A   1      40.432  28.853  29.593  1.00  0.00     0.074 A 
ATOM     22  C   UNL A   1      39.428  27.827  29.796  1.00  0.00     0.031 C 
ATOM     23  C   UNL A   1      45.160  25.662  26.705  1.00  0.00     0.029 A 
ATOM     24  C   UNL A   1      45.179  27.017  27.229  1.00  0.00     0.049 A 
ATOM     25  H   UNL A   1      43.689  27.956  28.345  1.00  0.00     0.167 HD
ATOM     26  C   UNL A   1      40.296  30.151  29.971  1.00  0.00     0.034 A 
ATOM     27  C   UNL A   1      46.196  27.882  27.060  1.00  0.00     0.034 A 
ATOM     28  C   UNL A   1      41.335  31.144  29.861  1.00  0.00     0.049 A 
ATOM     29  C   UNL A   1      46.075  29.281  27.582  1.00  0.00     0.074 A 
ATOM     30  C   UNL A   1      41.316  32.469  30.268  1.00  0.00     0.029 A 
ATOM     31  N   UNL A   1      42.595  30.917  29.325  1.00  0.00    -0.354 N 
ATOM     32  N   UNL A   1      45.037  29.864  28.131  1.00  0.00    -0.248 NA
ATOM     33  C   UNL A   1      47.261  30.139  27.459  1.00  0.00     0.031 C 
ATOM     34  C   UNL A   1      42.558  33.044  29.966  1.00  0.00     0.029 A 
ATOM     35  C   UNL A   1      43.361  32.071  29.399  1.00  0.00     0.049 A 
ATOM     36  H   UNL A   1      42.900  30.061  28.947  1.00  0.00     0.167 HD
ATOM     37  C   UNL A   1      45.443  31.162  28.412  1.00  0.00     0.074 A 
ATOM     38  C   UNL A   1      46.825  31.272  27.990  1.00  0.00     0.031 C 
ATOM     39  C   UNL A   1      44.731  32.172  28.969  1.00  0.00     0.034 A 
BRANCH  26  40
ATOM     40  C   UNL A   1      38.938  30.571  30.473  1.00  0.00     0.023 A 
ATOM     41  C   UNL A   1      37.952  31.090  29.619  1.00  0.00     0.031 A 
ATOM     42  C   UNL A   1      38.663  30.525  31.852  1.00  0.00     0.131 A 
ATOM     43  C   UNL A   1      36.777  31.633  30.162  1.00  0.00     0.055 A 
ATOM     44  C   UNL A   1      37.456  30.991  32.377  1.00  0.00     0.041 A 
ATOM     45  F   UNL A   1      39.577  30.056  32.716  1.00  0.00    -0.206 F 
ATOM     46  C   UNL A   1      36.513  31.567  31.532  1.00  0.00     0.022 A 
BRANCH  43  47
ATOM     47  S   UNL A   1      35.676  32.572  29.068  1.00  0.00     0.124 S 
ATOM     48  O   UNL A   1      36.266  33.907  29.138  1.00  0.00    -0.237 OA
ATOM     49  O   UNL A   1      35.824  31.875  27.796  1.00  0.00    -0.237 OA
ATOM     50  O   UNL A   1      34.368  32.441  29.704  1.00  0.00    -0.744 OA
ENDBRANCH  43  47
ENDBRANCH  26  40
BRANCH  27  51
ATOM     51  C   UNL A   1      47.393  27.476  26.278  1.00  0.00     0.023 A 
ATOM     52  C   UNL A   1      47.475  27.715  24.899  1.00  0.00     0.031 A 
ATOM     53  C   UNL A   1      48.473  26.835  26.911  1.00  0.00     0.131 A 
ATOM     54  C   UNL A   1      48.611  27.296  24.189  1.00  0.00     0.055 A 
ATOM     55  C   UNL A   1      49.607  26.436  26.204  1.00  0.00     0.041 A 
ATOM     56  F   UNL A   1      48.446  26.609  28.234  1.00  0.00    -0.206 F 
ATOM     57  C   UNL A   1      49.678  26.661  24.833  1.00  0.00     0.022 A 
BRANCH  54  58
ATOM     58  S   UNL A   1      48.660  27.565  22.397  1.00  0.00     0.124 S 
ATOM     59  O   UNL A   1      49.898  28.321  22.238  1.00  0.00    -0.237 OA
ATOM     60  O   UNL A   1      48.675  26.197  21.892  1.00  0.00    -0.237 OA
ATOM     61  O   UNL A   1      47.433  28.313  22.132  1.00  0.00    -0.744 OA
ENDBRANCH  54  58
ENDBRANCH  27  51
BRANCH  39  62
ATOM     62  C   UNL A   1      45.465  33.464  29.180  1.00  0.00     0.023 A 
ATOM     63  C   UNL A   1      45.538  34.435  28.168  1.00  0.00     0.031 A 
ATOM     64  C   UNL A   1      46.132  33.703  30.393  1.00  0.00     0.131 A 
ATOM     65  C   UNL A   1      46.302  35.594  28.374  1.00  0.00     0.055 A 
ATOM     66  C   UNL A   1      46.866  34.870  30.603  1.00  0.00     0.041 A 
ATOM     67  F   UNL A   1      46.095  32.795  31.381  1.00  0.00    -0.206 F 
ATOM     68  C   UNL A   1      46.959  35.820  29.588  1.00  0.00     0.022 A 
BRANCH  65  69
ATOM     69  S   UNL A   1      46.457  36.796  27.025  1.00  0.00     0.124 S 
ATOM     70  O   UNL A   1      45.361  37.715  27.313  1.00  0.00    -0.237 OA
ATOM     71  O   UNL A   1      47.802  37.324  27.224  1.00  0.00    -0.237 OA
ATOM     72  O   UNL A   1      46.285  35.984  25.821  1.00  0.00    -0.744 OA
ENDBRANCH  65  69
ENDBRANCH  39  62
ENDBRANCH  13  14
ENDBRANCH   6   8
ENDBRANCH   5   6
ENDBRANCH   4   5
ENDBRANCH   3   4
ENDBRANCH   2   3
ENDBRANCH   1   2
BRANCH   1  73
ATOM     73  C   UNL A   1      32.676  20.595  24.181  1.00  0.00     0.188 C 
BRANCH  73  74
ATOM     74  O   UNL A   1      32.662  21.931  23.667  1.00  0.00    -0.376 OA
BRANCH  74  75
ATOM     75  C   UNL A   1      31.358  22.471  23.462  1.00  0.00     0.202 C 
BRANCH  75  76
ATOM     76  C   UNL A   1      31.077  23.664  24.375  1.00  0.00     0.261 C 
BRANCH  76  77
ATOM     77  O   UNL A   1      30.770  23.299  25.730  1.00  0.00    -0.457 OA
BRANCH  77  78
ATOM     78  C   UNL A   1      31.765  23.444  26.656  1.00  0.00     0.374 C 
ATOM     79  O   UNL A   1      31.927  22.726  27.633  1.00  0.00    -0.242 OA
BRANCH  78  80
ATOM     80  C   UNL A   1      32.522  24.628  26.338  1.00  0.00     0.212 A 
ATOM     81  C   UNL A   1      33.825  24.758  25.900  1.00  0.00     0.059 A 
ATOM     82  O   UNL A   1      31.928  25.869  26.396  1.00  0.00    -0.449 OA
ATOM     83  C   UNL A   1      34.025  26.126  25.627  1.00  0.00     0.052 A 
ATOM     84  C   UNL A   1      32.871  26.779  26.006  1.00  0.00     0.135 A 
BRANCH  84  85
ATOM     85  C   UNL A   1      32.512  28.197  25.977  1.00  0.00     0.025 A 
ATOM     86  C   UNL A   1      33.045  28.988  27.009  1.00  0.00     0.014 A 
ATOM     87  C   UNL A   1      31.581  28.765  25.060  1.00  0.00    -0.006 A 
ATOM     88  C   UNL A   1      32.667  30.315  27.162  1.00  0.00     0.022 A 
ATOM     89  C   UNL A   1      31.169  30.121  25.236  1.00  0.00     0.001 A 
ATOM     90  C   UNL A   1      31.017  28.045  23.980  1.00  0.00     0.009 A 
ATOM     91  C   UNL A   1      31.733  30.874  26.294  1.00  0.00     0.048 A 
ATOM     92  C   UNL A   1      30.200  30.663  24.357  1.00  0.00     0.010 A 
ATOM     93  C   UNL A   1      30.101  28.628  23.104  1.00  0.00     0.001 A 
ATOM     94  Cl  UNL A   1      31.320  32.537  26.577  1.00  0.00    -0.084 Cl
ATOM     95  C   UNL A   1      29.672  29.927  23.302  1.00  0.00     0.001 A 
ENDBRANCH  84  85
ENDBRANCH  78  80
ENDBRANCH  77  78
ENDBRANCH  76  77
ENDBRANCH  75  76
ENDBRANCH  74  75
ENDBRANCH  73  74
ENDBRANCH   1  73
TORSDOF 21
ENDMDL
MODEL 2
REMARK VINA RESULT:     -10.8      6.524     10.458
REMARK SMILES O=C(OCCOCCOCCOC(=O)c1ccc(-c2ccc(Cl)c3ccccc23)o1)c1ccc(-c2c3nc(c(-c4cc(S(=O)(=O)[O-])ccc4F)c4ccc([nH]4)c(-c4cc(S(=O)(=O)[O-])ccc4F)c4nc(c(-c5cc(S(=O)(=O)[O-])ccc5F)c5ccc2[nH]5)C=C4)C=C3)cc1
REMARK SMILES IDX 7 1 6 2 5 3 4 4 3 5 2 6 1 7 31 8 32 9 93 10 33 11 92 12
REMARK SMILES IDX 34 13 35 14 36 15 86 16 37 17 91 18 85 19 87 20 38 21 90 22
REMARK SMILES IDX 84 23 83 24 39 26 71 27 51 28 70 29 52 30 55 31 69 32 88 33
REMARK SMILES IDX 53 34 54 35 68 37 89 38 56 39 40 40 41 41 49 42 42 43 48 44
REMARK SMILES IDX 50 45 47 46 43 47 44 48 45 49 46 50 72 51 73 52 81 53 74 54
REMARK SMILES IDX 80 55 82 56 79 57 75 58 76 59 77 60 78 61 57 62 58 63 66 64
REMARK SMILES IDX 59 65 65 66 67 67 64 68 60 69 61 70 62 71 63 72 8 73 9 74
REMARK SMILES IDX 10 75 11 76 12 77 13 78 14 79 15 80 16 81 30 82 17 83 18 84
REMARK SMILES IDX 19 85 20 86 29 87 21 88 24 89 28 90 22 91 25 92 27 93 23 94
REMARK SMILES IDX 26 95
REMARK H PARENT 87 25 55 36
REMARK Flexibility Score: inf
ROOT
ATOM      1  C   UNL A   1      34.675  33.047  28.202  1.00  0.00     0.188 C 
ENDROOT
BRANCH   1   2
ATOM      2  O   UNL A   1      33.593  33.894  28.621  1.00  0.00    -0.376 OA
BRANCH   2   3
ATOM      3  C   UNL A   1      34.004  35.247  28.833  1.00  0.00     0.202 C 
BRANCH   3   4
ATOM      4  C   UNL A   1      32.815  36.131  29.209  1.00  0.00     0.261 C 
BRANCH   4   5
ATOM      5  O   UNL A   1      32.300  35.704  30.487  1.00  0.00    -0.460 OA
BRANCH   5   6
ATOM      6  C   UNL A   1      32.806  36.021  31.702  1.00  0.00     0.338 C 
ATOM      7  O   UNL A   1      32.369  36.985  32.324  1.00  0.00    -0.246 OA
BRANCH   6   8
ATOM      8  C   UNL A   1      33.810  35.154  32.358  1.00  0.00     0.060 A 
ATOM      9  C   UNL A   1      33.506  33.893  32.878  1.00  0.00     0.016 A 
ATOM     10  C   UNL A   1      35.139  35.579  32.326  1.00  0.00     0.016 A 
ATOM     11  C   UNL A   1      34.521  33.097  33.427  1.00  0.00     0.010 A 
ATOM     12  C   UNL A   1      36.159  34.739  32.784  1.00  0.00     0.010 A 
ATOM     13  C   UNL A   1      35.868  33.487  33.356  1.00  0.00    -0.014 A 
BRANCH  13  14
ATOM     14  C   UNL A   1      36.989  32.629  33.853  1.00  0.00     0.031 A 
ATOM     15  C   UNL A   1      37.626  32.922  35.189  1.00  0.00     0.074 A 
ATOM     16  C   UNL A   1      37.513  31.640  33.101  1.00  0.00     0.049 A 
ATOM     17  N   UNL A   1      38.787  32.545  35.661  1.00  0.00    -0.248 NA
ATOM     18  C   UNL A   1      36.863  33.794  36.092  1.00  0.00     0.031 C 
ATOM     19  C   UNL A   1      37.027  31.212  31.788  1.00  0.00     0.029 A 
ATOM     20  N   UNL A   1      38.597  30.823  33.333  1.00  0.00    -0.354 N 
ATOM     21  C   UNL A   1      38.945  33.223  36.864  1.00  0.00     0.074 A 
ATOM     22  C   UNL A   1      37.745  34.012  37.056  1.00  0.00     0.031 C 
ATOM     23  C   UNL A   1      37.793  30.203  31.348  1.00  0.00     0.029 A 
ATOM     24  C   UNL A   1      38.883  29.981  32.284  1.00  0.00     0.049 A 
ATOM     25  H   UNL A   1      39.116  30.840  34.169  1.00  0.00     0.167 HD
ATOM     26  C   UNL A   1      40.000  33.204  37.720  1.00  0.00     0.034 A 
ATOM     27  C   UNL A   1      39.926  29.162  32.055  1.00  0.00     0.034 A 
ATOM     28  C   UNL A   1      41.147  32.341  37.579  1.00  0.00     0.049 A 
ATOM     29  C   UNL A   1      41.030  29.067  33.063  1.00  0.00     0.074 A 
ATOM     30  C   UNL A   1      42.239  32.204  38.423  1.00  0.00     0.029 A 
ATOM     31  N   UNL A   1      41.342  31.445  36.538  1.00  0.00    -0.354 N 
ATOM     32  N   UNL A   1      41.202  29.766  34.159  1.00  0.00    -0.248 NA
ATOM     33  C   UNL A   1      42.082  28.076  32.801  1.00  0.00     0.031 C 
ATOM     34  C   UNL A   1      43.097  31.236  37.883  1.00  0.00     0.029 A 
ATOM     35  C   UNL A   1      42.527  30.749  36.721  1.00  0.00     0.049 A 
ATOM     36  H   UNL A   1      40.727  31.322  35.778  1.00  0.00     0.167 HD
ATOM     37  C   UNL A   1      42.387  29.303  34.715  1.00  0.00     0.074 A 
ATOM     38  C   UNL A   1      42.879  28.253  33.845  1.00  0.00     0.031 C 
ATOM     39  C   UNL A   1      43.012  29.714  35.845  1.00  0.00     0.034 A 
BRANCH  26  40
ATOM     40  C   UNL A   1      39.978  34.207  38.845  1.00  0.00     0.023 A 
ATOM     41  C   UNL A   1      39.356  33.939  40.075  1.00  0.00     0.031 A 
ATOM     42  C   UNL A   1      40.525  35.488  38.644  1.00  0.00     0.131 A 
ATOM     43  C   UNL A   1      39.207  34.968  41.017  1.00  0.00     0.055 A 
ATOM     44  C   UNL A   1      40.447  36.482  39.621  1.00  0.00     0.041 A 
ATOM     45  F   UNL A   1      41.116  35.804  37.481  1.00  0.00    -0.206 F 
ATOM     46  C   UNL A   1      39.767  36.230  40.809  1.00  0.00     0.022 A 
BRANCH  43  47
ATOM     47  S   UNL A   1      38.131  34.677  42.447  1.00  0.00     0.124 S 
ATOM     48  O   UNL A   1      38.406  35.857  43.265  1.00  0.00    -0.237 OA
ATOM     49  O   UNL A   1      36.807  34.619  41.840  1.00  0.00    -0.237 OA
ATOM     50  O   UNL A   1      38.622  33.417  42.997  1.00  0.00    -0.744 OA
ENDBRANCH  43  47
ENDBRANCH  26  40
BRANCH  27  51
ATOM     51  C   UNL A   1      40.023  28.427  30.766  1.00  0.00     0.023 A 
ATOM     52  C   UNL A   1      40.906  28.842  29.761  1.00  0.00     0.031 A 
ATOM     53  C   UNL A   1      39.221  27.297  30.529  1.00  0.00     0.131 A 
ATOM     54  C   UNL A   1      40.954  28.138  28.547  1.00  0.00     0.055 A 
ATOM     55  C   UNL A   1      39.285  26.590  29.328  1.00  0.00     0.041 A 
ATOM     56  F   UNL A   1      38.380  26.852  31.476  1.00  0.00    -0.206 F 
ATOM     57  C   UNL A   1      40.152  27.014  28.326  1.00  0.00     0.022 A 
BRANCH  54  58
ATOM     58  S   UNL A   1      42.062  28.735  27.243  1.00  0.00     0.124 S 
ATOM     59  O   UNL A   1      41.127  29.035  26.164  1.00  0.00    -0.237 OA
ATOM     60  O   UNL A   1      42.688  29.884  27.888  1.00  0.00    -0.237 OA
ATOM     61  O   UNL A   1      42.948  27.598  27.003  1.00  0.00    -0.744 OA
ENDBRANCH  54  58
ENDBRANCH  27  51
BRANCH  39  62
ATOM     62  C   UNL A   1      44.274  28.989  36.208  1.00  0.00     0.023 A 
ATOM     63  C   UNL A   1      44.250  27.846  37.025  1.00  0.00     0.031 A 
ATOM     64  C   UNL A   1      45.516  29.475  35.766  1.00  0.00     0.131 A 
ATOM     65  C   UNL A   1      45.457  27.244  37.409  1.00  0.00     0.055 A 
ATOM     66  C   UNL A   1      46.712  28.855  36.127  1.00  0.00     0.041 A 
ATOM     67  F   UNL A   1      45.583  30.570  34.992  1.00  0.00    -0.206 F 
ATOM     68  C   UNL A   1      46.687  27.737  36.958  1.00  0.00     0.022 A 
BRANCH  65  69
ATOM     69  S   UNL A   1      45.411  25.823  38.535  1.00  0.00     0.124 S 
ATOM     70  O   UNL A   1      44.917  26.430  39.766  1.00  0.00    -0.237 OA
ATOM     71  O   UNL A   1      44.493  24.912  37.859  1.00  0.00    -0.237 OA
ATOM     72  O   UNL A   1      46.802  25.375  38.578  1.00  0.00    -0.744 OA
ENDBRANCH  65  69
ENDBRANCH  39  62
ENDBRANCH  13  14
ENDBRANCH   6   8
ENDBRANCH   5   6
ENDBRANCH   4   5
ENDBRANCH   3   4
ENDBRANCH   2   3
ENDBRANCH   1   2
BRANCH   1  73
ATOM     73  C   UNL A   1      34.291  31.576  28.374  1.00  0.00     0.188 C 
BRANCH  73  74
ATOM     74  O   UNL A   1      34.156  30.917  27.111  1.00  0.00    -0.376 OA
BRANCH  74  75
ATOM     75  C   UNL A   1      34.031  29.499  27.194  1.00  0.00     0.202 C 
BRANCH  75  76
ATOM     76  C   UNL A   1      33.808  28.857  25.825  1.00  0.00     0.261 C 
BRANCH  76  77
ATOM     77  O   UNL A   1      33.006  27.666  25.867  1.00  0.00    -0.457 OA
BRANCH  77  78
ATOM     78  C   UNL A   1      32.192  27.424  24.796  1.00  0.00     0.374 C 
ATOM     79  O   UNL A   1      31.156  28.026  24.549  1.00  0.00    -0.242 OA
BRANCH  78  80
ATOM     80  C   UNL A   1      32.709  26.291  24.069  1.00  0.00     0.212 A 
ATOM     81  C   UNL A   1      32.616  25.980  22.727  1.00  0.00     0.059 A 
ATOM     82  O   UNL A   1      33.473  25.345  24.713  1.00  0.00    -0.449 OA
ATOM     83  C   UNL A   1      33.398  24.825  22.527  1.00  0.00     0.052 A 
ATOM     84  C   UNL A   1      33.848  24.429  23.768  1.00  0.00     0.135 A 
BRANCH  84  85
ATOM     85  C   UNL A   1      34.674  23.293  24.177  1.00  0.00     0.025 A 
ATOM     86  C   UNL A   1      36.060  23.522  24.217  1.00  0.00     0.014 A 
ATOM     87  C   UNL A   1      34.167  21.980  24.404  1.00  0.00    -0.006 A 
ATOM     88  C   UNL A   1      36.950  22.485  24.460  1.00  0.00     0.022 A 
ATOM     89  C   UNL A   1      35.085  20.908  24.623  1.00  0.00     0.001 A 
ATOM     90  C   UNL A   1      32.787  21.669  24.405  1.00  0.00     0.009 A 
ATOM     91  C   UNL A   1      36.472  21.191  24.650  1.00  0.00     0.048 A 
ATOM     92  C   UNL A   1      34.580  19.596  24.790  1.00  0.00     0.010 A 
ATOM     93  C   UNL A   1      32.323  20.372  24.622  1.00  0.00     0.001 A 
ATOM     94  Cl  UNL A   1      37.668  19.965  24.936  1.00  0.00    -0.084 Cl
ATOM     95  C   UNL A   1      33.215  19.329  24.792  1.00  0.00     0.001 A 
ENDBRANCH  84  85
ENDBRANCH  78  80
ENDBRANCH  77  78
ENDBRANCH  76  77
ENDBRANCH  75  76
ENDBRANCH  74  75
ENDBRANCH  73  74
ENDBRANCH   1  73
TORSDOF 21
ENDMDL
MODEL 3
REMARK VINA RESULT:     -10.5      6.436     10.255
REMARK SMILES O=C(OCCOCCOCCOC(=O)c1ccc(-c2ccc(Cl)c3ccccc23)o1)c1ccc(-c2c3nc(c(-c4cc(S(=O)(=O)[O-])ccc4F)c4ccc([nH]4)c(-c4cc(S(=O)(=O)[O-])ccc4F)c4nc(c(-c5cc(S(=O)(=O)[O-])ccc5F)c5ccc2[nH]5)C=C4)C=C3)cc1
REMARK SMILES IDX 7 1 6 2 5 3 4 4 3 5 2 6 1 7 31 8 32 9 93 10 33 11 92 12
REMARK SMILES IDX 34 13 35 14 36 15 86 16 37 17 91 18 85 19 87 20 38 21 90 22
REMARK SMILES IDX 84 23 83 24 39 26 71 27 51 28 70 29 52 30 55 31 69 32 88 33
REMARK SMILES IDX 53 34 54 35 68 37 89 38 56 39 40 40 41 41 49 42 42 43 48 44
REMARK SMILES IDX 50 45 47 46 43 47 44 48 45 49 46 50 72 51 73 52 81 53 74 54
REMARK SMILES IDX 80 55 82 56 79 57 75 58 76 59 77 60 78 61 57 62 58 63 66 64
REMARK SMILES IDX 59 65 65 66 67 67 64 68 60 69 61 70 62 71 63 72 8 73 9 74
REMARK SMILES IDX 10 75 11 76 12 77 13 78 14 79 15 80 16 81 30 82 17 83 18 84
REMARK SMILES IDX 19 85 20 86 29 87 21 88 24 89 28 90 22 91 25 92 27 93 23 94
REMARK SMILES IDX 26 95
REMARK H PARENT 87 25 55 36
REMARK Flexibility Score: inf
ROOT
ATOM      1  C   UNL A   1      35.035  33.213  28.336  1.00  0.00     0.188 C 
ENDROOT
BRANCH   1   2
ATOM      2  O   UNL A   1      33.872  34.053  28.261  1.00  0.00    -0.376 OA
BRANCH   2   3
ATOM      3  C   UNL A   1      34.195  35.445  28.308  1.00  0.00     0.202 C 
BRANCH   3   4
ATOM      4  C   UNL A   1      33.004  36.270  28.798  1.00  0.00     0.261 C 
BRANCH   4   5
ATOM      5  O   UNL A   1      32.458  35.647  29.978  1.00  0.00    -0.460 OA
BRANCH   5   6
ATOM      6  C   UNL A   1      32.845  35.871  31.256  1.00  0.00     0.338 C 
ATOM      7  O   UNL A   1      32.279  36.721  31.937  1.00  0.00    -0.246 OA
BRANCH   6   8
ATOM      8  C   UNL A   1      33.877  35.025  31.898  1.00  0.00     0.060 A 
ATOM      9  C   UNL A   1      33.826  33.629  31.900  1.00  0.00     0.016 A 
ATOM     10  C   UNL A   1      35.008  35.670  32.402  1.00  0.00     0.016 A 
ATOM     11  C   UNL A   1      34.872  32.889  32.470  1.00  0.00     0.010 A 
ATOM     12  C   UNL A   1      36.091  34.924  32.878  1.00  0.00     0.010 A 
ATOM     13  C   UNL A   1      36.037  33.520  32.933  1.00  0.00    -0.014 A 
BRANCH  13  14
ATOM     14  C   UNL A   1      37.211  32.761  33.470  1.00  0.00     0.031 A 
ATOM     15  C   UNL A   1      37.640  32.953  34.903  1.00  0.00     0.074 A 
ATOM     16  C   UNL A   1      37.962  31.965  32.682  1.00  0.00     0.049 A 
ATOM     17  N   UNL A   1      38.783  32.677  35.477  1.00  0.00    -0.248 NA
ATOM     18  C   UNL A   1      36.656  33.583  35.794  1.00  0.00     0.031 C 
ATOM     19  C   UNL A   1      37.700  31.658  31.276  1.00  0.00     0.029 A 
ATOM     20  N   UNL A   1      39.123  31.278  32.958  1.00  0.00    -0.354 N 
ATOM     21  C   UNL A   1      38.698  33.199  36.763  1.00  0.00     0.074 A 
ATOM     22  C   UNL A   1      37.378  33.785  36.886  1.00  0.00     0.031 C 
ATOM     23  C   UNL A   1      38.655  30.831  30.825  1.00  0.00     0.029 A 
ATOM     24  C   UNL A   1      39.651  30.633  31.864  1.00  0.00     0.049 A 
ATOM     25  H   UNL A   1      39.535  31.251  33.852  1.00  0.00     0.167 HD
ATOM     26  C   UNL A   1      39.639  33.207  37.743  1.00  0.00     0.034 A 
ATOM     27  C   UNL A   1      40.825  30.002  31.680  1.00  0.00     0.034 A 
ATOM     28  C   UNL A   1      40.912  32.535  37.654  1.00  0.00     0.049 A 
ATOM     29  C   UNL A   1      41.808  29.921  32.808  1.00  0.00     0.074 A 
ATOM     30  C   UNL A   1      41.908  32.434  38.613  1.00  0.00     0.029 A 
ATOM     31  N   UNL A   1      41.358  31.824  36.550  1.00  0.00    -0.354 N 
ATOM     32  N   UNL A   1      41.746  30.481  33.992  1.00  0.00    -0.248 NA
ATOM     33  C   UNL A   1      43.022  29.126  32.573  1.00  0.00     0.031 C 
ATOM     34  C   UNL A   1      42.960  31.674  38.082  1.00  0.00     0.029 A 
ATOM     35  C   UNL A   1      42.605  31.276  36.805  1.00  0.00     0.049 A 
ATOM     36  H   UNL A   1      40.859  31.723  35.706  1.00  0.00     0.167 HD
ATOM     37  C   UNL A   1      42.917  30.111  34.641  1.00  0.00     0.074 A 
ATOM     38  C   UNL A   1      43.658  29.266  33.727  1.00  0.00     0.031 C 
ATOM     39  C   UNL A   1      43.338  30.446  35.885  1.00  0.00     0.034 A 
BRANCH  26  40
ATOM     40  C   UNL A   1      39.337  34.035  38.966  1.00  0.00     0.023 A 
ATOM     41  C   UNL A   1      38.672  33.506  40.083  1.00  0.00     0.031 A 
ATOM     42  C   UNL A   1      39.654  35.406  38.971  1.00  0.00     0.131 A 
ATOM     43  C   UNL A   1      38.257  34.361  41.115  1.00  0.00     0.055 A 
ATOM     44  C   UNL A   1      39.312  36.236  40.041  1.00  0.00     0.041 A 
ATOM     45  F   UNL A   1      40.274  35.969  37.922  1.00  0.00    -0.206 F 
ATOM     46  C   UNL A   1      38.591  35.717  41.112  1.00  0.00     0.022 A 
BRANCH  43  47
ATOM     47  S   UNL A   1      37.134  33.705  42.379  1.00  0.00     0.124 S 
ATOM     48  O   UNL A   1      37.371  32.267  42.262  1.00  0.00    -0.237 OA
ATOM     49  O   UNL A   1      37.627  34.335  43.598  1.00  0.00    -0.237 OA
ATOM     50  O   UNL A   1      35.817  34.152  41.933  1.00  0.00    -0.744 OA
ENDBRANCH  43  47
ENDBRANCH  26  40
BRANCH  27  51
ATOM     51  C   UNL A   1      41.179  29.470  30.338  1.00  0.00     0.023 A 
ATOM     52  C   UNL A   1      40.763  28.195  29.931  1.00  0.00     0.031 A 
ATOM     53  C   UNL A   1      41.948  30.240  29.447  1.00  0.00     0.131 A 
ATOM     54  C   UNL A   1      41.135  27.716  28.665  1.00  0.00     0.055 A 
ATOM     55  C   UNL A   1      42.301  29.766  28.184  1.00  0.00     0.041 A 
ATOM     56  F   UNL A   1      42.346  31.475  29.789  1.00  0.00    -0.206 F 
ATOM     57  C   UNL A   1      41.899  28.493  27.789  1.00  0.00     0.022 A 
BRANCH  54  58
ATOM     58  S   UNL A   1      40.633  26.040  28.191  1.00  0.00     0.124 S 
ATOM     59  O   UNL A   1      41.763  25.242  28.655  1.00  0.00    -0.237 OA
ATOM     60  O   UNL A   1      39.388  25.882  28.934  1.00  0.00    -0.237 OA
ATOM     61  O   UNL A   1      40.484  26.127  26.740  1.00  0.00    -0.744 OA
ENDBRANCH  54  58
ENDBRANCH  27  51
BRANCH  39  62
ATOM     62  C   UNL A   1      44.647  29.855  36.324  1.00  0.00     0.023 A 
ATOM     63  C   UNL A   1      44.704  28.613  36.977  1.00  0.00     0.031 A 
ATOM     64  C   UNL A   1      45.841  30.567  36.123  1.00  0.00     0.131 A 
ATOM     65  C   UNL A   1      45.936  28.133  37.445  1.00  0.00     0.055 A 
ATOM     66  C   UNL A   1      47.068  30.071  36.565  1.00  0.00     0.041 A 
ATOM     67  F   UNL A   1      45.828  31.762  35.512  1.00  0.00    -0.206 F 
ATOM     68  C   UNL A   1      47.118  28.851  37.235  1.00  0.00     0.022 A 
BRANCH  65  69
ATOM     69  S   UNL A   1      45.978  26.570  38.363  1.00  0.00     0.124 S 
ATOM     70  O   UNL A   1      47.413  26.357  38.529  1.00  0.00    -0.237 OA
ATOM     71  O   UNL A   1      45.236  26.894  39.577  1.00  0.00    -0.237 OA
ATOM     72  O   UNL A   1      45.311  25.627  37.466  1.00  0.00    -0.744 OA
ENDBRANCH  65  69
ENDBRANCH  39  62
ENDBRANCH  13  14
ENDBRANCH   6   8
ENDBRANCH   5   6
ENDBRANCH   4   5
ENDBRANCH   3   4
ENDBRANCH   2   3
ENDBRANCH   1   2
BRANCH   1  73
ATOM     73  C   UNL A   1      34.626  31.740  28.287  1.00  0.00     0.188 C 
BRANCH  73  74
ATOM     74  O   UNL A   1      35.730  30.878  28.582  1.00  0.00    -0.376 OA
BRANCH  74  75
ATOM     75  C   UNL A   1      35.558  29.529  28.152  1.00  0.00     0.202 C 
BRANCH  75  76
ATOM     76  C   UNL A   1      34.283  29.344  27.330  1.00  0.00     0.261 C 
BRANCH  76  77
ATOM     77  O   UNL A   1      34.302  28.184  26.482  1.00  0.00    -0.457 OA
BRANCH  77  78
ATOM     78  C   UNL A   1      33.240  28.009  25.639  1.00  0.00     0.374 C 
ATOM     79  O   UNL A   1      32.216  28.678  25.650  1.00  0.00    -0.242 OA
BRANCH  78  80
ATOM     80  C   UNL A   1      33.495  26.858  24.810  1.00  0.00     0.212 A 
ATOM     81  C   UNL A   1      33.228  26.653  23.470  1.00  0.00     0.059 A 
ATOM     82  O   UNL A   1      34.150  25.763  25.325  1.00  0.00    -0.449 OA
ATOM     83  C   UNL A   1      33.787  25.403  23.135  1.00  0.00     0.052 A 
ATOM     84  C   UNL A   1      34.279  24.862  24.304  1.00  0.00     0.135 A 
BRANCH  84  85
ATOM     85  C   UNL A   1      34.942  23.585  24.570  1.00  0.00     0.025 A 
ATOM     86  C   UNL A   1      36.347  23.615  24.599  1.00  0.00     0.014 A 
ATOM     87  C   UNL A   1      34.259  22.338  24.671  1.00  0.00    -0.006 A 
ATOM     88  C   UNL A   1      37.086  22.445  24.710  1.00  0.00     0.022 A 
ATOM     89  C   UNL A   1      35.020  21.133  24.753  1.00  0.00     0.001 A 
ATOM     90  C   UNL A   1      32.848  22.223  24.674  1.00  0.00     0.009 A 
ATOM     91  C   UNL A   1      36.433  21.216  24.775  1.00  0.00     0.048 A 
ATOM     92  C   UNL A   1      34.337  19.893  24.795  1.00  0.00     0.010 A 
ATOM     93  C   UNL A   1      32.210  20.987  24.766  1.00  0.00     0.001 A 
ATOM     94  Cl  UNL A   1      37.448  19.813  24.901  1.00  0.00    -0.084 Cl
ATOM     95  C   UNL A   1      32.948  19.819  24.803  1.00  0.00     0.001 A 
ENDBRANCH  84  85
ENDBRANCH  78  80
ENDBRANCH  77  78
ENDBRANCH  76  77
ENDBRANCH  75  76
ENDBRANCH  74  75
ENDBRANCH  73  74
ENDBRANCH   1  73
TORSDOF 21
ENDMDL
