MODEL 1
REMARK VINA RESULT:      -9.9      0.000      0.000
REMARK SMILES O=C(CNC(=O)OCC1=Cc2ccccc2S1(=O)=O)OCCOCCOCCOC(=O)c1ccc(-c2c3nc(c(-c4cc(S(=O)(=O)[O-])ccc4F)c4ccc([nH]4)c(-c4cc(S(=O)(=O)[O-])ccc4F)c4nc(c(-c5cc(S(=O)(=O)[O-])ccc5F)c5ccc2[nH]5)C=C4)C=C3)cc1
REMARK SMILES IDX 24 1 23 2 22 3 21 4 20 5 2 6 1 7 3 8 4 9 5 10 6 12 7 13 8 14
REMARK SMILES IDX 9 15 10 16 17 17 11 18 16 19 18 20 19 21 12 22 15 23 13 24
REMARK SMILES IDX 14 25 25 26 26 27 27 28 28 29 29 30 30 31 31 32 32 33 33 34
REMARK SMILES IDX 94 35 34 36 93 37 35 38 36 39 37 40 87 41 38 42 92 43 86 44
REMARK SMILES IDX 88 45 39 46 91 47 85 48 84 49 40 51 72 52 52 53 71 54 53 55
REMARK SMILES IDX 56 56 70 57 89 58 54 59 55 60 69 62 90 63 57 64 41 65 42 66
REMARK SMILES IDX 50 67 43 68 49 69 51 70 48 71 44 72 45 73 46 74 47 75 73 76
REMARK SMILES IDX 74 77 82 78 75 79 81 80 83 81 80 82 76 83 77 84 78 85 79 86
REMARK SMILES IDX 58 87 59 88 67 89 60 90 66 91 68 92 65 93 61 94 62 95 63 96
REMARK SMILES IDX 64 97
REMARK H PARENT 4 11 88 50 56 61
REMARK Flexibility Score: inf
ROOT
ATOM      1  C   UNL A   1      30.111  29.368  23.809  1.00  0.00     0.188 C 
ENDROOT
BRANCH   1   2
ATOM      2  O   UNL A   1      29.495  28.175  23.356  1.00  0.00    -0.376 OA
BRANCH   2   3
ATOM      3  C   UNL A   1      30.186  26.945  23.445  1.00  0.00     0.202 C 
BRANCH   3   4
ATOM      4  C   UNL A   1      29.747  25.868  24.439  1.00  0.00     0.261 C 
BRANCH   4   5
ATOM      5  O   UNL A   1      30.766  25.168  25.161  1.00  0.00    -0.462 OA
BRANCH   5   6
ATOM      6  C   UNL A   1      30.634  24.023  25.873  1.00  0.00     0.325 C 
ATOM      7  O   UNL A   1      30.325  24.110  27.062  1.00  0.00    -0.250 OA
BRANCH   6   8
ATOM      8  C   UNL A   1      31.045  22.676  25.279  1.00  0.00     0.242 C 
BRANCH   8   9
ATOM      9  N   UNL A   1      31.823  21.852  26.173  1.00  0.00    -0.311 N 
ATOM     10  C   UNL A   1      32.727  20.901  25.833  1.00  0.00     0.407 C 
ATOM     11  H   UNL A   1      31.681  21.996  27.137  1.00  0.00     0.167 HD
ATOM     12  O   UNL A   1      33.135  20.101  26.665  1.00  0.00    -0.225 OA
BRANCH  10  13
ATOM     13  O   UNL A   1      33.088  20.914  24.528  1.00  0.00    -0.444 OA
BRANCH  13  14
ATOM     14  C   UNL A   1      34.382  21.474  24.264  1.00  0.00     0.283 C 
BRANCH  14  15
ATOM     15  C   UNL A   1      34.304  22.933  23.999  1.00  0.00     0.087 C 
ATOM     16  C   UNL A   1      33.907  23.560  22.874  1.00  0.00     0.029 C 
ATOM     17  S   UNL A   1      34.798  24.069  25.228  1.00  0.00     0.206 S 
ATOM     18  C   UNL A   1      33.902  25.014  23.012  1.00  0.00    -0.005 A 
ATOM     19  C   UNL A   1      34.315  25.439  24.271  1.00  0.00     0.079 A 
ATOM     20  O   UNL A   1      33.923  24.024  26.380  1.00  0.00    -0.219 OA
ATOM     21  O   UNL A   1      36.242  24.118  25.328  1.00  0.00    -0.219 OA
ATOM     22  C   UNL A   1      33.496  25.962  22.089  1.00  0.00     0.009 A 
ATOM     23  C   UNL A   1      34.288  26.754  24.696  1.00  0.00     0.021 A 
ATOM     24  C   UNL A   1      33.474  27.311  22.479  1.00  0.00     0.001 A 
ATOM     25  C   UNL A   1      33.853  27.701  23.777  1.00  0.00     0.001 A 
ENDBRANCH  14  15
ENDBRANCH  13  14
ENDBRANCH  10  13
ENDBRANCH   8   9
ENDBRANCH   6   8
ENDBRANCH   5   6
ENDBRANCH   4   5
ENDBRANCH   3   4
ENDBRANCH   2   3
ENDBRANCH   1   2
BRANCH   1  26
ATOM     26  C   UNL A   1      31.377  29.368  24.680  1.00  0.00     0.188 C 
BRANCH  26  27
ATOM     27  O   UNL A   1      31.368  28.786  25.967  1.00  0.00    -0.376 OA
BRANCH  27  28
ATOM     28  C   UNL A   1      31.786  29.547  27.089  1.00  0.00     0.202 C 
BRANCH  28  29
ATOM     29  C   UNL A   1      31.852  31.076  27.043  1.00  0.00     0.261 C 
BRANCH  29  30
ATOM     30  O   UNL A   1      33.118  31.612  26.627  1.00  0.00    -0.460 OA
BRANCH  30  31
ATOM     31  C   UNL A   1      33.757  32.338  27.577  1.00  0.00     0.338 C 
ATOM     32  O   UNL A   1      33.312  33.296  28.189  1.00  0.00    -0.246 OA
BRANCH  31  33
ATOM     33  C   UNL A   1      35.076  31.762  27.880  1.00  0.00     0.060 A 
ATOM     34  C   UNL A   1      35.176  30.375  28.046  1.00  0.00     0.016 A 
ATOM     35  C   UNL A   1      36.161  32.591  28.167  1.00  0.00     0.016 A 
ATOM     36  C   UNL A   1      36.353  29.815  28.544  1.00  0.00     0.010 A 
ATOM     37  C   UNL A   1      37.337  32.028  28.678  1.00  0.00     0.010 A 
ATOM     38  C   UNL A   1      37.424  30.642  28.909  1.00  0.00    -0.014 A 
BRANCH  38  39
ATOM     39  C   UNL A   1      38.551  30.084  29.702  1.00  0.00     0.031 A 
ATOM     40  C   UNL A   1      38.739  30.550  31.122  1.00  0.00     0.074 A 
ATOM     41  C   UNL A   1      39.378  29.159  29.184  1.00  0.00     0.049 A 
ATOM     42  N   UNL A   1      39.679  30.248  31.981  1.00  0.00    -0.248 NA
ATOM     43  C   UNL A   1      37.731  31.490  31.637  1.00  0.00     0.031 C 
ATOM     44  C   UNL A   1      39.270  28.584  27.844  1.00  0.00     0.029 A 
ATOM     45  N   UNL A   1      40.479  28.542  29.725  1.00  0.00    -0.354 N 
ATOM     46  C   UNL A   1      39.380  30.962  33.137  1.00  0.00     0.074 A 
ATOM     47  C   UNL A   1      38.195  31.744  32.850  1.00  0.00     0.031 C 
ATOM     48  C   UNL A   1      40.269  27.704  27.665  1.00  0.00     0.029 A 
ATOM     49  C   UNL A   1      41.114  27.682  28.859  1.00  0.00     0.049 A 
ATOM     50  H   UNL A   1      40.786  28.700  30.648  1.00  0.00     0.167 HD
ATOM     51  C   UNL A   1      40.027  30.960  34.331  1.00  0.00     0.034 A 
ATOM     52  C   UNL A   1      42.258  26.981  29.004  1.00  0.00     0.034 A 
ATOM     53  C   UNL A   1      41.214  30.184  34.601  1.00  0.00     0.049 A 
ATOM     54  C   UNL A   1      43.018  27.070  30.308  1.00  0.00     0.074 A 
ATOM     55  C   UNL A   1      41.941  30.102  35.776  1.00  0.00     0.029 A 
ATOM     56  N   UNL A   1      41.859  29.367  33.681  1.00  0.00    -0.354 N 
ATOM     57  N   UNL A   1      42.726  27.749  31.394  1.00  0.00    -0.248 NA
ATOM     58  C   UNL A   1      44.260  26.291  30.406  1.00  0.00     0.031 C 
ATOM     59  C   UNL A   1      43.064  29.302  35.544  1.00  0.00     0.029 A 
ATOM     60  C   UNL A   1      42.994  28.808  34.252  1.00  0.00     0.049 A 
ATOM     61  H   UNL A   1      41.553  29.205  32.759  1.00  0.00     0.167 HD
ATOM     62  C   UNL A   1      43.727  27.444  32.315  1.00  0.00     0.074 A 
ATOM     63  C   UNL A   1      44.623  26.513  31.659  1.00  0.00     0.031 C 
ATOM     64  C   UNL A   1      43.889  27.887  33.589  1.00  0.00     0.034 A 
BRANCH  51  65
ATOM     65  C   UNL A   1      39.492  31.871  35.411  1.00  0.00     0.023 A 
ATOM     66  C   UNL A   1      38.813  31.370  36.537  1.00  0.00     0.031 A 
ATOM     67  C   UNL A   1      39.640  33.265  35.301  1.00  0.00     0.131 A 
ATOM     68  C   UNL A   1      38.245  32.257  37.463  1.00  0.00     0.055 A 
ATOM     69  C   UNL A   1      39.146  34.139  36.271  1.00  0.00     0.041 A 
ATOM     70  F   UNL A   1      40.257  33.804  34.238  1.00  0.00    -0.206 F 
ATOM     71  C   UNL A   1      38.429  33.637  37.353  1.00  0.00     0.022 A 
BRANCH  68  72
ATOM     72  S   UNL A   1      37.130  31.592  38.731  1.00  0.00     0.124 S 
ATOM     73  O   UNL A   1      36.022  32.541  38.676  1.00  0.00    -0.237 OA
ATOM     74  O   UNL A   1      36.850  30.250  38.231  1.00  0.00    -0.237 OA
ATOM     75  O   UNL A   1      37.929  31.648  39.954  1.00  0.00    -0.744 OA
ENDBRANCH  68  72
ENDBRANCH  51  65
BRANCH  52  76
ATOM     76  C   UNL A   1      42.790  26.160  27.877  1.00  0.00     0.023 A 
ATOM     77  C   UNL A   1      42.465  24.800  27.752  1.00  0.00     0.031 A 
ATOM     78  C   UNL A   1      43.690  26.711  26.945  1.00  0.00     0.131 A 
ATOM     79  C   UNL A   1      43.077  24.024  26.753  1.00  0.00     0.055 A 
ATOM     80  C   UNL A   1      44.246  25.949  25.917  1.00  0.00     0.041 A 
ATOM     81  F   UNL A   1      44.041  28.005  27.024  1.00  0.00    -0.206 F 
ATOM     82  C   UNL A   1      43.952  24.593  25.825  1.00  0.00     0.022 A 
BRANCH  79  83
ATOM     83  S   UNL A   1      42.788  22.233  26.747  1.00  0.00     0.124 S 
ATOM     84  O   UNL A   1      42.609  21.957  28.168  1.00  0.00    -0.237 OA
ATOM     85  O   UNL A   1      41.594  22.121  25.916  1.00  0.00    -0.237 OA
ATOM     86  O   UNL A   1      44.011  21.693  26.156  1.00  0.00    -0.744 OA
ENDBRANCH  79  83
ENDBRANCH  52  76
BRANCH  64  87
ATOM     87  C   UNL A   1      45.050  27.323  34.377  1.00  0.00     0.023 A 
ATOM     88  C   UNL A   1      44.932  26.151  35.146  1.00  0.00     0.031 A 
ATOM     89  C   UNL A   1      46.294  27.983  34.370  1.00  0.00     0.131 A 
ATOM     90  C   UNL A   1      46.016  25.710  35.921  1.00  0.00     0.055 A 
ATOM     91  C   UNL A   1      47.388  27.500  35.089  1.00  0.00     0.041 A 
ATOM     92  F   UNL A   1      46.467  29.107  33.658  1.00  0.00    -0.206 F 
ATOM     93  C   UNL A   1      47.249  26.366  35.882  1.00  0.00     0.022 A 
BRANCH  90  94
ATOM     94  S   UNL A   1      45.764  24.323  37.065  1.00  0.00     0.124 S 
ATOM     95  O   UNL A   1      44.758  24.861  37.975  1.00  0.00    -0.237 OA
ATOM     96  O   UNL A   1      45.314  23.261  36.172  1.00  0.00    -0.237 OA
ATOM     97  O   UNL A   1      47.087  24.119  37.653  1.00  0.00    -0.744 OA
ENDBRANCH  90  94
ENDBRANCH  64  87
ENDBRANCH  38  39
ENDBRANCH  31  33
ENDBRANCH  30  31
ENDBRANCH  29  30
ENDBRANCH  28  29
ENDBRANCH  27  28
ENDBRANCH  26  27
ENDBRANCH   1  26
TORSDOF 24
ENDMDL
MODEL 2
REMARK VINA RESULT:      -9.8      2.319      2.983
REMARK SMILES O=C(CNC(=O)OCC1=Cc2ccccc2S1(=O)=O)OCCOCCOCCOC(=O)c1ccc(-c2c3nc(c(-c4cc(S(=O)(=O)[O-])ccc4F)c4ccc([nH]4)c(-c4cc(S(=O)(=O)[O-])ccc4F)c4nc(c(-c5cc(S(=O)(=O)[O-])ccc5F)c5ccc2[nH]5)C=C4)C=C3)cc1
REMARK SMILES IDX 24 1 23 2 22 3 21 4 20 5 2 6 1 7 3 8 4 9 5 10 6 12 7 13 8 14
REMARK SMILES IDX 9 15 10 16 17 17 11 18 16 19 18 20 19 21 12 22 15 23 13 24
REMARK SMILES IDX 14 25 25 26 26 27 27 28 28 29 29 30 30 31 31 32 32 33 33 34
REMARK SMILES IDX 94 35 34 36 93 37 35 38 36 39 37 40 87 41 38 42 92 43 86 44
REMARK SMILES IDX 88 45 39 46 91 47 85 48 84 49 40 51 72 52 52 53 71 54 53 55
REMARK SMILES IDX 56 56 70 57 89 58 54 59 55 60 69 62 90 63 57 64 41 65 42 66
REMARK SMILES IDX 50 67 43 68 49 69 51 70 48 71 44 72 45 73 46 74 47 75 73 76
REMARK SMILES IDX 74 77 82 78 75 79 81 80 83 81 80 82 76 83 77 84 78 85 79 86
REMARK SMILES IDX 58 87 59 88 67 89 60 90 66 91 68 92 65 93 61 94 62 95 63 96
REMARK SMILES IDX 64 97
REMARK H PARENT 4 11 88 50 56 61
REMARK Flexibility Score: inf
ROOT
ATOM      1  C   UNL A   1      30.308  29.260  23.641  1.00  0.00     0.188 C 
ENDROOT
BRANCH   1   2
ATOM      2  O   UNL A   1      29.532  28.137  23.261  1.00  0.00    -0.376 OA
BRANCH   2   3
ATOM      3  C   UNL A   1      30.029  26.830  23.470  1.00  0.00     0.202 C 
BRANCH   3   4
ATOM      4  C   UNL A   1      29.445  25.933  24.563  1.00  0.00     0.261 C 
BRANCH   4   5
ATOM      5  O   UNL A   1      30.352  25.335  25.494  1.00  0.00    -0.462 OA
BRANCH   5   6
ATOM      6  C   UNL A   1      30.207  24.155  26.145  1.00  0.00     0.325 C 
ATOM      7  O   UNL A   1      29.551  24.142  27.187  1.00  0.00    -0.250 OA
BRANCH   6   8
ATOM      8  C   UNL A   1      30.994  22.918  25.714  1.00  0.00     0.242 C 
BRANCH   8   9
ATOM      9  N   UNL A   1      32.017  22.515  26.651  1.00  0.00    -0.311 N 
ATOM     10  C   UNL A   1      33.181  21.882  26.370  1.00  0.00     0.407 C 
ATOM     11  H   UNL A   1      31.849  22.723  27.598  1.00  0.00     0.167 HD
ATOM     12  O   UNL A   1      33.846  21.371  27.263  1.00  0.00    -0.225 OA
BRANCH  10  13
ATOM     13  O   UNL A   1      33.498  21.851  25.055  1.00  0.00    -0.444 OA
BRANCH  13  14
ATOM     14  C   UNL A   1      34.190  23.012  24.571  1.00  0.00     0.283 C 
BRANCH  14  15
ATOM     15  C   UNL A   1      35.578  23.079  25.093  1.00  0.00     0.087 C 
ATOM     16  C   UNL A   1      36.144  24.039  25.851  1.00  0.00     0.029 C 
ATOM     17  S   UNL A   1      36.715  21.813  24.706  1.00  0.00     0.206 S 
ATOM     18  C   UNL A   1      37.520  23.723  26.226  1.00  0.00    -0.005 A 
ATOM     19  C   UNL A   1      37.953  22.503  25.716  1.00  0.00     0.079 A 
ATOM     20  O   UNL A   1      36.334  20.550  25.301  1.00  0.00    -0.219 OA
ATOM     21  O   UNL A   1      37.175  21.940  23.337  1.00  0.00    -0.219 OA
ATOM     22  C   UNL A   1      38.374  24.443  27.042  1.00  0.00     0.009 A 
ATOM     23  C   UNL A   1      39.168  21.920  26.019  1.00  0.00     0.021 A 
ATOM     24  C   UNL A   1      39.626  23.891  27.357  1.00  0.00     0.001 A 
ATOM     25  C   UNL A   1      40.013  22.632  26.861  1.00  0.00     0.001 A 
ENDBRANCH  14  15
ENDBRANCH  13  14
ENDBRANCH  10  13
ENDBRANCH   8   9
ENDBRANCH   6   8
ENDBRANCH   5   6
ENDBRANCH   4   5
ENDBRANCH   3   4
ENDBRANCH   2   3
ENDBRANCH   1   2
BRANCH   1  26
ATOM     26  C   UNL A   1      31.560  29.141  24.525  1.00  0.00     0.188 C 
BRANCH  26  27
ATOM     27  O   UNL A   1      31.483  28.566  25.812  1.00  0.00    -0.376 OA
BRANCH  27  28
ATOM     28  C   UNL A   1      31.847  29.332  26.949  1.00  0.00     0.202 C 
BRANCH  28  29
ATOM     29  C   UNL A   1      31.845  30.862  26.923  1.00  0.00     0.261 C 
BRANCH  29  30
ATOM     30  O   UNL A   1      33.096  31.461  26.546  1.00  0.00    -0.460 OA
BRANCH  30  31
ATOM     31  C   UNL A   1      33.688  32.183  27.530  1.00  0.00     0.338 C 
ATOM     32  O   UNL A   1      33.176  33.066  28.198  1.00  0.00    -0.246 OA
BRANCH  31  33
ATOM     33  C   UNL A   1      35.054  31.701  27.787  1.00  0.00     0.060 A 
ATOM     34  C   UNL A   1      35.258  30.323  27.935  1.00  0.00     0.016 A 
ATOM     35  C   UNL A   1      36.084  32.604  28.051  1.00  0.00     0.016 A 
ATOM     36  C   UNL A   1      36.487  29.845  28.391  1.00  0.00     0.010 A 
ATOM     37  C   UNL A   1      37.312  32.123  28.520  1.00  0.00     0.010 A 
ATOM     38  C   UNL A   1      37.506  30.744  28.733  1.00  0.00    -0.014 A 
BRANCH  38  39
ATOM     39  C   UNL A   1      38.694  30.262  29.486  1.00  0.00     0.031 A 
ATOM     40  C   UNL A   1      38.881  30.714  30.911  1.00  0.00     0.074 A 
ATOM     41  C   UNL A   1      39.578  29.417  28.928  1.00  0.00     0.049 A 
ATOM     42  N   UNL A   1      39.864  30.471  31.740  1.00  0.00    -0.248 NA
ATOM     43  C   UNL A   1      37.815  31.559  31.471  1.00  0.00     0.031 C 
ATOM     44  C   UNL A   1      39.481  28.863  27.579  1.00  0.00     0.029 A 
ATOM     45  N   UNL A   1      40.738  28.880  29.429  1.00  0.00    -0.354 N 
ATOM     46  C   UNL A   1      39.539  31.135  32.919  1.00  0.00     0.074 A 
ATOM     47  C   UNL A   1      38.289  31.826  32.678  1.00  0.00     0.031 C 
ATOM     48  C   UNL A   1      40.543  28.069  27.357  1.00  0.00     0.029 A 
ATOM     49  C   UNL A   1      41.417  28.091  28.529  1.00  0.00     0.049 A 
ATOM     50  H   UNL A   1      41.055  29.044  30.348  1.00  0.00     0.167 HD
ATOM     51  C   UNL A   1      40.215  31.161  34.096  1.00  0.00     0.034 A 
ATOM     52  C   UNL A   1      42.616  27.480  28.630  1.00  0.00     0.034 A 
ATOM     53  C   UNL A   1      41.467  30.477  34.320  1.00  0.00     0.049 A 
ATOM     54  C   UNL A   1      43.400  27.604  29.918  1.00  0.00     0.074 A 
ATOM     55  C   UNL A   1      42.228  30.430  35.475  1.00  0.00     0.029 A 
ATOM     56  N   UNL A   1      42.150  29.732  33.367  1.00  0.00    -0.354 N 
ATOM     57  N   UNL A   1      43.083  28.235  31.025  1.00  0.00    -0.248 NA
ATOM     58  C   UNL A   1      44.702  26.924  29.968  1.00  0.00     0.031 C 
ATOM     59  C   UNL A   1      43.405  29.727  35.198  1.00  0.00     0.029 A 
ATOM     60  C   UNL A   1      43.340  29.255  33.898  1.00  0.00     0.049 A 
ATOM     61  H   UNL A   1      41.835  29.566  32.449  1.00  0.00     0.167 HD
ATOM     62  C   UNL A   1      44.129  27.993  31.914  1.00  0.00     0.074 A 
ATOM     63  C   UNL A   1      45.078  27.150  31.217  1.00  0.00     0.031 C 
ATOM     64  C   UNL A   1      44.288  28.422  33.194  1.00  0.00     0.034 A 
BRANCH  51  65
ATOM     65  C   UNL A   1      39.638  32.004  35.209  1.00  0.00     0.023 A 
ATOM     66  C   UNL A   1      39.956  33.367  35.352  1.00  0.00     0.031 A 
ATOM     67  C   UNL A   1      38.777  31.429  36.161  1.00  0.00     0.131 A 
ATOM     68  C   UNL A   1      39.479  34.086  36.458  1.00  0.00     0.055 A 
ATOM     69  C   UNL A   1      38.236  32.171  37.212  1.00  0.00     0.041 A 
ATOM     70  F   UNL A   1      38.455  30.127  36.092  1.00  0.00    -0.206 F 
ATOM     71  C   UNL A   1      38.599  33.504  37.375  1.00  0.00     0.022 A 
BRANCH  68  72
ATOM     72  S   UNL A   1      40.145  35.744  36.769  1.00  0.00     0.124 S 
ATOM     73  O   UNL A   1      39.523  36.075  38.049  1.00  0.00    -0.237 OA
ATOM     74  O   UNL A   1      41.583  35.506  36.799  1.00  0.00    -0.237 OA
ATOM     75  O   UNL A   1      39.665  36.526  35.631  1.00  0.00    -0.744 OA
ENDBRANCH  68  72
ENDBRANCH  51  65
BRANCH  52  76
ATOM     76  C   UNL A   1      43.182  26.727  27.473  1.00  0.00     0.023 A 
ATOM     77  C   UNL A   1      43.128  25.325  27.421  1.00  0.00     0.031 A 
ATOM     78  C   UNL A   1      43.850  27.399  26.432  1.00  0.00     0.131 A 
ATOM     79  C   UNL A   1      43.775  24.638  26.381  1.00  0.00     0.055 A 
ATOM     80  C   UNL A   1      44.438  26.714  25.369  1.00  0.00     0.041 A 
ATOM     81  F   UNL A   1      43.939  28.740  26.436  1.00  0.00    -0.206 F 
ATOM     82  C   UNL A   1      44.416  25.323  25.347  1.00  0.00     0.022 A 
BRANCH  79  83
ATOM     83  S   UNL A   1      43.855  22.827  26.456  1.00  0.00     0.124 S 
ATOM     84  O   UNL A   1      45.287  22.588  26.322  1.00  0.00    -0.237 OA
ATOM     85  O   UNL A   1      43.277  22.551  27.766  1.00  0.00    -0.237 OA
ATOM     86  O   UNL A   1      43.043  22.405  25.315  1.00  0.00    -0.744 OA
ENDBRANCH  79  83
ENDBRANCH  52  76
BRANCH  64  87
ATOM     87  C   UNL A   1      45.510  27.937  33.941  1.00  0.00     0.023 A 
ATOM     88  C   UNL A   1      46.773  28.534  33.774  1.00  0.00     0.031 A 
ATOM     89  C   UNL A   1      45.409  26.847  34.826  1.00  0.00     0.131 A 
ATOM     90  C   UNL A   1      47.892  28.000  34.432  1.00  0.00     0.055 A 
ATOM     91  C   UNL A   1      46.514  26.365  35.530  1.00  0.00     0.041 A 
ATOM     92  F   UNL A   1      44.232  26.235  35.025  1.00  0.00    -0.206 F 
ATOM     93  C   UNL A   1      47.767  26.931  35.324  1.00  0.00     0.022 A 
BRANCH  90  94
ATOM     94  S   UNL A   1      49.537  28.654  34.028  1.00  0.00     0.124 S 
ATOM     95  O   UNL A   1      50.298  28.324  35.229  1.00  0.00    -0.237 OA
ATOM     96  O   UNL A   1      49.883  27.903  32.827  1.00  0.00    -0.237 OA
ATOM     97  O   UNL A   1      49.296  30.081  33.819  1.00  0.00    -0.744 OA
ENDBRANCH  90  94
ENDBRANCH  64  87
ENDBRANCH  38  39
ENDBRANCH  31  33
ENDBRANCH  30  31
ENDBRANCH  29  30
ENDBRANCH  28  29
ENDBRANCH  27  28
ENDBRANCH  26  27
ENDBRANCH   1  26
TORSDOF 24
ENDMDL
MODEL 3
REMARK VINA RESULT:      -9.7      2.201      3.277
REMARK SMILES O=C(CNC(=O)OCC1=Cc2ccccc2S1(=O)=O)OCCOCCOCCOC(=O)c1ccc(-c2c3nc(c(-c4cc(S(=O)(=O)[O-])ccc4F)c4ccc([nH]4)c(-c4cc(S(=O)(=O)[O-])ccc4F)c4nc(c(-c5cc(S(=O)(=O)[O-])ccc5F)c5ccc2[nH]5)C=C4)C=C3)cc1
REMARK SMILES IDX 24 1 23 2 22 3 21 4 20 5 2 6 1 7 3 8 4 9 5 10 6 12 7 13 8 14
REMARK SMILES IDX 9 15 10 16 17 17 11 18 16 19 18 20 19 21 12 22 15 23 13 24
REMARK SMILES IDX 14 25 25 26 26 27 27 28 28 29 29 30 30 31 31 32 32 33 33 34
REMARK SMILES IDX 94 35 34 36 93 37 35 38 36 39 37 40 87 41 38 42 92 43 86 44
REMARK SMILES IDX 88 45 39 46 91 47 85 48 84 49 40 51 72 52 52 53 71 54 53 55
REMARK SMILES IDX 56 56 70 57 89 58 54 59 55 60 69 62 90 63 57 64 41 65 42 66
REMARK SMILES IDX 50 67 43 68 49 69 51 70 48 71 44 72 45 73 46 74 47 75 73 76
REMARK SMILES IDX 74 77 82 78 75 79 81 80 83 81 80 82 76 83 77 84 78 85 79 86
REMARK SMILES IDX 58 87 59 88 67 89 60 90 66 91 68 92 65 93 61 94 62 95 63 96
REMARK SMILES IDX 64 97
REMARK H PARENT 4 11 88 50 56 61
REMARK Flexibility Score: inf
ROOT
ATOM      1  C   UNL A   1      30.237  29.413  23.770  1.00  0.00     0.188 C 
ENDROOT
BRANCH   1   2
ATOM      2  O   UNL A   1      29.721  28.264  23.120  1.00  0.00    -0.376 OA
BRANCH   2   3
ATOM      3  C   UNL A   1      30.600  27.355  22.486  1.00  0.00     0.202 C 
BRANCH   3   4
ATOM      4  C   UNL A   1      31.186  26.167  23.249  1.00  0.00     0.261 C 
BRANCH   4   5
ATOM      5  O   UNL A   1      32.605  25.980  23.211  1.00  0.00    -0.462 OA
BRANCH   5   6
ATOM      6  C   UNL A   1      33.530  26.515  24.045  1.00  0.00     0.325 C 
ATOM      7  O   UNL A   1      34.101  27.548  23.693  1.00  0.00    -0.250 OA
BRANCH   6   8
ATOM      8  C   UNL A   1      33.997  25.760  25.289  1.00  0.00     0.242 C 
BRANCH   8   9
ATOM      9  N   UNL A   1      34.978  24.734  25.021  1.00  0.00    -0.311 N 
ATOM     10  C   UNL A   1      35.304  23.686  25.815  1.00  0.00     0.407 C 
ATOM     11  H   UNL A   1      35.463  24.805  24.167  1.00  0.00     0.167 HD
ATOM     12  O   UNL A   1      36.317  23.032  25.601  1.00  0.00    -0.225 OA
BRANCH  10  13
ATOM     13  O   UNL A   1      34.445  23.471  26.839  1.00  0.00    -0.444 OA
BRANCH  13  14
ATOM     14  C   UNL A   1      33.099  23.169  26.446  1.00  0.00     0.283 C 
BRANCH  14  15
ATOM     15  C   UNL A   1      33.037  21.959  25.588  1.00  0.00     0.087 C 
ATOM     16  C   UNL A   1      33.328  20.683  25.915  1.00  0.00     0.029 C 
ATOM     17  S   UNL A   1      32.568  22.101  23.913  1.00  0.00     0.206 S 
ATOM     18  C   UNL A   1      33.083  19.751  24.818  1.00  0.00    -0.005 A 
ATOM     19  C   UNL A   1      32.609  20.378  23.671  1.00  0.00     0.079 A 
ATOM     20  O   UNL A   1      31.188  22.518  23.778  1.00  0.00    -0.219 OA
ATOM     21  O   UNL A   1      33.648  22.659  23.126  1.00  0.00    -0.219 OA
ATOM     22  C   UNL A   1      33.210  18.373  24.819  1.00  0.00     0.009 A 
ATOM     23  C   UNL A   1      32.190  19.711  22.536  1.00  0.00     0.021 A 
ATOM     24  C   UNL A   1      32.812  17.662  23.676  1.00  0.00     0.001 A 
ATOM     25  C   UNL A   1      32.293  18.325  22.549  1.00  0.00     0.001 A 
ENDBRANCH  14  15
ENDBRANCH  13  14
ENDBRANCH  10  13
ENDBRANCH   8   9
ENDBRANCH   6   8
ENDBRANCH   5   6
ENDBRANCH   4   5
ENDBRANCH   3   4
ENDBRANCH   2   3
ENDBRANCH   1   2
BRANCH   1  26
ATOM     26  C   UNL A   1      31.493  29.370  24.653  1.00  0.00     0.188 C 
BRANCH  26  27
ATOM     27  O   UNL A   1      31.477  28.712  25.902  1.00  0.00    -0.376 OA
BRANCH  27  28
ATOM     28  C   UNL A   1      31.923  29.391  27.065  1.00  0.00     0.202 C 
BRANCH  28  29
ATOM     29  C   UNL A   1      32.109  30.911  27.086  1.00  0.00     0.261 C 
BRANCH  29  30
ATOM     30  O   UNL A   1      33.423  31.363  26.725  1.00  0.00    -0.460 OA
BRANCH  30  31
ATOM     31  C   UNL A   1      34.028  32.130  27.666  1.00  0.00     0.338 C 
ATOM     32  O   UNL A   1      33.555  33.101  28.232  1.00  0.00    -0.246 OA
BRANCH  31  33
ATOM     33  C   UNL A   1      35.347  31.583  28.022  1.00  0.00     0.060 A 
ATOM     34  C   UNL A   1      35.462  30.203  28.231  1.00  0.00     0.016 A 
ATOM     35  C   UNL A   1      36.410  32.438  28.315  1.00  0.00     0.016 A 
ATOM     36  C   UNL A   1      36.633  29.676  28.778  1.00  0.00     0.010 A 
ATOM     37  C   UNL A   1      37.580  31.908  28.874  1.00  0.00     0.010 A 
ATOM     38  C   UNL A   1      37.681  30.530  29.148  1.00  0.00    -0.014 A 
BRANCH  38  39
ATOM     39  C   UNL A   1      38.793  30.013  29.988  1.00  0.00     0.031 A 
ATOM     40  C   UNL A   1      38.913  30.496  31.410  1.00  0.00     0.074 A 
ATOM     41  C   UNL A   1      39.668  29.110  29.509  1.00  0.00     0.049 A 
ATOM     42  N   UNL A   1      39.828  30.229  32.307  1.00  0.00    -0.248 NA
ATOM     43  C   UNL A   1      37.857  31.407  31.878  1.00  0.00     0.031 C 
ATOM     44  C   UNL A   1      39.628  28.523  28.172  1.00  0.00     0.029 A 
ATOM     45  N   UNL A   1      40.765  28.532  30.098  1.00  0.00    -0.354 N 
ATOM     46  C   UNL A   1      39.463  30.942  33.445  1.00  0.00     0.074 A 
ATOM     47  C   UNL A   1      38.267  31.685  33.106  1.00  0.00     0.031 C 
ATOM     48  C   UNL A   1      40.660  27.673  28.039  1.00  0.00     0.029 A 
ATOM     49  C   UNL A   1      41.458  27.686  29.264  1.00  0.00     0.049 A 
ATOM     50  H   UNL A   1      41.031  28.706  31.030  1.00  0.00     0.167 HD
ATOM     51  C   UNL A   1      40.064  30.969  34.662  1.00  0.00     0.034 A 
ATOM     52  C   UNL A   1      42.617  27.021  29.458  1.00  0.00     0.034 A 
ATOM     53  C   UNL A   1      41.263  30.232  34.983  1.00  0.00     0.049 A 
ATOM     54  C   UNL A   1      43.324  27.143  30.789  1.00  0.00     0.074 A 
ATOM     55  C   UNL A   1      41.946  30.181  36.186  1.00  0.00     0.029 A 
ATOM     56  N   UNL A   1      41.967  29.428  34.096  1.00  0.00    -0.354 N 
ATOM     57  N   UNL A   1      42.970  27.820  31.857  1.00  0.00    -0.248 NA
ATOM     58  C   UNL A   1      44.584  26.403  30.940  1.00  0.00     0.031 C 
ATOM     59  C   UNL A   1      43.102  29.414  36.003  1.00  0.00     0.029 A 
ATOM     60  C   UNL A   1      43.095  28.908  34.714  1.00  0.00     0.049 A 
ATOM     61  H   UNL A   1      41.702  29.250  33.164  1.00  0.00     0.167 HD
ATOM     62  C   UNL A   1      43.944  27.554  32.818  1.00  0.00     0.074 A 
ATOM     63  C   UNL A   1      44.892  26.646  32.205  1.00  0.00     0.031 C 
ATOM     64  C   UNL A   1      44.043  28.010  34.093  1.00  0.00     0.034 A 
BRANCH  51  65
ATOM     65  C   UNL A   1      39.461  31.870  35.713  1.00  0.00     0.023 A 
ATOM     66  C   UNL A   1      38.762  31.357  36.821  1.00  0.00     0.031 A 
ATOM     67  C   UNL A   1      39.562  33.268  35.592  1.00  0.00     0.131 A 
ATOM     68  C   UNL A   1      38.131  32.232  37.718  1.00  0.00     0.055 A 
ATOM     69  C   UNL A   1      39.005  34.133  36.535  1.00  0.00     0.041 A 
ATOM     70  F   UNL A   1      40.196  33.818  34.544  1.00  0.00    -0.206 F 
ATOM     71  C   UNL A   1      38.270  33.617  37.598  1.00  0.00     0.022 A 
BRANCH  68  72
ATOM     72  S   UNL A   1      36.999  31.540  38.954  1.00  0.00     0.124 S 
ATOM     73  O   UNL A   1      35.854  32.440  38.841  1.00  0.00    -0.237 OA
ATOM     74  O   UNL A   1      36.794  30.180  38.469  1.00  0.00    -0.237 OA
ATOM     75  O   UNL A   1      37.747  31.650  40.205  1.00  0.00    -0.744 OA
ENDBRANCH  68  72
ENDBRANCH  51  65
BRANCH  52  76
ATOM     76  C   UNL A   1      43.216  26.209  28.359  1.00  0.00     0.023 A 
ATOM     77  C   UNL A   1      44.270  26.709  27.577  1.00  0.00     0.031 A 
ATOM     78  C   UNL A   1      42.694  24.944  28.028  1.00  0.00     0.131 A 
ATOM     79  C   UNL A   1      44.733  25.973  26.474  1.00  0.00     0.055 A 
ATOM     80  C   UNL A   1      43.200  24.191  26.968  1.00  0.00     0.041 A 
ATOM     81  F   UNL A   1      41.680  24.422  28.737  1.00  0.00    -0.206 F 
ATOM     82  C   UNL A   1      44.216  24.711  26.174  1.00  0.00     0.022 A 
BRANCH  79  83
ATOM     83  S   UNL A   1      45.955  26.738  25.372  1.00  0.00     0.124 S 
ATOM     84  O   UNL A   1      46.355  25.607  24.544  1.00  0.00    -0.237 OA
ATOM     85  O   UNL A   1      45.163  27.770  24.711  1.00  0.00    -0.237 OA
ATOM     86  O   UNL A   1      46.979  27.232  26.291  1.00  0.00    -0.744 OA
ENDBRANCH  79  83
ENDBRANCH  52  76
BRANCH  64  87
ATOM     87  C   UNL A   1      45.190  27.489  34.930  1.00  0.00     0.023 A 
ATOM     88  C   UNL A   1      46.428  28.154  34.998  1.00  0.00     0.031 A 
ATOM     89  C   UNL A   1      45.043  26.295  35.662  1.00  0.00     0.131 A 
ATOM     90  C   UNL A   1      47.486  27.590  35.728  1.00  0.00     0.055 A 
ATOM     91  C   UNL A   1      46.079  25.776  36.440  1.00  0.00     0.041 A 
ATOM     92  F   UNL A   1      43.887  25.615  35.635  1.00  0.00    -0.206 F 
ATOM     93  C   UNL A   1      47.314  26.416  36.465  1.00  0.00     0.022 A 
BRANCH  90  94
ATOM     94  S   UNL A   1      49.128  28.357  35.618  1.00  0.00     0.124 S 
ATOM     95  O   UNL A   1      49.971  27.219  35.264  1.00  0.00    -0.237 OA
ATOM     96  O   UNL A   1      48.934  29.357  34.573  1.00  0.00    -0.237 OA
ATOM     97  O   UNL A   1      49.345  28.896  36.959  1.00  0.00    -0.744 OA
ENDBRANCH  90  94
ENDBRANCH  64  87
ENDBRANCH  38  39
ENDBRANCH  31  33
ENDBRANCH  30  31
ENDBRANCH  29  30
ENDBRANCH  28  29
ENDBRANCH  27  28
ENDBRANCH  26  27
ENDBRANCH   1  26
TORSDOF 24
ENDMDL
