MODEL 1
REMARK VINA RESULT:     -10.9      0.000      0.000
REMARK SMILES O=C(OCCOCCOCCOC(=O)c1noc(-c2ccccc2Cl)n1)c1ccc(-c2c3nc(c(-c4cc(S(=O)(=O)[O-])ccc4F)c4ccc([nH]4)c(-c4cc(S(=O)(=O)[O-])ccc4F)c4nc(c(-c5cc(S(=O)(=O)[O-])ccc5F)c5ccc2[nH]5)C=C4)C=C3)cc1
REMARK SMILES IDX 7 1 6 2 5 3 4 4 3 5 2 6 1 7 27 8 28 9 89 10 29 11 88 12
REMARK SMILES IDX 30 13 31 14 32 15 82 16 33 17 87 18 81 19 83 20 34 21 86 22
REMARK SMILES IDX 80 23 79 24 35 26 67 27 47 28 66 29 48 30 51 31 65 32 84 33
REMARK SMILES IDX 49 34 50 35 64 37 85 38 52 39 36 40 37 41 45 42 38 43 44 44
REMARK SMILES IDX 46 45 43 46 39 47 40 48 41 49 42 50 68 51 69 52 77 53 70 54
REMARK SMILES IDX 76 55 78 56 75 57 71 58 72 59 73 60 74 61 53 62 54 63 62 64
REMARK SMILES IDX 55 65 61 66 63 67 60 68 56 69 57 70 58 71 59 72 8 73 9 74
REMARK SMILES IDX 10 75 11 76 12 77 13 78 14 79 15 80 16 81 26 82 17 83 18 84
REMARK SMILES IDX 19 85 20 86 24 87 21 88 23 89 25 90 22 91
REMARK H PARENT 83 25 51 36
REMARK Flexibility Score: inf
ROOT
ATOM      1  C   UNL A   1      32.376  29.735  25.054  1.00  0.00     0.188 C 
ENDROOT
BRANCH   1   2
ATOM      2  O   UNL A   1      31.925  30.120  26.345  1.00  0.00    -0.376 OA
BRANCH   2   3
ATOM      3  C   UNL A   1      32.515  31.228  27.025  1.00  0.00     0.202 C 
BRANCH   3   4
ATOM      4  C   UNL A   1      31.768  32.569  27.145  1.00  0.00     0.261 C 
BRANCH   4   5
ATOM      5  O   UNL A   1      32.531  33.784  27.367  1.00  0.00    -0.460 OA
BRANCH   5   6
ATOM      6  C   UNL A   1      33.210  34.288  28.427  1.00  0.00     0.338 C 
ATOM      7  O   UNL A   1      32.879  35.375  28.892  1.00  0.00    -0.246 OA
BRANCH   6   8
ATOM      8  C   UNL A   1      34.369  33.583  29.022  1.00  0.00     0.060 A 
ATOM      9  C   UNL A   1      34.198  32.565  29.932  1.00  0.00     0.016 A 
ATOM     10  C   UNL A   1      35.667  33.824  28.577  1.00  0.00     0.016 A 
ATOM     11  C   UNL A   1      35.218  31.970  30.610  1.00  0.00     0.010 A 
ATOM     12  C   UNL A   1      36.723  33.047  29.078  1.00  0.00     0.010 A 
ATOM     13  C   UNL A   1      36.484  32.112  30.102  1.00  0.00    -0.014 A 
BRANCH  13  14
ATOM     14  C   UNL A   1      37.507  31.297  30.759  1.00  0.00     0.031 A 
ATOM     15  C   UNL A   1      37.817  31.636  32.163  1.00  0.00     0.074 A 
ATOM     16  C   UNL A   1      37.933  30.130  30.227  1.00  0.00     0.049 A 
ATOM     17  N   UNL A   1      38.788  31.202  32.900  1.00  0.00    -0.248 NA
ATOM     18  C   UNL A   1      36.861  32.527  32.849  1.00  0.00     0.031 C 
ATOM     19  C   UNL A   1      37.351  29.472  29.050  1.00  0.00     0.029 A 
ATOM     20  N   UNL A   1      38.954  29.276  30.580  1.00  0.00    -0.354 N 
ATOM     21  C   UNL A   1      38.555  31.747  34.149  1.00  0.00     0.074 A 
ATOM     22  C   UNL A   1      37.374  32.573  34.066  1.00  0.00     0.031 C 
ATOM     23  C   UNL A   1      38.074  28.387  28.742  1.00  0.00     0.029 A 
ATOM     24  C   UNL A   1      39.272  28.432  29.526  1.00  0.00     0.049 A 
ATOM     25  H   UNL A   1      39.397  29.266  31.459  1.00  0.00     0.167 HD
ATOM     26  C   UNL A   1      39.288  31.538  35.258  1.00  0.00     0.034 A 
ATOM     27  C   UNL A   1      40.492  28.029  29.116  1.00  0.00     0.034 A 
ATOM     28  C   UNL A   1      40.459  30.711  35.245  1.00  0.00     0.049 A 
ATOM     29  C   UNL A   1      41.522  28.022  30.294  1.00  0.00     0.074 A 
ATOM     30  C   UNL A   1      41.340  30.455  36.273  1.00  0.00     0.029 A 
ATOM     31  N   UNL A   1      40.923  30.027  34.126  1.00  0.00    -0.354 N 
ATOM     32  N   UNL A   1      41.428  28.653  31.458  1.00  0.00    -0.248 NA
ATOM     33  C   UNL A   1      42.737  27.204  30.201  1.00  0.00     0.031 C 
ATOM     34  C   UNL A   1      42.400  29.715  35.742  1.00  0.00     0.029 A 
ATOM     35  C   UNL A   1      42.119  29.406  34.415  1.00  0.00     0.049 A 
ATOM     36  H   UNL A   1      40.464  29.992  33.256  1.00  0.00     0.167 HD
ATOM     37  C   UNL A   1      42.542  28.282  32.216  1.00  0.00     0.074 A 
ATOM     38  C   UNL A   1      43.317  27.399  31.378  1.00  0.00     0.031 C 
ATOM     39  C   UNL A   1      42.887  28.591  33.498  1.00  0.00     0.034 A 
BRANCH  26  40
ATOM     40  C   UNL A   1      38.915  32.311  36.479  1.00  0.00     0.023 A 
ATOM     41  C   UNL A   1      38.008  31.819  37.431  1.00  0.00     0.031 A 
ATOM     42  C   UNL A   1      39.440  33.601  36.653  1.00  0.00     0.131 A 
ATOM     43  C   UNL A   1      37.625  32.637  38.501  1.00  0.00     0.055 A 
ATOM     44  C   UNL A   1      39.118  34.376  37.762  1.00  0.00     0.041 A 
ATOM     45  F   UNL A   1      40.255  34.136  35.730  1.00  0.00    -0.206 F 
ATOM     46  C   UNL A   1      38.200  33.896  38.693  1.00  0.00     0.022 A 
BRANCH  43  47
ATOM     47  S   UNL A   1      36.260  32.091  39.562  1.00  0.00     0.124 S 
ATOM     48  O   UNL A   1      36.793  32.368  40.894  1.00  0.00    -0.237 OA
ATOM     49  O   UNL A   1      35.159  32.944  39.127  1.00  0.00    -0.237 OA
ATOM     50  O   UNL A   1      36.119  30.674  39.236  1.00  0.00    -0.744 OA
ENDBRANCH  43  47
ENDBRANCH  26  40
BRANCH  27  51
ATOM     51  C   UNL A   1      40.908  27.694  27.489  1.00  0.00     0.023 A 
ATOM     52  C   UNL A   1      40.797  25.888  27.567  1.00  0.00     0.031 A 
ATOM     53  C   UNL A   1      42.124  28.453  26.042  1.00  0.00     0.131 A 
ATOM     54  C   UNL A   1      41.808  24.931  26.493  1.00  0.00     0.055 A 
ATOM     55  C   UNL A   1      43.071  27.328  25.001  1.00  0.00     0.041 A 
ATOM     56  F   UNL A   1      42.514  29.731  25.723  1.00  0.00    -0.206 F 
ATOM     57  C   UNL A   1      42.897  25.609  25.271  1.00  0.00     0.022 A 
BRANCH  54  58
ATOM     58  S   UNL A   1      41.587  23.151  26.538  1.00  0.00     0.124 S 
ATOM     59  O   UNL A   1      40.156  23.042  26.295  1.00  0.00    -0.237 OA
ATOM     60  O   UNL A   1      42.463  22.711  25.458  1.00  0.00    -0.237 OA
ATOM     61  O   UNL A   1      42.041  22.810  27.883  1.00  0.00    -0.744 OA
ENDBRANCH  54  58
ENDBRANCH  27  51
BRANCH  39  62
ATOM     62  C   UNL A   1      44.163  28.000  34.056  1.00  0.00     0.023 A 
ATOM     63  C   UNL A   1      44.186  26.731  34.656  1.00  0.00     0.031 A 
ATOM     64  C   UNL A   1      45.389  28.670  33.879  1.00  0.00     0.131 A 
ATOM     65  C   UNL A   1      45.407  26.180  35.074  1.00  0.00     0.055 A 
ATOM     66  C   UNL A   1      46.606  28.086  34.229  1.00  0.00     0.041 A 
ATOM     67  F   UNL A   1      45.427  29.885  33.306  1.00  0.00    -0.206 F 
ATOM     68  C   UNL A   1      46.619  26.836  34.838  1.00  0.00     0.022 A 
BRANCH  65  69
ATOM     69  S   UNL A   1      45.388  24.621  35.999  1.00  0.00     0.124 S 
ATOM     70  O   UNL A   1      45.421  25.090  37.380  1.00  0.00    -0.237 OA
ATOM     71  O   UNL A   1      44.135  24.013  35.563  1.00  0.00    -0.237 OA
ATOM     72  O   UNL A   1      46.599  23.939  35.545  1.00  0.00    -0.744 OA
ENDBRANCH  65  69
ENDBRANCH  39  62
ENDBRANCH  13  14
ENDBRANCH   6   8
ENDBRANCH   5   6
ENDBRANCH   4   5
ENDBRANCH   3   4
ENDBRANCH   2   3
ENDBRANCH   1   2
BRANCH   1  73
ATOM     73  C   UNL A   1      33.127  28.403  25.030  1.00  0.00     0.188 C 
BRANCH  73  74
ATOM     74  O   UNL A   1      32.975  27.591  23.871  1.00  0.00    -0.376 OA
BRANCH  74  75
ATOM     75  C   UNL A   1      32.202  28.123  22.800  1.00  0.00     0.202 C 
BRANCH  75  76
ATOM     76  C   UNL A   1      30.738  27.655  22.639  1.00  0.00     0.261 C 
BRANCH  76  77
ATOM     77  O   UNL A   1      29.878  27.790  23.789  1.00  0.00    -0.457 OA
BRANCH  77  78
ATOM     78  C   UNL A   1      29.264  26.645  24.229  1.00  0.00     0.380 C 
ATOM     79  O   UNL A   1      28.104  26.347  23.956  1.00  0.00    -0.242 OA
BRANCH  78  80
ATOM     80  C   UNL A   1      30.122  25.830  25.099  1.00  0.00     0.281 A 
ATOM     81  N   UNL A   1      30.562  26.157  26.333  1.00  0.00    -0.049 NA
ATOM     82  N   UNL A   1      30.622  24.651  24.642  1.00  0.00    -0.181 NA
ATOM     83  O   UNL A   1      31.471  25.098  26.652  1.00  0.00    -0.333 OA
ATOM     84  C   UNL A   1      31.467  24.268  25.573  1.00  0.00     0.259 A 
BRANCH  84  85
ATOM     85  C   UNL A   1      32.352  23.108  25.434  1.00  0.00     0.058 A 
ATOM     86  C   UNL A   1      31.873  21.383  25.426  1.00  0.00     0.015 A 
ATOM     87  C   UNL A   1      33.994  23.637  25.192  1.00  0.00     0.053 A 
ATOM     88  C   UNL A   1      33.045  20.036  25.213  1.00  0.00     0.001 A 
ATOM     89  C   UNL A   1      35.245  22.440  24.932  1.00  0.00     0.021 A 
ATOM     90  Cl  UNL A   1      34.540  25.251  25.498  1.00  0.00    -0.083 Cl
ATOM     91  C   UNL A   1      34.786  20.475  24.921  1.00  0.00     0.002 A 
ENDBRANCH  84  85
ENDBRANCH  78  80
ENDBRANCH  77  78
ENDBRANCH  76  77
ENDBRANCH  75  76
ENDBRANCH  74  75
ENDBRANCH  73  74
ENDBRANCH   1  73
TORSDOF 21
ENDMDL
MODEL 2
REMARK VINA RESULT:     -10.5      1.958      2.245
REMARK SMILES O=C(OCCOCCOCCOC(=O)c1noc(-c2ccccc2Cl)n1)c1ccc(-c2c3nc(c(-c4cc(S(=O)(=O)[O-])ccc4F)c4ccc([nH]4)c(-c4cc(S(=O)(=O)[O-])ccc4F)c4nc(c(-c5cc(S(=O)(=O)[O-])ccc5F)c5ccc2[nH]5)C=C4)C=C3)cc1
REMARK SMILES IDX 7 1 6 2 5 3 4 4 3 5 2 6 1 7 27 8 28 9 89 10 29 11 88 12
REMARK SMILES IDX 30 13 31 14 32 15 82 16 33 17 87 18 81 19 83 20 34 21 86 22
REMARK SMILES IDX 80 23 79 24 35 26 67 27 47 28 66 29 48 30 51 31 65 32 84 33
REMARK SMILES IDX 49 34 50 35 64 37 85 38 52 39 36 40 37 41 45 42 38 43 44 44
REMARK SMILES IDX 46 45 43 46 39 47 40 48 41 49 42 50 68 51 69 52 77 53 70 54
REMARK SMILES IDX 76 55 78 56 75 57 71 58 72 59 73 60 74 61 53 62 54 63 62 64
REMARK SMILES IDX 55 65 61 66 63 67 60 68 56 69 57 70 58 71 59 72 8 73 9 74
REMARK SMILES IDX 10 75 11 76 12 77 13 78 14 79 15 80 16 81 26 82 17 83 18 84
REMARK SMILES IDX 19 85 20 86 24 87 21 88 23 89 25 90 22 91
REMARK H PARENT 83 25 51 36
REMARK Flexibility Score: inf
ROOT
ATOM      1  C   UNL A   1      32.926  29.718  25.267  1.00  0.00     0.188 C 
ENDROOT
BRANCH   1   2
ATOM      2  O   UNL A   1      32.644  30.233  26.561  1.00  0.00    -0.376 OA
BRANCH   2   3
ATOM      3  C   UNL A   1      33.031  31.559  26.920  1.00  0.00     0.202 C 
BRANCH   3   4
ATOM      4  C   UNL A   1      32.013  32.541  27.529  1.00  0.00     0.261 C 
BRANCH   4   5
ATOM      5  O   UNL A   1      32.391  33.932  27.701  1.00  0.00    -0.460 OA
BRANCH   5   6
ATOM      6  C   UNL A   1      33.283  34.573  28.497  1.00  0.00     0.338 C 
ATOM      7  O   UNL A   1      33.155  35.778  28.694  1.00  0.00    -0.246 OA
BRANCH   6   8
ATOM      8  C   UNL A   1      34.434  33.870  29.108  1.00  0.00     0.060 A 
ATOM      9  C   UNL A   1      34.253  32.788  29.940  1.00  0.00     0.016 A 
ATOM     10  C   UNL A   1      35.744  34.185  28.752  1.00  0.00     0.016 A 
ATOM     11  C   UNL A   1      35.257  32.185  30.633  1.00  0.00     0.010 A 
ATOM     12  C   UNL A   1      36.801  33.412  29.261  1.00  0.00     0.010 A 
ATOM     13  C   UNL A   1      36.542  32.403  30.207  1.00  0.00    -0.014 A 
BRANCH  13  14
ATOM     14  C   UNL A   1      37.559  31.581  30.865  1.00  0.00     0.031 A 
ATOM     15  C   UNL A   1      37.922  31.964  32.245  1.00  0.00     0.074 A 
ATOM     16  C   UNL A   1      37.933  30.381  30.367  1.00  0.00     0.049 A 
ATOM     17  N   UNL A   1      38.900  31.526  32.971  1.00  0.00    -0.248 NA
ATOM     18  C   UNL A   1      37.015  32.910  32.923  1.00  0.00     0.031 C 
ATOM     19  C   UNL A   1      37.295  29.699  29.234  1.00  0.00     0.029 A 
ATOM     20  N   UNL A   1      38.937  29.509  30.723  1.00  0.00    -0.354 N 
ATOM     21  C   UNL A   1      38.722  32.126  34.204  1.00  0.00     0.074 A 
ATOM     22  C   UNL A   1      37.565  32.986  34.122  1.00  0.00     0.031 C 
ATOM     23  C   UNL A   1      37.975  28.580  28.947  1.00  0.00     0.029 A 
ATOM     24  C   UNL A   1      39.196  28.616  29.694  1.00  0.00     0.049 A 
ATOM     25  H   UNL A   1      39.405  29.519  31.590  1.00  0.00     0.167 HD
ATOM     26  C   UNL A   1      39.481  31.936  35.298  1.00  0.00     0.034 A 
ATOM     27  C   UNL A   1      40.390  28.159  29.266  1.00  0.00     0.034 A 
ATOM     28  C   UNL A   1      40.624  31.072  35.284  1.00  0.00     0.049 A 
ATOM     29  C   UNL A   1      41.454  28.163  30.413  1.00  0.00     0.074 A 
ATOM     30  C   UNL A   1      41.528  30.827  36.295  1.00  0.00     0.029 A 
ATOM     31  N   UNL A   1      41.033  30.331  34.179  1.00  0.00    -0.354 N 
ATOM     32  N   UNL A   1      41.416  28.841  31.554  1.00  0.00    -0.248 NA
ATOM     33  C   UNL A   1      42.640  27.304  30.317  1.00  0.00     0.031 C 
ATOM     34  C   UNL A   1      42.547  30.034  35.763  1.00  0.00     0.029 A 
ATOM     35  C   UNL A   1      42.217  29.684  34.458  1.00  0.00     0.049 A 
ATOM     36  H   UNL A   1      40.548  30.278  33.325  1.00  0.00     0.167 HD
ATOM     37  C   UNL A   1      42.539  28.464  32.294  1.00  0.00     0.074 A 
ATOM     38  C   UNL A   1      43.262  27.525  31.468  1.00  0.00     0.031 C 
ATOM     39  C   UNL A   1      42.932  28.810  33.552  1.00  0.00     0.034 A 
BRANCH  26  40
ATOM     40  C   UNL A   1      39.168  32.766  36.498  1.00  0.00     0.023 A 
ATOM     41  C   UNL A   1      39.777  34.009  36.731  1.00  0.00     0.031 A 
ATOM     42  C   UNL A   1      38.280  32.260  37.461  1.00  0.00     0.131 A 
ATOM     43  C   UNL A   1      39.514  34.689  37.926  1.00  0.00     0.055 A 
ATOM     44  C   UNL A   1      37.960  32.980  38.607  1.00  0.00     0.041 A 
ATOM     45  F   UNL A   1      37.731  31.045  37.310  1.00  0.00    -0.206 F 
ATOM     46  C   UNL A   1      38.583  34.201  38.848  1.00  0.00     0.022 A 
BRANCH  43  47
ATOM     47  S   UNL A   1      40.509  36.151  38.328  1.00  0.00     0.124 S 
ATOM     48  O   UNL A   1      39.499  37.207  38.314  1.00  0.00    -0.237 OA
ATOM     49  O   UNL A   1      41.058  35.813  39.636  1.00  0.00    -0.237 OA
ATOM     50  O   UNL A   1      41.481  36.212  37.239  1.00  0.00    -0.744 OA
ENDBRANCH  43  47
ENDBRANCH  26  40
BRANCH  27  51
ATOM     51  C   UNL A   1      40.747  27.749  27.642  1.00  0.00     0.023 A 
ATOM     52  C   UNL A   1      40.501  25.959  27.774  1.00  0.00     0.031 A 
ATOM     53  C   UNL A   1      41.987  28.373  26.152  1.00  0.00     0.131 A 
ATOM     54  C   UNL A   1      41.415  24.899  26.710  1.00  0.00     0.055 A 
ATOM     55  C   UNL A   1      42.825  27.151  25.127  1.00  0.00     0.041 A 
ATOM     56  F   UNL A   1      42.466  29.609  25.790  1.00  0.00    -0.206 F 
ATOM     57  C   UNL A   1      42.527  25.458  25.448  1.00  0.00     0.022 A 
BRANCH  54  58
ATOM     58  S   UNL A   1      41.061  23.143  26.810  1.00  0.00     0.124 S 
ATOM     59  O   UNL A   1      41.963  22.619  25.794  1.00  0.00    -0.237 OA
ATOM     60  O   UNL A   1      41.404  22.845  28.196  1.00  0.00    -0.237 OA
ATOM     61  O   UNL A   1      39.636  23.090  26.497  1.00  0.00    -0.744 OA
ENDBRANCH  54  58
ENDBRANCH  27  51
BRANCH  39  62
ATOM     62  C   UNL A   1      44.205  28.200  34.096  1.00  0.00     0.023 A 
ATOM     63  C   UNL A   1      45.436  28.869  34.015  1.00  0.00     0.031 A 
ATOM     64  C   UNL A   1      44.158  26.984  34.805  1.00  0.00     0.131 A 
ATOM     65  C   UNL A   1      46.574  28.310  34.617  1.00  0.00     0.055 A 
ATOM     66  C   UNL A   1      45.277  26.471  35.463  1.00  0.00     0.041 A 
ATOM     67  F   UNL A   1      43.007  26.302  34.919  1.00  0.00    -0.206 F 
ATOM     68  C   UNL A   1      46.496  27.132  35.364  1.00  0.00     0.022 A 
BRANCH  65  69
ATOM     69  S   UNL A   1      48.180  29.107  34.350  1.00  0.00     0.124 S 
ATOM     70  O   UNL A   1      48.881  28.796  35.591  1.00  0.00    -0.237 OA
ATOM     71  O   UNL A   1      48.672  28.430  33.154  1.00  0.00    -0.237 OA
ATOM     72  O   UNL A   1      47.837  30.517  34.167  1.00  0.00    -0.744 OA
ENDBRANCH  65  69
ENDBRANCH  39  62
ENDBRANCH  13  14
ENDBRANCH   6   8
ENDBRANCH   5   6
ENDBRANCH   4   5
ENDBRANCH   3   4
ENDBRANCH   2   3
ENDBRANCH   1   2
BRANCH   1  73
ATOM     73  C   UNL A   1      33.182  28.210  25.241  1.00  0.00     0.188 C 
BRANCH  73  74
ATOM     74  O   UNL A   1      33.148  27.567  23.972  1.00  0.00    -0.376 OA
BRANCH  74  75
ATOM     75  C   UNL A   1      32.434  28.221  22.928  1.00  0.00     0.202 C 
BRANCH  75  76
ATOM     76  C   UNL A   1      30.920  27.951  22.783  1.00  0.00     0.261 C 
BRANCH  76  77
ATOM     77  O   UNL A   1      30.155  27.844  24.001  1.00  0.00    -0.457 OA
BRANCH  77  78
ATOM     78  C   UNL A   1      29.502  26.656  24.209  1.00  0.00     0.380 C 
ATOM     79  O   UNL A   1      28.395  26.398  23.744  1.00  0.00    -0.242 OA
BRANCH  78  80
ATOM     80  C   UNL A   1      30.243  25.737  25.083  1.00  0.00     0.281 A 
ATOM     81  N   UNL A   1      30.538  25.927  26.387  1.00  0.00    -0.049 NA
ATOM     82  N   UNL A   1      30.782  24.601  24.567  1.00  0.00    -0.181 NA
ATOM     83  O   UNL A   1      31.393  24.821  26.698  1.00  0.00    -0.333 OA
ATOM     84  C   UNL A   1      31.507  24.106  25.545  1.00  0.00     0.259 A 
BRANCH  84  85
ATOM     85  C   UNL A   1      32.391  22.947  25.390  1.00  0.00     0.058 A 
ATOM     86  C   UNL A   1      31.907  21.225  25.317  1.00  0.00     0.015 A 
ATOM     87  C   UNL A   1      34.041  23.476  25.201  1.00  0.00     0.053 A 
ATOM     88  C   UNL A   1      33.078  19.881  25.089  1.00  0.00     0.001 A 
ATOM     89  C   UNL A   1      35.293  22.283  24.933  1.00  0.00     0.021 A 
ATOM     90  Cl  UNL A   1      34.585  25.078  25.570  1.00  0.00    -0.083 Cl
ATOM     91  C   UNL A   1      34.827  20.321  24.850  1.00  0.00     0.002 A 
ENDBRANCH  84  85
ENDBRANCH  78  80
ENDBRANCH  77  78
ENDBRANCH  76  77
ENDBRANCH  75  76
ENDBRANCH  74  75
ENDBRANCH  73  74
ENDBRANCH   1  73
TORSDOF 21
ENDMDL
MODEL 3
REMARK VINA RESULT:     -10.4      6.607     10.977
REMARK SMILES O=C(OCCOCCOCCOC(=O)c1noc(-c2ccccc2Cl)n1)c1ccc(-c2c3nc(c(-c4cc(S(=O)(=O)[O-])ccc4F)c4ccc([nH]4)c(-c4cc(S(=O)(=O)[O-])ccc4F)c4nc(c(-c5cc(S(=O)(=O)[O-])ccc5F)c5ccc2[nH]5)C=C4)C=C3)cc1
REMARK SMILES IDX 7 1 6 2 5 3 4 4 3 5 2 6 1 7 27 8 28 9 89 10 29 11 88 12
REMARK SMILES IDX 30 13 31 14 32 15 82 16 33 17 87 18 81 19 83 20 34 21 86 22
REMARK SMILES IDX 80 23 79 24 35 26 67 27 47 28 66 29 48 30 51 31 65 32 84 33
REMARK SMILES IDX 49 34 50 35 64 37 85 38 52 39 36 40 37 41 45 42 38 43 44 44
REMARK SMILES IDX 46 45 43 46 39 47 40 48 41 49 42 50 68 51 69 52 77 53 70 54
REMARK SMILES IDX 76 55 78 56 75 57 71 58 72 59 73 60 74 61 53 62 54 63 62 64
REMARK SMILES IDX 55 65 61 66 63 67 60 68 56 69 57 70 58 71 59 72 8 73 9 74
REMARK SMILES IDX 10 75 11 76 12 77 13 78 14 79 15 80 16 81 26 82 17 83 18 84
REMARK SMILES IDX 19 85 20 86 24 87 21 88 23 89 25 90 22 91
REMARK H PARENT 83 25 51 36
REMARK Flexibility Score: inf
ROOT
ATOM      1  C   UNL A   1      41.319  22.265  26.587  1.00  0.00     0.188 C 
ENDROOT
BRANCH   1   2
ATOM      2  O   UNL A   1      41.804  21.243  25.728  1.00  0.00    -0.376 OA
BRANCH   2   3
ATOM      3  C   UNL A   1      42.037  19.923  26.220  1.00  0.00     0.202 C 
BRANCH   3   4
ATOM      4  C   UNL A   1      43.069  19.000  25.547  1.00  0.00     0.261 C 
BRANCH   4   5
ATOM      5  O   UNL A   1      43.853  19.508  24.437  1.00  0.00    -0.460 OA
BRANCH   5   6
ATOM      6  C   UNL A   1      45.068  20.103  24.337  1.00  0.00     0.338 C 
ATOM      7  O   UNL A   1      46.016  19.464  23.889  1.00  0.00    -0.246 OA
BRANCH   6   8
ATOM      8  C   UNL A   1      45.298  21.494  24.790  1.00  0.00     0.060 A 
ATOM      9  C   UNL A   1      45.396  21.805  26.127  1.00  0.00     0.016 A 
ATOM     10  C   UNL A   1      45.568  22.515  23.880  1.00  0.00     0.016 A 
ATOM     11  C   UNL A   1      45.475  23.076  26.609  1.00  0.00     0.010 A 
ATOM     12  C   UNL A   1      45.903  23.792  24.357  1.00  0.00     0.010 A 
ATOM     13  C   UNL A   1      45.855  24.063  25.736  1.00  0.00    -0.014 A 
BRANCH  13  14
ATOM     14  C   UNL A   1      46.108  25.367  26.351  1.00  0.00     0.031 A 
ATOM     15  C   UNL A   1      44.919  26.169  26.706  1.00  0.00     0.074 A 
ATOM     16  C   UNL A   1      47.327  25.699  26.834  1.00  0.00     0.049 A 
ATOM     17  N   UNL A   1      44.866  27.405  27.085  1.00  0.00    -0.248 NA
ATOM     18  C   UNL A   1      43.626  25.458  26.706  1.00  0.00     0.031 C 
ATOM     19  C   UNL A   1      48.473  24.788  26.940  1.00  0.00     0.029 A 
ATOM     20  N   UNL A   1      47.832  26.883  27.322  1.00  0.00    -0.354 N 
ATOM     21  C   UNL A   1      43.536  27.624  27.391  1.00  0.00     0.074 A 
ATOM     22  C   UNL A   1      42.806  26.408  27.121  1.00  0.00     0.031 C 
ATOM     23  C   UNL A   1      49.545  25.468  27.370  1.00  0.00     0.029 A 
ATOM     24  C   UNL A   1      49.219  26.861  27.320  1.00  0.00     0.049 A 
ATOM     25  H   UNL A   1      47.283  27.641  27.630  1.00  0.00     0.167 HD
ATOM     26  C   UNL A   1      43.008  28.765  27.871  1.00  0.00     0.034 A 
ATOM     27  C   UNL A   1      50.070  27.853  26.991  1.00  0.00     0.034 A 
ATOM     28  C   UNL A   1      43.807  29.933  28.096  1.00  0.00     0.049 A 
ATOM     29  C   UNL A   1      49.438  29.263  27.245  1.00  0.00     0.074 A 
ATOM     30  C   UNL A   1      43.405  31.181  28.518  1.00  0.00     0.029 A 
ATOM     31  N   UNL A   1      45.181  29.994  27.883  1.00  0.00    -0.354 N 
ATOM     32  N   UNL A   1      48.153  29.562  27.390  1.00  0.00    -0.248 NA
ATOM     33  C   UNL A   1      50.304  30.437  27.404  1.00  0.00     0.031 C 
ATOM     34  C   UNL A   1      44.515  32.026  28.444  1.00  0.00     0.029 A 
ATOM     35  C   UNL A   1      45.634  31.278  28.095  1.00  0.00     0.049 A 
ATOM     36  H   UNL A   1      45.746  29.232  27.620  1.00  0.00     0.167 HD
ATOM     37  C   UNL A   1      48.079  30.926  27.680  1.00  0.00     0.074 A 
ATOM     38  C   UNL A   1      49.439  31.411  27.659  1.00  0.00     0.031 C 
ATOM     39  C   UNL A   1      47.010  31.714  27.983  1.00  0.00     0.034 A 
BRANCH  26  40
ATOM     40  C   UNL A   1      41.525  28.814  28.035  1.00  0.00     0.023 A 
ATOM     41  C   UNL A   1      40.901  28.662  29.283  1.00  0.00     0.031 A 
ATOM     42  C   UNL A   1      40.720  28.956  26.893  1.00  0.00     0.131 A 
ATOM     43  C   UNL A   1      39.504  28.617  29.352  1.00  0.00     0.055 A 
ATOM     44  C   UNL A   1      39.332  28.994  26.979  1.00  0.00     0.041 A 
ATOM     45  F   UNL A   1      41.274  29.034  25.673  1.00  0.00    -0.206 F 
ATOM     46  C   UNL A   1      38.715  28.819  28.215  1.00  0.00     0.022 A 
BRANCH  43  47
ATOM     47  S   UNL A   1      38.729  28.153  30.923  1.00  0.00     0.124 S 
ATOM     48  O   UNL A   1      37.510  28.960  30.901  1.00  0.00    -0.237 OA
ATOM     49  O   UNL A   1      38.541  26.714  30.773  1.00  0.00    -0.237 OA
ATOM     50  O   UNL A   1      39.716  28.553  31.922  1.00  0.00    -0.744 OA
ENDBRANCH  43  47
ENDBRANCH  26  40
BRANCH  27  51
ATOM     51  C   UNL A   1      51.601  27.618  26.260  1.00  0.00     0.023 A 
ATOM     52  C   UNL A   1      51.168  28.159  24.587  1.00  0.00     0.031 A 
ATOM     53  C   UNL A   1      53.175  26.334  26.405  1.00  0.00     0.131 A 
ATOM     54  C   UNL A   1      52.038  27.469  23.224  1.00  0.00     0.055 A 
ATOM     55  C   UNL A   1      53.978  25.745  24.904  1.00  0.00     0.041 A 
ATOM     56  F   UNL A   1      53.741  25.663  27.463  1.00  0.00    -0.206 F 
ATOM     57  C   UNL A   1      53.375  26.315  23.366  1.00  0.00     0.022 A 
BRANCH  54  58
ATOM     58  S   UNL A   1      51.642  28.112  21.596  1.00  0.00     0.124 S 
ATOM     59  O   UNL A   1      51.796  26.916  20.779  1.00  0.00    -0.237 OA
ATOM     60  O   UNL A   1      50.279  28.595  21.785  1.00  0.00    -0.237 OA
ATOM     61  O   UNL A   1      52.650  29.152  21.413  1.00  0.00    -0.744 OA
ENDBRANCH  54  58
ENDBRANCH  27  51
BRANCH  39  62
ATOM     62  C   UNL A   1      47.261  33.176  28.284  1.00  0.00     0.023 A 
ATOM     63  C   UNL A   1      47.308  34.140  27.265  1.00  0.00     0.031 A 
ATOM     64  C   UNL A   1      47.340  33.619  29.619  1.00  0.00     0.131 A 
ATOM     65  C   UNL A   1      47.448  35.496  27.595  1.00  0.00     0.055 A 
ATOM     66  C   UNL A   1      47.405  34.974  29.942  1.00  0.00     0.041 A 
ATOM     67  F   UNL A   1      47.295  32.742  30.634  1.00  0.00    -0.206 F 
ATOM     68  C   UNL A   1      47.467  35.922  28.926  1.00  0.00     0.022 A 
BRANCH  65  69
ATOM     69  S   UNL A   1      47.679  36.699  26.258  1.00  0.00     0.124 S 
ATOM     70  O   UNL A   1      48.604  35.995  25.376  1.00  0.00    -0.237 OA
ATOM     71  O   UNL A   1      46.321  36.869  25.751  1.00  0.00    -0.237 OA
ATOM     72  O   UNL A   1      48.237  37.866  26.939  1.00  0.00    -0.744 OA
ENDBRANCH  65  69
ENDBRANCH  39  62
ENDBRANCH  13  14
ENDBRANCH   6   8
ENDBRANCH   5   6
ENDBRANCH   4   5
ENDBRANCH   3   4
ENDBRANCH   2   3
ENDBRANCH   1   2
BRANCH   1  73
ATOM     73  C   UNL A   1      39.809  22.209  26.826  1.00  0.00     0.188 C 
BRANCH  73  74
ATOM     74  O   UNL A   1      39.055  21.318  26.013  1.00  0.00    -0.376 OA
BRANCH  74  75
ATOM     75  C   UNL A   1      37.905  21.846  25.360  1.00  0.00     0.202 C 
BRANCH  75  76
ATOM     76  C   UNL A   1      36.746  20.886  25.007  1.00  0.00     0.261 C 
BRANCH  76  77
ATOM     77  O   UNL A   1      35.508  21.065  25.724  1.00  0.00    -0.457 OA
BRANCH  77  78
ATOM     78  C   UNL A   1      34.359  20.748  25.045  1.00  0.00     0.380 C 
ATOM     79  O   UNL A   1      34.103  19.622  24.629  1.00  0.00    -0.242 OA
BRANCH  78  80
ATOM     80  C   UNL A   1      33.482  21.906  24.826  1.00  0.00     0.281 A 
ATOM     81  N   UNL A   1      32.213  21.880  24.363  1.00  0.00    -0.049 NA
ATOM     82  N   UNL A   1      33.963  23.164  25.012  1.00  0.00    -0.181 NA
ATOM     83  O   UNL A   1      31.894  23.265  24.194  1.00  0.00    -0.333 OA
ATOM     84  C   UNL A   1      33.007  23.951  24.574  1.00  0.00     0.259 A 
BRANCH  84  85
ATOM     85  C   UNL A   1      33.150  25.405  24.450  1.00  0.00     0.058 A 
ATOM     86  C   UNL A   1      33.247  26.595  25.783  1.00  0.00     0.015 A 
ATOM     87  C   UNL A   1      33.296  25.848  22.771  1.00  0.00     0.053 A 
ATOM     88  C   UNL A   1      33.458  28.360  25.514  1.00  0.00     0.001 A 
ATOM     89  C   UNL A   1      33.543  27.529  22.352  1.00  0.00     0.021 A 
ATOM     90  Cl  UNL A   1      32.902  24.789  21.459  1.00  0.00    -0.083 Cl
ATOM     91  C   UNL A   1      33.653  28.932  23.798  1.00  0.00     0.002 A 
ENDBRANCH  84  85
ENDBRANCH  78  80
ENDBRANCH  77  78
ENDBRANCH  76  77
ENDBRANCH  75  76
ENDBRANCH  74  75
ENDBRANCH  73  74
ENDBRANCH   1  73
TORSDOF 21
ENDMDL
