MODEL 1
REMARK VINA RESULT:      -8.6      0.000      0.000
REMARK SMILES CCCc1n[nH]c(C(=O)N[C@H](C)CC(=O)OCCOCCOCCOC(=O)c2ccc(-c3c4nc(c(-c5cc(S(=O)(=O)[O-])ccc5F)c5ccc([nH]5)c(-c5cc(S(=O)(=O)[O-])ccc5F)c5nc(c(-c6cc(S(=O)(=O)[O-])ccc6F)c6ccc3[nH]6)C=C5)C=C4)cc2)n1
REMARK SMILES IDX 20 1 19 2 18 3 17 4 16 5 14 6 15 7 13 8 11 9 12 10 10 11
REMARK SMILES IDX 8 12 9 13 7 15 4 16 5 17 91 18 6 19 3 21 2 22 1 23 21 24
REMARK SMILES IDX 22 25 23 26 24 27 25 28 26 29 27 30 28 31 29 32 90 33 30 34
REMARK SMILES IDX 89 35 31 36 32 37 33 38 83 39 34 40 88 41 82 42 84 43 35 44
REMARK SMILES IDX 87 45 81 46 80 47 36 49 68 50 48 51 67 52 49 53 52 54 66 55
REMARK SMILES IDX 85 56 50 57 51 58 65 60 86 61 53 62 37 63 38 64 46 65 39 66
REMARK SMILES IDX 45 67 47 68 44 69 40 70 41 71 42 72 43 73 69 74 70 75 78 76
REMARK SMILES IDX 71 77 77 78 79 79 76 80 72 81 73 82 74 83 75 84 54 85 55 86
REMARK SMILES IDX 63 87 56 88 62 89 64 90 61 91 57 92 58 93 59 94 60 95
REMARK H PARENT 10 14 6 20 84 48 52 59
REMARK Flexibility Score: inf
ROOT
ATOM      1  C   UNL A   1      35.890  22.267  24.785  1.00  0.00     0.188 C 
ENDROOT
BRANCH   1   2
ATOM      2  O   UNL A   1      35.387  23.565  24.513  1.00  0.00    -0.376 OA
BRANCH   2   3
ATOM      3  C   UNL A   1      34.815  23.801  23.229  1.00  0.00     0.202 C 
BRANCH   3   4
ATOM      4  C   UNL A   1      33.700  24.845  23.131  1.00  0.00     0.261 C 
BRANCH   4   5
ATOM      5  O   UNL A   1      33.961  25.802  22.081  1.00  0.00    -0.463 OA
BRANCH   5   6
ATOM      6  C   UNL A   1      33.495  27.047  22.324  1.00  0.00     0.307 C 
ATOM      7  O   UNL A   1      33.954  28.053  21.790  1.00  0.00    -0.252 OA
BRANCH   6   8
ATOM      8  C   UNL A   1      32.261  27.110  23.207  1.00  0.00     0.147 C 
BRANCH   8   9
ATOM      9  C   UNL A   1      31.721  28.426  23.800  1.00  0.00     0.090 C 
ATOM     10  C   UNL A   1      30.620  29.078  22.968  1.00  0.00     0.031 C 
BRANCH   9  11
ATOM     11  N   UNL A   1      31.183  28.133  25.135  1.00  0.00    -0.346 N 
ATOM     12  C   UNL A   1      31.720  28.234  26.402  1.00  0.00     0.288 C 
ATOM     13  O   UNL A   1      31.134  27.608  27.270  1.00  0.00    -0.266 OA
ATOM     14  H   UNL A   1      30.256  27.801  25.124  1.00  0.00     0.164 HD
BRANCH  12  15
ATOM     15  C   UNL A   1      32.898  29.023  26.709  1.00  0.00     0.214 A 
ATOM     16  C   UNL A   1      34.387  30.362  27.418  1.00  0.00     0.151 A 
ATOM     17  N   UNL A   1      35.095  29.287  27.065  1.00  0.00    -0.158 NA
ATOM     18  N   UNL A   1      33.028  30.261  27.152  1.00  0.00    -0.207 NA
ATOM     19  N   UNL A   1      34.141  28.450  26.653  1.00  0.00    -0.255 N 
ATOM     20  H   UNL A   1      34.310  27.531  26.343  1.00  0.00     0.192 HD
BRANCH  16  21
ATOM     21  C   UNL A   1      35.045  31.626  27.843  1.00  0.00     0.079 C 
BRANCH  21  22
ATOM     22  C   UNL A   1      34.302  32.563  28.790  1.00  0.00     0.005 C 
ATOM     23  C   UNL A   1      33.682  33.774  28.104  1.00  0.00     0.004 C 
ENDBRANCH  21  22
ENDBRANCH  16  21
ENDBRANCH  12  15
ENDBRANCH   9  11
ENDBRANCH   8   9
ENDBRANCH   6   8
ENDBRANCH   5   6
ENDBRANCH   4   5
ENDBRANCH   3   4
ENDBRANCH   2   3
ENDBRANCH   1   2
BRANCH   1  24
ATOM     24  C   UNL A   1      37.073  22.123  25.764  1.00  0.00     0.188 C 
BRANCH  24  25
ATOM     25  O   UNL A   1      37.858  23.251  26.104  1.00  0.00    -0.376 OA
BRANCH  25  26
ATOM     26  C   UNL A   1      39.226  23.002  26.419  1.00  0.00     0.202 C 
BRANCH  26  27
ATOM     27  C   UNL A   1      39.666  21.562  26.711  1.00  0.00     0.261 C 
BRANCH  27  28
ATOM     28  O   UNL A   1      40.527  21.019  25.689  1.00  0.00    -0.460 OA
BRANCH  28  29
ATOM     29  C   UNL A   1      41.684  20.506  26.171  1.00  0.00     0.338 C 
ATOM     30  O   UNL A   1      41.932  19.317  26.332  1.00  0.00    -0.246 OA
BRANCH  29  31
ATOM     31  C   UNL A   1      42.697  21.549  26.446  1.00  0.00     0.060 A 
ATOM     32  C   UNL A   1      43.075  21.849  27.755  1.00  0.00     0.016 A 
ATOM     33  C   UNL A   1      43.046  22.424  25.418  1.00  0.00     0.016 A 
ATOM     34  C   UNL A   1      43.684  23.065  28.052  1.00  0.00     0.010 A 
ATOM     35  C   UNL A   1      43.701  23.626  25.715  1.00  0.00     0.010 A 
ATOM     36  C   UNL A   1      43.955  23.994  27.046  1.00  0.00    -0.014 A 
BRANCH  36  37
ATOM     37  C   UNL A   1      44.340  25.384  27.420  1.00  0.00     0.031 A 
ATOM     38  C   UNL A   1      43.296  26.344  27.945  1.00  0.00     0.074 A 
ATOM     39  C   UNL A   1      45.634  25.763  27.409  1.00  0.00     0.049 A 
ATOM     40  N   UNL A   1      43.411  27.617  28.232  1.00  0.00    -0.248 NA
ATOM     41  C   UNL A   1      41.955  25.796  28.212  1.00  0.00     0.031 C 
ATOM     42  C   UNL A   1      46.769  24.897  27.077  1.00  0.00     0.029 A 
ATOM     43  N   UNL A   1      46.217  26.975  27.689  1.00  0.00    -0.354 N 
ATOM     44  C   UNL A   1      42.170  28.015  28.721  1.00  0.00     0.074 A 
ATOM     45  C   UNL A   1      41.304  26.858  28.663  1.00  0.00     0.031 C 
ATOM     46  C   UNL A   1      47.903  25.603  27.174  1.00  0.00     0.029 A 
ATOM     47  C   UNL A   1      47.569  26.996  27.445  1.00  0.00     0.049 A 
ATOM     48  H   UNL A   1      45.714  27.751  28.030  1.00  0.00     0.167 HD
ATOM     49  C   UNL A   1      41.789  29.233  29.177  1.00  0.00     0.034 A 
ATOM     50  C   UNL A   1      48.432  28.027  27.348  1.00  0.00     0.034 A 
ATOM     51  C   UNL A   1      42.648  30.393  29.178  1.00  0.00     0.049 A 
ATOM     52  C   UNL A   1      47.920  29.421  27.578  1.00  0.00     0.074 A 
ATOM     53  C   UNL A   1      42.349  31.688  29.566  1.00  0.00     0.029 A 
ATOM     54  N   UNL A   1      43.966  30.406  28.743  1.00  0.00    -0.354 N 
ATOM     55  N   UNL A   1      46.726  29.808  27.965  1.00  0.00    -0.248 NA
ATOM     56  C   UNL A   1      48.862  30.520  27.338  1.00  0.00     0.031 C 
ATOM     57  C   UNL A   1      43.450  32.500  29.267  1.00  0.00     0.029 A 
ATOM     58  C   UNL A   1      44.469  31.698  28.780  1.00  0.00     0.049 A 
ATOM     59  H   UNL A   1      44.470  29.613  28.449  1.00  0.00     0.167 HD
ATOM     60  C   UNL A   1      46.778  31.196  28.028  1.00  0.00     0.074 A 
ATOM     61  C   UNL A   1      48.128  31.576  27.656  1.00  0.00     0.031 C 
ATOM     62  C   UNL A   1      45.802  32.075  28.369  1.00  0.00     0.034 A 
BRANCH  49  63
ATOM     63  C   UNL A   1      40.355  29.402  29.615  1.00  0.00     0.023 A 
ATOM     64  C   UNL A   1      39.981  29.454  30.971  1.00  0.00     0.031 A 
ATOM     65  C   UNL A   1      39.343  29.527  28.646  1.00  0.00     0.131 A 
ATOM     66  C   UNL A   1      38.627  29.608  31.315  1.00  0.00     0.055 A 
ATOM     67  C   UNL A   1      38.007  29.729  28.994  1.00  0.00     0.041 A 
ATOM     68  F   UNL A   1      39.641  29.457  27.339  1.00  0.00    -0.206 F 
ATOM     69  C   UNL A   1      37.643  29.765  30.335  1.00  0.00     0.022 A 
BRANCH  66  70
ATOM     70  S   UNL A   1      38.144  29.514  33.063  1.00  0.00     0.124 S 
ATOM     71  O   UNL A   1      37.389  30.753  33.233  1.00  0.00    -0.237 OA
ATOM     72  O   UNL A   1      37.370  28.280  33.109  1.00  0.00    -0.237 OA
ATOM     73  O   UNL A   1      39.423  29.474  33.771  1.00  0.00    -0.744 OA
ENDBRANCH  66  70
ENDBRANCH  49  63
BRANCH  50  74
ATOM     74  C   UNL A   1      49.822  27.783  26.865  1.00  0.00     0.023 A 
ATOM     75  C   UNL A   1      50.146  27.797  25.500  1.00  0.00     0.031 A 
ATOM     76  C   UNL A   1      50.854  27.504  27.784  1.00  0.00     0.131 A 
ATOM     77  C   UNL A   1      51.464  27.527  25.096  1.00  0.00     0.055 A 
ATOM     78  C   UNL A   1      52.172  27.297  27.381  1.00  0.00     0.041 A 
ATOM     79  F   UNL A   1      50.597  27.457  29.102  1.00  0.00    -0.206 F 
ATOM     80  C   UNL A   1      52.481  27.300  26.028  1.00  0.00     0.022 A 
BRANCH  77  81
ATOM     81  S   UNL A   1      51.825  27.404  23.323  1.00  0.00     0.124 S 
ATOM     82  O   UNL A   1      52.372  28.727  23.040  1.00  0.00    -0.237 OA
ATOM     83  O   UNL A   1      52.773  26.296  23.283  1.00  0.00    -0.237 OA
ATOM     84  O   UNL A   1      50.521  27.127  22.727  1.00  0.00    -0.744 OA
ENDBRANCH  77  81
ENDBRANCH  50  74
BRANCH  62  85
ATOM     85  C   UNL A   1      46.176  33.536  28.375  1.00  0.00     0.023 A 
ATOM     86  C   UNL A   1      46.695  34.157  29.525  1.00  0.00     0.031 A 
ATOM     87  C   UNL A   1      45.972  34.328  27.232  1.00  0.00     0.131 A 
ATOM     88  C   UNL A   1      46.929  35.540  29.528  1.00  0.00     0.055 A 
ATOM     89  C   UNL A   1      46.270  35.692  27.219  1.00  0.00     0.041 A 
ATOM     90  F   UNL A   1      45.473  33.790  26.107  1.00  0.00    -0.206 F 
ATOM     91  C   UNL A   1      46.736  36.308  28.377  1.00  0.00     0.022 A 
BRANCH  88  92
ATOM     92  S   UNL A   1      47.378  36.342  31.091  1.00  0.00     0.124 S 
ATOM     93  O   UNL A   1      47.447  37.747  30.702  1.00  0.00    -0.237 OA
ATOM     94  O   UNL A   1      46.265  35.976  31.962  1.00  0.00    -0.237 OA
ATOM     95  O   UNL A   1      48.660  35.730  31.435  1.00  0.00    -0.744 OA
ENDBRANCH  88  92
ENDBRANCH  62  85
ENDBRANCH  36  37
ENDBRANCH  29  31
ENDBRANCH  28  29
ENDBRANCH  27  28
ENDBRANCH  26  27
ENDBRANCH  25  26
ENDBRANCH  24  25
ENDBRANCH   1  24
TORSDOF 25
ENDMDL
MODEL 2
REMARK VINA RESULT:      -8.3      5.049      6.588
REMARK SMILES CCCc1n[nH]c(C(=O)N[C@H](C)CC(=O)OCCOCCOCCOC(=O)c2ccc(-c3c4nc(c(-c5cc(S(=O)(=O)[O-])ccc5F)c5ccc([nH]5)c(-c5cc(S(=O)(=O)[O-])ccc5F)c5nc(c(-c6cc(S(=O)(=O)[O-])ccc6F)c6ccc3[nH]6)C=C5)C=C4)cc2)n1
REMARK SMILES IDX 20 1 19 2 18 3 17 4 16 5 14 6 15 7 13 8 11 9 12 10 10 11
REMARK SMILES IDX 8 12 9 13 7 15 4 16 5 17 91 18 6 19 3 21 2 22 1 23 21 24
REMARK SMILES IDX 22 25 23 26 24 27 25 28 26 29 27 30 28 31 29 32 90 33 30 34
REMARK SMILES IDX 89 35 31 36 32 37 33 38 83 39 34 40 88 41 82 42 84 43 35 44
REMARK SMILES IDX 87 45 81 46 80 47 36 49 68 50 48 51 67 52 49 53 52 54 66 55
REMARK SMILES IDX 85 56 50 57 51 58 65 60 86 61 53 62 37 63 38 64 46 65 39 66
REMARK SMILES IDX 45 67 47 68 44 69 40 70 41 71 42 72 43 73 69 74 70 75 78 76
REMARK SMILES IDX 71 77 77 78 79 79 76 80 72 81 73 82 74 83 75 84 54 85 55 86
REMARK SMILES IDX 63 87 56 88 62 89 64 90 61 91 57 92 58 93 59 94 60 95
REMARK H PARENT 10 14 6 20 84 48 52 59
REMARK Flexibility Score: inf
ROOT
ATOM      1  C   UNL A   1      39.429  20.142  25.807  1.00  0.00     0.188 C 
ENDROOT
BRANCH   1   2
ATOM      2  O   UNL A   1      39.059  21.501  25.978  1.00  0.00    -0.376 OA
BRANCH   2   3
ATOM      3  C   UNL A   1      37.915  21.973  25.270  1.00  0.00     0.202 C 
BRANCH   3   4
ATOM      4  C   UNL A   1      36.884  20.936  24.818  1.00  0.00     0.261 C 
BRANCH   4   5
ATOM      5  O   UNL A   1      35.767  21.559  24.147  1.00  0.00    -0.463 OA
BRANCH   5   6
ATOM      6  C   UNL A   1      34.614  21.564  24.855  1.00  0.00     0.307 C 
ATOM      7  O   UNL A   1      34.492  21.012  25.944  1.00  0.00    -0.252 OA
BRANCH   6   8
ATOM      8  C   UNL A   1      33.506  22.422  24.270  1.00  0.00     0.147 C 
BRANCH   8   9
ATOM      9  C   UNL A   1      33.351  23.921  24.590  1.00  0.00     0.090 C 
ATOM     10  C   UNL A   1      34.119  24.376  25.828  1.00  0.00     0.031 C 
BRANCH   9  11
ATOM     11  N   UNL A   1      33.841  24.684  23.433  1.00  0.00    -0.346 N 
ATOM     12  C   UNL A   1      33.417  25.854  22.838  1.00  0.00     0.288 C 
ATOM     13  O   UNL A   1      33.832  26.046  21.707  1.00  0.00    -0.266 OA
ATOM     14  H   UNL A   1      34.627  24.281  22.998  1.00  0.00     0.164 HD
BRANCH  12  15
ATOM     15  C   UNL A   1      32.540  26.808  23.489  1.00  0.00     0.214 A 
ATOM     16  C   UNL A   1      31.501  28.478  24.293  1.00  0.00     0.151 A 
ATOM     17  N   UNL A   1      30.531  27.579  24.116  1.00  0.00    -0.158 NA
ATOM     18  N   UNL A   1      32.771  28.014  23.977  1.00  0.00    -0.207 NA
ATOM     19  N   UNL A   1      31.198  26.553  23.584  1.00  0.00    -0.255 N 
ATOM     20  H   UNL A   1      30.775  25.712  23.296  1.00  0.00     0.192 HD
BRANCH  16  21
ATOM     21  C   UNL A   1      31.251  29.772  24.982  1.00  0.00     0.079 C 
BRANCH  21  22
ATOM     22  C   UNL A   1      31.824  29.988  26.380  1.00  0.00     0.005 C 
ATOM     23  C   UNL A   1      31.687  28.781  27.300  1.00  0.00     0.004 C 
ENDBRANCH  21  22
ENDBRANCH  16  21
ENDBRANCH  12  15
ENDBRANCH   9  11
ENDBRANCH   8   9
ENDBRANCH   6   8
ENDBRANCH   5   6
ENDBRANCH   4   5
ENDBRANCH   3   4
ENDBRANCH   2   3
ENDBRANCH   1   2
BRANCH   1  24
ATOM     24  C   UNL A   1      40.823  19.690  26.287  1.00  0.00     0.188 C 
BRANCH  24  25
ATOM     25  O   UNL A   1      41.842  19.401  25.348  1.00  0.00    -0.376 OA
BRANCH  25  26
ATOM     26  C   UNL A   1      43.181  19.661  25.762  1.00  0.00     0.202 C 
BRANCH  26  27
ATOM     27  C   UNL A   1      43.847  20.972  25.326  1.00  0.00     0.261 C 
BRANCH  27  28
ATOM     28  O   UNL A   1      42.921  22.076  25.255  1.00  0.00    -0.460 OA
BRANCH  28  29
ATOM     29  C   UNL A   1      43.512  23.263  24.984  1.00  0.00     0.338 C 
ATOM     30  O   UNL A   1      44.285  23.488  24.061  1.00  0.00    -0.246 OA
BRANCH  29  31
ATOM     31  C   UNL A   1      43.082  24.336  25.907  1.00  0.00     0.060 A 
ATOM     32  C   UNL A   1      43.814  25.519  26.019  1.00  0.00     0.016 A 
ATOM     33  C   UNL A   1      42.120  24.037  26.872  1.00  0.00     0.016 A 
ATOM     34  C   UNL A   1      43.677  26.331  27.142  1.00  0.00     0.010 A 
ATOM     35  C   UNL A   1      41.951  24.880  27.978  1.00  0.00     0.010 A 
ATOM     36  C   UNL A   1      42.786  25.995  28.163  1.00  0.00    -0.014 A 
BRANCH  36  37
ATOM     37  C   UNL A   1      42.862  26.714  29.465  1.00  0.00     0.031 A 
ATOM     38  C   UNL A   1      42.062  27.980  29.678  1.00  0.00     0.074 A 
ATOM     39  C   UNL A   1      43.542  26.185  30.502  1.00  0.00     0.049 A 
ATOM     40  N   UNL A   1      42.066  28.800  30.699  1.00  0.00    -0.248 NA
ATOM     41  C   UNL A   1      41.110  28.358  28.619  1.00  0.00     0.031 C 
ATOM     42  C   UNL A   1      44.233  24.893  30.492  1.00  0.00     0.029 A 
ATOM     43  N   UNL A   1      43.765  26.667  31.769  1.00  0.00    -0.354 N 
ATOM     44  C   UNL A   1      41.117  29.777  30.413  1.00  0.00     0.074 A 
ATOM     45  C   UNL A   1      40.577  29.468  29.107  1.00  0.00     0.031 C 
ATOM     46  C   UNL A   1      44.795  24.687  31.690  1.00  0.00     0.029 A 
ATOM     47  C   UNL A   1      44.619  25.883  32.505  1.00  0.00     0.049 A 
ATOM     48  H   UNL A   1      43.353  27.493  32.113  1.00  0.00     0.167 HD
ATOM     49  C   UNL A   1      40.731  30.833  31.169  1.00  0.00     0.034 A 
ATOM     50  C   UNL A   1      45.273  26.131  33.658  1.00  0.00     0.034 A 
ATOM     51  C   UNL A   1      41.317  31.160  32.447  1.00  0.00     0.049 A 
ATOM     52  C   UNL A   1      45.049  27.449  34.345  1.00  0.00     0.074 A 
ATOM     53  C   UNL A   1      41.042  32.237  33.273  1.00  0.00     0.029 A 
ATOM     54  N   UNL A   1      42.321  30.431  33.071  1.00  0.00    -0.354 N 
ATOM     55  N   UNL A   1      44.209  28.409  34.033  1.00  0.00    -0.248 NA
ATOM     56  C   UNL A   1      45.874  27.728  35.525  1.00  0.00     0.031 C 
ATOM     57  C   UNL A   1      41.949  32.214  34.339  1.00  0.00     0.029 A 
ATOM     58  C   UNL A   1      42.729  31.074  34.230  1.00  0.00     0.049 A 
ATOM     59  H   UNL A   1      42.690  29.582  32.737  1.00  0.00     0.167 HD
ATOM     60  C   UNL A   1      44.395  29.402  34.989  1.00  0.00     0.074 A 
ATOM     61  C   UNL A   1      45.415  28.914  35.897  1.00  0.00     0.031 C 
ATOM     62  C   UNL A   1      43.774  30.603  35.108  1.00  0.00     0.034 A 
BRANCH  49  63
ATOM     63  C   UNL A   1      39.698  31.770  30.593  1.00  0.00     0.023 A 
ATOM     64  C   UNL A   1      38.320  31.489  30.628  1.00  0.00     0.031 A 
ATOM     65  C   UNL A   1      40.110  32.981  30.007  1.00  0.00     0.131 A 
ATOM     66  C   UNL A   1      37.408  32.401  30.070  1.00  0.00     0.055 A 
ATOM     67  C   UNL A   1      39.196  33.904  29.498  1.00  0.00     0.041 A 
ATOM     68  F   UNL A   1      41.415  33.286  29.922  1.00  0.00    -0.206 F 
ATOM     69  C   UNL A   1      37.837  33.613  29.524  1.00  0.00     0.022 A 
BRANCH  66  70
ATOM     70  S   UNL A   1      35.651  31.950  29.982  1.00  0.00     0.124 S 
ATOM     71  O   UNL A   1      35.687  30.760  29.137  1.00  0.00    -0.237 OA
ATOM     72  O   UNL A   1      35.311  31.734  31.382  1.00  0.00    -0.237 OA
ATOM     73  O   UNL A   1      35.028  33.120  29.364  1.00  0.00    -0.744 OA
ENDBRANCH  66  70
ENDBRANCH  49  63
BRANCH  50  74
ATOM     74  C   UNL A   1      46.312  25.174  34.138  1.00  0.00     0.023 A 
ATOM     75  C   UNL A   1      47.612  25.167  33.613  1.00  0.00     0.031 A 
ATOM     76  C   UNL A   1      45.997  24.225  35.131  1.00  0.00     0.131 A 
ATOM     77  C   UNL A   1      48.543  24.222  34.076  1.00  0.00     0.055 A 
ATOM     78  C   UNL A   1      46.942  23.331  35.631  1.00  0.00     0.041 A 
ATOM     79  F   UNL A   1      44.761  24.173  35.654  1.00  0.00    -0.206 F 
ATOM     80  C   UNL A   1      48.223  23.321  35.096  1.00  0.00     0.022 A 
BRANCH  77  81
ATOM     81  S   UNL A   1      50.169  24.135  33.278  1.00  0.00     0.124 S 
ATOM     82  O   UNL A   1      49.962  24.956  32.090  1.00  0.00    -0.237 OA
ATOM     83  O   UNL A   1      51.040  24.700  34.303  1.00  0.00    -0.237 OA
ATOM     84  O   UNL A   1      50.350  22.708  33.027  1.00  0.00    -0.744 OA
ENDBRANCH  77  81
ENDBRANCH  50  74
BRANCH  62  85
ATOM     85  C   UNL A   1      44.174  31.460  36.284  1.00  0.00     0.023 A 
ATOM     86  C   UNL A   1      43.361  31.565  37.426  1.00  0.00     0.031 A 
ATOM     87  C   UNL A   1      45.360  32.213  36.245  1.00  0.00     0.131 A 
ATOM     88  C   UNL A   1      43.710  32.455  38.453  1.00  0.00     0.055 A 
ATOM     89  C   UNL A   1      45.736  33.046  37.299  1.00  0.00     0.041 A 
ATOM     90  F   UNL A   1      46.172  32.156  35.177  1.00  0.00    -0.206 F 
ATOM     91  C   UNL A   1      44.901  33.183  38.404  1.00  0.00     0.022 A 
BRANCH  88  92
ATOM     92  S   UNL A   1      42.528  32.736  39.799  1.00  0.00     0.124 S 
ATOM     93  O   UNL A   1      42.466  31.421  40.427  1.00  0.00    -0.237 OA
ATOM     94  O   UNL A   1      43.180  33.784  40.576  1.00  0.00    -0.237 OA
ATOM     95  O   UNL A   1      41.309  33.149  39.104  1.00  0.00    -0.744 OA
ENDBRANCH  88  92
ENDBRANCH  62  85
ENDBRANCH  36  37
ENDBRANCH  29  31
ENDBRANCH  28  29
ENDBRANCH  27  28
ENDBRANCH  26  27
ENDBRANCH  25  26
ENDBRANCH  24  25
ENDBRANCH   1  24
TORSDOF 25
ENDMDL
MODEL 3
REMARK VINA RESULT:      -8.3      2.364      2.803
REMARK SMILES CCCc1n[nH]c(C(=O)N[C@H](C)CC(=O)OCCOCCOCCOC(=O)c2ccc(-c3c4nc(c(-c5cc(S(=O)(=O)[O-])ccc5F)c5ccc([nH]5)c(-c5cc(S(=O)(=O)[O-])ccc5F)c5nc(c(-c6cc(S(=O)(=O)[O-])ccc6F)c6ccc3[nH]6)C=C5)C=C4)cc2)n1
REMARK SMILES IDX 20 1 19 2 18 3 17 4 16 5 14 6 15 7 13 8 11 9 12 10 10 11
REMARK SMILES IDX 8 12 9 13 7 15 4 16 5 17 91 18 6 19 3 21 2 22 1 23 21 24
REMARK SMILES IDX 22 25 23 26 24 27 25 28 26 29 27 30 28 31 29 32 90 33 30 34
REMARK SMILES IDX 89 35 31 36 32 37 33 38 83 39 34 40 88 41 82 42 84 43 35 44
REMARK SMILES IDX 87 45 81 46 80 47 36 49 68 50 48 51 67 52 49 53 52 54 66 55
REMARK SMILES IDX 85 56 50 57 51 58 65 60 86 61 53 62 37 63 38 64 46 65 39 66
REMARK SMILES IDX 45 67 47 68 44 69 40 70 41 71 42 72 43 73 69 74 70 75 78 76
REMARK SMILES IDX 71 77 77 78 79 79 76 80 72 81 73 82 74 83 75 84 54 85 55 86
REMARK SMILES IDX 63 87 56 88 62 89 64 90 61 91 57 92 58 93 59 94 60 95
REMARK H PARENT 10 14 6 20 84 48 52 59
REMARK Flexibility Score: inf
ROOT
ATOM      1  C   UNL A   1      34.560  21.161  25.309  1.00  0.00     0.188 C 
ENDROOT
BRANCH   1   2
ATOM      2  O   UNL A   1      34.065  22.047  24.318  1.00  0.00    -0.376 OA
BRANCH   2   3
ATOM      3  C   UNL A   1      32.652  22.124  24.141  1.00  0.00     0.202 C 
BRANCH   3   4
ATOM      4  C   UNL A   1      31.772  21.948  25.380  1.00  0.00     0.261 C 
BRANCH   4   5
ATOM      5  O   UNL A   1      30.787  22.999  25.483  1.00  0.00    -0.463 OA
BRANCH   5   6
ATOM      6  C   UNL A   1      30.987  23.862  26.505  1.00  0.00     0.307 C 
ATOM      7  O   UNL A   1      31.416  23.518  27.602  1.00  0.00    -0.252 OA
BRANCH   6   8
ATOM      8  C   UNL A   1      30.770  25.325  26.161  1.00  0.00     0.147 C 
BRANCH   8   9
ATOM      9  C   UNL A   1      31.913  26.359  26.142  1.00  0.00     0.090 C 
ATOM     10  C   UNL A   1      33.295  25.755  25.912  1.00  0.00     0.031 C 
BRANCH   9  11
ATOM     11  N   UNL A   1      31.639  27.317  25.062  1.00  0.00    -0.346 N 
ATOM     12  C   UNL A   1      31.910  28.662  24.914  1.00  0.00     0.288 C 
ATOM     13  O   UNL A   1      31.267  29.233  24.049  1.00  0.00    -0.266 OA
ATOM     14  H   UNL A   1      31.170  26.921  24.291  1.00  0.00     0.164 HD
BRANCH  12  15
ATOM     15  C   UNL A   1      32.887  29.372  25.717  1.00  0.00     0.214 A 
ATOM     16  C   UNL A   1      34.008  30.511  27.117  1.00  0.00     0.151 A 
ATOM     17  N   UNL A   1      34.887  29.597  26.702  1.00  0.00    -0.158 NA
ATOM     18  N   UNL A   1      32.776  30.444  26.481  1.00  0.00    -0.207 NA
ATOM     19  N   UNL A   1      34.157  28.876  25.849  1.00  0.00    -0.255 N 
ATOM     20  H   UNL A   1      34.491  28.083  25.371  1.00  0.00     0.192 HD
BRANCH  16  21
ATOM     21  C   UNL A   1      34.407  31.629  28.012  1.00  0.00     0.079 C 
BRANCH  21  22
ATOM     22  C   UNL A   1      33.583  32.913  28.002  1.00  0.00     0.005 C 
ATOM     23  C   UNL A   1      33.964  33.905  29.094  1.00  0.00     0.004 C 
ENDBRANCH  21  22
ENDBRANCH  16  21
ENDBRANCH  12  15
ENDBRANCH   9  11
ENDBRANCH   8   9
ENDBRANCH   6   8
ENDBRANCH   5   6
ENDBRANCH   4   5
ENDBRANCH   3   4
ENDBRANCH   2   3
ENDBRANCH   1   2
BRANCH   1  24
ATOM     24  C   UNL A   1      36.080  21.122  25.572  1.00  0.00     0.188 C 
BRANCH  24  25
ATOM     25  O   UNL A   1      36.823  22.324  25.638  1.00  0.00    -0.376 OA
BRANCH  25  26
ATOM     26  C   UNL A   1      38.226  22.218  25.405  1.00  0.00     0.202 C 
BRANCH  26  27
ATOM     27  C   UNL A   1      39.007  21.097  26.100  1.00  0.00     0.261 C 
BRANCH  27  28
ATOM     28  O   UNL A   1      40.281  20.830  25.479  1.00  0.00    -0.460 OA
BRANCH  28  29
ATOM     29  C   UNL A   1      41.209  20.338  26.333  1.00  0.00     0.338 C 
ATOM     30  O   UNL A   1      41.247  19.195  26.774  1.00  0.00    -0.246 OA
BRANCH  29  31
ATOM     31  C   UNL A   1      42.260  21.325  26.661  1.00  0.00     0.060 A 
ATOM     32  C   UNL A   1      42.616  21.575  27.987  1.00  0.00     0.016 A 
ATOM     33  C   UNL A   1      42.677  22.209  25.667  1.00  0.00     0.016 A 
ATOM     34  C   UNL A   1      43.271  22.755  28.332  1.00  0.00     0.010 A 
ATOM     35  C   UNL A   1      43.377  23.372  26.011  1.00  0.00     0.010 A 
ATOM     36  C   UNL A   1      43.611  23.695  27.358  1.00  0.00    -0.014 A 
BRANCH  36  37
ATOM     37  C   UNL A   1      44.048  25.056  27.777  1.00  0.00     0.031 A 
ATOM     38  C   UNL A   1      43.022  26.093  28.175  1.00  0.00     0.074 A 
ATOM     39  C   UNL A   1      45.358  25.340  27.923  1.00  0.00     0.049 A 
ATOM     40  N   UNL A   1      43.193  27.355  28.475  1.00  0.00    -0.248 NA
ATOM     41  C   UNL A   1      41.622  25.644  28.277  1.00  0.00     0.031 C 
ATOM     42  C   UNL A   1      46.459  24.392  27.728  1.00  0.00     0.029 A 
ATOM     43  N   UNL A   1      45.989  26.509  28.273  1.00  0.00    -0.354 N 
ATOM     44  C   UNL A   1      41.934  27.846  28.812  1.00  0.00     0.074 A 
ATOM     45  C   UNL A   1      41.000  26.755  28.648  1.00  0.00     0.031 C 
ATOM     46  C   UNL A   1      47.622  25.015  27.962  1.00  0.00     0.029 A 
ATOM     47  C   UNL A   1      47.359  26.431  28.194  1.00  0.00     0.049 A 
ATOM     48  H   UNL A   1      45.507  27.321  28.552  1.00  0.00     0.167 HD
ATOM     49  C   UNL A   1      41.591  29.092  29.220  1.00  0.00     0.034 A 
ATOM     50  C   UNL A   1      48.301  27.395  28.203  1.00  0.00     0.034 A 
ATOM     51  C   UNL A   1      42.525  30.186  29.327  1.00  0.00     0.049 A 
ATOM     52  C   UNL A   1      47.866  28.825  28.371  1.00  0.00     0.074 A 
ATOM     53  C   UNL A   1      42.277  31.503  29.678  1.00  0.00     0.029 A 
ATOM     54  N   UNL A   1      43.884  30.101  29.054  1.00  0.00    -0.354 N 
ATOM     55  N   UNL A   1      46.666  29.300  28.612  1.00  0.00    -0.248 NA
ATOM     56  C   UNL A   1      48.908  29.851  28.248  1.00  0.00     0.031 C 
ATOM     57  C   UNL A   1      43.462  32.230  29.515  1.00  0.00     0.029 A 
ATOM     58  C   UNL A   1      44.471  31.354  29.153  1.00  0.00     0.049 A 
ATOM     59  H   UNL A   1      44.360  29.271  28.821  1.00  0.00     0.167 HD
ATOM     60  C   UNL A   1      46.811  30.681  28.683  1.00  0.00     0.074 A 
ATOM     61  C   UNL A   1      48.219  30.959  28.478  1.00  0.00     0.031 C 
ATOM     62  C   UNL A   1      45.867  31.631  28.906  1.00  0.00     0.034 A 
BRANCH  49  63
ATOM     63  C   UNL A   1      40.130  29.366  29.484  1.00  0.00     0.023 A 
ATOM     64  C   UNL A   1      39.601  29.453  30.784  1.00  0.00     0.031 A 
ATOM     65  C   UNL A   1      39.255  29.560  28.399  1.00  0.00     0.131 A 
ATOM     66  C   UNL A   1      38.230  29.707  30.963  1.00  0.00     0.055 A 
ATOM     67  C   UNL A   1      37.905  29.860  28.585  1.00  0.00     0.041 A 
ATOM     68  F   UNL A   1      39.702  29.460  27.138  1.00  0.00    -0.206 F 
ATOM     69  C   UNL A   1      37.385  29.930  29.873  1.00  0.00     0.022 A 
BRANCH  66  70
ATOM     70  S   UNL A   1      37.534  29.659  32.640  1.00  0.00     0.124 S 
ATOM     71  O   UNL A   1      37.421  28.222  32.877  1.00  0.00    -0.237 OA
ATOM     72  O   UNL A   1      38.546  30.360  33.421  1.00  0.00    -0.237 OA
ATOM     73  O   UNL A   1      36.258  30.359  32.502  1.00  0.00    -0.744 OA
ENDBRANCH  66  70
ENDBRANCH  49  63
BRANCH  50  74
ATOM     74  C   UNL A   1      49.717  27.048  27.889  1.00  0.00     0.023 A 
ATOM     75  C   UNL A   1      50.713  27.038  28.876  1.00  0.00     0.031 A 
ATOM     76  C   UNL A   1      50.095  26.739  26.567  1.00  0.00     0.131 A 
ATOM     77  C   UNL A   1      52.039  26.737  28.522  1.00  0.00     0.055 A 
ATOM     78  C   UNL A   1      51.400  26.382  26.232  1.00  0.00     0.041 A 
ATOM     79  F   UNL A   1      49.186  26.755  25.578  1.00  0.00    -0.206 F 
ATOM     80  C   UNL A   1      52.383  26.388  27.212  1.00  0.00     0.022 A 
BRANCH  77  81
ATOM     81  S   UNL A   1      53.333  26.876  29.784  1.00  0.00     0.124 S 
ATOM     82  O   UNL A   1      52.872  28.025  30.557  1.00  0.00    -0.237 OA
ATOM     83  O   UNL A   1      53.247  25.580  30.449  1.00  0.00    -0.237 OA
ATOM     84  O   UNL A   1      54.548  27.095  29.004  1.00  0.00    -0.744 OA
ENDBRANCH  77  81
ENDBRANCH  50  74
BRANCH  62  85
ATOM     85  C   UNL A   1      46.343  33.061  28.959  1.00  0.00     0.023 A 
ATOM     86  C   UNL A   1      46.463  33.839  27.794  1.00  0.00     0.031 A 
ATOM     87  C   UNL A   1      46.720  33.640  30.183  1.00  0.00     0.131 A 
ATOM     88  C   UNL A   1      47.012  35.128  27.868  1.00  0.00     0.055 A 
ATOM     89  C   UNL A   1      47.203  34.948  30.259  1.00  0.00     0.041 A 
ATOM     90  F   UNL A   1      46.632  32.942  31.327  1.00  0.00    -0.206 F 
ATOM     91  C   UNL A   1      47.366  35.693  29.095  1.00  0.00     0.022 A 
BRANCH  88  92
ATOM     92  S   UNL A   1      47.365  36.011  26.324  1.00  0.00     0.124 S 
ATOM     93  O   UNL A   1      48.356  35.142  25.697  1.00  0.00    -0.237 OA
ATOM     94  O   UNL A   1      46.057  36.054  25.681  1.00  0.00    -0.237 OA
ATOM     95  O   UNL A   1      47.875  37.305  26.778  1.00  0.00    -0.744 OA
ENDBRANCH  88  92
ENDBRANCH  62  85
ENDBRANCH  36  37
ENDBRANCH  29  31
ENDBRANCH  28  29
ENDBRANCH  27  28
ENDBRANCH  26  27
ENDBRANCH  25  26
ENDBRANCH  24  25
ENDBRANCH   1  24
TORSDOF 25
ENDMDL
