MODEL 1
REMARK VINA RESULT:     -10.7      0.000      0.000
REMARK SMILES Cc1cc(Br)cc2c1O[C@H](C(F)(F)F)C(C(=O)OCCOCCOCCOC(=O)c1ccc(-c3c4nc(c(-c5cc(S(=O)(=O)[O-])ccc5F)c5ccc([nH]5)c(-c5cc(S(=O)(=O)[O-])ccc5F)c5nc(c(-c6cc(S(=O)(=O)[O-])ccc6F)c6ccc3[nH]6)C=C5)C=C4)cc1)=C2
REMARK SMILES IDX 23 1 22 2 21 3 20 4 19 5 18 6 16 7 17 8 15 9 1 10 2 11 3 12
REMARK SMILES IDX 8 13 4 14 7 15 9 16 5 17 6 18 93 19 10 20 11 21 12 22 13 23
REMARK SMILES IDX 14 24 24 25 25 26 26 27 27 28 28 29 29 30 30 31 31 32 92 33
REMARK SMILES IDX 32 34 91 35 33 36 34 37 35 38 85 39 36 40 90 41 84 42 86 43
REMARK SMILES IDX 37 44 89 45 83 46 82 47 38 49 70 50 50 51 69 52 51 53 54 54
REMARK SMILES IDX 68 55 87 56 52 57 53 58 67 60 88 61 55 62 39 63 40 64 48 65
REMARK SMILES IDX 41 66 47 67 49 68 46 69 42 70 43 71 44 72 45 73 71 74 72 75
REMARK SMILES IDX 80 76 73 77 79 78 81 79 78 80 74 81 75 82 76 83 77 84 56 85
REMARK SMILES IDX 57 86 65 87 58 88 64 89 66 90 63 91 59 92 60 93 61 94 62 95
REMARK H PARENT 86 48 54 59
REMARK Flexibility Score: inf
ROOT
ATOM      1  C   UNL A   1      35.420  21.202  24.913  1.00  0.00     0.188 C 
ENDROOT
BRANCH   1   2
ATOM      2  C   UNL A   1      34.409  20.038  24.838  1.00  0.00     0.188 C 
BRANCH   2   3
ATOM      3  O   UNL A   1      33.070  20.469  24.748  1.00  0.00    -0.376 OA
BRANCH   3   4
ATOM      4  C   UNL A   1      32.553  20.979  23.535  1.00  0.00     0.202 C 
BRANCH   4   5
ATOM      5  C   UNL A   1      32.464  22.477  23.193  1.00  0.00     0.261 C 
BRANCH   5   6
ATOM      6  O   UNL A   1      31.224  23.139  23.447  1.00  0.00    -0.460 OA
BRANCH   6   7
ATOM      7  C   UNL A   1      31.004  23.539  24.721  1.00  0.00     0.338 C 
ATOM      8  O   UNL A   1      30.908  22.821  25.701  1.00  0.00    -0.246 OA
BRANCH   7   9
ATOM      9  C   UNL A   1      30.996  25.015  24.759  1.00  0.00     0.087 C 
ATOM     10  C   UNL A   1      32.079  29.979  25.537  1.00  0.00     0.048 C 
ATOM     11  C   UNL A   1      31.105  29.197  24.700  1.00  0.00    -0.007 A 
ATOM     12  C   UNL A   1      30.228  29.887  23.849  1.00  0.00     0.023 A 
ATOM     13  C   UNL A   1      31.029  27.795  24.769  1.00  0.00     0.130 A 
ATOM     14  C   UNL A   1      29.314  29.186  23.065  1.00  0.00     0.019 A 
ATOM     15  C   UNL A   1      30.133  27.094  23.951  1.00  0.00     0.019 A 
ATOM     16  O   UNL A   1      31.862  27.179  25.660  1.00  0.00    -0.475 OA
ATOM     17  Br  UNL A   1      28.148  30.133  21.919  1.00  0.00    -0.051 Br
ATOM     18  C   UNL A   1      29.264  27.794  23.108  1.00  0.00     0.027 A 
ATOM     19  C   UNL A   1      30.138  25.639  23.944  1.00  0.00     0.027 C 
ATOM     20  C   UNL A   1      31.915  25.729  25.713  1.00  0.00     0.316 C 
BRANCH  20  21
ATOM     21  C   UNL A   1      33.382  25.306  25.550  1.00  0.00     0.430 C 
ATOM     22  F   UNL A   1      34.221  26.220  26.099  1.00  0.00    -0.167 F 
ATOM     23  F   UNL A   1      33.642  24.131  26.170  1.00  0.00    -0.167 F 
ATOM     24  F   UNL A   1      33.734  25.165  24.253  1.00  0.00    -0.167 F 
ENDBRANCH  20  21
ENDBRANCH   7   9
ENDBRANCH   6   7
ENDBRANCH   5   6
ENDBRANCH   4   5
ENDBRANCH   3   4
ENDBRANCH   2   3
ENDBRANCH   1   2
BRANCH   1  25
ATOM     25  O   UNL A   1      36.744  21.011  24.421  1.00  0.00    -0.376 OA
BRANCH  25  26
ATOM     26  C   UNL A   1      37.822  20.964  25.352  1.00  0.00     0.202 C 
BRANCH  26  27
ATOM     27  C   UNL A   1      38.743  19.736  25.368  1.00  0.00     0.261 C 
BRANCH  27  28
ATOM     28  O   UNL A   1      39.597  19.650  26.521  1.00  0.00    -0.460 OA
BRANCH  28  29
ATOM     29  C   UNL A   1      40.899  19.971  26.306  1.00  0.00     0.338 C 
ATOM     30  O   UNL A   1      41.731  19.309  25.711  1.00  0.00    -0.246 OA
BRANCH  29  31
ATOM     31  C   UNL A   1      41.134  21.361  26.742  1.00  0.00     0.060 A 
ATOM     32  C   UNL A   1      40.910  22.392  25.820  1.00  0.00     0.016 A 
ATOM     33  C   UNL A   1      41.587  21.648  28.031  1.00  0.00     0.016 A 
ATOM     34  C   UNL A   1      41.137  23.717  26.187  1.00  0.00     0.010 A 
ATOM     35  C   UNL A   1      41.841  22.977  28.388  1.00  0.00     0.010 A 
ATOM     36  C   UNL A   1      41.631  24.015  27.463  1.00  0.00    -0.014 A 
BRANCH  36  37
ATOM     37  C   UNL A   1      42.055  25.403  27.772  1.00  0.00     0.031 A 
ATOM     38  C   UNL A   1      43.431  25.847  27.362  1.00  0.00     0.074 A 
ATOM     39  C   UNL A   1      41.210  26.267  28.363  1.00  0.00     0.049 A 
ATOM     40  N   UNL A   1      43.999  27.015  27.506  1.00  0.00    -0.248 NA
ATOM     41  C   UNL A   1      44.274  24.841  26.697  1.00  0.00     0.031 C 
ATOM     42  C   UNL A   1      39.836  25.964  28.763  1.00  0.00     0.029 A 
ATOM     43  N   UNL A   1      41.382  27.582  28.720  1.00  0.00    -0.354 N 
ATOM     44  C   UNL A   1      45.257  26.895  26.929  1.00  0.00     0.074 A 
ATOM     45  C   UNL A   1      45.386  25.526  26.474  1.00  0.00     0.031 C 
ATOM     46  C   UNL A   1      39.287  27.068  29.303  1.00  0.00     0.029 A 
ATOM     47  C   UNL A   1      40.276  28.146  29.312  1.00  0.00     0.049 A 
ATOM     48  H   UNL A   1      42.219  28.076  28.565  1.00  0.00     0.167 HD
ATOM     49  C   UNL A   1      46.213  27.842  26.778  1.00  0.00     0.034 A 
ATOM     50  C   UNL A   1      40.087  29.385  29.810  1.00  0.00     0.034 A 
ATOM     51  C   UNL A   1      46.088  29.195  27.252  1.00  0.00     0.049 A 
ATOM     52  C   UNL A   1      41.208  30.392  29.734  1.00  0.00     0.074 A 
ATOM     53  C   UNL A   1      47.004  30.228  27.155  1.00  0.00     0.029 A 
ATOM     54  N   UNL A   1      44.985  29.702  27.922  1.00  0.00    -0.354 N 
ATOM     55  N   UNL A   1      42.400  30.257  29.200  1.00  0.00    -0.248 NA
ATOM     56  C   UNL A   1      40.964  31.715  30.326  1.00  0.00     0.031 C 
ATOM     57  C   UNL A   1      46.480  31.341  27.819  1.00  0.00     0.029 A 
ATOM     58  C   UNL A   1      45.209  31.023  28.270  1.00  0.00     0.049 A 
ATOM     59  H   UNL A   1      44.163  29.197  28.121  1.00  0.00     0.167 HD
ATOM     60  C   UNL A   1      43.032  31.487  29.364  1.00  0.00     0.074 A 
ATOM     61  C   UNL A   1      42.098  32.349  30.056  1.00  0.00     0.031 C 
ATOM     62  C   UNL A   1      44.270  31.869  28.964  1.00  0.00     0.034 A 
BRANCH  49  63
ATOM     63  C   UNL A   1      47.490  27.437  26.093  1.00  0.00     0.023 A 
ATOM     64  C   UNL A   1      47.683  27.662  24.721  1.00  0.00     0.031 A 
ATOM     65  C   UNL A   1      48.529  26.838  26.823  1.00  0.00     0.131 A 
ATOM     66  C   UNL A   1      48.877  27.252  24.109  1.00  0.00     0.055 A 
ATOM     67  C   UNL A   1      49.739  26.489  26.222  1.00  0.00     0.041 A 
ATOM     68  F   UNL A   1      48.387  26.586  28.134  1.00  0.00    -0.206 F 
ATOM     69  C   UNL A   1      49.915  26.688  24.855  1.00  0.00     0.022 A 
BRANCH  66  70
ATOM     70  S   UNL A   1      49.024  27.394  22.308  1.00  0.00     0.124 S 
ATOM     71  O   UNL A   1      48.066  28.457  22.017  1.00  0.00    -0.237 OA
ATOM     72  O   UNL A   1      50.431  27.737  22.131  1.00  0.00    -0.237 OA
ATOM     73  O   UNL A   1      48.641  26.069  21.828  1.00  0.00    -0.744 OA
ENDBRANCH  66  70
ENDBRANCH  49  63
BRANCH  50  74
ATOM     74  C   UNL A   1      38.788  29.745  30.443  1.00  0.00     0.023 A 
ATOM     75  C   UNL A   1      37.829  30.496  29.747  1.00  0.00     0.031 A 
ATOM     76  C   UNL A   1      38.496  29.353  31.761  1.00  0.00     0.131 A 
ATOM     77  C   UNL A   1      36.629  30.854  30.382  1.00  0.00     0.055 A 
ATOM     78  C   UNL A   1      37.286  29.680  32.376  1.00  0.00     0.041 A 
ATOM     79  F   UNL A   1      39.382  28.632  32.467  1.00  0.00    -0.206 F 
ATOM     80  C   UNL A   1      36.346  30.441  31.687  1.00  0.00     0.022 A 
BRANCH  77  81
ATOM     81  S   UNL A   1      35.447  31.901  29.489  1.00  0.00     0.124 S 
ATOM     82  O   UNL A   1      34.537  32.296  30.558  1.00  0.00    -0.237 OA
ATOM     83  O   UNL A   1      36.312  32.952  28.960  1.00  0.00    -0.237 OA
ATOM     84  O   UNL A   1      34.883  31.000  28.487  1.00  0.00    -0.744 OA
ENDBRANCH  77  81
ENDBRANCH  50  74
BRANCH  62  85
ATOM     85  C   UNL A   1      44.689  33.292  29.218  1.00  0.00     0.023 A 
ATOM     86  C   UNL A   1      45.410  33.653  30.368  1.00  0.00     0.031 A 
ATOM     87  C   UNL A   1      44.450  34.276  28.242  1.00  0.00     0.131 A 
ATOM     88  C   UNL A   1      45.864  34.972  30.516  1.00  0.00     0.055 A 
ATOM     89  C   UNL A   1      44.936  35.577  28.378  1.00  0.00     0.041 A 
ATOM     90  F   UNL A   1      43.773  33.974  27.122  1.00  0.00    -0.206 F 
ATOM     91  C   UNL A   1      45.648  35.930  29.521  1.00  0.00     0.022 A 
BRANCH  88  92
ATOM     92  S   UNL A   1      46.760  35.427  32.028  1.00  0.00     0.124 S 
ATOM     93  O   UNL A   1      48.127  35.570  31.536  1.00  0.00    -0.237 OA
ATOM     94  O   UNL A   1      46.096  36.662  32.433  1.00  0.00    -0.237 OA
ATOM     95  O   UNL A   1      46.535  34.287  32.915  1.00  0.00    -0.744 OA
ENDBRANCH  88  92
ENDBRANCH  62  85
ENDBRANCH  36  37
ENDBRANCH  29  31
ENDBRANCH  28  29
ENDBRANCH  27  28
ENDBRANCH  26  27
ENDBRANCH  25  26
ENDBRANCH   1  25
TORSDOF 21
ENDMDL
MODEL 2
REMARK VINA RESULT:     -10.7      4.872     10.454
REMARK SMILES Cc1cc(Br)cc2c1O[C@H](C(F)(F)F)C(C(=O)OCCOCCOCCOC(=O)c1ccc(-c3c4nc(c(-c5cc(S(=O)(=O)[O-])ccc5F)c5ccc([nH]5)c(-c5cc(S(=O)(=O)[O-])ccc5F)c5nc(c(-c6cc(S(=O)(=O)[O-])ccc6F)c6ccc3[nH]6)C=C5)C=C4)cc1)=C2
REMARK SMILES IDX 23 1 22 2 21 3 20 4 19 5 18 6 16 7 17 8 15 9 1 10 2 11 3 12
REMARK SMILES IDX 8 13 4 14 7 15 9 16 5 17 6 18 93 19 10 20 11 21 12 22 13 23
REMARK SMILES IDX 14 24 24 25 25 26 26 27 27 28 28 29 29 30 30 31 31 32 92 33
REMARK SMILES IDX 32 34 91 35 33 36 34 37 35 38 85 39 36 40 90 41 84 42 86 43
REMARK SMILES IDX 37 44 89 45 83 46 82 47 38 49 70 50 50 51 69 52 51 53 54 54
REMARK SMILES IDX 68 55 87 56 52 57 53 58 67 60 88 61 55 62 39 63 40 64 48 65
REMARK SMILES IDX 41 66 47 67 49 68 46 69 42 70 43 71 44 72 45 73 71 74 72 75
REMARK SMILES IDX 80 76 73 77 79 78 81 79 78 80 74 81 75 82 76 83 77 84 56 85
REMARK SMILES IDX 57 86 65 87 58 88 64 89 66 90 63 91 59 92 60 93 61 94 62 95
REMARK H PARENT 86 48 54 59
REMARK Flexibility Score: inf
ROOT
ATOM      1  C   UNL A   1      31.789  29.097  24.567  1.00  0.00     0.188 C 
ENDROOT
BRANCH   1   2
ATOM      2  C   UNL A   1      31.002  27.964  23.873  1.00  0.00     0.188 C 
BRANCH   2   3
ATOM      3  O   UNL A   1      30.171  27.243  24.754  1.00  0.00    -0.376 OA
BRANCH   3   4
ATOM      4  C   UNL A   1      30.724  26.422  25.763  1.00  0.00     0.202 C 
BRANCH   4   5
ATOM      5  C   UNL A   1      31.944  25.505  25.563  1.00  0.00     0.261 C 
BRANCH   5   6
ATOM      6  O   UNL A   1      31.823  24.145  25.984  1.00  0.00    -0.460 OA
BRANCH   6   7
ATOM      7  C   UNL A   1      32.959  23.410  25.982  1.00  0.00     0.338 C 
ATOM      8  O   UNL A   1      33.971  23.636  26.624  1.00  0.00    -0.246 OA
BRANCH   7   9
ATOM      9  C   UNL A   1      32.749  22.214  25.144  1.00  0.00     0.087 C 
ATOM     10  C   UNL A   1      32.104  18.911  21.259  1.00  0.00     0.048 C 
ATOM     11  C   UNL A   1      32.366  18.813  22.736  1.00  0.00    -0.007 A 
ATOM     12  C   UNL A   1      32.520  17.547  23.320  1.00  0.00     0.023 A 
ATOM     13  C   UNL A   1      32.432  19.956  23.552  1.00  0.00     0.130 A 
ATOM     14  C   UNL A   1      32.762  17.430  24.687  1.00  0.00     0.019 A 
ATOM     15  C   UNL A   1      32.712  19.833  24.920  1.00  0.00     0.019 A 
ATOM     16  O   UNL A   1      32.212  21.159  22.943  1.00  0.00    -0.475 OA
ATOM     17  Br  UNL A   1      32.975  15.715  25.454  1.00  0.00    -0.051 Br
ATOM     18  C   UNL A   1      32.863  18.564  25.489  1.00  0.00     0.027 A 
ATOM     19  C   UNL A   1      32.891  21.023  25.737  1.00  0.00     0.027 C 
ATOM     20  C   UNL A   1      32.367  22.388  23.699  1.00  0.00     0.316 C 
BRANCH  20  21
ATOM     21  C   UNL A   1      33.345  23.291  22.933  1.00  0.00     0.430 C 
ATOM     22  F   UNL A   1      33.628  22.781  21.708  1.00  0.00    -0.167 F 
ATOM     23  F   UNL A   1      32.835  24.527  22.721  1.00  0.00    -0.167 F 
ATOM     24  F   UNL A   1      34.519  23.444  23.585  1.00  0.00    -0.167 F 
ENDBRANCH  20  21
ENDBRANCH   7   9
ENDBRANCH   6   7
ENDBRANCH   5   6
ENDBRANCH   4   5
ENDBRANCH   3   4
ENDBRANCH   2   3
ENDBRANCH   1   2
BRANCH   1  25
ATOM     25  O   UNL A   1      31.087  30.234  25.061  1.00  0.00    -0.376 OA
BRANCH  25  26
ATOM     26  C   UNL A   1      31.316  30.653  26.404  1.00  0.00     0.202 C 
BRANCH  26  27
ATOM     27  C   UNL A   1      31.491  32.149  26.700  1.00  0.00     0.261 C 
BRANCH  27  28
ATOM     28  O   UNL A   1      32.843  32.622  26.587  1.00  0.00    -0.460 OA
BRANCH  28  29
ATOM     29  C   UNL A   1      33.307  33.321  27.655  1.00  0.00     0.338 C 
ATOM     30  O   UNL A   1      32.731  34.209  28.259  1.00  0.00    -0.246 OA
BRANCH  29  31
ATOM     31  C   UNL A   1      34.569  32.715  28.119  1.00  0.00     0.060 A 
ATOM     32  C   UNL A   1      34.526  31.420  28.655  1.00  0.00     0.016 A 
ATOM     33  C   UNL A   1      35.777  33.413  28.051  1.00  0.00     0.016 A 
ATOM     34  C   UNL A   1      35.693  30.819  29.121  1.00  0.00     0.010 A 
ATOM     35  C   UNL A   1      36.942  32.818  28.545  1.00  0.00     0.010 A 
ATOM     36  C   UNL A   1      36.903  31.524  29.096  1.00  0.00    -0.014 A 
BRANCH  36  37
ATOM     37  C   UNL A   1      38.092  30.953  29.773  1.00  0.00     0.031 A 
ATOM     38  C   UNL A   1      38.384  31.363  31.190  1.00  0.00     0.074 A 
ATOM     39  C   UNL A   1      38.869  30.045  29.155  1.00  0.00     0.049 A 
ATOM     40  N   UNL A   1      39.348  30.972  31.981  1.00  0.00    -0.248 NA
ATOM     41  C   UNL A   1      37.463  32.339  31.794  1.00  0.00     0.031 C 
ATOM     42  C   UNL A   1      38.657  29.536  27.801  1.00  0.00     0.029 A 
ATOM     43  N   UNL A   1      39.990  29.383  29.591  1.00  0.00    -0.354 N 
ATOM     44  C   UNL A   1      39.138  31.634  33.184  1.00  0.00     0.074 A 
ATOM     45  C   UNL A   1      37.982  32.486  33.003  1.00  0.00     0.031 C 
ATOM     46  C   UNL A   1      39.614  28.632  27.521  1.00  0.00     0.029 A 
ATOM     47  C   UNL A   1      40.520  28.518  28.664  1.00  0.00     0.049 A 
ATOM     48  H   UNL A   1      40.377  29.514  30.487  1.00  0.00     0.167 HD
ATOM     49  C   UNL A   1      39.836  31.529  34.340  1.00  0.00     0.034 A 
ATOM     50  C   UNL A   1      41.615  27.732  28.726  1.00  0.00     0.034 A 
ATOM     51  C   UNL A   1      40.999  30.697  34.507  1.00  0.00     0.049 A 
ATOM     52  C   UNL A   1      42.445  27.719  29.986  1.00  0.00     0.074 A 
ATOM     53  C   UNL A   1      41.781  30.529  35.636  1.00  0.00     0.029 A 
ATOM     54  N   UNL A   1      41.553  29.901  33.516  1.00  0.00    -0.354 N 
ATOM     55  N   UNL A   1      42.243  28.364  31.111  1.00  0.00    -0.248 NA
ATOM     56  C   UNL A   1      43.649  26.875  29.988  1.00  0.00     0.031 C 
ATOM     57  C   UNL A   1      42.842  29.680  35.311  1.00  0.00     0.029 A 
ATOM     58  C   UNL A   1      42.683  29.265  33.999  1.00  0.00     0.049 A 
ATOM     59  H   UNL A   1      41.196  29.804  32.603  1.00  0.00     0.167 HD
ATOM     60  C   UNL A   1      43.276  27.979  31.962  1.00  0.00     0.074 A 
ATOM     61  C   UNL A   1      44.106  27.053  31.221  1.00  0.00     0.031 C 
ATOM     62  C   UNL A   1      43.505  28.348  33.246  1.00  0.00     0.034 A 
BRANCH  49  63
ATOM     63  C   UNL A   1      39.375  32.358  35.507  1.00  0.00     0.023 A 
ATOM     64  C   UNL A   1      39.806  33.684  35.675  1.00  0.00     0.031 A 
ATOM     65  C   UNL A   1      38.480  31.824  36.450  1.00  0.00     0.131 A 
ATOM     66  C   UNL A   1      39.374  34.422  36.786  1.00  0.00     0.055 A 
ATOM     67  C   UNL A   1      38.006  32.583  37.520  1.00  0.00     0.041 A 
ATOM     68  F   UNL A   1      38.053  30.556  36.344  1.00  0.00    -0.206 F 
ATOM     69  C   UNL A   1      38.458  33.888  37.697  1.00  0.00     0.022 A 
BRANCH  66  70
ATOM     70  S   UNL A   1      40.086  36.065  37.070  1.00  0.00     0.124 S 
ATOM     71  O   UNL A   1      41.478  35.734  37.368  1.00  0.00    -0.237 OA
ATOM     72  O   UNL A   1      39.848  36.738  35.798  1.00  0.00    -0.237 OA
ATOM     73  O   UNL A   1      39.318  36.580  38.201  1.00  0.00    -0.744 OA
ENDBRANCH  66  70
ENDBRANCH  49  63
BRANCH  50  74
ATOM     74  C   UNL A   1      42.005  26.901  27.554  1.00  0.00     0.023 A 
ATOM     75  C   UNL A   1      41.775  25.517  27.540  1.00  0.00     0.031 A 
ATOM     76  C   UNL A   1      42.629  27.480  26.435  1.00  0.00     0.131 A 
ATOM     77  C   UNL A   1      42.187  24.752  26.438  1.00  0.00     0.055 A 
ATOM     78  C   UNL A   1      43.004  26.721  25.325  1.00  0.00     0.041 A 
ATOM     79  F   UNL A   1      42.869  28.801  26.400  1.00  0.00    -0.206 F 
ATOM     80  C   UNL A   1      42.789  25.346  25.326  1.00  0.00     0.022 A 
BRANCH  77  81
ATOM     81  S   UNL A   1      41.957  22.954  26.488  1.00  0.00     0.124 S 
ATOM     82  O   UNL A   1      40.522  22.846  26.726  1.00  0.00    -0.237 OA
ATOM     83  O   UNL A   1      42.421  22.551  25.164  1.00  0.00    -0.237 OA
ATOM     84  O   UNL A   1      42.809  22.532  27.598  1.00  0.00    -0.744 OA
ENDBRANCH  77  81
ENDBRANCH  50  74
BRANCH  62  85
ATOM     85  C   UNL A   1      44.673  27.729  33.965  1.00  0.00     0.023 A 
ATOM     86  C   UNL A   1      44.545  26.527  34.680  1.00  0.00     0.031 A 
ATOM     87  C   UNL A   1      45.952  28.303  33.843  1.00  0.00     0.131 A 
ATOM     88  C   UNL A   1      45.682  25.937  35.252  1.00  0.00     0.055 A 
ATOM     89  C   UNL A   1      47.084  27.692  34.383  1.00  0.00     0.041 A 
ATOM     90  F   UNL A   1      46.123  29.446  33.160  1.00  0.00    -0.206 F 
ATOM     91  C   UNL A   1      46.952  26.501  35.093  1.00  0.00     0.022 A 
BRANCH  88  92
ATOM     92  S   UNL A   1      45.489  24.404  36.205  1.00  0.00     0.124 S 
ATOM     93  O   UNL A   1      46.178  23.435  35.360  1.00  0.00    -0.237 OA
ATOM     94  O   UNL A   1      46.145  24.728  37.468  1.00  0.00    -0.237 OA
ATOM     95  O   UNL A   1      44.039  24.235  36.290  1.00  0.00    -0.744 OA
ENDBRANCH  88  92
ENDBRANCH  62  85
ENDBRANCH  36  37
ENDBRANCH  29  31
ENDBRANCH  28  29
ENDBRANCH  27  28
ENDBRANCH  26  27
ENDBRANCH  25  26
ENDBRANCH   1  25
TORSDOF 21
ENDMDL
MODEL 3
REMARK VINA RESULT:     -10.6      4.667     10.288
REMARK SMILES Cc1cc(Br)cc2c1O[C@H](C(F)(F)F)C(C(=O)OCCOCCOCCOC(=O)c1ccc(-c3c4nc(c(-c5cc(S(=O)(=O)[O-])ccc5F)c5ccc([nH]5)c(-c5cc(S(=O)(=O)[O-])ccc5F)c5nc(c(-c6cc(S(=O)(=O)[O-])ccc6F)c6ccc3[nH]6)C=C5)C=C4)cc1)=C2
REMARK SMILES IDX 23 1 22 2 21 3 20 4 19 5 18 6 16 7 17 8 15 9 1 10 2 11 3 12
REMARK SMILES IDX 8 13 4 14 7 15 9 16 5 17 6 18 93 19 10 20 11 21 12 22 13 23
REMARK SMILES IDX 14 24 24 25 25 26 26 27 27 28 28 29 29 30 30 31 31 32 92 33
REMARK SMILES IDX 32 34 91 35 33 36 34 37 35 38 85 39 36 40 90 41 84 42 86 43
REMARK SMILES IDX 37 44 89 45 83 46 82 47 38 49 70 50 50 51 69 52 51 53 54 54
REMARK SMILES IDX 68 55 87 56 52 57 53 58 67 60 88 61 55 62 39 63 40 64 48 65
REMARK SMILES IDX 41 66 47 67 49 68 46 69 42 70 43 71 44 72 45 73 71 74 72 75
REMARK SMILES IDX 80 76 73 77 79 78 81 79 78 80 74 81 75 82 76 83 77 84 56 85
REMARK SMILES IDX 57 86 65 87 58 88 64 89 66 90 63 91 59 92 60 93 61 94 62 95
REMARK H PARENT 86 48 54 59
REMARK Flexibility Score: inf
ROOT
ATOM      1  C   UNL A   1      31.414  29.337  25.323  1.00  0.00     0.188 C 
ENDROOT
BRANCH   1   2
ATOM      2  C   UNL A   1      31.177  29.055  23.823  1.00  0.00     0.188 C 
BRANCH   2   3
ATOM      3  O   UNL A   1      29.846  28.701  23.527  1.00  0.00    -0.376 OA
BRANCH   3   4
ATOM      4  C   UNL A   1      29.485  27.350  23.318  1.00  0.00     0.202 C 
BRANCH   4   5
ATOM      5  C   UNL A   1      29.974  26.178  24.187  1.00  0.00     0.261 C 
BRANCH   5   6
ATOM      6  O   UNL A   1      30.332  24.967  23.519  1.00  0.00    -0.460 OA
BRANCH   6   7
ATOM      7  C   UNL A   1      31.459  25.001  22.772  1.00  0.00     0.338 C 
ATOM      8  O   UNL A   1      31.722  25.802  21.891  1.00  0.00    -0.246 OA
BRANCH   7   9
ATOM      9  C   UNL A   1      32.384  23.959  23.260  1.00  0.00     0.087 C 
ATOM     10  C   UNL A   1      36.247  21.355  25.431  1.00  0.00     0.048 C 
ATOM     11  C   UNL A   1      34.909  21.017  24.834  1.00  0.00    -0.007 A 
ATOM     12  C   UNL A   1      34.478  19.682  24.833  1.00  0.00     0.023 A 
ATOM     13  C   UNL A   1      34.091  22.000  24.249  1.00  0.00     0.130 A 
ATOM     14  C   UNL A   1      33.244  19.343  24.284  1.00  0.00     0.019 A 
ATOM     15  C   UNL A   1      32.834  21.658  23.732  1.00  0.00     0.019 A 
ATOM     16  O   UNL A   1      34.586  23.273  24.221  1.00  0.00    -0.475 OA
ATOM     17  Br  UNL A   1      32.678  17.540  24.300  1.00  0.00    -0.051 Br
ATOM     18  C   UNL A   1      32.417  20.323  23.737  1.00  0.00     0.027 A 
ATOM     19  C   UNL A   1      31.945  22.695  23.232  1.00  0.00     0.027 C 
ATOM     20  C   UNL A   1      33.757  24.358  23.729  1.00  0.00     0.316 C 
BRANCH  20  21
ATOM     21  C   UNL A   1      33.719  25.448  24.811  1.00  0.00     0.430 C 
ATOM     22  F   UNL A   1      34.893  25.509  25.487  1.00  0.00    -0.167 F 
ATOM     23  F   UNL A   1      33.520  26.679  24.283  1.00  0.00    -0.167 F 
ATOM     24  F   UNL A   1      32.742  25.235  25.719  1.00  0.00    -0.167 F 
ENDBRANCH  20  21
ENDBRANCH   7   9
ENDBRANCH   6   7
ENDBRANCH   5   6
ENDBRANCH   4   5
ENDBRANCH   3   4
ENDBRANCH   2   3
ENDBRANCH   1   2
BRANCH   1  25
ATOM     25  O   UNL A   1      32.149  30.494  25.709  1.00  0.00    -0.376 OA
BRANCH  25  26
ATOM     26  C   UNL A   1      31.707  31.245  26.837  1.00  0.00     0.202 C 
BRANCH  26  27
ATOM     27  C   UNL A   1      31.937  32.763  26.861  1.00  0.00     0.261 C 
BRANCH  27  28
ATOM     28  O   UNL A   1      32.467  33.262  28.100  1.00  0.00    -0.460 OA
BRANCH  28  29
ATOM     29  C   UNL A   1      33.560  34.060  27.986  1.00  0.00     0.338 C 
ATOM     30  O   UNL A   1      33.579  35.244  27.699  1.00  0.00    -0.246 OA
BRANCH  29  31
ATOM     31  C   UNL A   1      34.749  33.323  28.454  1.00  0.00     0.060 A 
ATOM     32  C   UNL A   1      34.554  32.115  29.137  1.00  0.00     0.016 A 
ATOM     33  C   UNL A   1      36.038  33.819  28.245  1.00  0.00     0.016 A 
ATOM     34  C   UNL A   1      35.651  31.397  29.611  1.00  0.00     0.010 A 
ATOM     35  C   UNL A   1      37.135  33.111  28.746  1.00  0.00     0.010 A 
ATOM     36  C   UNL A   1      36.946  31.905  29.444  1.00  0.00    -0.014 A 
BRANCH  36  37
ATOM     37  C   UNL A   1      38.082  31.236  30.123  1.00  0.00     0.031 A 
ATOM     38  C   UNL A   1      38.410  31.625  31.537  1.00  0.00     0.074 A 
ATOM     39  C   UNL A   1      38.777  30.262  29.507  1.00  0.00     0.049 A 
ATOM     40  N   UNL A   1      39.338  31.155  32.329  1.00  0.00    -0.248 NA
ATOM     41  C   UNL A   1      37.578  32.679  32.138  1.00  0.00     0.031 C 
ATOM     42  C   UNL A   1      38.520  29.768  28.155  1.00  0.00     0.029 A 
ATOM     43  N   UNL A   1      39.837  29.507  29.945  1.00  0.00    -0.354 N 
ATOM     44  C   UNL A   1      39.188  31.838  33.530  1.00  0.00     0.074 A 
ATOM     45  C   UNL A   1      38.109  32.786  33.346  1.00  0.00     0.031 C 
ATOM     46  C   UNL A   1      39.395  28.783  27.879  1.00  0.00     0.029 A 
ATOM     47  C   UNL A   1      40.290  28.596  29.021  1.00  0.00     0.049 A 
ATOM     48  H   UNL A   1      40.235  29.608  30.840  1.00  0.00     0.167 HD
ATOM     49  C   UNL A   1      39.876  31.678  34.685  1.00  0.00     0.034 A 
ATOM     50  C   UNL A   1      41.313  27.719  29.086  1.00  0.00     0.034 A 
ATOM     51  C   UNL A   1      40.962  30.750  34.855  1.00  0.00     0.049 A 
ATOM     52  C   UNL A   1      42.140  27.639  30.344  1.00  0.00     0.074 A 
ATOM     53  C   UNL A   1      41.728  30.519  35.984  1.00  0.00     0.029 A 
ATOM     54  N   UNL A   1      41.444  29.905  33.866  1.00  0.00    -0.354 N 
ATOM     55  N   UNL A   1      41.997  28.304  31.467  1.00  0.00    -0.248 NA
ATOM     56  C   UNL A   1      43.267  26.694  30.349  1.00  0.00     0.031 C 
ATOM     57  C   UNL A   1      42.712  29.581  35.661  1.00  0.00     0.029 A 
ATOM     58  C   UNL A   1      42.516  29.175  34.351  1.00  0.00     0.049 A 
ATOM     59  H   UNL A   1      41.079  29.835  32.954  1.00  0.00     0.167 HD
ATOM     60  C   UNL A   1      42.993  27.835  32.319  1.00  0.00     0.074 A 
ATOM     61  C   UNL A   1      43.739  26.838  31.581  1.00  0.00     0.031 C 
ATOM     62  C   UNL A   1      43.255  28.188  33.601  1.00  0.00     0.034 A 
BRANCH  49  63
ATOM     63  C   UNL A   1      39.489  32.549  35.849  1.00  0.00     0.023 A 
ATOM     64  C   UNL A   1      40.059  33.819  36.030  1.00  0.00     0.031 A 
ATOM     65  C   UNL A   1      38.527  32.112  36.775  1.00  0.00     0.131 A 
ATOM     66  C   UNL A   1      39.692  34.596  37.138  1.00  0.00     0.055 A 
ATOM     67  C   UNL A   1      38.121  32.915  37.842  1.00  0.00     0.041 A 
ATOM     68  F   UNL A   1      37.965  30.899  36.657  1.00  0.00    -0.206 F 
ATOM     69  C   UNL A   1      38.710  34.162  38.033  1.00  0.00     0.022 A 
BRANCH  66  70
ATOM     70  S   UNL A   1      40.574  36.151  37.441  1.00  0.00     0.124 S 
ATOM     71  O   UNL A   1      40.977  36.529  36.088  1.00  0.00    -0.237 OA
ATOM     72  O   UNL A   1      39.548  36.983  38.058  1.00  0.00    -0.237 OA
ATOM     73  O   UNL A   1      41.670  35.756  38.324  1.00  0.00    -0.744 OA
ENDBRANCH  66  70
ENDBRANCH  49  63
BRANCH  50  74
ATOM     74  C   UNL A   1      41.628  26.852  27.916  1.00  0.00     0.023 A 
ATOM     75  C   UNL A   1      41.200  25.516  27.870  1.00  0.00     0.031 A 
ATOM     76  C   UNL A   1      42.377  27.346  26.834  1.00  0.00     0.131 A 
ATOM     77  C   UNL A   1      41.545  24.712  26.773  1.00  0.00     0.055 A 
ATOM     78  C   UNL A   1      42.686  26.553  25.728  1.00  0.00     0.041 A 
ATOM     79  F   UNL A   1      42.808  28.618  26.831  1.00  0.00    -0.206 F 
ATOM     80  C   UNL A   1      42.274  25.224  25.696  1.00  0.00     0.022 A 
BRANCH  77  81
ATOM     81  S   UNL A   1      41.054  22.966  26.783  1.00  0.00     0.124 S 
ATOM     82  O   UNL A   1      41.708  22.468  25.578  1.00  0.00    -0.237 OA
ATOM     83  O   UNL A   1      41.607  22.502  28.052  1.00  0.00    -0.237 OA
ATOM     84  O   UNL A   1      39.595  23.021  26.727  1.00  0.00    -0.744 OA
ENDBRANCH  77  81
ENDBRANCH  50  74
BRANCH  62  85
ATOM     85  C   UNL A   1      44.366  27.474  34.321  1.00  0.00     0.023 A 
ATOM     86  C   UNL A   1      45.657  28.021  34.409  1.00  0.00     0.031 A 
ATOM     87  C   UNL A   1      44.097  26.279  35.012  1.00  0.00     0.131 A 
ATOM     88  C   UNL A   1      46.636  27.367  35.173  1.00  0.00     0.055 A 
ATOM     89  C   UNL A   1      45.064  25.653  35.799  1.00  0.00     0.041 A 
ATOM     90  F   UNL A   1      42.875  25.724  34.964  1.00  0.00    -0.206 F 
ATOM     91  C   UNL A   1      46.343  26.198  35.882  1.00  0.00     0.022 A 
BRANCH  88  92
ATOM     92  S   UNL A   1      48.308  28.070  35.243  1.00  0.00     0.124 S 
ATOM     93  O   UNL A   1      49.135  26.915  34.908  1.00  0.00    -0.237 OA
ATOM     94  O   UNL A   1      48.252  29.126  34.238  1.00  0.00    -0.237 OA
ATOM     95  O   UNL A   1      48.425  28.538  36.623  1.00  0.00    -0.744 OA
ENDBRANCH  88  92
ENDBRANCH  62  85
ENDBRANCH  36  37
ENDBRANCH  29  31
ENDBRANCH  28  29
ENDBRANCH  27  28
ENDBRANCH  26  27
ENDBRANCH  25  26
ENDBRANCH   1  25
TORSDOF 21
ENDMDL
