MODEL 1
REMARK VINA RESULT:      -9.4      0.000      0.000
REMARK SMILES CN(/C=C\C(=O)OCCOCCOCCOC(=O)c1ccc(-c2c3nc(c(-c4cc(S(=O)(=O)[O-])ccc4F)c4ccc([nH]4)c(-c4cc(S(=O)(=O)[O-])ccc4F)c4nc(c(-c5cc(S(=O)(=O)[O-])ccc5F)c5ccc2[nH]5)C=C4)C=C3)cc1)C[C@@H]1CCCO1
REMARK SMILES IDX 11 1 10 2 9 3 8 4 7 5 5 6 6 7 4 8 3 9 2 10 1 11 82 12 83 13
REMARK SMILES IDX 84 14 87 15 85 16 86 17 12 18 13 19 14 20 15 21 16 22 17 23
REMARK SMILES IDX 18 24 19 25 20 26 81 27 21 28 80 29 22 30 23 31 24 32 74 33
REMARK SMILES IDX 25 34 79 35 73 36 75 37 26 38 78 39 72 40 71 41 27 43 59 44
REMARK SMILES IDX 39 45 58 46 40 47 43 48 57 49 76 50 41 51 42 52 56 54 77 55
REMARK SMILES IDX 44 56 28 57 29 58 37 59 30 60 36 61 38 62 35 63 31 64 32 65
REMARK SMILES IDX 33 66 34 67 60 68 61 69 69 70 62 71 68 72 70 73 67 74 63 75
REMARK SMILES IDX 64 76 65 77 66 78 45 79 46 80 54 81 47 82 53 83 55 84 52 85
REMARK SMILES IDX 48 86 49 87 50 88 51 89
REMARK H PARENT 75 42 43 53
REMARK Flexibility Score: inf
ROOT
ATOM      1  C   UNL A   1      32.426  20.878  25.283  1.00  0.00     0.188 C 
ENDROOT
BRANCH   1   2
ATOM      2  O   UNL A   1      31.555  21.900  25.715  1.00  0.00    -0.376 OA
BRANCH   2   3
ATOM      3  C   UNL A   1      31.668  23.224  25.223  1.00  0.00     0.202 C 
BRANCH   3   4
ATOM      4  C   UNL A   1      31.236  23.669  23.821  1.00  0.00     0.261 C 
BRANCH   4   5
ATOM      5  O   UNL A   1      32.220  23.512  22.798  1.00  0.00    -0.460 OA
BRANCH   5   6
ATOM      6  C   UNL A   1      32.806  24.658  22.382  1.00  0.00     0.332 C 
ATOM      7  O   UNL A   1      34.006  24.893  22.405  1.00  0.00    -0.247 OA
BRANCH   6   8
ATOM      8  C   UNL A   1      31.873  25.591  21.732  1.00  0.00     0.111 C 
ATOM      9  C   UNL A   1      31.461  26.836  21.994  1.00  0.00     0.088 C 
BRANCH   9  10
ATOM     10  N   UNL A   1      31.676  27.807  22.957  1.00  0.00    -0.378 N 
ATOM     11  C   UNL A   1      30.599  28.182  23.885  1.00  0.00     0.143 C 
BRANCH  10  12
ATOM     12  C   UNL A   1      32.894  28.619  23.122  1.00  0.00     0.147 C 
BRANCH  12  13
ATOM     13  C   UNL A   1      33.698  28.272  24.386  1.00  0.00     0.137 C 
ATOM     14  C   UNL A   1      33.200  26.970  25.013  1.00  0.00     0.036 C 
ATOM     15  O   UNL A   1      33.545  29.299  25.393  1.00  0.00    -0.376 OA
ATOM     16  C   UNL A   1      33.268  27.247  26.493  1.00  0.00     0.031 C 
ATOM     17  C   UNL A   1      32.954  28.721  26.553  1.00  0.00     0.160 C 
ENDBRANCH  12  13
ENDBRANCH  10  12
ENDBRANCH   9  10
ENDBRANCH   6   8
ENDBRANCH   5   6
ENDBRANCH   4   5
ENDBRANCH   3   4
ENDBRANCH   2   3
ENDBRANCH   1   2
BRANCH   1  18
ATOM     18  C   UNL A   1      33.945  21.166  25.248  1.00  0.00     0.188 C 
BRANCH  18  19
ATOM     19  O   UNL A   1      34.541  21.842  24.151  1.00  0.00    -0.376 OA
BRANCH  19  20
ATOM     20  C   UNL A   1      35.890  22.267  24.245  1.00  0.00     0.202 C 
BRANCH  20  21
ATOM     21  C   UNL A   1      36.863  21.556  25.194  1.00  0.00     0.261 C 
BRANCH  21  22
ATOM     22  O   UNL A   1      38.221  22.008  25.100  1.00  0.00    -0.460 OA
BRANCH  22  23
ATOM     23  C   UNL A   1      39.023  21.668  26.144  1.00  0.00     0.338 C 
ATOM     24  O   UNL A   1      39.350  20.548  26.487  1.00  0.00    -0.246 OA
BRANCH  23  25
ATOM     25  C   UNL A   1      39.603  22.898  26.719  1.00  0.00     0.060 A 
ATOM     26  C   UNL A   1      39.134  24.138  26.263  1.00  0.00     0.016 A 
ATOM     27  C   UNL A   1      40.606  22.830  27.684  1.00  0.00     0.016 A 
ATOM     28  C   UNL A   1      39.661  25.319  26.787  1.00  0.00     0.010 A 
ATOM     29  C   UNL A   1      41.157  24.015  28.181  1.00  0.00     0.010 A 
ATOM     30  C   UNL A   1      40.693  25.264  27.731  1.00  0.00    -0.014 A 
BRANCH  30  31
ATOM     31  C   UNL A   1      41.394  26.500  28.157  1.00  0.00     0.031 A 
ATOM     32  C   UNL A   1      40.603  27.570  28.854  1.00  0.00     0.074 A 
ATOM     33  C   UNL A   1      42.704  26.675  27.908  1.00  0.00     0.049 A 
ATOM     34  N   UNL A   1      40.953  28.789  29.171  1.00  0.00    -0.248 NA
ATOM     35  C   UNL A   1      39.230  27.213  29.243  1.00  0.00     0.031 C 
ATOM     36  C   UNL A   1      43.592  25.679  27.311  1.00  0.00     0.029 A 
ATOM     37  N   UNL A   1      43.513  27.766  28.113  1.00  0.00    -0.354 N 
ATOM     38  C   UNL A   1      39.844  29.349  29.796  1.00  0.00     0.074 A 
ATOM     39  C   UNL A   1      38.802  28.343  29.786  1.00  0.00     0.031 C 
ATOM     40  C   UNL A   1      44.818  26.215  27.172  1.00  0.00     0.029 A 
ATOM     41  C   UNL A   1      44.788  27.607  27.618  1.00  0.00     0.049 A 
ATOM     42  H   UNL A   1      43.211  28.584  28.571  1.00  0.00     0.167 HD
ATOM     43  C   UNL A   1      39.711  30.588  30.328  1.00  0.00     0.034 A 
ATOM     44  C   UNL A   1      45.794  28.499  27.497  1.00  0.00     0.034 A 
ATOM     45  C   UNL A   1      40.752  31.586  30.305  1.00  0.00     0.049 A 
ATOM     46  C   UNL A   1      45.570  29.922  27.963  1.00  0.00     0.074 A 
ATOM     47  C   UNL A   1      40.720  32.875  30.808  1.00  0.00     0.029 A 
ATOM     48  N   UNL A   1      42.007  31.413  29.737  1.00  0.00    -0.354 N 
ATOM     49  N   UNL A   1      44.514  30.448  28.542  1.00  0.00    -0.248 NA
ATOM     50  C   UNL A   1      46.672  30.873  27.755  1.00  0.00     0.031 C 
ATOM     51  C   UNL A   1      41.925  33.503  30.478  1.00  0.00     0.029 A 
ATOM     52  C   UNL A   1      42.742  32.583  29.841  1.00  0.00     0.049 A 
ATOM     53  H   UNL A   1      42.328  30.579  29.321  1.00  0.00     0.167 HD
ATOM     54  C   UNL A   1      44.841  31.781  28.792  1.00  0.00     0.074 A 
ATOM     55  C   UNL A   1      46.196  31.971  28.320  1.00  0.00     0.031 C 
ATOM     56  C   UNL A   1      44.091  32.760  29.359  1.00  0.00     0.034 A 
BRANCH  43  57
ATOM     57  C   UNL A   1      38.376  30.947  30.928  1.00  0.00     0.023 A 
ATOM     58  C   UNL A   1      37.381  31.598  30.179  1.00  0.00     0.031 A 
ATOM     59  C   UNL A   1      38.097  30.636  32.271  1.00  0.00     0.131 A 
ATOM     60  C   UNL A   1      36.174  31.966  30.793  1.00  0.00     0.055 A 
ATOM     61  C   UNL A   1      36.866  30.941  32.855  1.00  0.00     0.041 A 
ATOM     62  F   UNL A   1      39.019  30.037  33.040  1.00  0.00    -0.206 F 
ATOM     63  C   UNL A   1      35.900  31.618  32.118  1.00  0.00     0.022 A 
BRANCH  60  64
ATOM     64  S   UNL A   1      35.016  33.011  29.870  1.00  0.00     0.124 S 
ATOM     65  O   UNL A   1      35.900  34.053  29.356  1.00  0.00    -0.237 OA
ATOM     66  O   UNL A   1      34.476  32.086  28.880  1.00  0.00    -0.237 OA
ATOM     67  O   UNL A   1      34.067  33.456  30.889  1.00  0.00    -0.744 OA
ENDBRANCH  60  64
ENDBRANCH  43  57
BRANCH  44  68
ATOM     68  C   UNL A   1      47.083  28.122  26.842  1.00  0.00     0.023 A 
ATOM     69  C   UNL A   1      47.219  28.150  25.446  1.00  0.00     0.031 A 
ATOM     70  C   UNL A   1      48.165  27.631  27.597  1.00  0.00     0.131 A 
ATOM     71  C   UNL A   1      48.377  27.634  24.842  1.00  0.00     0.055 A 
ATOM     72  C   UNL A   1      49.342  27.184  26.996  1.00  0.00     0.041 A 
ATOM     73  F   UNL A   1      48.087  27.568  28.935  1.00  0.00    -0.206 F 
ATOM     74  C   UNL A   1      49.447  27.166  25.609  1.00  0.00     0.022 A 
BRANCH  71  75
ATOM     75  S   UNL A   1      48.411  27.462  23.037  1.00  0.00     0.124 S 
ATOM     76  O   UNL A   1      49.690  28.076  22.706  1.00  0.00    -0.237 OA
ATOM     77  O   UNL A   1      48.330  26.015  22.869  1.00  0.00    -0.237 OA
ATOM     78  O   UNL A   1      47.229  28.206  22.603  1.00  0.00    -0.744 OA
ENDBRANCH  71  75
ENDBRANCH  44  68
BRANCH  56  79
ATOM     79  C   UNL A   1      44.740  34.111  29.540  1.00  0.00     0.023 A 
ATOM     80  C   UNL A   1      44.621  35.124  28.572  1.00  0.00     0.031 A 
ATOM     81  C   UNL A   1      45.484  34.390  30.700  1.00  0.00     0.131 A 
ATOM     82  C   UNL A   1      45.274  36.351  28.759  1.00  0.00     0.055 A 
ATOM     83  C   UNL A   1      46.081  35.634  30.910  1.00  0.00     0.041 A 
ATOM     84  F   UNL A   1      45.632  33.460  31.657  1.00  0.00    -0.206 F 
ATOM     85  C   UNL A   1      45.988  36.619  29.931  1.00  0.00     0.022 A 
BRANCH  82  86
ATOM     86  S   UNL A   1      45.245  37.569  27.416  1.00  0.00     0.124 S 
ATOM     87  O   UNL A   1      45.713  38.776  28.091  1.00  0.00    -0.237 OA
ATOM     88  O   UNL A   1      46.164  36.986  26.444  1.00  0.00    -0.237 OA
ATOM     89  O   UNL A   1      43.843  37.593  27.003  1.00  0.00    -0.744 OA
ENDBRANCH  82  86
ENDBRANCH  56  79
ENDBRANCH  30  31
ENDBRANCH  23  25
ENDBRANCH  22  23
ENDBRANCH  21  22
ENDBRANCH  20  21
ENDBRANCH  19  20
ENDBRANCH  18  19
ENDBRANCH   1  18
TORSDOF 23
ENDMDL
MODEL 2
REMARK VINA RESULT:      -9.0      3.012      4.014
REMARK SMILES CN(/C=C\C(=O)OCCOCCOCCOC(=O)c1ccc(-c2c3nc(c(-c4cc(S(=O)(=O)[O-])ccc4F)c4ccc([nH]4)c(-c4cc(S(=O)(=O)[O-])ccc4F)c4nc(c(-c5cc(S(=O)(=O)[O-])ccc5F)c5ccc2[nH]5)C=C4)C=C3)cc1)C[C@@H]1CCCO1
REMARK SMILES IDX 11 1 10 2 9 3 8 4 7 5 5 6 6 7 4 8 3 9 2 10 1 11 82 12 83 13
REMARK SMILES IDX 84 14 87 15 85 16 86 17 12 18 13 19 14 20 15 21 16 22 17 23
REMARK SMILES IDX 18 24 19 25 20 26 81 27 21 28 80 29 22 30 23 31 24 32 74 33
REMARK SMILES IDX 25 34 79 35 73 36 75 37 26 38 78 39 72 40 71 41 27 43 59 44
REMARK SMILES IDX 39 45 58 46 40 47 43 48 57 49 76 50 41 51 42 52 56 54 77 55
REMARK SMILES IDX 44 56 28 57 29 58 37 59 30 60 36 61 38 62 35 63 31 64 32 65
REMARK SMILES IDX 33 66 34 67 60 68 61 69 69 70 62 71 68 72 70 73 67 74 63 75
REMARK SMILES IDX 64 76 65 77 66 78 45 79 46 80 54 81 47 82 53 83 55 84 52 85
REMARK SMILES IDX 48 86 49 87 50 88 51 89
REMARK H PARENT 75 42 43 53
REMARK Flexibility Score: inf
ROOT
ATOM      1  C   UNL A   1      36.095  22.699  23.923  1.00  0.00     0.188 C 
ENDROOT
BRANCH   1   2
ATOM      2  O   UNL A   1      34.926  23.485  24.006  1.00  0.00    -0.376 OA
BRANCH   2   3
ATOM      3  C   UNL A   1      33.998  23.542  22.937  1.00  0.00     0.202 C 
BRANCH   3   4
ATOM      4  C   UNL A   1      32.591  24.143  23.038  1.00  0.00     0.261 C 
BRANCH   4   5
ATOM      5  O   UNL A   1      32.446  25.207  23.979  1.00  0.00    -0.460 OA
BRANCH   5   6
ATOM      6  C   UNL A   1      32.945  26.400  23.580  1.00  0.00     0.332 C 
ATOM      7  O   UNL A   1      33.958  26.930  24.014  1.00  0.00    -0.247 OA
BRANCH   6   8
ATOM      8  C   UNL A   1      32.234  26.976  22.428  1.00  0.00     0.111 C 
ATOM      9  C   UNL A   1      31.115  27.696  22.284  1.00  0.00     0.088 C 
BRANCH   9  10
ATOM     10  N   UNL A   1      30.116  28.213  23.091  1.00  0.00    -0.378 N 
ATOM     11  C   UNL A   1      28.978  27.373  23.492  1.00  0.00     0.143 C 
BRANCH  10  12
ATOM     12  C   UNL A   1      30.002  29.606  23.554  1.00  0.00     0.147 C 
BRANCH  12  13
ATOM     13  C   UNL A   1      28.750  30.329  23.030  1.00  0.00     0.137 C 
ATOM     14  C   UNL A   1      28.823  30.522  21.514  1.00  0.00     0.036 C 
ATOM     15  O   UNL A   1      28.636  31.650  23.607  1.00  0.00    -0.376 OA
ATOM     16  C   UNL A   1      28.241  31.897  21.310  1.00  0.00     0.031 C 
ATOM     17  C   UNL A   1      28.681  32.615  22.561  1.00  0.00     0.160 C 
ENDBRANCH  12  13
ENDBRANCH  10  12
ENDBRANCH   9  10
ENDBRANCH   6   8
ENDBRANCH   5   6
ENDBRANCH   4   5
ENDBRANCH   3   4
ENDBRANCH   2   3
ENDBRANCH   1   2
BRANCH   1  18
ATOM     18  C   UNL A   1      36.155  21.373  24.716  1.00  0.00     0.188 C 
BRANCH  18  19
ATOM     19  O   UNL A   1      37.319  20.999  25.437  1.00  0.00    -0.376 OA
BRANCH  19  20
ATOM     20  C   UNL A   1      38.332  21.962  25.671  1.00  0.00     0.202 C 
BRANCH  20  21
ATOM     21  C   UNL A   1      39.650  21.554  26.341  1.00  0.00     0.261 C 
BRANCH  21  22
ATOM     22  O   UNL A   1      39.995  20.171  26.181  1.00  0.00    -0.460 OA
BRANCH  22  23
ATOM     23  C   UNL A   1      41.326  19.902  26.136  1.00  0.00     0.338 C 
ATOM     24  O   UNL A   1      41.859  18.880  25.746  1.00  0.00    -0.246 OA
BRANCH  23  25
ATOM     25  C   UNL A   1      42.072  21.130  26.474  1.00  0.00     0.060 A 
ATOM     26  C   UNL A   1      42.341  21.403  27.823  1.00  0.00     0.016 A 
ATOM     27  C   UNL A   1      42.488  22.010  25.476  1.00  0.00     0.016 A 
ATOM     28  C   UNL A   1      43.044  22.555  28.176  1.00  0.00     0.010 A 
ATOM     29  C   UNL A   1      43.161  23.181  25.836  1.00  0.00     0.010 A 
ATOM     30  C   UNL A   1      43.437  23.464  27.186  1.00  0.00    -0.014 A 
BRANCH  30  31
ATOM     31  C   UNL A   1      44.013  24.780  27.554  1.00  0.00     0.031 A 
ATOM     32  C   UNL A   1      43.087  25.859  28.037  1.00  0.00     0.074 A 
ATOM     33  C   UNL A   1      45.333  25.015  27.441  1.00  0.00     0.049 A 
ATOM     34  N   UNL A   1      43.330  27.124  28.261  1.00  0.00    -0.248 NA
ATOM     35  C   UNL A   1      41.698  25.453  28.303  1.00  0.00     0.031 C 
ATOM     36  C   UNL A   1      46.338  24.025  27.059  1.00  0.00     0.029 A 
ATOM     37  N   UNL A   1      46.051  26.172  27.619  1.00  0.00    -0.354 N 
ATOM     38  C   UNL A   1      42.125  27.669  28.691  1.00  0.00     0.074 A 
ATOM     39  C   UNL A   1      41.148  26.601  28.669  1.00  0.00     0.031 C 
ATOM     40  C   UNL A   1      47.541  24.625  27.006  1.00  0.00     0.029 A 
ATOM     41  C   UNL A   1      47.383  26.049  27.294  1.00  0.00     0.049 A 
ATOM     42  H   UNL A   1      45.652  27.010  27.949  1.00  0.00     0.167 HD
ATOM     43  C   UNL A   1      41.862  28.943  29.069  1.00  0.00     0.034 A 
ATOM     44  C   UNL A   1      48.346  26.989  27.194  1.00  0.00     0.034 A 
ATOM     45  C   UNL A   1      42.843  30.001  29.059  1.00  0.00     0.049 A 
ATOM     46  C   UNL A   1      47.991  28.433  27.477  1.00  0.00     0.074 A 
ATOM     47  C   UNL A   1      42.681  31.329  29.415  1.00  0.00     0.029 A 
ATOM     48  N   UNL A   1      44.165  29.855  28.661  1.00  0.00    -0.354 N 
ATOM     49  N   UNL A   1      46.846  28.944  27.871  1.00  0.00    -0.248 NA
ATOM     50  C   UNL A   1      49.058  29.429  27.297  1.00  0.00     0.031 C 
ATOM     51  C   UNL A   1      43.882  31.999  29.160  1.00  0.00     0.029 A 
ATOM     52  C   UNL A   1      44.818  31.075  28.723  1.00  0.00     0.049 A 
ATOM     53  H   UNL A   1      44.578  29.007  28.376  1.00  0.00     0.167 HD
ATOM     54  C   UNL A   1      47.069  30.313  28.013  1.00  0.00     0.074 A 
ATOM     55  C   UNL A   1      48.459  30.545  27.682  1.00  0.00     0.031 C 
ATOM     56  C   UNL A   1      46.204  31.292  28.383  1.00  0.00     0.034 A 
BRANCH  43  57
ATOM     57  C   UNL A   1      40.447  29.271  29.470  1.00  0.00     0.023 A 
ATOM     58  C   UNL A   1      40.069  29.378  30.819  1.00  0.00     0.031 A 
ATOM     59  C   UNL A   1      39.461  29.474  28.488  1.00  0.00     0.131 A 
ATOM     60  C   UNL A   1      38.728  29.628  31.150  1.00  0.00     0.055 A 
ATOM     61  C   UNL A   1      38.144  29.794  28.824  1.00  0.00     0.041 A 
ATOM     62  F   UNL A   1      39.760  29.359  27.184  1.00  0.00    -0.206 F 
ATOM     63  C   UNL A   1      37.769  29.862  30.161  1.00  0.00     0.022 A 
BRANCH  60  64
ATOM     64  S   UNL A   1      38.231  29.524  32.890  1.00  0.00     0.124 S 
ATOM     65  O   UNL A   1      37.076  28.633  32.817  1.00  0.00    -0.237 OA
ATOM     66  O   UNL A   1      39.422  28.973  33.527  1.00  0.00    -0.237 OA
ATOM     67  O   UNL A   1      37.921  30.908  33.242  1.00  0.00    -0.744 OA
ENDBRANCH  60  64
ENDBRANCH  43  57
BRANCH  44  68
ATOM     68  C   UNL A   1      49.724  26.635  26.736  1.00  0.00     0.023 A 
ATOM     69  C   UNL A   1      50.792  26.570  27.644  1.00  0.00     0.031 A 
ATOM     70  C   UNL A   1      50.012  26.455  25.370  1.00  0.00     0.131 A 
ATOM     71  C   UNL A   1      52.104  26.401  27.173  1.00  0.00     0.055 A 
ATOM     72  C   UNL A   1      51.309  26.218  24.914  1.00  0.00     0.041 A 
ATOM     73  F   UNL A   1      49.033  26.520  24.455  1.00  0.00    -0.206 F 
ATOM     74  C   UNL A   1      52.369  26.208  25.816  1.00  0.00     0.022 A 
BRANCH  71  75
ATOM     75  S   UNL A   1      53.475  26.570  28.349  1.00  0.00     0.124 S 
ATOM     76  O   UNL A   1      52.813  26.289  29.617  1.00  0.00    -0.237 OA
ATOM     77  O   UNL A   1      54.409  25.554  27.874  1.00  0.00    -0.237 OA
ATOM     78  O   UNL A   1      53.913  27.953  28.165  1.00  0.00    -0.744 OA
ENDBRANCH  71  75
ENDBRANCH  44  68
BRANCH  56  79
ATOM     79  C   UNL A   1      46.753  32.695  28.492  1.00  0.00     0.023 A 
ATOM     80  C   UNL A   1      46.755  33.575  27.395  1.00  0.00     0.031 A 
ATOM     81  C   UNL A   1      47.276  33.158  29.712  1.00  0.00     0.131 A 
ATOM     82  C   UNL A   1      47.312  34.855  27.527  1.00  0.00     0.055 A 
ATOM     83  C   UNL A   1      47.773  34.454  29.854  1.00  0.00     0.041 A 
ATOM     84  F   UNL A   1      47.300  32.361  30.792  1.00  0.00    -0.206 F 
ATOM     85  C   UNL A   1      47.805  35.307  28.755  1.00  0.00     0.022 A 
BRANCH  82  86
ATOM     86  S   UNL A   1      47.459  35.900  26.052  1.00  0.00     0.124 S 
ATOM     87  O   UNL A   1      46.964  35.015  25.003  1.00  0.00    -0.237 OA
ATOM     88  O   UNL A   1      46.603  37.034  26.385  1.00  0.00    -0.237 OA
ATOM     89  O   UNL A   1      48.888  36.203  25.985  1.00  0.00    -0.744 OA
ENDBRANCH  82  86
ENDBRANCH  56  79
ENDBRANCH  30  31
ENDBRANCH  23  25
ENDBRANCH  22  23
ENDBRANCH  21  22
ENDBRANCH  20  21
ENDBRANCH  19  20
ENDBRANCH  18  19
ENDBRANCH   1  18
TORSDOF 23
ENDMDL
MODEL 3
REMARK VINA RESULT:      -8.9      2.359      3.027
REMARK SMILES CN(/C=C\C(=O)OCCOCCOCCOC(=O)c1ccc(-c2c3nc(c(-c4cc(S(=O)(=O)[O-])ccc4F)c4ccc([nH]4)c(-c4cc(S(=O)(=O)[O-])ccc4F)c4nc(c(-c5cc(S(=O)(=O)[O-])ccc5F)c5ccc2[nH]5)C=C4)C=C3)cc1)C[C@@H]1CCCO1
REMARK SMILES IDX 11 1 10 2 9 3 8 4 7 5 5 6 6 7 4 8 3 9 2 10 1 11 82 12 83 13
REMARK SMILES IDX 84 14 87 15 85 16 86 17 12 18 13 19 14 20 15 21 16 22 17 23
REMARK SMILES IDX 18 24 19 25 20 26 81 27 21 28 80 29 22 30 23 31 24 32 74 33
REMARK SMILES IDX 25 34 79 35 73 36 75 37 26 38 78 39 72 40 71 41 27 43 59 44
REMARK SMILES IDX 39 45 58 46 40 47 43 48 57 49 76 50 41 51 42 52 56 54 77 55
REMARK SMILES IDX 44 56 28 57 29 58 37 59 30 60 36 61 38 62 35 63 31 64 32 65
REMARK SMILES IDX 33 66 34 67 60 68 61 69 69 70 62 71 68 72 70 73 67 74 63 75
REMARK SMILES IDX 64 76 65 77 66 78 45 79 46 80 54 81 47 82 53 83 55 84 52 85
REMARK SMILES IDX 48 86 49 87 50 88 51 89
REMARK H PARENT 75 42 43 53
REMARK Flexibility Score: inf
ROOT
ATOM      1  C   UNL A   1      32.394  20.968  25.624  1.00  0.00     0.188 C 
ENDROOT
BRANCH   1   2
ATOM      2  O   UNL A   1      31.608  22.027  26.126  1.00  0.00    -0.376 OA
BRANCH   2   3
ATOM      3  C   UNL A   1      31.583  23.293  25.491  1.00  0.00     0.202 C 
BRANCH   3   4
ATOM      4  C   UNL A   1      32.412  24.504  25.934  1.00  0.00     0.261 C 
BRANCH   4   5
ATOM      5  O   UNL A   1      31.740  25.423  26.796  1.00  0.00    -0.460 OA
BRANCH   5   6
ATOM      6  C   UNL A   1      31.027  26.386  26.167  1.00  0.00     0.332 C 
ATOM      7  O   UNL A   1      29.864  26.285  25.802  1.00  0.00    -0.247 OA
BRANCH   6   8
ATOM      8  C   UNL A   1      31.730  27.675  26.081  1.00  0.00     0.111 C 
ATOM      9  C   UNL A   1      31.918  28.573  25.107  1.00  0.00     0.088 C 
BRANCH   9  10
ATOM     10  N   UNL A   1      31.585  28.726  23.773  1.00  0.00    -0.378 N 
ATOM     11  C   UNL A   1      32.636  28.936  22.766  1.00  0.00     0.143 C 
BRANCH  10  12
ATOM     12  C   UNL A   1      30.223  28.793  23.214  1.00  0.00     0.147 C 
BRANCH  12  13
ATOM     13  C   UNL A   1      29.860  30.173  22.642  1.00  0.00     0.137 C 
ATOM     14  C   UNL A   1      28.748  30.831  23.460  1.00  0.00     0.036 C 
ATOM     15  O   UNL A   1      29.362  30.057  21.289  1.00  0.00    -0.376 OA
ATOM     16  C   UNL A   1      27.893  31.497  22.412  1.00  0.00     0.031 C 
ATOM     17  C   UNL A   1      28.026  30.550  21.246  1.00  0.00     0.160 C 
ENDBRANCH  12  13
ENDBRANCH  10  12
ENDBRANCH   9  10
ENDBRANCH   6   8
ENDBRANCH   5   6
ENDBRANCH   4   5
ENDBRANCH   3   4
ENDBRANCH   2   3
ENDBRANCH   1   2
BRANCH   1  18
ATOM     18  C   UNL A   1      33.921  21.176  25.495  1.00  0.00     0.188 C 
BRANCH  18  19
ATOM     19  O   UNL A   1      34.487  21.768  24.335  1.00  0.00    -0.376 OA
BRANCH  19  20
ATOM     20  C   UNL A   1      35.895  21.899  24.238  1.00  0.00     0.202 C 
BRANCH  20  21
ATOM     21  C   UNL A   1      36.815  21.075  25.147  1.00  0.00     0.261 C 
BRANCH  21  22
ATOM     22  O   UNL A   1      38.211  21.377  25.011  1.00  0.00    -0.460 OA
BRANCH  22  23
ATOM     23  C   UNL A   1      38.987  21.045  26.076  1.00  0.00     0.338 C 
ATOM     24  O   UNL A   1      39.234  19.928  26.489  1.00  0.00    -0.246 OA
BRANCH  23  25
ATOM     25  C   UNL A   1      39.655  22.263  26.576  1.00  0.00     0.060 A 
ATOM     26  C   UNL A   1      39.224  23.510  26.098  1.00  0.00     0.016 A 
ATOM     27  C   UNL A   1      40.702  22.178  27.492  1.00  0.00     0.016 A 
ATOM     28  C   UNL A   1      39.834  24.680  26.552  1.00  0.00     0.010 A 
ATOM     29  C   UNL A   1      41.334  23.351  27.917  1.00  0.00     0.010 A 
ATOM     30  C   UNL A   1      40.909  24.606  27.445  1.00  0.00    -0.014 A 
BRANCH  30  31
ATOM     31  C   UNL A   1      41.690  25.819  27.789  1.00  0.00     0.031 A 
ATOM     32  C   UNL A   1      40.993  26.941  28.504  1.00  0.00     0.074 A 
ATOM     33  C   UNL A   1      42.987  25.927  27.453  1.00  0.00     0.049 A 
ATOM     34  N   UNL A   1      41.417  28.150  28.764  1.00  0.00    -0.248 NA
ATOM     35  C   UNL A   1      39.634  26.657  28.991  1.00  0.00     0.031 C 
ATOM     36  C   UNL A   1      43.790  24.877  26.828  1.00  0.00     0.029 A 
ATOM     37  N   UNL A   1      43.855  26.985  27.573  1.00  0.00    -0.354 N 
ATOM     38  C   UNL A   1      40.377  28.776  29.442  1.00  0.00     0.074 A 
ATOM     39  C   UNL A   1      39.293  27.820  29.528  1.00  0.00     0.031 C 
ATOM     40  C   UNL A   1      45.026  25.353  26.596  1.00  0.00     0.029 A 
ATOM     41  C   UNL A   1      45.087  26.756  27.003  1.00  0.00     0.049 A 
ATOM     42  H   UNL A   1      43.619  27.827  28.026  1.00  0.00     0.167 HD
ATOM     43  C   UNL A   1      40.333  30.034  29.946  1.00  0.00     0.034 A 
ATOM     44  C   UNL A   1      46.121  27.597  26.792  1.00  0.00     0.034 A 
ATOM     45  C   UNL A   1      41.413  30.982  29.828  1.00  0.00     0.049 A 
ATOM     46  C   UNL A   1      45.990  29.040  27.232  1.00  0.00     0.074 A 
ATOM     47  C   UNL A   1      41.471  32.284  30.295  1.00  0.00     0.029 A 
ATOM     48  N   UNL A   1      42.620  30.737  29.186  1.00  0.00    -0.354 N 
ATOM     49  N   UNL A   1      44.998  29.629  27.861  1.00  0.00    -0.248 NA
ATOM     50  C   UNL A   1      47.117  29.934  26.926  1.00  0.00     0.031 C 
ATOM     51  C   UNL A   1      42.678  32.848  29.871  1.00  0.00     0.029 A 
ATOM     52  C   UNL A   1      43.410  31.875  29.209  1.00  0.00     0.049 A 
ATOM     53  H   UNL A   1      42.876  29.880  28.774  1.00  0.00     0.167 HD
ATOM     54  C   UNL A   1      45.399  30.951  28.051  1.00  0.00     0.074 A 
ATOM     55  C   UNL A   1      46.728  31.067  27.489  1.00  0.00     0.031 C 
ATOM     56  C   UNL A   1      44.732  31.977  28.637  1.00  0.00     0.034 A 
BRANCH  43  57
ATOM     57  C   UNL A   1      39.057  30.468  30.620  1.00  0.00     0.023 A 
ATOM     58  C   UNL A   1      38.027  31.107  29.908  1.00  0.00     0.031 A 
ATOM     59  C   UNL A   1      38.871  30.245  31.995  1.00  0.00     0.131 A 
ATOM     60  C   UNL A   1      36.880  31.547  30.586  1.00  0.00     0.055 A 
ATOM     61  C   UNL A   1      37.696  30.621  32.649  1.00  0.00     0.041 A 
ATOM     62  F   UNL A   1      39.831  29.661  32.730  1.00  0.00    -0.206 F 
ATOM     63  C   UNL A   1      36.696  31.285  31.946  1.00  0.00     0.022 A 
BRANCH  60  64
ATOM     64  S   UNL A   1      35.684  32.573  29.689  1.00  0.00     0.124 S 
ATOM     65  O   UNL A   1      34.882  31.564  29.003  1.00  0.00    -0.237 OA
ATOM     66  O   UNL A   1      35.016  33.295  30.766  1.00  0.00    -0.237 OA
ATOM     67  O   UNL A   1      36.522  33.393  28.816  1.00  0.00    -0.744 OA
ENDBRANCH  60  64
ENDBRANCH  43  57
BRANCH  44  68
ATOM     68  C   UNL A   1      47.347  27.145  26.068  1.00  0.00     0.023 A 
ATOM     69  C   UNL A   1      48.400  26.519  26.753  1.00  0.00     0.031 A 
ATOM     70  C   UNL A   1      47.527  27.423  24.700  1.00  0.00     0.131 A 
ATOM     71  C   UNL A   1      49.609  26.254  26.089  1.00  0.00     0.055 A 
ATOM     72  C   UNL A   1      48.705  27.094  24.028  1.00  0.00     0.041 A 
ATOM     73  F   UNL A   1      46.559  28.032  23.997  1.00  0.00    -0.206 F 
ATOM     74  C   UNL A   1      49.763  26.522  24.727  1.00  0.00     0.022 A 
BRANCH  71  75
ATOM     75  S   UNL A   1      51.024  25.674  27.065  1.00  0.00     0.124 S 
ATOM     76  O   UNL A   1      51.662  26.931  27.435  1.00  0.00    -0.237 OA
ATOM     77  O   UNL A   1      50.369  24.944  28.144  1.00  0.00    -0.237 OA
ATOM     78  O   UNL A   1      51.773  24.848  26.119  1.00  0.00    -0.744 OA
ENDBRANCH  71  75
ENDBRANCH  44  68
BRANCH  56  79
ATOM     79  C   UNL A   1      45.450  33.302  28.738  1.00  0.00     0.023 A 
ATOM     80  C   UNL A   1      46.442  33.533  29.706  1.00  0.00     0.031 A 
ATOM     81  C   UNL A   1      45.140  34.345  27.848  1.00  0.00     0.131 A 
ATOM     82  C   UNL A   1      47.055  34.792  29.793  1.00  0.00     0.055 A 
ATOM     83  C   UNL A   1      45.796  35.575  27.899  1.00  0.00     0.041 A 
ATOM     84  F   UNL A   1      44.200  34.181  26.903  1.00  0.00    -0.206 F 
ATOM     85  C   UNL A   1      46.751  35.809  28.884  1.00  0.00     0.022 A 
BRANCH  82  86
ATOM     86  S   UNL A   1      48.202  35.112  31.161  1.00  0.00     0.124 S 
ATOM     87  O   UNL A   1      47.534  36.200  31.868  1.00  0.00    -0.237 OA
ATOM     88  O   UNL A   1      48.232  33.827  31.852  1.00  0.00    -0.237 OA
ATOM     89  O   UNL A   1      49.446  35.481  30.489  1.00  0.00    -0.744 OA
ENDBRANCH  82  86
ENDBRANCH  56  79
ENDBRANCH  30  31
ENDBRANCH  23  25
ENDBRANCH  22  23
ENDBRANCH  21  22
ENDBRANCH  20  21
ENDBRANCH  19  20
ENDBRANCH  18  19
ENDBRANCH   1  18
TORSDOF 23
ENDMDL
