MODEL 1
REMARK VINA RESULT:     -11.6      0.000      0.000
REMARK SMILES Cc1cc(OC(F)(F)F)cc2c1O[C@H](C(F)(F)F)C(C(=O)OCCOCCOCCOC(=O)c1ccc(-c3c4nc(c(-c5cc(S(=O)(=O)[O-])ccc5F)c5ccc([nH]5)c(-c5cc(S(=O)(=O)[O-])ccc5F)c5nc(c(-c6cc(S(=O)(=O)[O-])ccc6F)c6ccc3[nH]6)C=C5)C=C4)cc1)=C2
REMARK SMILES IDX 27 1 26 2 25 3 24 4 23 5 22 6 20 7 21 8 19 9 1 10 2 11 3 12
REMARK SMILES IDX 12 13 4 14 11 15 13 16 10 17 97 18 14 19 5 20 6 21 7 22 8 23
REMARK SMILES IDX 9 24 15 25 16 26 17 27 18 28 28 29 29 30 30 31 31 32 32 33
REMARK SMILES IDX 33 34 34 35 35 36 96 37 36 38 95 39 37 40 38 41 39 42 89 43
REMARK SMILES IDX 40 44 94 45 88 46 90 47 41 48 93 49 87 50 86 51 42 53 74 54
REMARK SMILES IDX 54 55 73 56 55 57 58 58 72 59 91 60 56 61 57 62 71 64 92 65
REMARK SMILES IDX 59 66 43 67 44 68 52 69 45 70 51 71 53 72 50 73 46 74 47 75
REMARK SMILES IDX 48 76 49 77 75 78 76 79 84 80 77 81 83 82 85 83 82 84 78 85
REMARK SMILES IDX 79 86 80 87 81 88 60 89 61 90 69 91 62 92 68 93 70 94 67 95
REMARK SMILES IDX 63 96 64 97 65 98 66 99
REMARK H PARENT 90 52 58 63
REMARK Flexibility Score: inf
ROOT
ATOM      1  C   UNL A   1      34.368  17.892  24.228  1.00  0.00     0.188 C 
ENDROOT
BRANCH   1   2
ATOM      2  C   UNL A   1      33.150  17.625  25.140  1.00  0.00     0.188 C 
BRANCH   2   3
ATOM      3  O   UNL A   1      32.288  18.742  25.217  1.00  0.00    -0.376 OA
BRANCH   3   4
ATOM      4  C   UNL A   1      32.509  19.815  24.324  1.00  0.00     0.202 C 
BRANCH   4   5
ATOM      5  C   UNL A   1      32.624  21.244  24.880  1.00  0.00     0.261 C 
BRANCH   5   6
ATOM      6  O   UNL A   1      31.795  22.240  24.262  1.00  0.00    -0.460 OA
BRANCH   6   7
ATOM      7  C   UNL A   1      32.387  23.091  23.395  1.00  0.00     0.338 C 
ATOM      8  O   UNL A   1      33.021  22.789  22.400  1.00  0.00    -0.246 OA
BRANCH   7   9
ATOM      9  C   UNL A   1      32.065  24.479  23.800  1.00  0.00     0.087 C 
ATOM     10  C   UNL A   1      31.809  28.992  26.223  1.00  0.00     0.048 C 
ATOM     11  C   UNL A   1      31.425  28.472  24.865  1.00  0.00    -0.005 A 
ATOM     12  C   UNL A   1      30.898  29.361  23.912  1.00  0.00     0.054 A 
ATOM     13  C   UNL A   1      31.562  27.113  24.539  1.00  0.00     0.131 A 
ATOM     14  C   UNL A   1      30.531  28.909  22.644  1.00  0.00     0.130 A 
ATOM     15  C   UNL A   1      31.229  26.658  23.261  1.00  0.00     0.021 A 
ATOM     16  O   UNL A   1      32.026  26.289  25.525  1.00  0.00    -0.475 OA
ATOM     17  C   UNL A   1      30.691  27.555  22.330  1.00  0.00     0.058 A 
ATOM     18  C   UNL A   1      31.497  25.277  22.885  1.00  0.00     0.027 C 
ATOM     19  C   UNL A   1      32.368  24.914  25.209  1.00  0.00     0.316 C 
BRANCH  14  20
ATOM     20  O   UNL A   1      30.016  29.670  21.634  1.00  0.00    -0.406 OA
BRANCH  20  21
ATOM     21  C   UNL A   1      28.763  30.300  21.852  1.00  0.00     0.573 C 
ATOM     22  F   UNL A   1      28.888  31.644  21.845  1.00  0.00    -0.132 F 
ATOM     23  F   UNL A   1      27.866  29.934  20.909  1.00  0.00    -0.132 F 
ATOM     24  F   UNL A   1      28.282  29.925  23.055  1.00  0.00    -0.132 F 
ENDBRANCH  20  21
ENDBRANCH  14  20
BRANCH  19  25
ATOM     25  C   UNL A   1      33.838  24.696  25.589  1.00  0.00     0.430 C 
ATOM     26  F   UNL A   1      34.425  25.858  25.970  1.00  0.00    -0.167 F 
ATOM     27  F   UNL A   1      33.973  23.841  26.630  1.00  0.00    -0.167 F 
ATOM     28  F   UNL A   1      34.562  24.199  24.561  1.00  0.00    -0.167 F 
ENDBRANCH  19  25
ENDBRANCH   7   9
ENDBRANCH   6   7
ENDBRANCH   5   6
ENDBRANCH   4   5
ENDBRANCH   3   4
ENDBRANCH   2   3
ENDBRANCH   1   2
BRANCH   1  29
ATOM     29  O   UNL A   1      35.629  18.205  24.813  1.00  0.00    -0.376 OA
BRANCH  29  30
ATOM     30  C   UNL A   1      36.005  19.574  24.920  1.00  0.00     0.202 C 
BRANCH  30  31
ATOM     31  C   UNL A   1      37.466  19.980  24.661  1.00  0.00     0.261 C 
BRANCH  31  32
ATOM     32  O   UNL A   1      37.971  21.034  25.499  1.00  0.00    -0.460 OA
BRANCH  32  33
ATOM     33  C   UNL A   1      39.187  20.817  26.061  1.00  0.00     0.338 C 
ATOM     34  O   UNL A   1      39.822  19.774  26.072  1.00  0.00    -0.246 OA
BRANCH  33  35
ATOM     35  C   UNL A   1      39.739  22.103  26.528  1.00  0.00     0.060 A 
ATOM     36  C   UNL A   1      39.184  23.297  26.041  1.00  0.00     0.016 A 
ATOM     37  C   UNL A   1      40.815  22.134  27.416  1.00  0.00     0.016 A 
ATOM     38  C   UNL A   1      39.688  24.526  26.464  1.00  0.00     0.010 A 
ATOM     39  C   UNL A   1      41.345  23.367  27.807  1.00  0.00     0.010 A 
ATOM     40  C   UNL A   1      40.792  24.566  27.324  1.00  0.00    -0.014 A 
BRANCH  40  41
ATOM     41  C   UNL A   1      41.452  25.862  27.599  1.00  0.00     0.031 A 
ATOM     42  C   UNL A   1      40.700  26.905  28.374  1.00  0.00     0.074 A 
ATOM     43  C   UNL A   1      42.707  26.101  27.180  1.00  0.00     0.049 A 
ATOM     44  N   UNL A   1      41.091  28.094  28.749  1.00  0.00    -0.248 NA
ATOM     45  C   UNL A   1      39.328  26.563  28.780  1.00  0.00     0.031 C 
ATOM     46  C   UNL A   1      43.540  25.158  26.438  1.00  0.00     0.029 A 
ATOM     47  N   UNL A   1      43.494  27.218  27.314  1.00  0.00    -0.354 N 
ATOM     48  C   UNL A   1      40.020  28.639  29.446  1.00  0.00     0.074 A 
ATOM     49  C   UNL A   1      38.951  27.665  29.410  1.00  0.00     0.031 C 
ATOM     50  C   UNL A   1      44.720  25.743  26.166  1.00  0.00     0.029 A 
ATOM     51  C   UNL A   1      44.719  27.106  26.700  1.00  0.00     0.049 A 
ATOM     52  H   UNL A   1      43.210  28.023  27.805  1.00  0.00     0.167 HD
ATOM     53  C   UNL A   1      39.943  29.837  30.070  1.00  0.00     0.034 A 
ATOM     54  C   UNL A   1      45.719  28.003  26.573  1.00  0.00     0.034 A 
ATOM     55  C   UNL A   1      41.003  30.810  30.083  1.00  0.00     0.049 A 
ATOM     56  C   UNL A   1      45.587  29.358  27.226  1.00  0.00     0.074 A 
ATOM     57  C   UNL A   1      41.021  32.043  30.711  1.00  0.00     0.029 A 
ATOM     58  N   UNL A   1      42.221  30.672  29.436  1.00  0.00    -0.354 N 
ATOM     59  N   UNL A   1      44.600  29.830  27.952  1.00  0.00    -0.248 NA
ATOM     60  C   UNL A   1      46.705  30.297  27.058  1.00  0.00     0.031 C 
ATOM     61  C   UNL A   1      42.224  32.674  30.395  1.00  0.00     0.029 A 
ATOM     62  C   UNL A   1      42.986  31.812  29.624  1.00  0.00     0.049 A 
ATOM     63  H   UNL A   1      42.501  29.882  28.919  1.00  0.00     0.167 HD
ATOM     64  C   UNL A   1      44.989  31.110  28.343  1.00  0.00     0.074 A 
ATOM     65  C   UNL A   1      46.311  31.327  27.796  1.00  0.00     0.031 C 
ATOM     66  C   UNL A   1      44.309  32.022  29.085  1.00  0.00     0.034 A 
BRANCH  53  67
ATOM     67  C   UNL A   1      38.672  30.177  30.801  1.00  0.00     0.023 A 
ATOM     68  C   UNL A   1      37.684  30.954  30.172  1.00  0.00     0.031 A 
ATOM     69  C   UNL A   1      38.497  29.834  32.154  1.00  0.00     0.131 A 
ATOM     70  C   UNL A   1      36.580  31.397  30.907  1.00  0.00     0.055 A 
ATOM     71  C   UNL A   1      37.375  30.248  32.872  1.00  0.00     0.041 A 
ATOM     72  F   UNL A   1      39.412  29.086  32.791  1.00  0.00    -0.206 F 
ATOM     73  C   UNL A   1      36.416  31.044  32.252  1.00  0.00     0.022 A 
BRANCH  70  74
ATOM     74  S   UNL A   1      35.335  32.482  30.159  1.00  0.00     0.124 S 
ATOM     75  O   UNL A   1      34.873  31.679  29.029  1.00  0.00    -0.237 OA
ATOM     76  O   UNL A   1      34.375  32.636  31.248  1.00  0.00    -0.237 OA
ATOM     77  O   UNL A   1      36.086  33.680  29.800  1.00  0.00    -0.744 OA
ENDBRANCH  70  74
ENDBRANCH  53  67
BRANCH  54  78
ATOM     78  C   UNL A   1      46.950  27.619  25.827  1.00  0.00     0.023 A 
ATOM     79  C   UNL A   1      47.107  27.950  24.469  1.00  0.00     0.031 A 
ATOM     80  C   UNL A   1      47.953  26.848  26.441  1.00  0.00     0.131 A 
ATOM     81  C   UNL A   1      48.210  27.466  23.757  1.00  0.00     0.055 A 
ATOM     82  C   UNL A   1      49.082  26.419  25.742  1.00  0.00     0.041 A 
ATOM     83  F   UNL A   1      47.842  26.504  27.733  1.00  0.00    -0.206 F 
ATOM     84  C   UNL A   1      49.209  26.717  24.389  1.00  0.00     0.022 A 
BRANCH  81  85
ATOM     85  S   UNL A   1      48.346  27.721  21.966  1.00  0.00     0.124 S 
ATOM     86  O   UNL A   1      47.044  28.296  21.637  1.00  0.00    -0.237 OA
ATOM     87  O   UNL A   1      49.480  28.638  21.884  1.00  0.00    -0.237 OA
ATOM     88  O   UNL A   1      48.589  26.380  21.445  1.00  0.00    -0.744 OA
ENDBRANCH  81  85
ENDBRANCH  54  78
BRANCH  66  89
ATOM     89  C   UNL A   1      44.958  33.355  29.367  1.00  0.00     0.023 A 
ATOM     90  C   UNL A   1      44.721  34.452  28.516  1.00  0.00     0.031 A 
ATOM     91  C   UNL A   1      45.914  33.501  30.388  1.00  0.00     0.131 A 
ATOM     92  C   UNL A   1      45.453  35.635  28.681  1.00  0.00     0.055 A 
ATOM     93  C   UNL A   1      46.609  34.697  30.576  1.00  0.00     0.041 A 
ATOM     94  F   UNL A   1      46.186  32.481  31.218  1.00  0.00    -0.206 F 
ATOM     95  C   UNL A   1      46.390  35.766  29.712  1.00  0.00     0.022 A 
BRANCH  92  96
ATOM     96  S   UNL A   1      45.272  37.020  27.524  1.00  0.00     0.124 S 
ATOM     97  O   UNL A   1      45.075  38.148  28.431  1.00  0.00    -0.237 OA
ATOM     98  O   UNL A   1      46.552  37.002  26.820  1.00  0.00    -0.237 OA
ATOM     99  O   UNL A   1      44.109  36.659  26.721  1.00  0.00    -0.744 OA
ENDBRANCH  92  96
ENDBRANCH  66  89
ENDBRANCH  40  41
ENDBRANCH  33  35
ENDBRANCH  32  33
ENDBRANCH  31  32
ENDBRANCH  30  31
ENDBRANCH  29  30
ENDBRANCH   1  29
TORSDOF 23
ENDMDL
MODEL 2
REMARK VINA RESULT:     -11.2      0.880      7.247
REMARK SMILES Cc1cc(OC(F)(F)F)cc2c1O[C@H](C(F)(F)F)C(C(=O)OCCOCCOCCOC(=O)c1ccc(-c3c4nc(c(-c5cc(S(=O)(=O)[O-])ccc5F)c5ccc([nH]5)c(-c5cc(S(=O)(=O)[O-])ccc5F)c5nc(c(-c6cc(S(=O)(=O)[O-])ccc6F)c6ccc3[nH]6)C=C5)C=C4)cc1)=C2
REMARK SMILES IDX 27 1 26 2 25 3 24 4 23 5 22 6 20 7 21 8 19 9 1 10 2 11 3 12
REMARK SMILES IDX 12 13 4 14 11 15 13 16 10 17 97 18 14 19 5 20 6 21 7 22 8 23
REMARK SMILES IDX 9 24 15 25 16 26 17 27 18 28 28 29 29 30 30 31 31 32 32 33
REMARK SMILES IDX 33 34 34 35 35 36 96 37 36 38 95 39 37 40 38 41 39 42 89 43
REMARK SMILES IDX 40 44 94 45 88 46 90 47 41 48 93 49 87 50 86 51 42 53 74 54
REMARK SMILES IDX 54 55 73 56 55 57 58 58 72 59 91 60 56 61 57 62 71 64 92 65
REMARK SMILES IDX 59 66 43 67 44 68 52 69 45 70 51 71 53 72 50 73 46 74 47 75
REMARK SMILES IDX 48 76 49 77 75 78 76 79 84 80 77 81 83 82 85 83 82 84 78 85
REMARK SMILES IDX 79 86 80 87 81 88 60 89 61 90 69 91 62 92 68 93 70 94 67 95
REMARK SMILES IDX 63 96 64 97 65 98 66 99
REMARK H PARENT 90 52 58 63
REMARK Flexibility Score: inf
ROOT
ATOM      1  C   UNL A   1      34.872  17.801  24.244  1.00  0.00     0.188 C 
ENDROOT
BRANCH   1   2
ATOM      2  C   UNL A   1      33.452  18.239  24.666  1.00  0.00     0.188 C 
BRANCH   2   3
ATOM      3  O   UNL A   1      33.043  19.422  24.009  1.00  0.00    -0.376 OA
BRANCH   3   4
ATOM      4  C   UNL A   1      32.002  20.180  24.591  1.00  0.00     0.202 C 
BRANCH   4   5
ATOM      5  C   UNL A   1      32.356  21.386  25.478  1.00  0.00     0.261 C 
BRANCH   5   6
ATOM      6  O   UNL A   1      31.431  22.483  25.465  1.00  0.00    -0.460 OA
BRANCH   6   7
ATOM      7  C   UNL A   1      31.570  23.425  26.423  1.00  0.00     0.338 C 
ATOM      8  O   UNL A   1      31.581  23.240  27.627  1.00  0.00    -0.246 OA
BRANCH   7   9
ATOM      9  C   UNL A   1      31.799  24.735  25.770  1.00  0.00     0.087 C 
ATOM     10  C   UNL A   1      33.897  28.969  23.778  1.00  0.00     0.048 C 
ATOM     11  C   UNL A   1      32.557  28.290  23.703  1.00  0.00    -0.005 A 
ATOM     12  C   UNL A   1      31.560  28.826  22.871  1.00  0.00     0.054 A 
ATOM     13  C   UNL A   1      32.278  27.144  24.464  1.00  0.00     0.131 A 
ATOM     14  C   UNL A   1      30.307  28.220  22.781  1.00  0.00     0.130 A 
ATOM     15  C   UNL A   1      31.037  26.511  24.355  1.00  0.00     0.021 A 
ATOM     16  O   UNL A   1      33.268  26.703  25.297  1.00  0.00    -0.475 OA
ATOM     17  C   UNL A   1      30.050  27.068  23.532  1.00  0.00     0.058 A 
ATOM     18  C   UNL A   1      30.798  25.250  25.043  1.00  0.00     0.027 C 
ATOM     19  C   UNL A   1      33.121  25.426  25.972  1.00  0.00     0.316 C 
BRANCH  14  20
ATOM     20  O   UNL A   1      29.261  28.638  22.008  1.00  0.00    -0.406 OA
BRANCH  20  21
ATOM     21  C   UNL A   1      28.394  29.626  22.545  1.00  0.00     0.573 C 
ATOM     22  F   UNL A   1      28.245  30.659  21.689  1.00  0.00    -0.132 F 
ATOM     23  F   UNL A   1      27.179  29.103  22.825  1.00  0.00    -0.132 F 
ATOM     24  F   UNL A   1      28.920  30.100  23.694  1.00  0.00    -0.132 F 
ENDBRANCH  20  21
ENDBRANCH  14  20
BRANCH  19  25
ATOM     25  C   UNL A   1      34.312  24.545  25.575  1.00  0.00     0.430 C 
ATOM     26  F   UNL A   1      34.076  23.897  24.406  1.00  0.00    -0.167 F 
ATOM     27  F   UNL A   1      35.441  25.269  25.387  1.00  0.00    -0.167 F 
ATOM     28  F   UNL A   1      34.585  23.604  26.507  1.00  0.00    -0.167 F 
ENDBRANCH  19  25
ENDBRANCH   7   9
ENDBRANCH   6   7
ENDBRANCH   5   6
ENDBRANCH   4   5
ENDBRANCH   3   4
ENDBRANCH   2   3
ENDBRANCH   1   2
BRANCH   1  29
ATOM     29  O   UNL A   1      35.999  18.273  24.976  1.00  0.00    -0.376 OA
BRANCH  29  30
ATOM     30  C   UNL A   1      36.323  19.657  24.903  1.00  0.00     0.202 C 
BRANCH  30  31
ATOM     31  C   UNL A   1      37.799  20.087  24.842  1.00  0.00     0.261 C 
BRANCH  31  32
ATOM     32  O   UNL A   1      38.215  21.012  25.862  1.00  0.00    -0.460 OA
BRANCH  32  33
ATOM     33  C   UNL A   1      39.506  20.908  26.270  1.00  0.00     0.338 C 
ATOM     34  O   UNL A   1      40.252  19.953  26.126  1.00  0.00    -0.246 OA
BRANCH  33  35
ATOM     35  C   UNL A   1      39.957  22.218  26.777  1.00  0.00     0.060 A 
ATOM     36  C   UNL A   1      39.404  23.386  26.230  1.00  0.00     0.016 A 
ATOM     37  C   UNL A   1      40.940  22.296  27.765  1.00  0.00     0.016 A 
ATOM     38  C   UNL A   1      39.815  24.636  26.690  1.00  0.00     0.010 A 
ATOM     39  C   UNL A   1      41.379  23.551  28.195  1.00  0.00     0.010 A 
ATOM     40  C   UNL A   1      40.828  24.725  27.652  1.00  0.00    -0.014 A 
BRANCH  40  41
ATOM     41  C   UNL A   1      41.406  26.048  27.979  1.00  0.00     0.031 A 
ATOM     42  C   UNL A   1      42.809  26.351  27.540  1.00  0.00     0.074 A 
ATOM     43  C   UNL A   1      40.687  26.971  28.642  1.00  0.00     0.049 A 
ATOM     44  N   UNL A   1      43.501  27.448  27.694  1.00  0.00    -0.248 NA
ATOM     45  C   UNL A   1      43.524  25.278  26.833  1.00  0.00     0.031 C 
ATOM     46  C   UNL A   1      39.312  26.796  29.101  1.00  0.00     0.029 A 
ATOM     47  N   UNL A   1      41.024  28.238  29.051  1.00  0.00    -0.354 N 
ATOM     48  C   UNL A   1      44.730  27.204  27.094  1.00  0.00     0.074 A 
ATOM     49  C   UNL A   1      44.701  25.843  26.605  1.00  0.00     0.031 C 
ATOM     50  C   UNL A   1      38.925  27.911  29.745  1.00  0.00     0.029 A 
ATOM     51  C   UNL A   1      40.030  28.871  29.759  1.00  0.00     0.049 A 
ATOM     52  H   UNL A   1      41.894  28.654  28.855  1.00  0.00     0.167 HD
ATOM     53  C   UNL A   1      45.781  28.045  26.953  1.00  0.00     0.034 A 
ATOM     54  C   UNL A   1      40.017  30.080  30.358  1.00  0.00     0.034 A 
ATOM     55  C   UNL A   1      45.811  29.390  27.461  1.00  0.00     0.049 A 
ATOM     56  C   UNL A   1      41.224  30.978  30.240  1.00  0.00     0.074 A 
ATOM     57  C   UNL A   1      46.826  30.323  27.344  1.00  0.00     0.029 A 
ATOM     58  N   UNL A   1      44.796  29.993  28.189  1.00  0.00    -0.354 N 
ATOM     59  N   UNL A   1      42.350  30.766  29.599  1.00  0.00    -0.248 NA
ATOM     60  C   UNL A   1      41.157  32.285  30.910  1.00  0.00     0.031 C 
ATOM     61  C   UNL A   1      46.450  31.467  28.049  1.00  0.00     0.029 A 
ATOM     62  C   UNL A   1      45.174  31.275  28.553  1.00  0.00     0.049 A 
ATOM     63  H   UNL A   1      43.935  29.572  28.413  1.00  0.00     0.167 HD
ATOM     64  C   UNL A   1      43.115  31.919  29.772  1.00  0.00     0.074 A 
ATOM     65  C   UNL A   1      42.312  32.834  30.555  1.00  0.00     0.031 C 
ATOM     66  C   UNL A   1      44.368  32.190  29.326  1.00  0.00     0.034 A 
BRANCH  53  67
ATOM     67  C   UNL A   1      46.994  27.548  26.215  1.00  0.00     0.023 A 
ATOM     68  C   UNL A   1      47.184  27.889  24.864  1.00  0.00     0.031 A 
ATOM     69  C   UNL A   1      47.890  26.643  26.811  1.00  0.00     0.131 A 
ATOM     70  C   UNL A   1      48.226  27.299  24.142  1.00  0.00     0.055 A 
ATOM     71  C   UNL A   1      48.949  26.086  26.096  1.00  0.00     0.041 A 
ATOM     72  F   UNL A   1      47.750  26.296  28.101  1.00  0.00    -0.206 F 
ATOM     73  C   UNL A   1      49.114  26.404  24.750  1.00  0.00     0.022 A 
BRANCH  70  74
ATOM     74  S   UNL A   1      48.445  27.638  22.374  1.00  0.00     0.124 S 
ATOM     75  O   UNL A   1      48.613  26.292  21.827  1.00  0.00    -0.237 OA
ATOM     76  O   UNL A   1      47.188  28.297  22.034  1.00  0.00    -0.237 OA
ATOM     77  O   UNL A   1      49.637  28.477  22.324  1.00  0.00    -0.744 OA
ENDBRANCH  70  74
ENDBRANCH  53  67
BRANCH  54  78
ATOM     78  C   UNL A   1      38.793  30.517  31.087  1.00  0.00     0.023 A 
ATOM     79  C   UNL A   1      37.711  31.098  30.402  1.00  0.00     0.031 A 
ATOM     80  C   UNL A   1      38.721  30.432  32.488  1.00  0.00     0.131 A 
ATOM     81  C   UNL A   1      36.629  31.618  31.122  1.00  0.00     0.055 A 
ATOM     82  C   UNL A   1      37.613  30.898  33.197  1.00  0.00     0.041 A 
ATOM     83  F   UNL A   1      39.734  29.891  33.184  1.00  0.00    -0.206 F 
ATOM     84  C   UNL A   1      36.565  31.507  32.515  1.00  0.00     0.022 A 
BRANCH  81  85
ATOM     85  S   UNL A   1      35.308  32.534  30.282  1.00  0.00     0.124 S 
ATOM     86  O   UNL A   1      35.992  33.759  29.875  1.00  0.00    -0.237 OA
ATOM     87  O   UNL A   1      34.957  31.618  29.199  1.00  0.00    -0.237 OA
ATOM     88  O   UNL A   1      34.291  32.697  31.315  1.00  0.00    -0.744 OA
ENDBRANCH  81  85
ENDBRANCH  54  78
BRANCH  66  89
ATOM     89  C   UNL A   1      44.981  33.528  29.658  1.00  0.00     0.023 A 
ATOM     90  C   UNL A   1      44.981  34.563  28.703  1.00  0.00     0.031 A 
ATOM     91  C   UNL A   1      45.685  33.733  30.858  1.00  0.00     0.131 A 
ATOM     92  C   UNL A   1      45.697  35.742  28.949  1.00  0.00     0.055 A 
ATOM     93  C   UNL A   1      46.360  34.926  31.118  1.00  0.00     0.041 A 
ATOM     94  F   UNL A   1      45.725  32.772  31.796  1.00  0.00    -0.206 F 
ATOM     95  C   UNL A   1      46.379  35.932  30.156  1.00  0.00     0.022 A 
BRANCH  92  96
ATOM     96  S   UNL A   1      45.832  37.040  27.691  1.00  0.00     0.124 S 
ATOM     97  O   UNL A   1      45.608  36.291  26.457  1.00  0.00    -0.237 OA
ATOM     98  O   UNL A   1      44.755  37.950  28.071  1.00  0.00    -0.237 OA
ATOM     99  O   UNL A   1      47.184  37.560  27.863  1.00  0.00    -0.744 OA
ENDBRANCH  92  96
ENDBRANCH  66  89
ENDBRANCH  40  41
ENDBRANCH  33  35
ENDBRANCH  32  33
ENDBRANCH  31  32
ENDBRANCH  30  31
ENDBRANCH  29  30
ENDBRANCH   1  29
TORSDOF 23
ENDMDL
MODEL 3
REMARK VINA RESULT:     -11.1      2.619      3.231
REMARK SMILES Cc1cc(OC(F)(F)F)cc2c1O[C@H](C(F)(F)F)C(C(=O)OCCOCCOCCOC(=O)c1ccc(-c3c4nc(c(-c5cc(S(=O)(=O)[O-])ccc5F)c5ccc([nH]5)c(-c5cc(S(=O)(=O)[O-])ccc5F)c5nc(c(-c6cc(S(=O)(=O)[O-])ccc6F)c6ccc3[nH]6)C=C5)C=C4)cc1)=C2
REMARK SMILES IDX 27 1 26 2 25 3 24 4 23 5 22 6 20 7 21 8 19 9 1 10 2 11 3 12
REMARK SMILES IDX 12 13 4 14 11 15 13 16 10 17 97 18 14 19 5 20 6 21 7 22 8 23
REMARK SMILES IDX 9 24 15 25 16 26 17 27 18 28 28 29 29 30 30 31 31 32 32 33
REMARK SMILES IDX 33 34 34 35 35 36 96 37 36 38 95 39 37 40 38 41 39 42 89 43
REMARK SMILES IDX 40 44 94 45 88 46 90 47 41 48 93 49 87 50 86 51 42 53 74 54
REMARK SMILES IDX 54 55 73 56 55 57 58 58 72 59 91 60 56 61 57 62 71 64 92 65
REMARK SMILES IDX 59 66 43 67 44 68 52 69 45 70 51 71 53 72 50 73 46 74 47 75
REMARK SMILES IDX 48 76 49 77 75 78 76 79 84 80 77 81 83 82 85 83 82 84 78 85
REMARK SMILES IDX 79 86 80 87 81 88 60 89 61 90 69 91 62 92 68 93 70 94 67 95
REMARK SMILES IDX 63 96 64 97 65 98 66 99
REMARK H PARENT 90 52 58 63
REMARK Flexibility Score: inf
ROOT
ATOM      1  C   UNL A   1      34.460  19.805  24.982  1.00  0.00     0.188 C 
ENDROOT
BRANCH   1   2
ATOM      2  C   UNL A   1      33.067  19.536  25.595  1.00  0.00     0.188 C 
BRANCH   2   3
ATOM      3  O   UNL A   1      32.023  19.803  24.680  1.00  0.00    -0.376 OA
BRANCH   3   4
ATOM      4  C   UNL A   1      32.356  19.937  23.312  1.00  0.00     0.202 C 
BRANCH   4   5
ATOM      5  C   UNL A   1      31.989  21.236  22.575  1.00  0.00     0.261 C 
BRANCH   5   6
ATOM      6  O   UNL A   1      32.178  22.459  23.301  1.00  0.00    -0.460 OA
BRANCH   6   7
ATOM      7  C   UNL A   1      32.807  23.471  22.664  1.00  0.00     0.338 C 
ATOM      8  O   UNL A   1      33.580  23.370  21.729  1.00  0.00    -0.246 OA
BRANCH   7   9
ATOM      9  C   UNL A   1      32.335  24.755  23.232  1.00  0.00     0.087 C 
ATOM     10  C   UNL A   1      31.584  28.877  26.190  1.00  0.00     0.048 C 
ATOM     11  C   UNL A   1      31.261  28.492  24.772  1.00  0.00    -0.005 A 
ATOM     12  C   UNL A   1      30.643  29.430  23.928  1.00  0.00     0.054 A 
ATOM     13  C   UNL A   1      31.547  27.207  24.283  1.00  0.00     0.131 A 
ATOM     14  C   UNL A   1      30.330  29.102  22.609  1.00  0.00     0.130 A 
ATOM     15  C   UNL A   1      31.267  26.881  22.953  1.00  0.00     0.021 A 
ATOM     16  O   UNL A   1      32.096  26.322  25.167  1.00  0.00    -0.475 OA
ATOM     17  C   UNL A   1      30.637  27.824  22.132  1.00  0.00     0.058 A 
ATOM     18  C   UNL A   1      31.685  25.595  22.414  1.00  0.00     0.027 C 
ATOM     19  C   UNL A   1      32.586  25.041  24.689  1.00  0.00     0.316 C 
BRANCH  14  20
ATOM     20  O   UNL A   1      29.737  29.923  21.692  1.00  0.00    -0.406 OA
BRANCH  20  21
ATOM     21  C   UNL A   1      28.339  30.140  21.803  1.00  0.00     0.573 C 
ATOM     22  F   UNL A   1      27.784  30.361  20.593  1.00  0.00    -0.132 F 
ATOM     23  F   UNL A   1      27.729  29.082  22.383  1.00  0.00    -0.132 F 
ATOM     24  F   UNL A   1      28.118  31.224  22.575  1.00  0.00    -0.132 F 
ENDBRANCH  20  21
ENDBRANCH  14  20
BRANCH  19  25
ATOM     25  C   UNL A   1      34.071  24.938  25.062  1.00  0.00     0.430 C 
ATOM     26  F   UNL A   1      34.844  24.775  23.959  1.00  0.00    -0.167 F 
ATOM     27  F   UNL A   1      34.519  26.055  25.681  1.00  0.00    -0.167 F 
ATOM     28  F   UNL A   1      34.319  23.892  25.883  1.00  0.00    -0.167 F 
ENDBRANCH  19  25
ENDBRANCH   7   9
ENDBRANCH   6   7
ENDBRANCH   5   6
ENDBRANCH   4   5
ENDBRANCH   3   4
ENDBRANCH   2   3
ENDBRANCH   1   2
BRANCH   1  29
ATOM     29  O   UNL A   1      35.269  20.852  25.509  1.00  0.00    -0.376 OA
BRANCH  29  30
ATOM     30  C   UNL A   1      36.170  21.519  24.631  1.00  0.00     0.202 C 
BRANCH  30  31
ATOM     31  C   UNL A   1      37.648  21.667  25.032  1.00  0.00     0.261 C 
BRANCH  31  32
ATOM     32  O   UNL A   1      37.949  22.792  25.874  1.00  0.00    -0.460 OA
BRANCH  32  33
ATOM     33  C   UNL A   1      39.171  22.783  26.468  1.00  0.00     0.338 C 
ATOM     34  O   UNL A   1      39.969  21.861  26.501  1.00  0.00    -0.246 OA
BRANCH  33  35
ATOM     35  C   UNL A   1      39.489  24.144  26.937  1.00  0.00     0.060 A 
ATOM     36  C   UNL A   1      40.102  25.044  26.051  1.00  0.00     0.016 A 
ATOM     37  C   UNL A   1      39.212  24.525  28.251  1.00  0.00     0.016 A 
ATOM     38  C   UNL A   1      40.415  26.335  26.470  1.00  0.00     0.010 A 
ATOM     39  C   UNL A   1      39.563  25.808  28.681  1.00  0.00     0.010 A 
ATOM     40  C   UNL A   1      40.176  26.713  27.797  1.00  0.00    -0.014 A 
BRANCH  40  41
ATOM     41  C   UNL A   1      40.702  28.006  28.290  1.00  0.00     0.031 A 
ATOM     42  C   UNL A   1      39.732  29.040  28.782  1.00  0.00     0.074 A 
ATOM     43  C   UNL A   1      42.024  28.250  28.315  1.00  0.00     0.049 A 
ATOM     44  N   UNL A   1      39.971  30.224  29.280  1.00  0.00    -0.248 NA
ATOM     45  C   UNL A   1      38.304  28.693  28.705  1.00  0.00     0.031 C 
ATOM     46  C   UNL A   1      43.060  27.316  27.881  1.00  0.00     0.029 A 
ATOM     47  N   UNL A   1      42.718  29.365  28.716  1.00  0.00    -0.354 N 
ATOM     48  C   UNL A   1      38.727  30.760  29.586  1.00  0.00     0.074 A 
ATOM     49  C   UNL A   1      37.734  29.787  29.186  1.00  0.00     0.031 C 
ATOM     50  C   UNL A   1      44.261  27.904  28.024  1.00  0.00     0.029 A 
ATOM     51  C   UNL A   1      44.078  29.261  28.543  1.00  0.00     0.049 A 
ATOM     52  H   UNL A   1      42.283  30.164  29.093  1.00  0.00     0.167 HD
ATOM     53  C   UNL A   1      38.441  31.951  30.162  1.00  0.00     0.034 A 
ATOM     54  C   UNL A   1      45.059  30.159  28.766  1.00  0.00     0.034 A 
ATOM     55  C   UNL A   1      39.432  32.924  30.538  1.00  0.00     0.049 A 
ATOM     56  C   UNL A   1      44.711  31.506  29.353  1.00  0.00     0.074 A 
ATOM     57  C   UNL A   1      39.236  34.149  31.150  1.00  0.00     0.029 A 
ATOM     58  N   UNL A   1      40.797  32.794  30.331  1.00  0.00    -0.354 N 
ATOM     59  N   UNL A   1      43.538  31.970  29.714  1.00  0.00    -0.248 NA
ATOM     60  C   UNL A   1      45.818  32.447  29.577  1.00  0.00     0.031 C 
ATOM     61  C   UNL A   1      40.473  34.784  31.260  1.00  0.00     0.029 A 
ATOM     62  C   UNL A   1      41.451  33.931  30.777  1.00  0.00     0.049 A 
ATOM     63  H   UNL A   1      41.236  32.010  29.928  1.00  0.00     0.167 HD
ATOM     64  C   UNL A   1      43.769  33.245  30.227  1.00  0.00     0.074 A 
ATOM     65  C   UNL A   1      45.197  33.469  30.153  1.00  0.00     0.031 C 
ATOM     66  C   UNL A   1      42.877  34.148  30.710  1.00  0.00     0.034 A 
BRANCH  53  67
ATOM     67  C   UNL A   1      36.998  32.282  30.433  1.00  0.00     0.023 A 
ATOM     68  C   UNL A   1      36.231  32.938  29.455  1.00  0.00     0.031 A 
ATOM     69  C   UNL A   1      36.424  32.057  31.697  1.00  0.00     0.131 A 
ATOM     70  C   UNL A   1      34.943  33.382  29.769  1.00  0.00     0.055 A 
ATOM     71  C   UNL A   1      35.125  32.469  31.992  1.00  0.00     0.041 A 
ATOM     72  F   UNL A   1      37.119  31.426  32.658  1.00  0.00    -0.206 F 
ATOM     73  C   UNL A   1      34.382  33.146  31.030  1.00  0.00     0.022 A 
BRANCH  70  74
ATOM     74  S   UNL A   1      33.959  34.318  28.567  1.00  0.00     0.124 S 
ATOM     75  O   UNL A   1      33.780  33.341  27.496  1.00  0.00    -0.237 OA
ATOM     76  O   UNL A   1      32.758  34.628  29.336  1.00  0.00    -0.237 OA
ATOM     77  O   UNL A   1      34.808  35.455  28.231  1.00  0.00    -0.744 OA
ENDBRANCH  70  74
ENDBRANCH  53  67
BRANCH  54  78
ATOM     78  C   UNL A   1      46.470  29.784  28.468  1.00  0.00     0.023 A 
ATOM     79  C   UNL A   1      47.280  29.178  29.445  1.00  0.00     0.031 A 
ATOM     80  C   UNL A   1      47.051  30.097  27.227  1.00  0.00     0.131 A 
ATOM     81  C   UNL A   1      48.637  28.955  29.184  1.00  0.00     0.055 A 
ATOM     82  C   UNL A   1      48.390  29.817  26.950  1.00  0.00     0.041 A 
ATOM     83  F   UNL A   1      46.317  30.681  26.267  1.00  0.00    -0.206 F 
ATOM     84  C   UNL A   1      49.194  29.254  27.936  1.00  0.00     0.022 A 
BRANCH  81  85
ATOM     85  S   UNL A   1      49.746  28.346  30.484  1.00  0.00     0.124 S 
ATOM     86  O   UNL A   1      50.262  29.588  31.055  1.00  0.00    -0.237 OA
ATOM     87  O   UNL A   1      48.822  27.599  31.334  1.00  0.00    -0.237 OA
ATOM     88  O   UNL A   1      50.718  27.538  29.757  1.00  0.00    -0.744 OA
ENDBRANCH  81  85
ENDBRANCH  54  78
BRANCH  66  89
ATOM     89  C   UNL A   1      43.390  35.478  31.207  1.00  0.00     0.023 A 
ATOM     90  C   UNL A   1      43.594  36.540  30.305  1.00  0.00     0.031 A 
ATOM     91  C   UNL A   1      43.808  35.648  32.539  1.00  0.00     0.131 A 
ATOM     92  C   UNL A   1      44.227  37.712  30.737  1.00  0.00     0.055 A 
ATOM     93  C   UNL A   1      44.398  36.835  32.976  1.00  0.00     0.041 A 
ATOM     94  F   UNL A   1      43.647  34.661  33.435  1.00  0.00    -0.206 F 
ATOM     95  C   UNL A   1      44.622  37.869  32.071  1.00  0.00     0.022 A 
BRANCH  92  96
ATOM     96  S   UNL A   1      44.627  39.047  29.577  1.00  0.00     0.124 S 
ATOM     97  O   UNL A   1      44.144  38.502  28.310  1.00  0.00    -0.237 OA
ATOM     98  O   UNL A   1      43.852  40.162  30.112  1.00  0.00    -0.237 OA
ATOM     99  O   UNL A   1      46.076  39.182  29.680  1.00  0.00    -0.744 OA
ENDBRANCH  92  96
ENDBRANCH  66  89
ENDBRANCH  40  41
ENDBRANCH  33  35
ENDBRANCH  32  33
ENDBRANCH  31  32
ENDBRANCH  30  31
ENDBRANCH  29  30
ENDBRANCH   1  29
TORSDOF 23
ENDMDL
