MODEL 1
REMARK VINA RESULT:     -11.3      0.000      0.000
REMARK SMILES O=C(OCCOCCOCCOC(=O)[C@H]1Cc2ccc(Cl)cc2C[N@@H+]1Cc1ccc(Cl)cc1)c1ccc(-c2c3nc(c(-c4cc(S(=O)(=O)[O-])ccc4F)c4ccc([nH]4)c(-c4cc(S(=O)(=O)[O-])ccc4F)c4nc(c(-c5cc(S(=O)(=O)[O-])ccc5F)c5ccc2[nH]5)C=C4)C=C3)cc1
REMARK SMILES IDX 7 1 6 2 5 3 4 4 3 5 2 6 1 7 34 8 35 9 96 10 36 11 95 12
REMARK SMILES IDX 37 13 38 14 39 15 89 16 40 17 94 18 88 19 90 20 41 21 93 22
REMARK SMILES IDX 87 23 86 24 42 26 74 27 54 28 73 29 55 30 58 31 72 32 91 33
REMARK SMILES IDX 56 34 57 35 71 37 92 38 59 39 43 40 44 41 52 42 45 43 51 44
REMARK SMILES IDX 53 45 50 46 46 47 47 48 48 49 49 50 75 51 76 52 84 53 77 54
REMARK SMILES IDX 83 55 85 56 82 57 78 58 79 59 80 60 81 61 60 62 61 63 69 64
REMARK SMILES IDX 62 65 68 66 70 67 67 68 63 69 64 70 65 71 66 72 8 73 9 74
REMARK SMILES IDX 10 75 11 76 12 77 13 78 14 79 15 80 16 81 25 82 17 83 24 84
REMARK SMILES IDX 18 86 23 87 19 88 22 89 20 90 21 91 26 92 27 93 28 94 33 95
REMARK SMILES IDX 29 96 32 97 30 98 31 99
REMARK H PARENT 90 25 58 36 25 85
REMARK Flexibility Score: inf
ROOT
ATOM      1  C   UNL A   1      32.850  27.158  24.699  1.00  0.00     0.188 C 
ENDROOT
BRANCH   1   2
ATOM      2  O   UNL A   1      33.615  28.361  24.688  1.00  0.00    -0.376 OA
BRANCH   2   3
ATOM      3  C   UNL A   1      32.803  29.538  24.764  1.00  0.00     0.202 C 
BRANCH   3   4
ATOM      4  C   UNL A   1      31.889  29.624  25.992  1.00  0.00     0.261 C 
BRANCH   4   5
ATOM      5  O   UNL A   1      31.697  30.956  26.479  1.00  0.00    -0.460 OA
BRANCH   5   6
ATOM      6  C   UNL A   1      32.585  31.778  27.087  1.00  0.00     0.338 C 
ATOM      7  O   UNL A   1      32.328  32.983  27.064  1.00  0.00    -0.246 OA
BRANCH   6   8
ATOM      8  C   UNL A   1      33.882  31.350  27.727  1.00  0.00     0.060 A 
ATOM      9  C   UNL A   1      34.749  32.394  28.071  1.00  0.00     0.016 A 
ATOM     10  C   UNL A   1      34.330  30.049  27.986  1.00  0.00     0.016 A 
ATOM     11  C   UNL A   1      36.008  32.134  28.621  1.00  0.00     0.010 A 
ATOM     12  C   UNL A   1      35.597  29.784  28.536  1.00  0.00     0.010 A 
ATOM     13  C   UNL A   1      36.463  30.823  28.842  1.00  0.00    -0.014 A 
BRANCH  13  14
ATOM     14  C   UNL A   1      37.727  30.600  29.593  1.00  0.00     0.031 A 
ATOM     15  C   UNL A   1      38.023  31.203  30.947  1.00  0.00     0.074 A 
ATOM     16  C   UNL A   1      38.627  29.803  28.984  1.00  0.00     0.049 A 
ATOM     17  N   UNL A   1      38.915  30.825  31.830  1.00  0.00    -0.248 NA
ATOM     18  C   UNL A   1      37.239  32.371  31.382  1.00  0.00     0.031 C 
ATOM     19  C   UNL A   1      38.468  29.252  27.632  1.00  0.00     0.029 A 
ATOM     20  N   UNL A   1      39.836  29.312  29.397  1.00  0.00    -0.354 N 
ATOM     21  C   UNL A   1      38.728  31.630  32.957  1.00  0.00     0.074 A 
ATOM     22  C   UNL A   1      37.710  32.590  32.609  1.00  0.00     0.031 C 
ATOM     23  C   UNL A   1      39.514  28.471  27.345  1.00  0.00     0.029 A 
ATOM     24  C   UNL A   1      40.446  28.508  28.463  1.00  0.00     0.049 A 
ATOM     25  H   UNL A   1      40.229  29.513  30.277  1.00  0.00     0.167 HD
ATOM     26  C   UNL A   1      39.348  31.537  34.162  1.00  0.00     0.034 A 
ATOM     27  C   UNL A   1      41.633  27.873  28.499  1.00  0.00     0.034 A 
ATOM     28  C   UNL A   1      40.493  30.686  34.367  1.00  0.00     0.049 A 
ATOM     29  C   UNL A   1      42.405  27.932  29.786  1.00  0.00     0.074 A 
ATOM     30  C   UNL A   1      41.246  30.542  35.515  1.00  0.00     0.029 A 
ATOM     31  N   UNL A   1      41.101  29.919  33.382  1.00  0.00    -0.354 N 
ATOM     32  N   UNL A   1      42.065  28.501  30.921  1.00  0.00    -0.248 NA
ATOM     33  C   UNL A   1      43.703  27.255  29.817  1.00  0.00     0.031 C 
ATOM     34  C   UNL A   1      42.381  29.801  35.186  1.00  0.00     0.029 A 
ATOM     35  C   UNL A   1      42.282  29.386  33.866  1.00  0.00     0.049 A 
ATOM     36  H   UNL A   1      40.746  29.777  32.474  1.00  0.00     0.167 HD
ATOM     37  C   UNL A   1      43.087  28.214  31.815  1.00  0.00     0.074 A 
ATOM     38  C   UNL A   1      44.051  27.410  31.087  1.00  0.00     0.031 C 
ATOM     39  C   UNL A   1      43.217  28.576  33.117  1.00  0.00     0.034 A 
BRANCH  26  40
ATOM     40  C   UNL A   1      38.900  32.357  35.362  1.00  0.00     0.023 A 
ATOM     41  C   UNL A   1      39.371  33.667  35.561  1.00  0.00     0.031 A 
ATOM     42  C   UNL A   1      38.250  31.747  36.454  1.00  0.00     0.131 A 
ATOM     43  C   UNL A   1      39.165  34.304  36.801  1.00  0.00     0.055 A 
ATOM     44  C   UNL A   1      37.965  32.414  37.647  1.00  0.00     0.041 A 
ATOM     45  F   UNL A   1      37.972  30.443  36.442  1.00  0.00    -0.206 F 
ATOM     46  C   UNL A   1      38.429  33.703  37.828  1.00  0.00     0.022 A 
BRANCH  43  47
ATOM     47  S   UNL A   1      39.987  35.870  37.207  1.00  0.00     0.124 S 
ATOM     48  O   UNL A   1      39.271  36.276  38.418  1.00  0.00    -0.237 OA
ATOM     49  O   UNL A   1      41.369  35.437  37.422  1.00  0.00    -0.237 OA
ATOM     50  O   UNL A   1      39.757  36.699  36.038  1.00  0.00    -0.744 OA
ENDBRANCH  43  47
ENDBRANCH  26  40
BRANCH  27  51
ATOM     51  C   UNL A   1      42.081  27.105  27.299  1.00  0.00     0.023 A 
ATOM     52  C   UNL A   1      42.119  25.696  27.325  1.00  0.00     0.031 A 
ATOM     53  C   UNL A   1      42.604  27.754  26.170  1.00  0.00     0.131 A 
ATOM     54  C   UNL A   1      42.743  24.990  26.288  1.00  0.00     0.055 A 
ATOM     55  C   UNL A   1      43.151  27.043  25.099  1.00  0.00     0.041 A 
ATOM     56  F   UNL A   1      42.615  29.094  26.103  1.00  0.00    -0.206 F 
ATOM     57  C   UNL A   1      43.241  25.655  25.165  1.00  0.00     0.022 A 
BRANCH  54  58
ATOM     58  S   UNL A   1      43.072  23.212  26.443  1.00  0.00     0.124 S 
ATOM     59  O   UNL A   1      44.509  23.190  26.698  1.00  0.00    -0.237 OA
ATOM     60  O   UNL A   1      42.225  22.845  27.576  1.00  0.00    -0.237 OA
ATOM     61  O   UNL A   1      42.648  22.667  25.157  1.00  0.00    -0.744 OA
ENDBRANCH  54  58
ENDBRANCH  27  51
BRANCH  39  62
ATOM     62  C   UNL A   1      44.437  28.105  33.865  1.00  0.00     0.023 A 
ATOM     63  C   UNL A   1      44.378  26.899  34.588  1.00  0.00     0.031 A 
ATOM     64  C   UNL A   1      45.577  28.915  34.009  1.00  0.00     0.131 A 
ATOM     65  C   UNL A   1      45.409  26.567  35.471  1.00  0.00     0.055 A 
ATOM     66  C   UNL A   1      46.636  28.542  34.835  1.00  0.00     0.041 A 
ATOM     67  F   UNL A   1      45.672  30.082  33.352  1.00  0.00    -0.206 F 
ATOM     68  C   UNL A   1      46.545  27.374  35.587  1.00  0.00     0.022 A 
BRANCH  65  69
ATOM     69  S   UNL A   1      45.249  25.152  36.594  1.00  0.00     0.124 S 
ATOM     70  O   UNL A   1      44.314  24.296  35.867  1.00  0.00    -0.237 OA
ATOM     71  O   UNL A   1      46.623  24.659  36.661  1.00  0.00    -0.237 OA
ATOM     72  O   UNL A   1      44.732  25.733  37.827  1.00  0.00    -0.744 OA
ENDBRANCH  65  69
ENDBRANCH  39  62
ENDBRANCH  13  14
ENDBRANCH   6   8
ENDBRANCH   5   6
ENDBRANCH   4   5
ENDBRANCH   3   4
ENDBRANCH   2   3
ENDBRANCH   1   2
BRANCH   1  73
ATOM     73  C   UNL A   1      31.796  27.020  23.601  1.00  0.00     0.188 C 
BRANCH  73  74
ATOM     74  O   UNL A   1      32.172  27.047  22.235  1.00  0.00    -0.376 OA
BRANCH  74  75
ATOM     75  C   UNL A   1      32.254  25.838  21.493  1.00  0.00     0.202 C 
BRANCH  75  76
ATOM     76  C   UNL A   1      32.545  24.485  22.165  1.00  0.00     0.261 C 
BRANCH  76  77
ATOM     77  O   UNL A   1      31.531  23.906  22.999  1.00  0.00    -0.459 OA
BRANCH  77  78
ATOM     78  C   UNL A   1      32.001  23.505  24.212  1.00  0.00     0.365 C 
ATOM     79  O   UNL A   1      31.338  23.604  25.242  1.00  0.00    -0.245 OA
BRANCH  78  80
ATOM     80  C   UNL A   1      33.425  22.947  24.203  1.00  0.00     0.300 C 
ATOM     81  C   UNL A   1      34.333  23.785  25.126  1.00  0.00     0.113 C 
ATOM     82  N   UNL A   1      33.464  21.492  24.525  1.00  0.00    -0.315 N 
ATOM     83  C   UNL A   1      35.721  23.211  25.252  1.00  0.00    -0.033 A 
ATOM     84  C   UNL A   1      34.850  20.992  24.409  1.00  0.00     0.300 C 
ATOM     85  H   UNL A   1      33.129  21.409  25.485  1.00  0.00     0.349 HD
ATOM     86  C   UNL A   1      36.804  23.992  25.674  1.00  0.00     0.006 A 
ATOM     87  C   UNL A   1      35.920  21.847  25.040  1.00  0.00     0.011 A 
ATOM     88  C   UNL A   1      38.036  23.412  26.000  1.00  0.00     0.021 A 
ATOM     89  C   UNL A   1      37.184  21.295  25.300  1.00  0.00     0.030 A 
ATOM     90  C   UNL A   1      38.215  22.052  25.829  1.00  0.00     0.041 A 
ATOM     91  Cl  UNL A   1      39.711  21.308  26.232  1.00  0.00    -0.084 Cl
BRANCH  82  92
ATOM     92  C   UNL A   1      32.535  20.645  23.714  1.00  0.00     0.300 C 
BRANCH  92  93
ATOM     93  C   UNL A   1      32.520  19.162  24.064  1.00  0.00     0.006 A 
ATOM     94  C   UNL A   1      32.405  18.735  25.392  1.00  0.00     0.011 A 
ATOM     95  C   UNL A   1      32.785  18.196  23.084  1.00  0.00     0.011 A 
ATOM     96  C   UNL A   1      32.802  17.447  25.758  1.00  0.00     0.021 A 
ATOM     97  C   UNL A   1      33.189  16.910  23.442  1.00  0.00     0.021 A 
ATOM     98  C   UNL A   1      33.242  16.557  24.784  1.00  0.00     0.041 A 
ATOM     99  Cl  UNL A   1      33.877  15.026  25.243  1.00  0.00    -0.084 Cl
ENDBRANCH  92  93
ENDBRANCH  82  92
ENDBRANCH  78  80
ENDBRANCH  77  78
ENDBRANCH  76  77
ENDBRANCH  75  76
ENDBRANCH  74  75
ENDBRANCH  73  74
ENDBRANCH   1  73
TORSDOF 22
ENDMDL
MODEL 2
REMARK VINA RESULT:     -10.9      5.821     10.935
REMARK SMILES O=C(OCCOCCOCCOC(=O)[C@H]1Cc2ccc(Cl)cc2C[N@@H+]1Cc1ccc(Cl)cc1)c1ccc(-c2c3nc(c(-c4cc(S(=O)(=O)[O-])ccc4F)c4ccc([nH]4)c(-c4cc(S(=O)(=O)[O-])ccc4F)c4nc(c(-c5cc(S(=O)(=O)[O-])ccc5F)c5ccc2[nH]5)C=C4)C=C3)cc1
REMARK SMILES IDX 7 1 6 2 5 3 4 4 3 5 2 6 1 7 34 8 35 9 96 10 36 11 95 12
REMARK SMILES IDX 37 13 38 14 39 15 89 16 40 17 94 18 88 19 90 20 41 21 93 22
REMARK SMILES IDX 87 23 86 24 42 26 74 27 54 28 73 29 55 30 58 31 72 32 91 33
REMARK SMILES IDX 56 34 57 35 71 37 92 38 59 39 43 40 44 41 52 42 45 43 51 44
REMARK SMILES IDX 53 45 50 46 46 47 47 48 48 49 49 50 75 51 76 52 84 53 77 54
REMARK SMILES IDX 83 55 85 56 82 57 78 58 79 59 80 60 81 61 60 62 61 63 69 64
REMARK SMILES IDX 62 65 68 66 70 67 67 68 63 69 64 70 65 71 66 72 8 73 9 74
REMARK SMILES IDX 10 75 11 76 12 77 13 78 14 79 15 80 16 81 25 82 17 83 24 84
REMARK SMILES IDX 18 86 23 87 19 88 22 89 20 90 21 91 26 92 27 93 28 94 33 95
REMARK SMILES IDX 29 96 32 97 30 98 31 99
REMARK H PARENT 90 25 58 36 25 85
REMARK Flexibility Score: inf
ROOT
ATOM      1  C   UNL A   1      37.017  21.991  24.610  1.00  0.00     0.188 C 
ENDROOT
BRANCH   1   2
ATOM      2  O   UNL A   1      37.529  21.338  25.770  1.00  0.00    -0.376 OA
BRANCH   2   3
ATOM      3  C   UNL A   1      38.943  21.124  25.710  1.00  0.00     0.202 C 
BRANCH   3   4
ATOM      4  C   UNL A   1      39.379  19.657  25.615  1.00  0.00     0.261 C 
BRANCH   4   5
ATOM      5  O   UNL A   1      40.617  19.376  26.275  1.00  0.00    -0.460 OA
BRANCH   5   6
ATOM      6  C   UNL A   1      41.867  19.791  25.956  1.00  0.00     0.338 C 
ATOM      7  O   UNL A   1      42.630  18.940  25.495  1.00  0.00    -0.246 OA
BRANCH   6   8
ATOM      8  C   UNL A   1      42.414  21.178  26.176  1.00  0.00     0.060 A 
ATOM      9  C   UNL A   1      42.330  21.650  27.492  1.00  0.00     0.016 A 
ATOM     10  C   UNL A   1      42.959  22.053  25.228  1.00  0.00     0.016 A 
ATOM     11  C   UNL A   1      42.751  22.942  27.823  1.00  0.00     0.010 A 
ATOM     12  C   UNL A   1      43.379  23.354  25.557  1.00  0.00     0.010 A 
ATOM     13  C   UNL A   1      43.261  23.825  26.857  1.00  0.00    -0.014 A 
BRANCH  13  14
ATOM     14  C   UNL A   1      43.862  25.117  27.284  1.00  0.00     0.031 A 
ATOM     15  C   UNL A   1      45.334  25.442  27.172  1.00  0.00     0.074 A 
ATOM     16  C   UNL A   1      42.996  26.015  27.793  1.00  0.00     0.049 A 
ATOM     17  N   UNL A   1      45.912  26.619  27.192  1.00  0.00    -0.248 NA
ATOM     18  C   UNL A   1      46.288  24.332  27.021  1.00  0.00     0.031 C 
ATOM     19  C   UNL A   1      41.570  25.753  28.029  1.00  0.00     0.029 A 
ATOM     20  N   UNL A   1      43.162  27.311  28.200  1.00  0.00    -0.354 N 
ATOM     21  C   UNL A   1      47.271  26.401  26.950  1.00  0.00     0.074 A 
ATOM     22  C   UNL A   1      47.451  24.971  26.893  1.00  0.00     0.031 C 
ATOM     23  C   UNL A   1      40.987  26.860  28.498  1.00  0.00     0.029 A 
ATOM     24  C   UNL A   1      42.001  27.894  28.653  1.00  0.00     0.049 A 
ATOM     25  H   UNL A   1      44.027  27.780  28.171  1.00  0.00     0.167 HD
ATOM     26  C   UNL A   1      48.247  27.328  26.773  1.00  0.00     0.034 A 
ATOM     27  C   UNL A   1      41.778  29.126  29.147  1.00  0.00     0.034 A 
ATOM     28  C   UNL A   1      48.028  28.726  27.046  1.00  0.00     0.049 A 
ATOM     29  C   UNL A   1      42.925  30.095  29.121  1.00  0.00     0.074 A 
ATOM     30  C   UNL A   1      48.943  29.757  26.965  1.00  0.00     0.029 A 
ATOM     31  N   UNL A   1      46.849  29.266  27.541  1.00  0.00    -0.354 N 
ATOM     32  N   UNL A   1      44.136  29.919  28.642  1.00  0.00    -0.248 NA
ATOM     33  C   UNL A   1      42.684  31.429  29.674  1.00  0.00     0.031 C 
ATOM     34  C   UNL A   1      48.359  30.887  27.538  1.00  0.00     0.029 A 
ATOM     35  C   UNL A   1      47.044  30.594  27.872  1.00  0.00     0.049 A 
ATOM     36  H   UNL A   1      46.000  28.776  27.642  1.00  0.00     0.167 HD
ATOM     37  C   UNL A   1      44.790  31.133  28.797  1.00  0.00     0.074 A 
ATOM     38  C   UNL A   1      43.831  32.038  29.404  1.00  0.00     0.031 C 
ATOM     39  C   UNL A   1      46.061  31.474  28.466  1.00  0.00     0.034 A 
BRANCH  26  40
ATOM     40  C   UNL A   1      49.647  26.945  26.319  1.00  0.00     0.023 A 
ATOM     41  C   UNL A   1      50.733  26.981  27.211  1.00  0.00     0.031 A 
ATOM     42  C   UNL A   1      49.958  26.834  24.949  1.00  0.00     0.131 A 
ATOM     43  C   UNL A   1      52.050  26.890  26.715  1.00  0.00     0.055 A 
ATOM     44  C   UNL A   1      51.257  26.649  24.470  1.00  0.00     0.041 A 
ATOM     45  F   UNL A   1      49.022  27.017  24.018  1.00  0.00    -0.206 F 
ATOM     46  C   UNL A   1      52.315  26.681  25.358  1.00  0.00     0.022 A 
BRANCH  43  47
ATOM     47  S   UNL A   1      53.485  27.211  27.778  1.00  0.00     0.124 S 
ATOM     48  O   UNL A   1      53.111  28.480  28.406  1.00  0.00    -0.237 OA
ATOM     49  O   UNL A   1      53.464  26.050  28.669  1.00  0.00    -0.237 OA
ATOM     50  O   UNL A   1      54.599  27.278  26.850  1.00  0.00    -0.744 OA
ENDBRANCH  43  47
ENDBRANCH  26  40
BRANCH  27  51
ATOM     51  C   UNL A   1      40.409  29.477  29.629  1.00  0.00     0.023 A 
ATOM     52  C   UNL A   1      40.116  29.484  31.008  1.00  0.00     0.031 A 
ATOM     53  C   UNL A   1      39.347  29.672  28.733  1.00  0.00     0.131 A 
ATOM     54  C   UNL A   1      38.790  29.596  31.445  1.00  0.00     0.055 A 
ATOM     55  C   UNL A   1      38.036  29.868  29.176  1.00  0.00     0.041 A 
ATOM     56  F   UNL A   1      39.565  29.652  27.410  1.00  0.00    -0.206 F 
ATOM     57  C   UNL A   1      37.750  29.808  30.537  1.00  0.00     0.022 A 
BRANCH  54  58
ATOM     58  S   UNL A   1      38.358  29.305  33.185  1.00  0.00     0.124 S 
ATOM     59  O   UNL A   1      39.534  28.592  33.674  1.00  0.00    -0.237 OA
ATOM     60  O   UNL A   1      38.191  30.667  33.687  1.00  0.00    -0.237 OA
ATOM     61  O   UNL A   1      37.129  28.522  33.109  1.00  0.00    -0.744 OA
ENDBRANCH  54  58
ENDBRANCH  27  51
BRANCH  39  62
ATOM     62  C   UNL A   1      46.510  32.888  28.734  1.00  0.00     0.023 A 
ATOM     63  C   UNL A   1      46.446  33.838  27.698  1.00  0.00     0.031 A 
ATOM     64  C   UNL A   1      47.152  33.247  29.931  1.00  0.00     0.131 A 
ATOM     65  C   UNL A   1      47.071  35.078  27.854  1.00  0.00     0.055 A 
ATOM     66  C   UNL A   1      47.709  34.512  30.108  1.00  0.00     0.041 A 
ATOM     67  F   UNL A   1      47.252  32.369  30.943  1.00  0.00    -0.206 F 
ATOM     68  C   UNL A   1      47.688  35.427  29.059  1.00  0.00     0.022 A 
BRANCH  65  69
ATOM     69  S   UNL A   1      47.219  36.224  26.456  1.00  0.00     0.124 S 
ATOM     70  O   UNL A   1      46.709  35.417  25.350  1.00  0.00    -0.237 OA
ATOM     71  O   UNL A   1      46.356  37.327  26.873  1.00  0.00    -0.237 OA
ATOM     72  O   UNL A   1      48.643  36.532  26.399  1.00  0.00    -0.744 OA
ENDBRANCH  65  69
ENDBRANCH  39  62
ENDBRANCH  13  14
ENDBRANCH   6   8
ENDBRANCH   5   6
ENDBRANCH   4   5
ENDBRANCH   3   4
ENDBRANCH   2   3
ENDBRANCH   1   2
BRANCH   1  73
ATOM     73  C   UNL A   1      35.861  22.964  24.840  1.00  0.00     0.188 C 
BRANCH  73  74
ATOM     74  O   UNL A   1      34.539  22.483  25.016  1.00  0.00    -0.376 OA
BRANCH  74  75
ATOM     75  C   UNL A   1      33.630  22.483  23.924  1.00  0.00     0.202 C 
BRANCH  75  76
ATOM     76  C   UNL A   1      32.341  23.323  23.933  1.00  0.00     0.261 C 
BRANCH  76  77
ATOM     77  O   UNL A   1      32.251  24.422  24.851  1.00  0.00    -0.459 OA
BRANCH  77  78
ATOM     78  C   UNL A   1      32.808  25.567  24.369  1.00  0.00     0.365 C 
ATOM     79  O   UNL A   1      33.435  25.604  23.313  1.00  0.00    -0.245 OA
BRANCH  78  80
ATOM     80  C   UNL A   1      32.618  26.802  25.254  1.00  0.00     0.300 C 
ATOM     81  C   UNL A   1      33.988  27.364  25.685  1.00  0.00     0.113 C 
ATOM     82  N   UNL A   1      31.751  27.830  24.610  1.00  0.00    -0.315 N 
ATOM     83  C   UNL A   1      33.869  28.653  26.459  1.00  0.00    -0.033 A 
ATOM     84  C   UNL A   1      31.530  28.952  25.547  1.00  0.00     0.300 C 
ATOM     85  H   UNL A   1      32.257  28.144  23.782  1.00  0.00     0.349 HD
ATOM     86  C   UNL A   1      34.900  29.110  27.289  1.00  0.00     0.006 A 
ATOM     87  C   UNL A   1      32.749  29.462  26.272  1.00  0.00     0.011 A 
ATOM     88  C   UNL A   1      34.879  30.401  27.830  1.00  0.00     0.021 A 
ATOM     89  C   UNL A   1      32.712  30.725  26.884  1.00  0.00     0.030 A 
ATOM     90  C   UNL A   1      33.786  31.217  27.607  1.00  0.00     0.041 A 
ATOM     91  Cl  UNL A   1      33.737  32.810  28.246  1.00  0.00    -0.084 Cl
BRANCH  82  92
ATOM     92  C   UNL A   1      30.444  27.315  24.096  1.00  0.00     0.300 C 
BRANCH  92  93
ATOM     93  C   UNL A   1      29.722  28.221  23.106  1.00  0.00     0.006 A 
ATOM     94  C   UNL A   1      30.437  29.007  22.195  1.00  0.00     0.011 A 
ATOM     95  C   UNL A   1      28.336  28.410  23.193  1.00  0.00     0.011 A 
ATOM     96  C   UNL A   1      29.835  30.116  21.595  1.00  0.00     0.021 A 
ATOM     97  C   UNL A   1      27.730  29.519  22.603  1.00  0.00     0.021 A 
ATOM     98  C   UNL A   1      28.496  30.395  21.845  1.00  0.00     0.041 A 
ATOM     99  Cl  UNL A   1      27.791  31.841  21.235  1.00  0.00    -0.084 Cl
ENDBRANCH  92  93
ENDBRANCH  82  92
ENDBRANCH  78  80
ENDBRANCH  77  78
ENDBRANCH  76  77
ENDBRANCH  75  76
ENDBRANCH  74  75
ENDBRANCH  73  74
ENDBRANCH   1  73
TORSDOF 22
ENDMDL
MODEL 3
REMARK VINA RESULT:     -10.6      4.776      8.556
REMARK SMILES O=C(OCCOCCOCCOC(=O)[C@H]1Cc2ccc(Cl)cc2C[N@@H+]1Cc1ccc(Cl)cc1)c1ccc(-c2c3nc(c(-c4cc(S(=O)(=O)[O-])ccc4F)c4ccc([nH]4)c(-c4cc(S(=O)(=O)[O-])ccc4F)c4nc(c(-c5cc(S(=O)(=O)[O-])ccc5F)c5ccc2[nH]5)C=C4)C=C3)cc1
REMARK SMILES IDX 7 1 6 2 5 3 4 4 3 5 2 6 1 7 34 8 35 9 96 10 36 11 95 12
REMARK SMILES IDX 37 13 38 14 39 15 89 16 40 17 94 18 88 19 90 20 41 21 93 22
REMARK SMILES IDX 87 23 86 24 42 26 74 27 54 28 73 29 55 30 58 31 72 32 91 33
REMARK SMILES IDX 56 34 57 35 71 37 92 38 59 39 43 40 44 41 52 42 45 43 51 44
REMARK SMILES IDX 53 45 50 46 46 47 47 48 48 49 49 50 75 51 76 52 84 53 77 54
REMARK SMILES IDX 83 55 85 56 82 57 78 58 79 59 80 60 81 61 60 62 61 63 69 64
REMARK SMILES IDX 62 65 68 66 70 67 67 68 63 69 64 70 65 71 66 72 8 73 9 74
REMARK SMILES IDX 10 75 11 76 12 77 13 78 14 79 15 80 16 81 25 82 17 83 24 84
REMARK SMILES IDX 18 86 23 87 19 88 22 89 20 90 21 91 26 92 27 93 28 94 33 95
REMARK SMILES IDX 29 96 32 97 30 98 31 99
REMARK H PARENT 90 25 58 36 25 85
REMARK Flexibility Score: inf
ROOT
ATOM      1  C   UNL A   1      35.818  22.293  24.685  1.00  0.00     0.188 C 
ENDROOT
BRANCH   1   2
ATOM      2  O   UNL A   1      36.419  21.332  25.551  1.00  0.00    -0.376 OA
BRANCH   2   3
ATOM      3  C   UNL A   1      37.849  21.350  25.496  1.00  0.00     0.202 C 
BRANCH   3   4
ATOM      4  C   UNL A   1      38.501  20.048  25.015  1.00  0.00     0.261 C 
BRANCH   4   5
ATOM      5  O   UNL A   1      39.433  19.488  25.946  1.00  0.00    -0.460 OA
BRANCH   5   6
ATOM      6  C   UNL A   1      40.724  19.830  26.171  1.00  0.00     0.338 C 
ATOM      7  O   UNL A   1      41.568  18.950  25.988  1.00  0.00    -0.246 OA
BRANCH   6   8
ATOM      8  C   UNL A   1      41.202  21.165  26.682  1.00  0.00     0.060 A 
ATOM      9  C   UNL A   1      41.476  22.118  25.693  1.00  0.00     0.016 A 
ATOM     10  C   UNL A   1      41.434  21.551  28.008  1.00  0.00     0.016 A 
ATOM     11  C   UNL A   1      41.979  23.380  26.026  1.00  0.00     0.010 A 
ATOM     12  C   UNL A   1      41.943  22.818  28.346  1.00  0.00     0.010 A 
ATOM     13  C   UNL A   1      42.243  23.743  27.357  1.00  0.00    -0.014 A 
BRANCH  13  14
ATOM     14  C   UNL A   1      42.603  25.150  27.678  1.00  0.00     0.031 A 
ATOM     15  C   UNL A   1      41.665  26.132  28.342  1.00  0.00     0.074 A 
ATOM     16  C   UNL A   1      43.854  25.518  27.336  1.00  0.00     0.049 A 
ATOM     17  N   UNL A   1      41.960  27.248  28.964  1.00  0.00    -0.248 NA
ATOM     18  C   UNL A   1      40.221  25.850  28.315  1.00  0.00     0.031 C 
ATOM     19  C   UNL A   1      44.800  24.665  26.604  1.00  0.00     0.029 A 
ATOM     20  N   UNL A   1      44.553  26.675  27.547  1.00  0.00    -0.354 N 
ATOM     21  C   UNL A   1      40.763  27.740  29.491  1.00  0.00     0.074 A 
ATOM     22  C   UNL A   1      39.719  26.861  29.025  1.00  0.00     0.031 C 
ATOM     23  C   UNL A   1      45.962  25.310  26.464  1.00  0.00     0.029 A 
ATOM     24  C   UNL A   1      45.832  26.640  27.041  1.00  0.00     0.049 A 
ATOM     25  H   UNL A   1      44.178  27.455  28.016  1.00  0.00     0.167 HD
ATOM     26  C   UNL A   1      40.588  28.814  30.302  1.00  0.00     0.034 A 
ATOM     27  C   UNL A   1      46.795  27.581  27.036  1.00  0.00     0.034 A 
ATOM     28  C   UNL A   1      41.646  29.759  30.557  1.00  0.00     0.049 A 
ATOM     29  C   UNL A   1      46.517  28.853  27.785  1.00  0.00     0.074 A 
ATOM     30  C   UNL A   1      41.586  30.915  31.309  1.00  0.00     0.029 A 
ATOM     31  N   UNL A   1      42.914  29.705  29.992  1.00  0.00    -0.354 N 
ATOM     32  N   UNL A   1      45.455  29.174  28.490  1.00  0.00    -0.248 NA
ATOM     33  C   UNL A   1      47.559  29.881  27.764  1.00  0.00     0.031 C 
ATOM     34  C   UNL A   1      42.766  31.626  31.086  1.00  0.00     0.029 A 
ATOM     35  C   UNL A   1      43.609  30.863  30.290  1.00  0.00     0.049 A 
ATOM     36  H   UNL A   1      43.265  28.957  29.457  1.00  0.00     0.167 HD
ATOM     37  C   UNL A   1      45.718  30.424  29.033  1.00  0.00     0.074 A 
ATOM     38  C   UNL A   1      47.048  30.792  28.581  1.00  0.00     0.031 C 
ATOM     39  C   UNL A   1      44.940  31.196  29.833  1.00  0.00     0.034 A 
BRANCH  26  40
ATOM     40  C   UNL A   1      39.249  29.115  30.960  1.00  0.00     0.023 A 
ATOM     41  C   UNL A   1      38.532  30.281  30.642  1.00  0.00     0.031 A 
ATOM     42  C   UNL A   1      38.832  28.409  32.106  1.00  0.00     0.131 A 
ATOM     43  C   UNL A   1      37.445  30.676  31.447  1.00  0.00     0.055 A 
ATOM     44  C   UNL A   1      37.698  28.750  32.846  1.00  0.00     0.041 A 
ATOM     45  F   UNL A   1      39.578  27.429  32.615  1.00  0.00    -0.206 F 
ATOM     46  C   UNL A   1      36.998  29.897  32.519  1.00  0.00     0.022 A 
BRANCH  43  47
ATOM     47  S   UNL A   1      36.666  32.304  31.254  1.00  0.00     0.124 S 
ATOM     48  O   UNL A   1      37.083  32.980  32.484  1.00  0.00    -0.237 OA
ATOM     49  O   UNL A   1      37.302  32.797  30.031  1.00  0.00    -0.237 OA
ATOM     50  O   UNL A   1      35.249  32.004  31.155  1.00  0.00    -0.744 OA
ENDBRANCH  43  47
ENDBRANCH  26  40
BRANCH  27  51
ATOM     51  C   UNL A   1      48.089  27.290  26.351  1.00  0.00     0.023 A 
ATOM     52  C   UNL A   1      48.249  27.565  24.977  1.00  0.00     0.031 A 
ATOM     53  C   UNL A   1      49.128  26.614  27.009  1.00  0.00     0.131 A 
ATOM     54  C   UNL A   1      49.376  27.093  24.292  1.00  0.00     0.055 A 
ATOM     55  C   UNL A   1      50.289  26.218  26.339  1.00  0.00     0.041 A 
ATOM     56  F   UNL A   1      49.019  26.306  28.310  1.00  0.00    -0.206 F 
ATOM     57  C   UNL A   1      50.407  26.438  24.970  1.00  0.00     0.022 A 
BRANCH  54  58
ATOM     58  S   UNL A   1      49.459  27.169  22.480  1.00  0.00     0.124 S 
ATOM     59  O   UNL A   1      48.859  28.470  22.203  1.00  0.00    -0.237 OA
ATOM     60  O   UNL A   1      50.897  27.072  22.239  1.00  0.00    -0.237 OA
ATOM     61  O   UNL A   1      48.683  26.010  22.050  1.00  0.00    -0.744 OA
ENDBRANCH  54  58
ENDBRANCH  27  51
BRANCH  39  62
ATOM     62  C   UNL A   1      45.491  32.520  30.295  1.00  0.00     0.023 A 
ATOM     63  C   UNL A   1      46.131  32.599  31.546  1.00  0.00     0.031 A 
ATOM     64  C   UNL A   1      45.235  33.713  29.599  1.00  0.00     0.131 A 
ATOM     65  C   UNL A   1      46.435  33.849  32.093  1.00  0.00     0.055 A 
ATOM     66  C   UNL A   1      45.608  34.952  30.116  1.00  0.00     0.041 A 
ATOM     67  F   UNL A   1      44.613  33.689  28.409  1.00  0.00    -0.206 F 
ATOM     68  C   UNL A   1      46.191  35.025  31.377  1.00  0.00     0.022 A 
BRANCH  65  69
ATOM     69  S   UNL A   1      47.031  33.996  33.799  1.00  0.00     0.124 S 
ATOM     70  O   UNL A   1      48.478  34.056  33.608  1.00  0.00    -0.237 OA
ATOM     71  O   UNL A   1      46.407  35.243  34.234  1.00  0.00    -0.237 OA
ATOM     72  O   UNL A   1      46.538  32.789  34.451  1.00  0.00    -0.744 OA
ENDBRANCH  65  69
ENDBRANCH  39  62
ENDBRANCH  13  14
ENDBRANCH   6   8
ENDBRANCH   5   6
ENDBRANCH   4   5
ENDBRANCH   3   4
ENDBRANCH   2   3
ENDBRANCH   1   2
BRANCH   1  73
ATOM     73  C   UNL A   1      34.477  22.867  25.143  1.00  0.00     0.188 C 
BRANCH  73  74
ATOM     74  O   UNL A   1      33.463  22.012  25.644  1.00  0.00    -0.376 OA
BRANCH  74  75
ATOM     75  C   UNL A   1      32.195  21.961  25.006  1.00  0.00     0.202 C 
BRANCH  75  76
ATOM     76  C   UNL A   1      31.030  22.873  25.428  1.00  0.00     0.261 C 
BRANCH  76  77
ATOM     77  O   UNL A   1      30.768  24.049  24.648  1.00  0.00    -0.459 OA
BRANCH  77  78
ATOM     78  C   UNL A   1      30.708  25.184  25.397  1.00  0.00     0.365 C 
ATOM     79  O   UNL A   1      30.688  25.165  26.626  1.00  0.00    -0.245 OA
BRANCH  78  80
ATOM     80  C   UNL A   1      30.640  26.486  24.596  1.00  0.00     0.300 C 
ATOM     81  C   UNL A   1      29.189  26.766  24.155  1.00  0.00     0.113 C 
ATOM     82  N   UNL A   1      31.250  27.632  25.328  1.00  0.00    -0.315 N 
ATOM     83  C   UNL A   1      29.038  28.098  23.464  1.00  0.00    -0.033 A 
ATOM     84  C   UNL A   1      31.238  28.835  24.469  1.00  0.00     0.300 C 
ATOM     85  H   UNL A   1      30.672  27.774  26.157  1.00  0.00     0.349 HD
ATOM     86  C   UNL A   1      27.948  28.374  22.630  1.00  0.00     0.006 A 
ATOM     87  C   UNL A   1      29.951  29.116  23.736  1.00  0.00     0.011 A 
ATOM     88  C   UNL A   1      27.697  29.672  22.169  1.00  0.00     0.021 A 
ATOM     89  C   UNL A   1      29.723  30.395  23.204  1.00  0.00     0.030 A 
ATOM     90  C   UNL A   1      28.581  30.689  22.478  1.00  0.00     0.041 A 
ATOM     91  Cl  UNL A   1      28.293  32.294  21.938  1.00  0.00    -0.084 Cl
BRANCH  82  92
ATOM     92  C   UNL A   1      32.627  27.380  25.853  1.00  0.00     0.300 C 
BRANCH  92  93
ATOM     93  C   UNL A   1      33.241  28.512  26.667  1.00  0.00     0.006 A 
ATOM     94  C   UNL A   1      32.461  29.588  27.108  1.00  0.00     0.011 A 
ATOM     95  C   UNL A   1      34.628  28.585  26.854  1.00  0.00     0.011 A 
ATOM     96  C   UNL A   1      33.063  30.795  27.472  1.00  0.00     0.021 A 
ATOM     97  C   UNL A   1      35.236  29.789  27.211  1.00  0.00     0.021 A 
ATOM     98  C   UNL A   1      34.449  30.903  27.471  1.00  0.00     0.041 A 
ATOM     99  Cl  UNL A   1      35.193  32.426  27.768  1.00  0.00    -0.084 Cl
ENDBRANCH  92  93
ENDBRANCH  82  92
ENDBRANCH  78  80
ENDBRANCH  77  78
ENDBRANCH  76  77
ENDBRANCH  75  76
ENDBRANCH  74  75
ENDBRANCH  73  74
ENDBRANCH   1  73
TORSDOF 22
ENDMDL
