MODEL 1
REMARK VINA RESULT:      -7.7      0.000      0.000
REMARK SMILES COc1ccc([C@@H]2[C@@H](C(=O)c3cccc4c3CCCC4)[C@H](C(=O)OCCOCCOCCOC(=O)c3ccc(-c4c5nc(c(-c6cc(S(=O)(=O)[O-])ccc6F)c6ccc([nH]6)c(-c6cc(S(=O)(=O)[O-])ccc6F)c6nc(c(-c7cc(S(=O)(=O)[O-])ccc7F)c7ccc4[nH]7)C=C6)C=C5)cc3)SC3=NC(=O)S[C@H]32)cc1
REMARK SMILES IDX 29 1 28 2 27 3 26 4 25 5 24 6 22 7 23 8 21 9 7 10 8 11
REMARK SMILES IDX 105 12 100 13 104 14 99 15 101 16 102 17 103 18 6 19 3 20
REMARK SMILES IDX 4 21 107 22 5 23 106 24 2 25 1 26 9 27 10 28 11 29 12 30
REMARK SMILES IDX 16 31 13 32 15 33 17 34 14 35 20 36 18 37 19 38 30 39 31 40
REMARK SMILES IDX 32 41 33 42 34 43 35 44 36 45 37 46 98 47 38 48 97 49 39 50
REMARK SMILES IDX 40 51 41 52 91 53 42 54 96 55 90 56 92 57 43 58 95 59 89 60
REMARK SMILES IDX 88 61 44 63 76 64 56 65 75 66 57 67 60 68 74 69 93 70 58 71
REMARK SMILES IDX 59 72 73 74 94 75 61 76 45 77 46 78 54 79 47 80 53 81 55 82
REMARK SMILES IDX 52 83 48 84 49 85 50 86 51 87 77 88 78 89 86 90 79 91 85 92
REMARK SMILES IDX 87 93 84 94 80 95 81 96 82 97 83 98 62 99 63 100 71 101
REMARK SMILES IDX 64 102 70 103 72 104 69 105 65 106 66 107 67 108 68 109
REMARK H PARENT 92 62 60 73
REMARK Flexibility Score: inf
ROOT
ATOM      1  C   UNL A   1      41.933  21.284  26.949  1.00  0.00     0.188 C 
ENDROOT
BRANCH   1   2
ATOM      2  C   UNL A   1      42.623  20.100  26.262  1.00  0.00     0.188 C 
BRANCH   2   3
ATOM      3  O   UNL A   1      43.351  20.363  25.065  1.00  0.00    -0.376 OA
BRANCH   3   4
ATOM      4  C   UNL A   1      44.760  20.182  25.070  1.00  0.00     0.202 C 
BRANCH   4   5
ATOM      5  C   UNL A   1      45.618  21.446  25.174  1.00  0.00     0.261 C 
BRANCH   5   6
ATOM      6  O   UNL A   1      45.816  21.977  26.511  1.00  0.00    -0.462 OA
BRANCH   6   7
ATOM      7  C   UNL A   1      45.584  23.315  26.656  1.00  0.00     0.320 C 
ATOM      8  O   UNL A   1      45.448  24.082  25.708  1.00  0.00    -0.251 OA
BRANCH   7   9
ATOM      9  C   UNL A   1      45.735  23.841  28.098  1.00  0.00     0.174 C 
ATOM     10  C   UNL A   1      46.349  25.786  29.806  1.00  0.00     0.052 C 
ATOM     11  C   UNL A   1      46.435  25.198  28.347  1.00  0.00     0.095 C 
ATOM     12  C   UNL A   1      44.945  25.773  30.426  1.00  0.00     0.121 C 
ATOM     13  C   UNL A   1      44.412  24.377  30.338  1.00  0.00     0.093 C 
ATOM     14  S   UNL A   1      44.980  26.021  32.236  1.00  0.00    -0.052 SA
ATOM     15  S   UNL A   1      44.006  23.818  28.760  1.00  0.00    -0.093 SA
ATOM     16  N   UNL A   1      44.333  23.615  31.371  1.00  0.00    -0.200 NA
ATOM     17  C   UNL A   1      44.733  24.288  32.495  1.00  0.00     0.306 C 
ATOM     18  O   UNL A   1      44.927  23.782  33.584  1.00  0.00    -0.259 OA
BRANCH  10  19
ATOM     19  C   UNL A   1      46.968  27.190  29.859  1.00  0.00    -0.042 A 
ATOM     20  C   UNL A   1      47.952  29.797  30.189  1.00  0.00     0.118 A 
ATOM     21  C   UNL A   1      46.648  29.602  29.754  1.00  0.00     0.047 A 
ATOM     22  C   UNL A   1      48.774  28.707  30.461  1.00  0.00     0.047 A 
ATOM     23  C   UNL A   1      46.167  28.306  29.561  1.00  0.00     0.008 A 
ATOM     24  C   UNL A   1      48.286  27.406  30.292  1.00  0.00     0.008 A 
BRANCH  20  25
ATOM     25  O   UNL A   1      48.357  31.083  30.421  1.00  0.00    -0.497 OA
ATOM     26  C   UNL A   1      47.308  31.859  30.994  1.00  0.00     0.278 C 
ENDBRANCH  20  25
ENDBRANCH  10  19
BRANCH  11  27
ATOM     27  C   UNL A   1      47.931  25.169  28.023  1.00  0.00     0.168 C 
ATOM     28  O   UNL A   1      48.729  24.875  28.915  1.00  0.00    -0.294 OA
BRANCH  27  29
ATOM     29  C   UNL A   1      48.426  25.441  26.595  1.00  0.00     0.021 A 
ATOM     30  C   UNL A   1      49.797  25.714  26.595  1.00  0.00     0.012 A 
ATOM     31  C   UNL A   1      47.657  26.418  25.993  1.00  0.00    -0.034 A 
ATOM     32  C   UNL A   1      50.200  27.044  26.577  1.00  0.00     0.001 A 
ATOM     33  C   UNL A   1      47.869  27.696  26.468  1.00  0.00    -0.044 A 
ATOM     34  C   UNL A   1      47.301  26.433  24.497  1.00  0.00     0.036 C 
ATOM     35  C   UNL A   1      49.215  28.038  26.611  1.00  0.00     0.004 A 
ATOM     36  C   UNL A   1      46.648  28.548  26.359  1.00  0.00     0.036 C 
ATOM     37  C   UNL A   1      47.085  27.875  23.953  1.00  0.00     0.005 C 
ATOM     38  C   UNL A   1      46.267  28.759  24.902  1.00  0.00     0.005 C 
ENDBRANCH  27  29
ENDBRANCH  11  27
ENDBRANCH   7   9
ENDBRANCH   6   7
ENDBRANCH   5   6
ENDBRANCH   4   5
ENDBRANCH   3   4
ENDBRANCH   2   3
ENDBRANCH   1   2
BRANCH   1  39
ATOM     39  O   UNL A   1      40.520  21.194  26.818  1.00  0.00    -0.376 OA
BRANCH  39  40
ATOM     40  C   UNL A   1      39.839  22.411  26.579  1.00  0.00     0.202 C 
BRANCH  40  41
ATOM     41  C   UNL A   1      40.400  23.612  27.347  1.00  0.00     0.261 C 
BRANCH  41  42
ATOM     42  O   UNL A   1      40.431  24.813  26.551  1.00  0.00    -0.460 OA
BRANCH  42  43
ATOM     43  C   UNL A   1      41.618  25.198  26.020  1.00  0.00     0.338 C 
ATOM     44  O   UNL A   1      42.322  24.528  25.284  1.00  0.00    -0.246 OA
BRANCH  43  45
ATOM     45  C   UNL A   1      41.997  26.552  26.526  1.00  0.00     0.060 A 
ATOM     46  C   UNL A   1      43.008  26.715  27.461  1.00  0.00     0.016 A 
ATOM     47  C   UNL A   1      41.303  27.697  26.106  1.00  0.00     0.016 A 
ATOM     48  C   UNL A   1      43.285  27.985  27.980  1.00  0.00     0.010 A 
ATOM     49  C   UNL A   1      41.597  28.975  26.645  1.00  0.00     0.010 A 
ATOM     50  C   UNL A   1      42.584  29.132  27.624  1.00  0.00    -0.014 A 
BRANCH  50  51
ATOM     51  C   UNL A   1      42.800  30.349  28.481  1.00  0.00     0.031 A 
ATOM     52  C   UNL A   1      43.768  31.406  28.012  1.00  0.00     0.074 A 
ATOM     53  C   UNL A   1      41.971  30.688  29.498  1.00  0.00     0.049 A 
ATOM     54  N   UNL A   1      44.199  32.471  28.640  1.00  0.00    -0.248 NA
ATOM     55  C   UNL A   1      44.295  31.261  26.647  1.00  0.00     0.031 C 
ATOM     56  C   UNL A   1      40.807  29.914  29.925  1.00  0.00     0.029 A 
ATOM     57  N   UNL A   1      41.912  31.818  30.290  1.00  0.00    -0.354 N 
ATOM     58  C   UNL A   1      45.128  33.062  27.793  1.00  0.00     0.074 A 
ATOM     59  C   UNL A   1      45.136  32.282  26.572  1.00  0.00     0.031 C 
ATOM     60  C   UNL A   1      40.090  30.645  30.798  1.00  0.00     0.029 A 
ATOM     61  C   UNL A   1      40.809  31.876  31.118  1.00  0.00     0.049 A 
ATOM     62  H   UNL A   1      42.599  32.524  30.264  1.00  0.00     0.167 HD
ATOM     63  C   UNL A   1      45.942  34.116  28.045  1.00  0.00     0.034 A 
ATOM     64  C   UNL A   1      40.439  32.781  32.057  1.00  0.00     0.034 A 
ATOM     65  C   UNL A   1      45.887  34.907  29.251  1.00  0.00     0.049 A 
ATOM     66  C   UNL A   1      41.415  33.889  32.396  1.00  0.00     0.074 A 
ATOM     67  C   UNL A   1      46.765  35.883  29.691  1.00  0.00     0.029 A 
ATOM     68  N   UNL A   1      44.877  34.831  30.199  1.00  0.00    -0.354 N 
ATOM     69  N   UNL A   1      42.497  34.266  31.756  1.00  0.00    -0.248 NA
ATOM     70  C   UNL A   1      41.164  34.639  33.637  1.00  0.00     0.031 C 
ATOM     71  C   UNL A   1      46.320  36.350  30.935  1.00  0.00     0.029 A 
ATOM     72  C   UNL A   1      45.126  35.719  31.236  1.00  0.00     0.049 A 
ATOM     73  H   UNL A   1      44.096  34.234  30.145  1.00  0.00     0.167 HD
ATOM     74  C   UNL A   1      43.075  35.263  32.541  1.00  0.00     0.074 A 
ATOM     75  C   UNL A   1      42.182  35.485  33.658  1.00  0.00     0.031 C 
ATOM     76  C   UNL A   1      44.258  35.907  32.375  1.00  0.00     0.034 A 
BRANCH  63  77
ATOM     77  C   UNL A   1      47.083  34.331  27.086  1.00  0.00     0.023 A 
ATOM     78  C   UNL A   1      48.221  33.512  27.044  1.00  0.00     0.031 A 
ATOM     79  C   UNL A   1      47.037  35.449  26.231  1.00  0.00     0.131 A 
ATOM     80  C   UNL A   1      49.290  33.857  26.200  1.00  0.00     0.055 A 
ATOM     81  C   UNL A   1      48.071  35.747  25.346  1.00  0.00     0.041 A 
ATOM     82  F   UNL A   1      45.986  36.286  26.259  1.00  0.00    -0.206 F 
ATOM     83  C   UNL A   1      49.213  34.954  25.336  1.00  0.00     0.022 A 
BRANCH  80  84
ATOM     84  S   UNL A   1      50.849  32.940  26.345  1.00  0.00     0.124 S 
ATOM     85  O   UNL A   1      50.433  31.588  25.980  1.00  0.00    -0.237 OA
ATOM     86  O   UNL A   1      51.707  33.625  25.385  1.00  0.00    -0.237 OA
ATOM     87  O   UNL A   1      51.220  33.112  27.748  1.00  0.00    -0.744 OA
ENDBRANCH  80  84
ENDBRANCH  63  77
BRANCH  64  88
ATOM     88  C   UNL A   1      39.176  32.633  32.863  1.00  0.00     0.023 A 
ATOM     89  C   UNL A   1      37.971  33.249  32.463  1.00  0.00     0.031 A 
ATOM     90  C   UNL A   1      39.170  31.970  34.104  1.00  0.00     0.131 A 
ATOM     91  C   UNL A   1      36.840  33.206  33.301  1.00  0.00     0.055 A 
ATOM     92  C   UNL A   1      38.021  31.851  34.888  1.00  0.00     0.041 A 
ATOM     93  F   UNL A   1      40.296  31.425  34.592  1.00  0.00    -0.206 F 
ATOM     94  C   UNL A   1      36.849  32.483  34.493  1.00  0.00     0.022 A 
BRANCH  91  95
ATOM     95  S   UNL A   1      35.392  34.224  32.889  1.00  0.00     0.124 S 
ATOM     96  O   UNL A   1      35.972  35.561  32.849  1.00  0.00    -0.237 OA
ATOM     97  O   UNL A   1      34.978  33.662  31.608  1.00  0.00    -0.237 OA
ATOM     98  O   UNL A   1      34.474  33.977  34.001  1.00  0.00    -0.744 OA
ENDBRANCH  91  95
ENDBRANCH  64  88
BRANCH  76  99
ATOM     99  C   UNL A   1      44.670  36.884  33.451  1.00  0.00     0.023 A 
ATOM    100  C   UNL A   1      45.427  36.465  34.562  1.00  0.00     0.031 A 
ATOM    101  C   UNL A   1      44.301  38.237  33.377  1.00  0.00     0.131 A 
ATOM    102  C   UNL A   1      45.746  37.377  35.579  1.00  0.00     0.055 A 
ATOM    103  C   UNL A   1      44.666  39.153  34.368  1.00  0.00     0.041 A 
ATOM    104  F   UNL A   1      43.580  38.694  32.341  1.00  0.00    -0.206 F 
ATOM    105  C   UNL A   1      45.381  38.722  35.482  1.00  0.00     0.022 A 
BRANCH 102 106
ATOM    106  S   UNL A   1      46.579  36.768  37.072  1.00  0.00     0.124 S 
ATOM    107  O   UNL A   1      45.878  35.513  37.322  1.00  0.00    -0.237 OA
ATOM    108  O   UNL A   1      47.964  36.648  36.631  1.00  0.00    -0.237 OA
ATOM    109  O   UNL A   1      46.334  37.821  38.057  1.00  0.00    -0.744 OA
ENDBRANCH 102 106
ENDBRANCH  76  99
ENDBRANCH  50  51
ENDBRANCH  43  45
ENDBRANCH  42  43
ENDBRANCH  41  42
ENDBRANCH  40  41
ENDBRANCH  39  40
ENDBRANCH   1  39
TORSDOF 24
ENDMDL
MODEL 2
REMARK VINA RESULT:      -7.6      5.074     12.559
REMARK SMILES COc1ccc([C@@H]2[C@@H](C(=O)c3cccc4c3CCCC4)[C@H](C(=O)OCCOCCOCCOC(=O)c3ccc(-c4c5nc(c(-c6cc(S(=O)(=O)[O-])ccc6F)c6ccc([nH]6)c(-c6cc(S(=O)(=O)[O-])ccc6F)c6nc(c(-c7cc(S(=O)(=O)[O-])ccc7F)c7ccc4[nH]7)C=C6)C=C5)cc3)SC3=NC(=O)S[C@H]32)cc1
REMARK SMILES IDX 29 1 28 2 27 3 26 4 25 5 24 6 22 7 23 8 21 9 7 10 8 11
REMARK SMILES IDX 105 12 100 13 104 14 99 15 101 16 102 17 103 18 6 19 3 20
REMARK SMILES IDX 4 21 107 22 5 23 106 24 2 25 1 26 9 27 10 28 11 29 12 30
REMARK SMILES IDX 16 31 13 32 15 33 17 34 14 35 20 36 18 37 19 38 30 39 31 40
REMARK SMILES IDX 32 41 33 42 34 43 35 44 36 45 37 46 98 47 38 48 97 49 39 50
REMARK SMILES IDX 40 51 41 52 91 53 42 54 96 55 90 56 92 57 43 58 95 59 89 60
REMARK SMILES IDX 88 61 44 63 76 64 56 65 75 66 57 67 60 68 74 69 93 70 58 71
REMARK SMILES IDX 59 72 73 74 94 75 61 76 45 77 46 78 54 79 47 80 53 81 55 82
REMARK SMILES IDX 52 83 48 84 49 85 50 86 51 87 77 88 78 89 86 90 79 91 85 92
REMARK SMILES IDX 87 93 84 94 80 95 81 96 82 97 83 98 62 99 63 100 71 101
REMARK SMILES IDX 64 102 70 103 72 104 69 105 65 106 66 107 67 108 68 109
REMARK H PARENT 92 62 60 73
REMARK Flexibility Score: inf
ROOT
ATOM      1  C   UNL A   1      41.913  26.444  36.967  1.00  0.00     0.188 C 
ENDROOT
BRANCH   1   2
ATOM      2  C   UNL A   1      41.758  27.061  35.572  1.00  0.00     0.188 C 
BRANCH   2   3
ATOM      3  O   UNL A   1      42.900  27.698  35.002  1.00  0.00    -0.376 OA
BRANCH   3   4
ATOM      4  C   UNL A   1      42.866  29.104  34.799  1.00  0.00     0.202 C 
BRANCH   4   5
ATOM      5  C   UNL A   1      42.483  29.589  33.398  1.00  0.00     0.261 C 
BRANCH   5   6
ATOM      6  O   UNL A   1      41.499  28.788  32.690  1.00  0.00    -0.462 OA
BRANCH   6   7
ATOM      7  C   UNL A   1      40.202  28.972  33.072  1.00  0.00     0.320 C 
ATOM      8  O   UNL A   1      39.418  28.048  33.264  1.00  0.00    -0.251 OA
BRANCH   7   9
ATOM      9  C   UNL A   1      39.718  30.436  33.024  1.00  0.00     0.174 C 
ATOM     10  C   UNL A   1      38.129  32.323  32.029  1.00  0.00     0.052 C 
ATOM     11  C   UNL A   1      38.768  30.890  31.890  1.00  0.00     0.095 C 
ATOM     12  C   UNL A   1      37.524  32.630  33.406  1.00  0.00     0.121 C 
ATOM     13  C   UNL A   1      38.572  32.367  34.442  1.00  0.00     0.093 C 
ATOM     14  S   UNL A   1      37.227  34.416  33.654  1.00  0.00    -0.052 SA
ATOM     15  S   UNL A   1      38.985  30.716  34.701  1.00  0.00    -0.093 SA
ATOM     16  N   UNL A   1      39.181  33.324  35.049  1.00  0.00    -0.200 NA
ATOM     17  C   UNL A   1      38.683  34.537  34.652  1.00  0.00     0.306 C 
ATOM     18  O   UNL A   1      39.171  35.618  34.922  1.00  0.00    -0.259 OA
BRANCH  10  19
ATOM     19  C   UNL A   1      37.112  32.571  30.907  1.00  0.00    -0.042 A 
ATOM     20  C   UNL A   1      35.111  33.182  29.035  1.00  0.00     0.118 A 
ATOM     21  C   UNL A   1      34.843  32.289  30.065  1.00  0.00     0.047 A 
ATOM     22  C   UNL A   1      36.366  33.773  28.926  1.00  0.00     0.047 A 
ATOM     23  C   UNL A   1      35.847  31.962  30.979  1.00  0.00     0.008 A 
ATOM     24  C   UNL A   1      37.366  33.466  29.855  1.00  0.00     0.008 A 
BRANCH  20  25
ATOM     25  O   UNL A   1      34.079  33.517  28.203  1.00  0.00    -0.497 OA
ATOM     26  C   UNL A   1      33.579  34.818  28.498  1.00  0.00     0.278 C 
ENDBRANCH  20  25
ENDBRANCH  10  19
BRANCH  11  27
ATOM     27  C   UNL A   1      39.436  30.890  30.513  1.00  0.00     0.168 C 
ATOM     28  O   UNL A   1      40.474  31.532  30.353  1.00  0.00    -0.294 OA
BRANCH  27  29
ATOM     29  C   UNL A   1      38.854  30.052  29.364  1.00  0.00     0.021 A 
ATOM     30  C   UNL A   1      37.954  29.103  29.857  1.00  0.00     0.012 A 
ATOM     31  C   UNL A   1      39.867  29.520  28.590  1.00  0.00    -0.034 A 
ATOM     32  C   UNL A   1      38.414  27.807  30.058  1.00  0.00     0.001 A 
ATOM     33  C   UNL A   1      40.568  28.490  29.182  1.00  0.00    -0.044 A 
ATOM     34  C   UNL A   1      39.775  29.326  27.067  1.00  0.00     0.036 C 
ATOM     35  C   UNL A   1      39.763  27.534  29.804  1.00  0.00     0.004 A 
ATOM     36  C   UNL A   1      41.981  28.421  28.705  1.00  0.00     0.036 C 
ATOM     37  C   UNL A   1      40.647  28.138  26.566  1.00  0.00     0.005 C 
ATOM     38  C   UNL A   1      42.032  28.092  27.221  1.00  0.00     0.005 C 
ENDBRANCH  27  29
ENDBRANCH  11  27
ENDBRANCH   7   9
ENDBRANCH   6   7
ENDBRANCH   5   6
ENDBRANCH   4   5
ENDBRANCH   3   4
ENDBRANCH   2   3
ENDBRANCH   1   2
BRANCH   1  39
ATOM     39  O   UNL A   1      43.279  26.409  37.358  1.00  0.00    -0.376 OA
BRANCH  39  40
ATOM     40  C   UNL A   1      43.853  25.123  37.495  1.00  0.00     0.202 C 
BRANCH  40  41
ATOM     41  C   UNL A   1      45.138  25.090  38.328  1.00  0.00     0.261 C 
BRANCH  41  42
ATOM     42  O   UNL A   1      46.328  25.150  37.515  1.00  0.00    -0.460 OA
BRANCH  42  43
ATOM     43  C   UNL A   1      46.719  26.359  37.041  1.00  0.00     0.338 C 
ATOM     44  O   UNL A   1      46.443  27.441  37.530  1.00  0.00    -0.246 OA
BRANCH  43  45
ATOM     45  C   UNL A   1      47.484  26.192  35.768  1.00  0.00     0.060 A 
ATOM     46  C   UNL A   1      48.318  27.193  35.293  1.00  0.00     0.016 A 
ATOM     47  C   UNL A   1      47.342  25.034  34.990  1.00  0.00     0.016 A 
ATOM     48  C   UNL A   1      48.958  27.044  34.057  1.00  0.00     0.010 A 
ATOM     49  C   UNL A   1      47.998  24.903  33.739  1.00  0.00     0.010 A 
ATOM     50  C   UNL A   1      48.800  25.933  33.237  1.00  0.00    -0.014 A 
BRANCH  50  51
ATOM     51  C   UNL A   1      49.310  26.056  31.828  1.00  0.00     0.031 A 
ATOM     52  C   UNL A   1      50.794  25.952  31.579  1.00  0.00     0.074 A 
ATOM     53  C   UNL A   1      48.501  25.965  30.743  1.00  0.00     0.049 A 
ATOM     54  N   UNL A   1      51.463  26.146  30.471  1.00  0.00    -0.248 NA
ATOM     55  C   UNL A   1      51.627  25.545  32.720  1.00  0.00     0.031 C 
ATOM     56  C   UNL A   1      47.051  25.789  30.790  1.00  0.00     0.029 A 
ATOM     57  N   UNL A   1      48.788  25.904  29.394  1.00  0.00    -0.354 N 
ATOM     58  C   UNL A   1      52.803  25.994  30.805  1.00  0.00     0.074 A 
ATOM     59  C   UNL A   1      52.845  25.609  32.201  1.00  0.00     0.031 C 
ATOM     60  C   UNL A   1      46.602  25.514  29.552  1.00  0.00     0.029 A 
ATOM     61  C   UNL A   1      47.694  25.643  28.591  1.00  0.00     0.049 A 
ATOM     62  H   UNL A   1      49.696  26.034  29.034  1.00  0.00     0.167 HD
ATOM     63  C   UNL A   1      53.892  26.223  30.030  1.00  0.00     0.034 A 
ATOM     64  C   UNL A   1      47.570  25.562  27.244  1.00  0.00     0.034 A 
ATOM     65  C   UNL A   1      53.827  26.562  28.630  1.00  0.00     0.049 A 
ATOM     66  C   UNL A   1      48.774  25.927  26.398  1.00  0.00     0.074 A 
ATOM     67  C   UNL A   1      54.845  26.981  27.789  1.00  0.00     0.029 A 
ATOM     68  N   UNL A   1      52.681  26.494  27.852  1.00  0.00    -0.354 N 
ATOM     69  N   UNL A   1      50.023  26.095  26.763  1.00  0.00    -0.248 NA
ATOM     70  C   UNL A   1      48.530  26.175  24.969  1.00  0.00     0.031 C 
ATOM     71  C   UNL A   1      54.300  27.227  26.522  1.00  0.00     0.029 A 
ATOM     72  C   UNL A   1      52.958  26.892  26.552  1.00  0.00     0.049 A 
ATOM     73  H   UNL A   1      51.797  26.205  28.176  1.00  0.00     0.167 HD
ATOM     74  C   UNL A   1      50.700  26.512  25.617  1.00  0.00     0.074 A 
ATOM     75  C   UNL A   1      49.740  26.492  24.535  1.00  0.00     0.031 C 
ATOM     76  C   UNL A   1      51.989  26.916  25.482  1.00  0.00     0.034 A 
BRANCH  63  77
ATOM     77  C   UNL A   1      55.217  26.310  30.740  1.00  0.00     0.023 A 
ATOM     78  C   UNL A   1      56.071  25.211  30.917  1.00  0.00     0.031 A 
ATOM     79  C   UNL A   1      55.591  27.541  31.313  1.00  0.00     0.131 A 
ATOM     80  C   UNL A   1      57.232  25.357  31.696  1.00  0.00     0.055 A 
ATOM     81  C   UNL A   1      56.778  27.695  32.025  1.00  0.00     0.041 A 
ATOM     82  F   UNL A   1      54.790  28.614  31.203  1.00  0.00    -0.206 F 
ATOM     83  C   UNL A   1      57.602  26.595  32.231  1.00  0.00     0.022 A 
BRANCH  80  84
ATOM     84  S   UNL A   1      58.186  23.874  32.128  1.00  0.00     0.124 S 
ATOM     85  O   UNL A   1      57.308  23.231  33.104  1.00  0.00    -0.237 OA
ATOM     86  O   UNL A   1      58.315  23.198  30.843  1.00  0.00    -0.237 OA
ATOM     87  O   UNL A   1      59.428  24.413  32.678  1.00  0.00    -0.744 OA
ENDBRANCH  80  84
ENDBRANCH  63  77
BRANCH  64  88
ATOM     88  C   UNL A   1      46.254  25.271  26.574  1.00  0.00     0.023 A 
ATOM     89  C   UNL A   1      45.868  23.953  26.250  1.00  0.00     0.031 A 
ATOM     90  C   UNL A   1      45.405  26.307  26.142  1.00  0.00     0.131 A 
ATOM     91  C   UNL A   1      44.696  23.719  25.506  1.00  0.00     0.055 A 
ATOM     92  C   UNL A   1      44.197  26.065  25.486  1.00  0.00     0.041 A 
ATOM     93  F   UNL A   1      45.740  27.592  26.342  1.00  0.00    -0.206 F 
ATOM     94  C   UNL A   1      43.842  24.765  25.152  1.00  0.00     0.022 A 
BRANCH  91  95
ATOM     95  S   UNL A   1      44.361  22.047  24.877  1.00  0.00     0.124 S 
ATOM     96  O   UNL A   1      45.437  21.279  25.494  1.00  0.00    -0.237 OA
ATOM     97  O   UNL A   1      43.017  21.793  25.384  1.00  0.00    -0.237 OA
ATOM     98  O   UNL A   1      44.460  22.201  23.427  1.00  0.00    -0.744 OA
ENDBRANCH  91  95
ENDBRANCH  64  88
BRANCH  76  99
ATOM     99  C   UNL A   1      52.420  27.406  24.120  1.00  0.00     0.023 A 
ATOM    100  C   UNL A   1      52.293  28.763  23.762  1.00  0.00     0.031 A 
ATOM    101  C   UNL A   1      52.951  26.521  23.168  1.00  0.00     0.131 A 
ATOM    102  C   UNL A   1      52.644  29.184  22.471  1.00  0.00     0.055 A 
ATOM    103  C   UNL A   1      53.348  26.956  21.900  1.00  0.00     0.041 A 
ATOM    104  F   UNL A   1      53.096  25.218  23.454  1.00  0.00    -0.206 F 
ATOM    105  C   UNL A   1      53.183  28.291  21.542  1.00  0.00     0.022 A 
BRANCH 102 106
ATOM    106  S   UNL A   1      52.314  30.903  21.991  1.00  0.00     0.124 S 
ATOM    107  O   UNL A   1      51.296  30.742  20.958  1.00  0.00    -0.237 OA
ATOM    108  O   UNL A   1      51.861  31.496  23.245  1.00  0.00    -0.237 OA
ATOM    109  O   UNL A   1      53.611  31.382  21.514  1.00  0.00    -0.744 OA
ENDBRANCH 102 106
ENDBRANCH  76  99
ENDBRANCH  50  51
ENDBRANCH  43  45
ENDBRANCH  42  43
ENDBRANCH  41  42
ENDBRANCH  40  41
ENDBRANCH  39  40
ENDBRANCH   1  39
TORSDOF 24
ENDMDL
MODEL 3
REMARK VINA RESULT:      -7.3      4.916     11.673
REMARK SMILES COc1ccc([C@@H]2[C@@H](C(=O)c3cccc4c3CCCC4)[C@H](C(=O)OCCOCCOCCOC(=O)c3ccc(-c4c5nc(c(-c6cc(S(=O)(=O)[O-])ccc6F)c6ccc([nH]6)c(-c6cc(S(=O)(=O)[O-])ccc6F)c6nc(c(-c7cc(S(=O)(=O)[O-])ccc7F)c7ccc4[nH]7)C=C6)C=C5)cc3)SC3=NC(=O)S[C@H]32)cc1
REMARK SMILES IDX 29 1 28 2 27 3 26 4 25 5 24 6 22 7 23 8 21 9 7 10 8 11
REMARK SMILES IDX 105 12 100 13 104 14 99 15 101 16 102 17 103 18 6 19 3 20
REMARK SMILES IDX 4 21 107 22 5 23 106 24 2 25 1 26 9 27 10 28 11 29 12 30
REMARK SMILES IDX 16 31 13 32 15 33 17 34 14 35 20 36 18 37 19 38 30 39 31 40
REMARK SMILES IDX 32 41 33 42 34 43 35 44 36 45 37 46 98 47 38 48 97 49 39 50
REMARK SMILES IDX 40 51 41 52 91 53 42 54 96 55 90 56 92 57 43 58 95 59 89 60
REMARK SMILES IDX 88 61 44 63 76 64 56 65 75 66 57 67 60 68 74 69 93 70 58 71
REMARK SMILES IDX 59 72 73 74 94 75 61 76 45 77 46 78 54 79 47 80 53 81 55 82
REMARK SMILES IDX 52 83 48 84 49 85 50 86 51 87 77 88 78 89 86 90 79 91 85 92
REMARK SMILES IDX 87 93 84 94 80 95 81 96 82 97 83 98 62 99 63 100 71 101
REMARK SMILES IDX 64 102 70 103 72 104 69 105 65 106 66 107 67 108 68 109
REMARK H PARENT 92 62 60 73
REMARK Flexibility Score: inf
ROOT
ATOM      1  C   UNL A   1      35.202  23.902  24.704  1.00  0.00     0.188 C 
ENDROOT
BRANCH   1   2
ATOM      2  C   UNL A   1      34.135  24.815  25.318  1.00  0.00     0.188 C 
BRANCH   2   3
ATOM      3  O   UNL A   1      34.387  26.219  25.316  1.00  0.00    -0.376 OA
BRANCH   3   4
ATOM      4  C   UNL A   1      33.552  27.062  26.099  1.00  0.00     0.202 C 
BRANCH   4   5
ATOM      5  C   UNL A   1      34.050  28.489  26.343  1.00  0.00     0.261 C 
BRANCH   5   6
ATOM      6  O   UNL A   1      35.029  28.653  27.404  1.00  0.00    -0.462 OA
BRANCH   6   7
ATOM      7  C   UNL A   1      35.429  29.936  27.646  1.00  0.00     0.320 C 
ATOM      8  O   UNL A   1      34.767  30.920  27.329  1.00  0.00    -0.251 OA
BRANCH   7   9
ATOM      9  C   UNL A   1      36.884  30.073  28.140  1.00  0.00     0.174 C 
ATOM     10  C   UNL A   1      38.648  30.368  30.109  1.00  0.00     0.052 C 
ATOM     11  C   UNL A   1      37.157  30.473  29.609  1.00  0.00     0.095 C 
ATOM     12  C   UNL A   1      39.355  29.052  29.759  1.00  0.00     0.121 C 
ATOM     13  C   UNL A   1      39.229  28.836  28.283  1.00  0.00     0.093 C 
ATOM     14  S   UNL A   1      41.169  29.166  29.942  1.00  0.00    -0.052 SA
ATOM     15  S   UNL A   1      37.654  28.447  27.705  1.00  0.00    -0.093 SA
ATOM     16  N   UNL A   1      40.224  29.004  27.486  1.00  0.00    -0.200 NA
ATOM     17  C   UNL A   1      41.354  29.328  28.190  1.00  0.00     0.306 C 
ATOM     18  O   UNL A   1      42.400  29.710  27.701  1.00  0.00    -0.259 OA
BRANCH  10  19
ATOM     19  C   UNL A   1      38.734  30.663  31.613  1.00  0.00    -0.042 A 
ATOM     20  C   UNL A   1      39.070  30.990  34.380  1.00  0.00     0.118 A 
ATOM     21  C   UNL A   1      38.311  29.931  33.897  1.00  0.00     0.047 A 
ATOM     22  C   UNL A   1      39.662  31.890  33.500  1.00  0.00     0.047 A 
ATOM     23  C   UNL A   1      38.119  29.785  32.522  1.00  0.00     0.008 A 
ATOM     24  C   UNL A   1      39.492  31.731  32.120  1.00  0.00     0.008 A 
BRANCH  20  25
ATOM     25  O   UNL A   1      39.279  31.055  35.730  1.00  0.00    -0.497 OA
ATOM     26  C   UNL A   1      38.281  31.845  36.370  1.00  0.00     0.278 C 
ENDBRANCH  20  25
ENDBRANCH  10  19
BRANCH  11  27
ATOM     27  C   UNL A   1      36.737  31.910  29.928  1.00  0.00     0.168 C 
ATOM     28  O   UNL A   1      37.340  32.841  29.392  1.00  0.00    -0.294 OA
BRANCH  27  29
ATOM     29  C   UNL A   1      35.542  32.187  30.853  1.00  0.00     0.021 A 
ATOM     30  C   UNL A   1      34.538  32.874  30.165  1.00  0.00     0.012 A 
ATOM     31  C   UNL A   1      35.961  32.812  32.012  1.00  0.00    -0.034 A 
ATOM     32  C   UNL A   1      34.475  34.255  30.305  1.00  0.00     0.001 A 
ATOM     33  C   UNL A   1      36.333  34.131  31.856  1.00  0.00    -0.044 A 
ATOM     34  C   UNL A   1      35.330  32.572  33.394  1.00  0.00     0.036 C 
ATOM     35  C   UNL A   1      35.449  34.889  31.086  1.00  0.00     0.004 A 
ATOM     36  C   UNL A   1      37.374  34.544  32.843  1.00  0.00     0.036 C 
ATOM     37  C   UNL A   1      35.447  33.816  34.323  1.00  0.00     0.005 C 
ATOM     38  C   UNL A   1      36.825  34.485  34.260  1.00  0.00     0.005 C 
ENDBRANCH  27  29
ENDBRANCH  11  27
ENDBRANCH   7   9
ENDBRANCH   6   7
ENDBRANCH   5   6
ENDBRANCH   4   5
ENDBRANCH   3   4
ENDBRANCH   2   3
ENDBRANCH   1   2
BRANCH   1  39
ATOM     39  O   UNL A   1      35.809  23.089  25.700  1.00  0.00    -0.376 OA
BRANCH  39  40
ATOM     40  C   UNL A   1      37.222  23.037  25.686  1.00  0.00     0.202 C 
BRANCH  40  41
ATOM     41  C   UNL A   1      37.805  21.626  25.809  1.00  0.00     0.261 C 
BRANCH  41  42
ATOM     42  O   UNL A   1      39.144  21.531  25.282  1.00  0.00    -0.460 OA
BRANCH  42  43
ATOM     43  C   UNL A   1      40.093  20.942  26.050  1.00  0.00     0.338 C 
ATOM     44  O   UNL A   1      40.047  19.810  26.500  1.00  0.00    -0.246 OA
BRANCH  43  45
ATOM     45  C   UNL A   1      41.194  21.910  26.344  1.00  0.00     0.060 A 
ATOM     46  C   UNL A   1      42.500  21.481  26.527  1.00  0.00     0.016 A 
ATOM     47  C   UNL A   1      40.927  23.279  26.492  1.00  0.00     0.016 A 
ATOM     48  C   UNL A   1      43.495  22.399  26.883  1.00  0.00     0.010 A 
ATOM     49  C   UNL A   1      41.949  24.193  26.855  1.00  0.00     0.010 A 
ATOM     50  C   UNL A   1      43.256  23.753  27.088  1.00  0.00    -0.014 A 
BRANCH  50  51
ATOM     51  C   UNL A   1      44.353  24.540  27.749  1.00  0.00     0.031 A 
ATOM     52  C   UNL A   1      44.500  24.467  29.249  1.00  0.00     0.074 A 
ATOM     53  C   UNL A   1      45.390  25.077  27.061  1.00  0.00     0.049 A 
ATOM     54  N   UNL A   1      45.291  25.149  30.038  1.00  0.00    -0.248 NA
ATOM     55  C   UNL A   1      43.670  23.473  29.945  1.00  0.00     0.031 C 
ATOM     56  C   UNL A   1      45.558  25.012  25.610  1.00  0.00     0.029 A 
ATOM     57  N   UNL A   1      46.549  25.693  27.489  1.00  0.00    -0.354 N 
ATOM     58  C   UNL A   1      44.976  24.747  31.330  1.00  0.00     0.074 A 
ATOM     59  C   UNL A   1      43.981  23.701  31.213  1.00  0.00     0.031 C 
ATOM     60  C   UNL A   1      46.791  25.443  25.291  1.00  0.00     0.029 A 
ATOM     61  C   UNL A   1      47.457  25.962  26.483  1.00  0.00     0.049 A 
ATOM     62  H   UNL A   1      46.716  25.921  28.433  1.00  0.00     0.167 HD
ATOM     63  C   UNL A   1      45.431  25.257  32.501  1.00  0.00     0.034 A 
ATOM     64  C   UNL A   1      48.657  26.590  26.503  1.00  0.00     0.034 A 
ATOM     65  C   UNL A   1      46.455  26.268  32.596  1.00  0.00     0.049 A 
ATOM     66  C   UNL A   1      49.093  27.245  27.798  1.00  0.00     0.074 A 
ATOM     67  C   UNL A   1      46.874  26.980  33.708  1.00  0.00     0.029 A 
ATOM     68  N   UNL A   1      47.246  26.694  31.538  1.00  0.00    -0.354 N 
ATOM     69  N   UNL A   1      48.595  27.109  29.005  1.00  0.00    -0.248 NA
ATOM     70  C   UNL A   1      50.204  28.206  27.716  1.00  0.00     0.031 C 
ATOM     71  C   UNL A   1      47.872  27.879  33.308  1.00  0.00     0.029 A 
ATOM     72  C   UNL A   1      48.127  27.678  31.963  1.00  0.00     0.049 A 
ATOM     73  H   UNL A   1      47.191  26.347  30.618  1.00  0.00     0.167 HD
ATOM     74  C   UNL A   1      49.302  28.000  29.810  1.00  0.00     0.074 A 
ATOM     75  C   UNL A   1      50.313  28.608  28.973  1.00  0.00     0.031 C 
ATOM     76  C   UNL A   1      49.105  28.318  31.116  1.00  0.00     0.034 A 
BRANCH  63  77
ATOM     77  C   UNL A   1      44.674  24.870  33.744  1.00  0.00     0.023 A 
ATOM     78  C   UNL A   1      43.522  25.538  34.186  1.00  0.00     0.031 A 
ATOM     79  C   UNL A   1      45.183  23.825  34.540  1.00  0.00     0.131 A 
ATOM     80  C   UNL A   1      42.950  25.186  35.420  1.00  0.00     0.055 A 
ATOM     81  C   UNL A   1      44.570  23.434  35.728  1.00  0.00     0.041 A 
ATOM     82  F   UNL A   1      46.303  23.178  34.179  1.00  0.00    -0.206 F 
ATOM     83  C   UNL A   1      43.452  24.125  36.182  1.00  0.00     0.022 A 
BRANCH  80  84
ATOM     84  S   UNL A   1      41.624  26.224  36.097  1.00  0.00     0.124 S 
ATOM     85  O   UNL A   1      41.488  27.244  35.060  1.00  0.00    -0.237 OA
ATOM     86  O   UNL A   1      40.518  25.282  36.215  1.00  0.00    -0.237 OA
ATOM     87  O   UNL A   1      42.175  26.703  37.363  1.00  0.00    -0.744 OA
ENDBRANCH  80  84
ENDBRANCH  63  77
BRANCH  64  88
ATOM     88  C   UNL A   1      49.485  26.783  25.260  1.00  0.00     0.023 A 
ATOM     89  C   UNL A   1      48.954  27.402  24.110  1.00  0.00     0.031 A 
ATOM     90  C   UNL A   1      50.786  26.255  25.156  1.00  0.00     0.131 A 
ATOM     91  C   UNL A   1      49.704  27.451  22.919  1.00  0.00     0.055 A 
ATOM     92  C   UNL A   1      51.561  26.388  24.002  1.00  0.00     0.041 A 
ATOM     93  F   UNL A   1      51.334  25.582  26.181  1.00  0.00    -0.206 F 
ATOM     94  C   UNL A   1      51.016  26.978  22.870  1.00  0.00     0.022 A 
BRANCH  91  95
ATOM     95  S   UNL A   1      48.904  28.012  21.387  1.00  0.00     0.124 S 
ATOM     96  O   UNL A   1      49.925  28.888  20.824  1.00  0.00    -0.237 OA
ATOM     97  O   UNL A   1      48.674  26.755  20.684  1.00  0.00    -0.237 OA
ATOM     98  O   UNL A   1      47.697  28.689  21.861  1.00  0.00    -0.744 OA
ENDBRANCH  91  95
ENDBRANCH  64  88
BRANCH  76  99
ATOM     99  C   UNL A   1      49.979  29.402  31.702  1.00  0.00     0.023 A 
ATOM    100  C   UNL A   1      51.233  29.098  32.266  1.00  0.00     0.031 A 
ATOM    101  C   UNL A   1      49.561  30.742  31.709  1.00  0.00     0.131 A 
ATOM    102  C   UNL A   1      52.001  30.112  32.859  1.00  0.00     0.055 A 
ATOM    103  C   UNL A   1      50.353  31.757  32.254  1.00  0.00     0.041 A 
ATOM    104  F   UNL A   1      48.376  31.091  31.184  1.00  0.00    -0.206 F 
ATOM    105  C   UNL A   1      51.574  31.442  32.844  1.00  0.00     0.022 A 
BRANCH 102 106
ATOM    106  S   UNL A   1      53.532  29.660  33.721  1.00  0.00     0.124 S 
ATOM    107  O   UNL A   1      54.441  30.723  33.306  1.00  0.00    -0.237 OA
ATOM    108  O   UNL A   1      53.122  29.681  35.121  1.00  0.00    -0.237 OA
ATOM    109  O   UNL A   1      53.847  28.334  33.190  1.00  0.00    -0.744 OA
ENDBRANCH 102 106
ENDBRANCH  76  99
ENDBRANCH  50  51
ENDBRANCH  43  45
ENDBRANCH  42  43
ENDBRANCH  41  42
ENDBRANCH  40  41
ENDBRANCH  39  40
ENDBRANCH   1  39
TORSDOF 24
ENDMDL
