MODEL 1
REMARK VINA RESULT:     -10.1      0.000      0.000
REMARK SMILES Cc1cc(SCC(=O)OCCOCCOCCOC(=O)c2ccc(-c3c4nc(c(-c5cc(S(=O)(=O)[O-])ccc5F)c5ccc([nH]5)c(-c5cc(S(=O)(=O)[O-])ccc5F)c5nc(c(-c6cc(S(=O)(=O)[O-])ccc6F)c6ccc3[nH]6)C=C5)C=C4)cc2)c2cc(C(F)(F)F)ccc2n1
REMARK SMILES IDX 13 1 12 2 11 3 10 4 9 5 7 6 8 7 6 8 5 9 4 10 1 11 2 12 3 13
REMARK SMILES IDX 94 14 93 15 84 16 92 17 85 18 91 19 86 20 87 21 88 22 89 23
REMARK SMILES IDX 90 24 14 25 15 26 16 27 17 28 18 29 19 30 20 31 21 32 22 33
REMARK SMILES IDX 83 34 23 35 82 36 24 37 25 38 26 39 76 40 27 41 81 42 75 43
REMARK SMILES IDX 77 44 28 45 80 46 74 47 73 48 29 50 61 51 41 52 60 53 42 54
REMARK SMILES IDX 45 55 59 56 78 57 43 58 44 59 58 61 79 62 46 63 30 64 31 65
REMARK SMILES IDX 39 66 32 67 38 68 40 69 37 70 33 71 34 72 35 73 36 74 62 75
REMARK SMILES IDX 63 76 71 77 64 78 70 79 72 80 69 81 65 82 66 83 67 84 68 85
REMARK SMILES IDX 47 86 48 87 56 88 49 89 55 90 57 91 54 92 50 93 51 94 52 95
REMARK SMILES IDX 53 96
REMARK H PARENT 77 49 45 60
REMARK Flexibility Score: inf
ROOT
ATOM      1  C   UNL A   1      31.037  28.720  22.275  1.00  0.00     0.188 C 
ENDROOT
BRANCH   1   2
ATOM      2  O   UNL A   1      30.661  27.377  21.987  1.00  0.00    -0.376 OA
BRANCH   2   3
ATOM      3  C   UNL A   1      30.712  26.424  23.046  1.00  0.00     0.202 C 
BRANCH   3   4
ATOM      4  C   UNL A   1      30.973  24.981  22.606  1.00  0.00     0.261 C 
BRANCH   4   5
ATOM      5  O   UNL A   1      32.125  24.469  23.306  1.00  0.00    -0.463 OA
BRANCH   5   6
ATOM      6  C   UNL A   1      33.312  25.082  23.064  1.00  0.00     0.316 C 
ATOM      7  O   UNL A   1      33.825  25.147  21.953  1.00  0.00    -0.251 OA
BRANCH   6   8
ATOM      8  C   UNL A   1      33.813  25.877  24.265  1.00  0.00     0.197 C 
BRANCH   8   9
ATOM      9  S   UNL A   1      33.601  25.040  25.885  1.00  0.00    -0.114 SA
BRANCH   9  10
ATOM     10  C   UNL A   1      34.215  23.336  25.651  1.00  0.00     0.019 A 
ATOM     11  C   UNL A   1      33.078  19.732  25.357  1.00  0.00     0.067 C 
ATOM     12  C   UNL A   1      33.883  20.988  25.264  1.00  0.00     0.039 A 
ATOM     13  C   UNL A   1      33.350  22.244  25.529  1.00  0.00     0.039 A 
ATOM     14  N   UNL A   1      35.189  20.793  25.018  1.00  0.00    -0.253 NA
ATOM     15  C   UNL A   1      36.038  21.784  25.256  1.00  0.00     0.072 A 
ATOM     16  C   UNL A   1      35.624  23.077  25.644  1.00  0.00     0.014 A 
ATOM     17  C   UNL A   1      37.380  21.456  25.195  1.00  0.00     0.029 A 
ATOM     18  C   UNL A   1      36.642  23.971  26.077  1.00  0.00     0.024 A 
ATOM     19  C   UNL A   1      38.360  22.327  25.655  1.00  0.00     0.015 A 
ATOM     20  C   UNL A   1      37.993  23.577  26.155  1.00  0.00     0.056 A 
BRANCH  20  21
ATOM     21  C   UNL A   1      39.002  24.444  26.864  1.00  0.00     0.416 C 
ATOM     22  F   UNL A   1      39.992  24.888  26.044  1.00  0.00    -0.166 F 
ATOM     23  F   UNL A   1      38.433  25.560  27.401  1.00  0.00    -0.166 F 
ATOM     24  F   UNL A   1      39.630  23.819  27.901  1.00  0.00    -0.166 F 
ENDBRANCH  20  21
ENDBRANCH   9  10
ENDBRANCH   8   9
ENDBRANCH   6   8
ENDBRANCH   5   6
ENDBRANCH   4   5
ENDBRANCH   3   4
ENDBRANCH   2   3
ENDBRANCH   1   2
BRANCH   1  25
ATOM     25  C   UNL A   1      30.461  29.390  23.540  1.00  0.00     0.188 C 
BRANCH  25  26
ATOM     26  O   UNL A   1      31.281  29.463  24.694  1.00  0.00    -0.376 OA
BRANCH  26  27
ATOM     27  C   UNL A   1      31.081  30.598  25.528  1.00  0.00     0.202 C 
BRANCH  27  28
ATOM     28  C   UNL A   1      31.869  30.573  26.837  1.00  0.00     0.261 C 
BRANCH  28  29
ATOM     29  O   UNL A   1      33.285  30.737  26.612  1.00  0.00    -0.460 OA
BRANCH  29  30
ATOM     30  C   UNL A   1      33.896  31.491  27.560  1.00  0.00     0.338 C 
ATOM     31  O   UNL A   1      33.398  32.447  28.128  1.00  0.00    -0.246 OA
BRANCH  30  32
ATOM     32  C   UNL A   1      35.283  31.035  27.837  1.00  0.00     0.060 A 
ATOM     33  C   UNL A   1      35.616  29.703  28.083  1.00  0.00     0.016 A 
ATOM     34  C   UNL A   1      36.255  32.019  28.029  1.00  0.00     0.016 A 
ATOM     35  C   UNL A   1      36.862  29.379  28.643  1.00  0.00     0.010 A 
ATOM     36  C   UNL A   1      37.519  31.684  28.530  1.00  0.00     0.010 A 
ATOM     37  C   UNL A   1      37.814  30.370  28.930  1.00  0.00    -0.014 A 
BRANCH  37  38
ATOM     38  C   UNL A   1      39.030  30.093  29.771  1.00  0.00     0.031 A 
ATOM     39  C   UNL A   1      40.111  29.159  29.250  1.00  0.00     0.074 A 
ATOM     40  C   UNL A   1      39.235  30.686  30.965  1.00  0.00     0.049 A 
ATOM     41  N   UNL A   1      41.086  28.569  29.896  1.00  0.00    -0.248 NA
ATOM     42  C   UNL A   1      40.085  28.850  27.811  1.00  0.00     0.031 C 
ATOM     43  C   UNL A   1      38.375  31.699  31.576  1.00  0.00     0.029 A 
ATOM     44  N   UNL A   1      40.246  30.517  31.886  1.00  0.00    -0.354 N 
ATOM     45  C   UNL A   1      41.740  27.766  28.963  1.00  0.00     0.074 A 
ATOM     46  C   UNL A   1      41.058  27.958  27.701  1.00  0.00     0.031 C 
ATOM     47  C   UNL A   1      38.910  32.089  32.742  1.00  0.00     0.029 A 
ATOM     48  C   UNL A   1      40.072  31.256  33.036  1.00  0.00     0.049 A 
ATOM     49  H   UNL A   1      41.018  29.926  31.737  1.00  0.00     0.167 HD
ATOM     50  C   UNL A   1      42.799  26.934  29.141  1.00  0.00     0.034 A 
ATOM     51  C   UNL A   1      40.706  31.217  34.226  1.00  0.00     0.034 A 
ATOM     52  C   UNL A   1      43.507  26.783  30.391  1.00  0.00     0.049 A 
ATOM     53  C   UNL A   1      41.811  30.216  34.444  1.00  0.00     0.074 A 
ATOM     54  C   UNL A   1      44.576  25.950  30.682  1.00  0.00     0.029 A 
ATOM     55  N   UNL A   1      43.232  27.487  31.555  1.00  0.00    -0.354 N 
ATOM     56  N   UNL A   1      42.320  29.350  33.600  1.00  0.00    -0.248 NA
ATOM     57  C   UNL A   1      42.407  30.172  35.786  1.00  0.00     0.031 C 
ATOM     58  C   UNL A   1      44.903  26.105  32.034  1.00  0.00     0.029 A 
ATOM     59  C   UNL A   1      44.092  27.091  32.569  1.00  0.00     0.049 A 
ATOM     60  H   UNL A   1      42.529  28.170  31.646  1.00  0.00     0.167 HD
ATOM     61  C   UNL A   1      43.300  28.660  34.312  1.00  0.00     0.074 A 
ATOM     62  C   UNL A   1      43.328  29.232  35.642  1.00  0.00     0.031 C 
ATOM     63  C   UNL A   1      44.100  27.642  33.903  1.00  0.00     0.034 A 
BRANCH  50  64
ATOM     64  C   UNL A   1      43.202  26.048  27.983  1.00  0.00     0.023 A 
ATOM     65  C   UNL A   1      42.779  24.714  27.862  1.00  0.00     0.031 A 
ATOM     66  C   UNL A   1      44.036  26.568  26.974  1.00  0.00     0.131 A 
ATOM     67  C   UNL A   1      43.229  23.934  26.782  1.00  0.00     0.055 A 
ATOM     68  C   UNL A   1      44.422  25.810  25.869  1.00  0.00     0.041 A 
ATOM     69  F   UNL A   1      44.490  27.829  27.047  1.00  0.00    -0.206 F 
ATOM     70  C   UNL A   1      44.027  24.480  25.773  1.00  0.00     0.022 A 
BRANCH  67  71
ATOM     71  S   UNL A   1      42.856  22.158  26.770  1.00  0.00     0.124 S 
ATOM     72  O   UNL A   1      42.929  21.830  28.191  1.00  0.00    -0.237 OA
ATOM     73  O   UNL A   1      41.526  22.122  26.172  1.00  0.00    -0.237 OA
ATOM     74  O   UNL A   1      43.923  21.588  25.952  1.00  0.00    -0.744 OA
ENDBRANCH  67  71
ENDBRANCH  50  64
BRANCH  51  75
ATOM     75  C   UNL A   1      40.227  32.069  35.355  1.00  0.00     0.023 A 
ATOM     76  C   UNL A   1      39.301  31.589  36.293  1.00  0.00     0.031 A 
ATOM     77  C   UNL A   1      40.670  33.399  35.484  1.00  0.00     0.131 A 
ATOM     78  C   UNL A   1      38.833  32.442  37.307  1.00  0.00     0.055 A 
ATOM     79  C   UNL A   1      40.249  34.221  36.530  1.00  0.00     0.041 A 
ATOM     80  F   UNL A   1      41.544  33.914  34.605  1.00  0.00    -0.206 F 
ATOM     81  C   UNL A   1      39.317  33.745  37.445  1.00  0.00     0.022 A 
BRANCH  78  82
ATOM     82  S   UNL A   1      37.520  31.847  38.407  1.00  0.00     0.124 S 
ATOM     83  O   UNL A   1      38.193  31.846  39.701  1.00  0.00    -0.237 OA
ATOM     84  O   UNL A   1      36.486  32.860  38.221  1.00  0.00    -0.237 OA
ATOM     85  O   UNL A   1      37.198  30.526  37.869  1.00  0.00    -0.744 OA
ENDBRANCH  78  82
ENDBRANCH  51  75
BRANCH  63  86
ATOM     86  C   UNL A   1      45.098  27.115  34.904  1.00  0.00     0.023 A 
ATOM     87  C   UNL A   1      46.386  27.667  35.024  1.00  0.00     0.031 A 
ATOM     88  C   UNL A   1      44.773  26.015  35.718  1.00  0.00     0.131 A 
ATOM     89  C   UNL A   1      47.323  27.076  35.884  1.00  0.00     0.055 A 
ATOM     90  C   UNL A   1      45.690  25.468  36.617  1.00  0.00     0.041 A 
ATOM     91  F   UNL A   1      43.559  25.446  35.644  1.00  0.00    -0.206 F 
ATOM     92  C   UNL A   1      46.979  25.988  36.692  1.00  0.00     0.022 A 
BRANCH  89  93
ATOM     93  S   UNL A   1      49.036  27.675  35.853  1.00  0.00     0.124 S 
ATOM     94  O   UNL A   1      49.789  26.433  35.715  1.00  0.00    -0.237 OA
ATOM     95  O   UNL A   1      49.037  28.553  34.688  1.00  0.00    -0.237 OA
ATOM     96  O   UNL A   1      49.187  28.351  37.139  1.00  0.00    -0.744 OA
ENDBRANCH  89  93
ENDBRANCH  63  86
ENDBRANCH  37  38
ENDBRANCH  30  32
ENDBRANCH  29  30
ENDBRANCH  28  29
ENDBRANCH  27  28
ENDBRANCH  26  27
ENDBRANCH  25  26
ENDBRANCH   1  25
TORSDOF 23
ENDMDL
MODEL 2
REMARK VINA RESULT:      -9.7      5.727     10.451
REMARK SMILES Cc1cc(SCC(=O)OCCOCCOCCOC(=O)c2ccc(-c3c4nc(c(-c5cc(S(=O)(=O)[O-])ccc5F)c5ccc([nH]5)c(-c5cc(S(=O)(=O)[O-])ccc5F)c5nc(c(-c6cc(S(=O)(=O)[O-])ccc6F)c6ccc3[nH]6)C=C5)C=C4)cc2)c2cc(C(F)(F)F)ccc2n1
REMARK SMILES IDX 13 1 12 2 11 3 10 4 9 5 7 6 8 7 6 8 5 9 4 10 1 11 2 12 3 13
REMARK SMILES IDX 94 14 93 15 84 16 92 17 85 18 91 19 86 20 87 21 88 22 89 23
REMARK SMILES IDX 90 24 14 25 15 26 16 27 17 28 18 29 19 30 20 31 21 32 22 33
REMARK SMILES IDX 83 34 23 35 82 36 24 37 25 38 26 39 76 40 27 41 81 42 75 43
REMARK SMILES IDX 77 44 28 45 80 46 74 47 73 48 29 50 61 51 41 52 60 53 42 54
REMARK SMILES IDX 45 55 59 56 78 57 43 58 44 59 58 61 79 62 46 63 30 64 31 65
REMARK SMILES IDX 39 66 32 67 38 68 40 69 37 70 33 71 34 72 35 73 36 74 62 75
REMARK SMILES IDX 63 76 71 77 64 78 70 79 72 80 69 81 65 82 66 83 67 84 68 85
REMARK SMILES IDX 47 86 48 87 56 88 49 89 55 90 57 91 54 92 50 93 51 94 52 95
REMARK SMILES IDX 53 96
REMARK H PARENT 77 49 45 60
REMARK Flexibility Score: inf
ROOT
ATOM      1  C   UNL A   1      43.964  18.112  26.101  1.00  0.00     0.188 C 
ENDROOT
BRANCH   1   2
ATOM      2  O   UNL A   1      44.161  18.165  24.691  1.00  0.00    -0.376 OA
BRANCH   2   3
ATOM      3  C   UNL A   1      44.967  19.216  24.164  1.00  0.00     0.202 C 
BRANCH   3   4
ATOM      4  C   UNL A   1      46.089  19.696  25.089  1.00  0.00     0.261 C 
BRANCH   4   5
ATOM      5  O   UNL A   1      46.564  20.980  24.638  1.00  0.00    -0.463 OA
BRANCH   5   6
ATOM      6  C   UNL A   1      46.050  22.076  25.254  1.00  0.00     0.316 C 
ATOM      7  O   UNL A   1      45.918  22.168  26.469  1.00  0.00    -0.251 OA
BRANCH   6   8
ATOM      8  C   UNL A   1      45.883  23.255  24.301  1.00  0.00     0.197 C 
BRANCH   8   9
ATOM      9  S   UNL A   1      45.546  24.864  25.119  1.00  0.00    -0.114 SA
BRANCH   9  10
ATOM     10  C   UNL A   1      47.135  25.401  25.842  1.00  0.00     0.019 A 
ATOM     11  C   UNL A   1      48.969  25.813  29.133  1.00  0.00     0.067 C 
ATOM     12  C   UNL A   1      48.662  25.649  27.679  1.00  0.00     0.039 A 
ATOM     13  C   UNL A   1      47.400  25.305  27.211  1.00  0.00     0.039 A 
ATOM     14  N   UNL A   1      49.674  25.975  26.859  1.00  0.00    -0.253 NA
ATOM     15  C   UNL A   1      49.411  26.197  25.578  1.00  0.00     0.072 A 
ATOM     16  C   UNL A   1      48.136  25.994  25.007  1.00  0.00     0.014 A 
ATOM     17  C   UNL A   1      50.445  26.740  24.835  1.00  0.00     0.029 A 
ATOM     18  C   UNL A   1      47.945  26.480  23.684  1.00  0.00     0.024 A 
ATOM     19  C   UNL A   1      50.232  27.242  23.558  1.00  0.00     0.015 A 
ATOM     20  C   UNL A   1      48.960  27.167  22.990  1.00  0.00     0.056 A 
BRANCH  20  21
ATOM     21  C   UNL A   1      48.650  27.901  21.710  1.00  0.00     0.416 C 
ATOM     22  F   UNL A   1      49.634  28.764  21.339  1.00  0.00    -0.166 F 
ATOM     23  F   UNL A   1      48.483  27.050  20.657  1.00  0.00    -0.166 F 
ATOM     24  F   UNL A   1      47.506  28.642  21.765  1.00  0.00    -0.166 F 
ENDBRANCH  20  21
ENDBRANCH   9  10
ENDBRANCH   8   9
ENDBRANCH   6   8
ENDBRANCH   5   6
ENDBRANCH   4   5
ENDBRANCH   3   4
ENDBRANCH   2   3
ENDBRANCH   1   2
BRANCH   1  25
ATOM     25  C   UNL A   1      42.552  18.389  26.658  1.00  0.00     0.188 C 
BRANCH  25  26
ATOM     26  O   UNL A   1      41.555  18.851  25.761  1.00  0.00    -0.376 OA
BRANCH  26  27
ATOM     27  C   UNL A   1      40.868  20.033  26.153  1.00  0.00     0.202 C 
BRANCH  27  28
ATOM     28  C   UNL A   1      41.310  20.611  27.496  1.00  0.00     0.261 C 
BRANCH  28  29
ATOM     29  O   UNL A   1      42.477  21.450  27.360  1.00  0.00    -0.460 OA
BRANCH  29  30
ATOM     30  C   UNL A   1      42.389  22.331  26.333  1.00  0.00     0.338 C 
ATOM     31  O   UNL A   1      42.632  22.079  25.166  1.00  0.00    -0.246 OA
BRANCH  30  32
ATOM     32  C   UNL A   1      41.970  23.684  26.784  1.00  0.00     0.060 A 
ATOM     33  C   UNL A   1      41.586  24.699  25.906  1.00  0.00     0.016 A 
ATOM     34  C   UNL A   1      42.142  23.991  28.134  1.00  0.00     0.016 A 
ATOM     35  C   UNL A   1      41.510  26.027  26.354  1.00  0.00     0.010 A 
ATOM     36  C   UNL A   1      42.005  25.309  28.589  1.00  0.00     0.010 A 
ATOM     37  C   UNL A   1      41.774  26.364  27.691  1.00  0.00    -0.014 A 
BRANCH  37  38
ATOM     38  C   UNL A   1      41.967  27.787  28.135  1.00  0.00     0.031 A 
ATOM     39  C   UNL A   1      43.362  28.393  28.144  1.00  0.00     0.074 A 
ATOM     40  C   UNL A   1      40.935  28.585  28.482  1.00  0.00     0.049 A 
ATOM     41  N   UNL A   1      43.797  29.480  28.734  1.00  0.00    -0.248 NA
ATOM     42  C   UNL A   1      44.402  27.675  27.389  1.00  0.00     0.031 C 
ATOM     43  C   UNL A   1      39.519  28.225  28.422  1.00  0.00     0.029 A 
ATOM     44  N   UNL A   1      40.924  29.877  28.958  1.00  0.00    -0.354 N 
ATOM     45  C   UNL A   1      45.167  29.535  28.484  1.00  0.00     0.074 A 
ATOM     46  C   UNL A   1      45.487  28.378  27.675  1.00  0.00     0.031 C 
ATOM     47  C   UNL A   1      38.779  29.276  28.804  1.00  0.00     0.029 A 
ATOM     48  C   UNL A   1      39.665  30.337  29.274  1.00  0.00     0.049 A 
ATOM     49  H   UNL A   1      41.738  30.421  29.064  1.00  0.00     0.167 HD
ATOM     50  C   UNL A   1      46.077  30.452  28.902  1.00  0.00     0.034 A 
ATOM     51  C   UNL A   1      39.257  31.436  29.942  1.00  0.00     0.034 A 
ATOM     52  C   UNL A   1      45.745  31.630  29.668  1.00  0.00     0.049 A 
ATOM     53  C   UNL A   1      40.283  32.393  30.490  1.00  0.00     0.074 A 
ATOM     54  C   UNL A   1      46.595  32.608  30.160  1.00  0.00     0.029 A 
ATOM     55  N   UNL A   1      44.462  32.003  30.043  1.00  0.00    -0.354 N 
ATOM     56  N   UNL A   1      41.590  32.354  30.383  1.00  0.00    -0.248 NA
ATOM     57  C   UNL A   1      39.776  33.527  31.274  1.00  0.00     0.031 C 
ATOM     58  C   UNL A   1      45.833  33.534  30.884  1.00  0.00     0.029 A 
ATOM     59  C   UNL A   1      44.500  33.179  30.779  1.00  0.00     0.049 A 
ATOM     60  H   UNL A   1      43.642  31.505  29.817  1.00  0.00     0.167 HD
ATOM     61  C   UNL A   1      42.060  33.462  31.085  1.00  0.00     0.074 A 
ATOM     62  C   UNL A   1      40.895  34.163  31.584  1.00  0.00     0.031 C 
ATOM     63  C   UNL A   1      43.340  33.861  31.300  1.00  0.00     0.034 A 
BRANCH  50  64
ATOM     64  C   UNL A   1      47.538  30.173  28.623  1.00  0.00     0.023 A 
ATOM     65  C   UNL A   1      48.391  29.570  29.562  1.00  0.00     0.031 A 
ATOM     66  C   UNL A   1      48.081  30.527  27.372  1.00  0.00     0.131 A 
ATOM     67  C   UNL A   1      49.749  29.381  29.251  1.00  0.00     0.055 A 
ATOM     68  C   UNL A   1      49.413  30.274  27.045  1.00  0.00     0.041 A 
ATOM     69  F   UNL A   1      47.320  31.128  26.443  1.00  0.00    -0.206 F 
ATOM     70  C   UNL A   1      50.260  29.707  27.991  1.00  0.00     0.022 A 
BRANCH  67  71
ATOM     71  S   UNL A   1      50.875  28.812  30.556  1.00  0.00     0.124 S 
ATOM     72  O   UNL A   1      49.938  28.279  31.543  1.00  0.00    -0.237 OA
ATOM     73  O   UNL A   1      51.695  27.831  29.857  1.00  0.00    -0.237 OA
ATOM     74  O   UNL A   1      51.571  30.030  30.965  1.00  0.00    -0.744 OA
ENDBRANCH  67  71
ENDBRANCH  50  64
BRANCH  51  75
ATOM     75  C   UNL A   1      37.807  31.630  30.244  1.00  0.00     0.023 A 
ATOM     76  C   UNL A   1      36.926  32.164  29.292  1.00  0.00     0.031 A 
ATOM     77  C   UNL A   1      37.293  31.314  31.516  1.00  0.00     0.131 A 
ATOM     78  C   UNL A   1      35.581  32.383  29.634  1.00  0.00     0.055 A 
ATOM     79  C   UNL A   1      35.943  31.475  31.829  1.00  0.00     0.041 A 
ATOM     80  F   UNL A   1      38.096  30.815  32.470  1.00  0.00    -0.206 F 
ATOM     81  C   UNL A   1      35.080  32.022  30.888  1.00  0.00     0.022 A 
BRANCH  78  82
ATOM     82  S   UNL A   1      34.503  33.220  28.439  1.00  0.00     0.124 S 
ATOM     83  O   UNL A   1      33.745  32.101  27.889  1.00  0.00    -0.237 OA
ATOM     84  O   UNL A   1      33.760  34.140  29.294  1.00  0.00    -0.237 OA
ATOM     85  O   UNL A   1      35.444  33.852  27.517  1.00  0.00    -0.744 OA
ENDBRANCH  78  82
ENDBRANCH  51  75
BRANCH  63  86
ATOM     86  C   UNL A   1      43.534  35.137  32.081  1.00  0.00     0.023 A 
ATOM     87  C   UNL A   1      43.646  36.385  31.442  1.00  0.00     0.031 A 
ATOM     88  C   UNL A   1      43.655  35.100  33.482  1.00  0.00     0.131 A 
ATOM     89  C   UNL A   1      43.941  37.532  32.193  1.00  0.00     0.055 A 
ATOM     90  C   UNL A   1      43.888  36.254  34.231  1.00  0.00     0.041 A 
ATOM     91  F   UNL A   1      43.559  33.936  34.145  1.00  0.00    -0.206 F 
ATOM     92  C   UNL A   1      44.049  37.477  33.586  1.00  0.00     0.022 A 
BRANCH  89  93
ATOM     93  S   UNL A   1      44.295  39.081  31.317  1.00  0.00     0.124 S 
ATOM     94  O   UNL A   1      45.752  39.054  31.231  1.00  0.00    -0.237 OA
ATOM     95  O   UNL A   1      43.579  38.899  30.060  1.00  0.00    -0.237 OA
ATOM     96  O   UNL A   1      43.746  40.108  32.201  1.00  0.00    -0.744 OA
ENDBRANCH  89  93
ENDBRANCH  63  86
ENDBRANCH  37  38
ENDBRANCH  30  32
ENDBRANCH  29  30
ENDBRANCH  28  29
ENDBRANCH  27  28
ENDBRANCH  26  27
ENDBRANCH  25  26
ENDBRANCH   1  25
TORSDOF 23
ENDMDL
MODEL 3
REMARK VINA RESULT:      -9.5      5.623     10.311
REMARK SMILES Cc1cc(SCC(=O)OCCOCCOCCOC(=O)c2ccc(-c3c4nc(c(-c5cc(S(=O)(=O)[O-])ccc5F)c5ccc([nH]5)c(-c5cc(S(=O)(=O)[O-])ccc5F)c5nc(c(-c6cc(S(=O)(=O)[O-])ccc6F)c6ccc3[nH]6)C=C5)C=C4)cc2)c2cc(C(F)(F)F)ccc2n1
REMARK SMILES IDX 13 1 12 2 11 3 10 4 9 5 7 6 8 7 6 8 5 9 4 10 1 11 2 12 3 13
REMARK SMILES IDX 94 14 93 15 84 16 92 17 85 18 91 19 86 20 87 21 88 22 89 23
REMARK SMILES IDX 90 24 14 25 15 26 16 27 17 28 18 29 19 30 20 31 21 32 22 33
REMARK SMILES IDX 83 34 23 35 82 36 24 37 25 38 26 39 76 40 27 41 81 42 75 43
REMARK SMILES IDX 77 44 28 45 80 46 74 47 73 48 29 50 61 51 41 52 60 53 42 54
REMARK SMILES IDX 45 55 59 56 78 57 43 58 44 59 58 61 79 62 46 63 30 64 31 65
REMARK SMILES IDX 39 66 32 67 38 68 40 69 37 70 33 71 34 72 35 73 36 74 62 75
REMARK SMILES IDX 63 76 71 77 64 78 70 79 72 80 69 81 65 82 66 83 67 84 68 85
REMARK SMILES IDX 47 86 48 87 56 88 49 89 55 90 57 91 54 92 50 93 51 94 52 95
REMARK SMILES IDX 53 96
REMARK H PARENT 77 49 45 60
REMARK Flexibility Score: inf
ROOT
ATOM      1  C   UNL A   1      43.710  18.396  25.783  1.00  0.00     0.188 C 
ENDROOT
BRANCH   1   2
ATOM      2  O   UNL A   1      43.745  18.683  24.388  1.00  0.00    -0.376 OA
BRANCH   2   3
ATOM      3  C   UNL A   1      44.803  19.504  23.899  1.00  0.00     0.202 C 
BRANCH   3   4
ATOM      4  C   UNL A   1      45.973  19.696  24.866  1.00  0.00     0.261 C 
BRANCH   4   5
ATOM      5  O   UNL A   1      46.597  20.971  24.615  1.00  0.00    -0.463 OA
BRANCH   5   6
ATOM      6  C   UNL A   1      46.040  22.055  25.214  1.00  0.00     0.316 C 
ATOM      7  O   UNL A   1      45.852  22.138  26.422  1.00  0.00    -0.251 OA
BRANCH   6   8
ATOM      8  C   UNL A   1      45.898  23.238  24.261  1.00  0.00     0.197 C 
BRANCH   8   9
ATOM      9  S   UNL A   1      45.715  24.870  25.082  1.00  0.00    -0.114 SA
BRANCH   9  10
ATOM     10  C   UNL A   1      47.382  25.321  25.676  1.00  0.00     0.019 A 
ATOM     11  C   UNL A   1      49.529  25.503  28.794  1.00  0.00     0.067 C 
ATOM     12  C   UNL A   1      49.083  25.426  27.369  1.00  0.00     0.039 A 
ATOM     13  C   UNL A   1      47.771  25.144  27.007  1.00  0.00     0.039 A 
ATOM     14  N   UNL A   1      50.024  25.766  26.474  1.00  0.00    -0.253 NA
ATOM     15  C   UNL A   1      49.650  26.064  25.237  1.00  0.00     0.072 A 
ATOM     16  C   UNL A   1      48.321  25.928  24.780  1.00  0.00     0.014 A 
ATOM     17  C   UNL A   1      50.627  26.615  24.427  1.00  0.00     0.029 A 
ATOM     18  C   UNL A   1      48.023  26.490  23.508  1.00  0.00     0.024 A 
ATOM     19  C   UNL A   1      50.313  27.191  23.203  1.00  0.00     0.015 A 
ATOM     20  C   UNL A   1      48.992  27.184  22.756  1.00  0.00     0.056 A 
BRANCH  20  21
ATOM     21  C   UNL A   1      48.588  27.994  21.550  1.00  0.00     0.416 C 
ATOM     22  F   UNL A   1      47.472  28.742  21.761  1.00  0.00    -0.166 F 
ATOM     23  F   UNL A   1      49.560  28.872  21.172  1.00  0.00    -0.166 F 
ATOM     24  F   UNL A   1      48.326  27.240  20.444  1.00  0.00    -0.166 F 
ENDBRANCH  20  21
ENDBRANCH   9  10
ENDBRANCH   8   9
ENDBRANCH   6   8
ENDBRANCH   5   6
ENDBRANCH   4   5
ENDBRANCH   3   4
ENDBRANCH   2   3
ENDBRANCH   1   2
BRANCH   1  25
ATOM     25  C   UNL A   1      42.433  18.748  26.574  1.00  0.00     0.188 C 
BRANCH  25  26
ATOM     26  O   UNL A   1      41.261  19.078  25.847  1.00  0.00    -0.376 OA
BRANCH  26  27
ATOM     27  C   UNL A   1      40.658  20.323  26.172  1.00  0.00     0.202 C 
BRANCH  27  28
ATOM     28  C   UNL A   1      41.208  20.986  27.434  1.00  0.00     0.261 C 
BRANCH  28  29
ATOM     29  O   UNL A   1      42.441  21.689  27.176  1.00  0.00    -0.460 OA
BRANCH  29  30
ATOM     30  C   UNL A   1      42.334  22.623  26.198  1.00  0.00     0.338 C 
ATOM     31  O   UNL A   1      42.558  22.434  25.016  1.00  0.00    -0.246 OA
BRANCH  30  32
ATOM     32  C   UNL A   1      41.918  23.948  26.727  1.00  0.00     0.060 A 
ATOM     33  C   UNL A   1      41.594  25.032  25.909  1.00  0.00     0.016 A 
ATOM     34  C   UNL A   1      42.033  24.154  28.103  1.00  0.00     0.016 A 
ATOM     35  C   UNL A   1      41.520  26.325  26.449  1.00  0.00     0.010 A 
ATOM     36  C   UNL A   1      41.898  25.438  28.646  1.00  0.00     0.010 A 
ATOM     37  C   UNL A   1      41.728  26.560  27.817  1.00  0.00    -0.014 A 
BRANCH  37  38
ATOM     38  C   UNL A   1      41.925  27.943  28.372  1.00  0.00     0.031 A 
ATOM     39  C   UNL A   1      43.332  28.500  28.532  1.00  0.00     0.074 A 
ATOM     40  C   UNL A   1      40.892  28.751  28.690  1.00  0.00     0.049 A 
ATOM     41  N   UNL A   1      43.748  29.529  29.228  1.00  0.00    -0.248 NA
ATOM     42  C   UNL A   1      44.408  27.798  27.814  1.00  0.00     0.031 C 
ATOM     43  C   UNL A   1      39.475  28.444  28.495  1.00  0.00     0.029 A 
ATOM     44  N   UNL A   1      40.879  30.009  29.252  1.00  0.00    -0.354 N 
ATOM     45  C   UNL A   1      45.135  29.554  29.091  1.00  0.00     0.074 A 
ATOM     46  C   UNL A   1      45.487  28.443  28.232  1.00  0.00     0.031 C 
ATOM     47  C   UNL A   1      38.737  29.492  28.888  1.00  0.00     0.029 A 
ATOM     48  C   UNL A   1      39.612  30.489  29.498  1.00  0.00     0.049 A 
ATOM     49  H   UNL A   1      41.697  30.516  29.458  1.00  0.00     0.167 HD
ATOM     50  C   UNL A   1      46.034  30.409  29.642  1.00  0.00     0.034 A 
ATOM     51  C   UNL A   1      39.183  31.555  30.206  1.00  0.00     0.034 A 
ATOM     52  C   UNL A   1      45.675  31.545  30.458  1.00  0.00     0.049 A 
ATOM     53  C   UNL A   1      40.189  32.437  30.898  1.00  0.00     0.074 A 
ATOM     54  C   UNL A   1      46.510  32.459  31.082  1.00  0.00     0.029 A 
ATOM     55  N   UNL A   1      44.377  31.936  30.756  1.00  0.00    -0.354 N 
ATOM     56  N   UNL A   1      41.499  32.361  30.892  1.00  0.00    -0.248 NA
ATOM     57  C   UNL A   1      39.652  33.534  31.716  1.00  0.00     0.031 C 
ATOM     58  C   UNL A   1      45.719  33.360  31.805  1.00  0.00     0.029 A 
ATOM     59  C   UNL A   1      44.389  33.058  31.571  1.00  0.00     0.049 A 
ATOM     60  H   UNL A   1      43.565  31.482  30.433  1.00  0.00     0.167 HD
ATOM     61  C   UNL A   1      41.942  33.404  31.703  1.00  0.00     0.074 A 
ATOM     62  C   UNL A   1      40.761  34.109  32.156  1.00  0.00     0.031 C 
ATOM     63  C   UNL A   1      43.211  33.743  32.045  1.00  0.00     0.034 A 
BRANCH  50  64
ATOM     64  C   UNL A   1      47.504  30.101  29.460  1.00  0.00     0.023 A 
ATOM     65  C   UNL A   1      48.265  30.618  28.398  1.00  0.00     0.031 A 
ATOM     66  C   UNL A   1      48.153  29.260  30.386  1.00  0.00     0.131 A 
ATOM     67  C   UNL A   1      49.616  30.254  28.264  1.00  0.00     0.055 A 
ATOM     68  C   UNL A   1      49.511  28.958  30.286  1.00  0.00     0.041 A 
ATOM     69  F   UNL A   1      47.472  28.717  31.408  1.00  0.00    -0.206 F 
ATOM     70  C   UNL A   1      50.250  29.447  29.215  1.00  0.00     0.022 A 
BRANCH  67  71
ATOM     71  S   UNL A   1      50.512  30.750  26.766  1.00  0.00     0.124 S 
ATOM     72  O   UNL A   1      50.240  29.627  25.873  1.00  0.00    -0.237 OA
ATOM     73  O   UNL A   1      49.870  32.013  26.421  1.00  0.00    -0.237 OA
ATOM     74  O   UNL A   1      51.898  30.856  27.215  1.00  0.00    -0.744 OA
ENDBRANCH  67  71
ENDBRANCH  50  64
BRANCH  51  75
ATOM     75  C   UNL A   1      37.720  31.778  30.406  1.00  0.00     0.023 A 
ATOM     76  C   UNL A   1      36.927  32.368  29.410  1.00  0.00     0.031 A 
ATOM     77  C   UNL A   1      37.103  31.431  31.623  1.00  0.00     0.131 A 
ATOM     78  C   UNL A   1      35.565  32.612  29.659  1.00  0.00     0.055 A 
ATOM     79  C   UNL A   1      35.738  31.618  31.840  1.00  0.00     0.041 A 
ATOM     80  F   UNL A   1      37.819  30.877  32.615  1.00  0.00    -0.206 F 
ATOM     81  C   UNL A   1      34.962  32.221  30.857  1.00  0.00     0.022 A 
BRANCH  78  82
ATOM     82  S   UNL A   1      34.602  33.519  28.419  1.00  0.00     0.124 S 
ATOM     83  O   UNL A   1      34.085  34.635  29.202  1.00  0.00    -0.237 OA
ATOM     84  O   UNL A   1      35.621  33.849  27.427  1.00  0.00    -0.237 OA
ATOM     85  O   UNL A   1      33.604  32.544  27.983  1.00  0.00    -0.744 OA
ENDBRANCH  78  82
ENDBRANCH  51  75
BRANCH  63  86
ATOM     86  C   UNL A   1      43.377  34.958  32.925  1.00  0.00     0.023 A 
ATOM     87  C   UNL A   1      43.406  34.856  34.328  1.00  0.00     0.031 A 
ATOM     88  C   UNL A   1      43.461  36.241  32.355  1.00  0.00     0.131 A 
ATOM     89  C   UNL A   1      43.446  36.017  35.113  1.00  0.00     0.055 A 
ATOM     90  C   UNL A   1      43.562  37.390  33.141  1.00  0.00     0.041 A 
ATOM     91  F   UNL A   1      43.436  36.399  31.022  1.00  0.00    -0.206 F 
ATOM     92  C   UNL A   1      43.539  37.284  34.528  1.00  0.00     0.022 A 
BRANCH  89  93
ATOM     93  S   UNL A   1      43.262  35.860  36.912  1.00  0.00     0.124 S 
ATOM     94  O   UNL A   1      42.422  37.010  37.232  1.00  0.00    -0.237 OA
ATOM     95  O   UNL A   1      42.630  34.552  37.047  1.00  0.00    -0.237 OA
ATOM     96  O   UNL A   1      44.635  35.940  37.406  1.00  0.00    -0.744 OA
ENDBRANCH  89  93
ENDBRANCH  63  86
ENDBRANCH  37  38
ENDBRANCH  30  32
ENDBRANCH  29  30
ENDBRANCH  28  29
ENDBRANCH  27  28
ENDBRANCH  26  27
ENDBRANCH  25  26
ENDBRANCH   1  25
TORSDOF 23
ENDMDL
