MODEL 1
REMARK VINA RESULT:     -10.8      0.000      0.000
REMARK SMILES O=C1NC(=S)/C(=C/c2ccc(-c3ccc(C(=O)OCCOCCOCCOC(=O)c4ccc(-c5c6nc(c(-c7cc(S(=O)(=O)[O-])ccc7F)c7ccc([nH]7)c(-c7cc(S(=O)(=O)[O-])ccc7F)c7nc(c(-c8cc(S(=O)(=O)[O-])ccc8F)c8ccc5[nH]8)C=C7)C=C6)cc4)cc3)o2)S1
REMARK SMILES IDX 23 1 22 2 21 3 20 4 19 5 18 6 16 7 17 8 15 9 12 10 13 11
REMARK SMILES IDX 94 12 14 13 93 14 11 15 8 16 9 17 95 18 10 19 7 20 1 21 2 22
REMARK SMILES IDX 3 23 96 24 4 25 6 27 5 28 24 29 25 30 26 31 27 32 28 33
REMARK SMILES IDX 29 34 30 35 31 36 92 37 32 38 91 39 33 40 34 41 35 42 85 43
REMARK SMILES IDX 36 44 90 45 84 46 86 47 37 48 89 49 83 50 82 51 38 53 70 54
REMARK SMILES IDX 50 55 69 56 51 57 54 58 68 59 87 60 52 61 53 62 67 64 88 65
REMARK SMILES IDX 55 66 39 67 40 68 48 69 41 70 47 71 49 72 46 73 42 74 43 75
REMARK SMILES IDX 44 76 45 77 71 78 72 79 80 80 73 81 79 82 81 83 78 84 74 85
REMARK SMILES IDX 75 86 76 87 77 88 56 89 57 90 65 91 58 92 64 93 66 94 63 95
REMARK SMILES IDX 59 96 60 97 61 98 62 99
REMARK H PARENT 3 26 86 52 54 63
REMARK Flexibility Score: inf
ROOT
ATOM      1  C   UNL A   1      31.282  29.850  25.382  1.00  0.00     0.188 C 
ENDROOT
BRANCH   1   2
ATOM      2  C   UNL A   1      30.557  30.303  24.098  1.00  0.00     0.188 C 
BRANCH   2   3
ATOM      3  O   UNL A   1      29.465  29.550  23.604  1.00  0.00    -0.376 OA
BRANCH   3   4
ATOM      4  C   UNL A   1      29.666  28.516  22.655  1.00  0.00     0.202 C 
BRANCH   4   5
ATOM      5  C   UNL A   1      30.771  27.452  22.779  1.00  0.00     0.261 C 
BRANCH   5   6
ATOM      6  O   UNL A   1      31.955  27.674  22.006  1.00  0.00    -0.460 OA
BRANCH   6   7
ATOM      7  C   UNL A   1      33.066  27.970  22.727  1.00  0.00     0.338 C 
ATOM      8  O   UNL A   1      33.581  29.067  22.855  1.00  0.00    -0.246 OA
BRANCH   7   9
ATOM      9  C   UNL A   1      33.516  26.779  23.482  1.00  0.00     0.060 A 
ATOM     10  C   UNL A   1      34.107  24.410  24.850  1.00  0.00     0.017 A 
ATOM     11  C   UNL A   1      34.095  24.423  23.451  1.00  0.00     0.013 A 
ATOM     12  C   UNL A   1      33.935  25.616  25.551  1.00  0.00     0.013 A 
ATOM     13  C   UNL A   1      33.782  25.602  22.768  1.00  0.00     0.016 A 
ATOM     14  C   UNL A   1      33.648  26.803  24.872  1.00  0.00     0.016 A 
BRANCH  10  15
ATOM     15  C   UNL A   1      34.055  23.153  25.575  1.00  0.00     0.134 A 
ATOM     16  C   UNL A   1      34.207  20.952  25.797  1.00  0.00     0.128 A 
ATOM     17  C   UNL A   1      33.679  21.468  26.975  1.00  0.00     0.051 A 
ATOM     18  O   UNL A   1      34.458  22.014  24.947  1.00  0.00    -0.457 OA
ATOM     19  C   UNL A   1      33.580  22.863  26.832  1.00  0.00     0.051 A 
BRANCH  16  20
ATOM     20  C   UNL A   1      34.489  19.594  25.476  1.00  0.00     0.065 C 
ATOM     21  O   UNL A   1      31.768  17.868  21.589  1.00  0.00    -0.261 OA
ATOM     22  C   UNL A   1      32.520  18.054  22.527  1.00  0.00     0.289 C 
ATOM     23  N   UNL A   1      33.307  17.114  23.117  1.00  0.00    -0.307 N 
ATOM     24  S   UNL A   1      32.690  19.565  23.383  1.00  0.00    -0.025 SA
ATOM     25  C   UNL A   1      34.038  17.465  24.223  1.00  0.00     0.120 C 
ATOM     26  H   UNL A   1      33.350  16.199  22.758  1.00  0.00     0.171 HD
ATOM     27  C   UNL A   1      33.846  18.919  24.509  1.00  0.00     0.056 C 
ATOM     28  S   UNL A   1      34.905  16.309  25.057  1.00  0.00    -0.059 S 
ENDBRANCH  16  20
ENDBRANCH  10  15
ENDBRANCH   7   9
ENDBRANCH   6   7
ENDBRANCH   5   6
ENDBRANCH   4   5
ENDBRANCH   3   4
ENDBRANCH   2   3
ENDBRANCH   1   2
BRANCH   1  29
ATOM     29  O   UNL A   1      32.125  30.792  26.000  1.00  0.00    -0.376 OA
BRANCH  29  30
ATOM     30  C   UNL A   1      31.571  31.888  26.708  1.00  0.00     0.202 C 
BRANCH  30  31
ATOM     31  C   UNL A   1      32.226  33.268  26.932  1.00  0.00     0.261 C 
BRANCH  31  32
ATOM     32  O   UNL A   1      32.727  33.597  28.229  1.00  0.00    -0.460 OA
BRANCH  32  33
ATOM     33  C   UNL A   1      33.865  34.336  28.250  1.00  0.00     0.338 C 
ATOM     34  O   UNL A   1      33.957  35.543  28.122  1.00  0.00    -0.246 OA
BRANCH  33  35
ATOM     35  C   UNL A   1      34.986  33.456  28.639  1.00  0.00     0.060 A 
ATOM     36  C   UNL A   1      34.703  32.217  29.229  1.00  0.00     0.016 A 
ATOM     37  C   UNL A   1      36.306  33.864  28.441  1.00  0.00     0.016 A 
ATOM     38  C   UNL A   1      35.746  31.386  29.638  1.00  0.00     0.010 A 
ATOM     39  C   UNL A   1      37.348  33.039  28.874  1.00  0.00     0.010 A 
ATOM     40  C   UNL A   1      37.074  31.806  29.497  1.00  0.00    -0.014 A 
BRANCH  40  41
ATOM     41  C   UNL A   1      38.170  31.045  30.149  1.00  0.00     0.031 A 
ATOM     42  C   UNL A   1      38.545  31.399  31.563  1.00  0.00     0.074 A 
ATOM     43  C   UNL A   1      38.812  30.053  29.507  1.00  0.00     0.049 A 
ATOM     44  N   UNL A   1      39.516  30.935  32.307  1.00  0.00    -0.248 NA
ATOM     45  C   UNL A   1      37.713  32.417  32.220  1.00  0.00     0.031 C 
ATOM     46  C   UNL A   1      38.503  29.580  28.159  1.00  0.00     0.029 A 
ATOM     47  N   UNL A   1      39.868  29.269  29.904  1.00  0.00    -0.354 N 
ATOM     48  C   UNL A   1      39.417  31.610  33.520  1.00  0.00     0.074 A 
ATOM     49  C   UNL A   1      38.315  32.540  33.393  1.00  0.00     0.031 C 
ATOM     50  C   UNL A   1      39.356  28.592  27.838  1.00  0.00     0.029 A 
ATOM     51  C   UNL A   1      40.304  28.395  28.934  1.00  0.00     0.049 A 
ATOM     52  H   UNL A   1      40.275  29.327  30.798  1.00  0.00     0.167 HD
ATOM     53  C   UNL A   1      40.170  31.461  34.636  1.00  0.00     0.034 A 
ATOM     54  C   UNL A   1      41.362  27.558  28.924  1.00  0.00     0.034 A 
ATOM     55  C   UNL A   1      41.277  30.540  34.741  1.00  0.00     0.049 A 
ATOM     56  C   UNL A   1      42.258  27.490  30.141  1.00  0.00     0.074 A 
ATOM     57  C   UNL A   1      42.101  30.307  35.828  1.00  0.00     0.029 A 
ATOM     58  N   UNL A   1      41.723  29.712  33.720  1.00  0.00    -0.354 N 
ATOM     59  N   UNL A   1      42.156  28.134  31.282  1.00  0.00    -0.248 NA
ATOM     60  C   UNL A   1      43.408  26.577  30.069  1.00  0.00     0.031 C 
ATOM     61  C   UNL A   1      43.095  29.403  35.438  1.00  0.00     0.029 A 
ATOM     62  C   UNL A   1      42.835  28.997  34.139  1.00  0.00     0.049 A 
ATOM     63  H   UNL A   1      41.312  29.644  32.828  1.00  0.00     0.167 HD
ATOM     64  C   UNL A   1      43.207  27.672  32.074  1.00  0.00     0.074 A 
ATOM     65  C   UNL A   1      43.919  26.689  31.286  1.00  0.00     0.031 C 
ATOM     66  C   UNL A   1      43.545  28.021  33.342  1.00  0.00     0.034 A 
BRANCH  53  67
ATOM     67  C   UNL A   1      39.856  32.357  35.811  1.00  0.00     0.023 A 
ATOM     68  C   UNL A   1      38.952  31.974  36.816  1.00  0.00     0.031 A 
ATOM     69  C   UNL A   1      40.454  33.627  35.914  1.00  0.00     0.131 A 
ATOM     70  C   UNL A   1      38.619  32.873  37.839  1.00  0.00     0.055 A 
ATOM     71  C   UNL A   1      40.183  34.484  36.981  1.00  0.00     0.041 A 
ATOM     72  F   UNL A   1      41.306  34.059  34.972  1.00  0.00    -0.206 F 
ATOM     73  C   UNL A   1      39.250  34.115  37.945  1.00  0.00     0.022 A 
BRANCH  70  74
ATOM     74  S   UNL A   1      37.243  32.458  38.946  1.00  0.00     0.124 S 
ATOM     75  O   UNL A   1      37.513  33.325  40.090  1.00  0.00    -0.237 OA
ATOM     76  O   UNL A   1      36.076  32.804  38.143  1.00  0.00    -0.237 OA
ATOM     77  O   UNL A   1      37.426  31.030  39.200  1.00  0.00    -0.744 OA
ENDBRANCH  70  74
ENDBRANCH  53  67
BRANCH  54  78
ATOM     78  C   UNL A   1      41.674  26.742  27.712  1.00  0.00     0.023 A 
ATOM     79  C   UNL A   1      41.409  25.364  27.679  1.00  0.00     0.031 A 
ATOM     80  C   UNL A   1      42.309  27.315  26.597  1.00  0.00     0.131 A 
ATOM     81  C   UNL A   1      41.822  24.597  26.579  1.00  0.00     0.055 A 
ATOM     82  C   UNL A   1      42.663  26.559  25.477  1.00  0.00     0.041 A 
ATOM     83  F   UNL A   1      42.598  28.627  26.577  1.00  0.00    -0.206 F 
ATOM     84  C   UNL A   1      42.432  25.188  25.470  1.00  0.00     0.022 A 
BRANCH  81  85
ATOM     85  S   UNL A   1      41.647  22.793  26.663  1.00  0.00     0.124 S 
ATOM     86  O   UNL A   1      42.151  22.386  25.356  1.00  0.00    -0.237 OA
ATOM     87  O   UNL A   1      42.487  22.460  27.808  1.00  0.00    -0.237 OA
ATOM     88  O   UNL A   1      40.213  22.599  26.867  1.00  0.00    -0.744 OA
ENDBRANCH  81  85
ENDBRANCH  54  78
BRANCH  66  89
ATOM     89  C   UNL A   1      44.707  27.292  33.978  1.00  0.00     0.023 A 
ATOM     90  C   UNL A   1      44.527  26.139  34.763  1.00  0.00     0.031 A 
ATOM     91  C   UNL A   1      46.020  27.766  33.796  1.00  0.00     0.131 A 
ATOM     92  C   UNL A   1      45.632  25.534  35.381  1.00  0.00     0.055 A 
ATOM     93  C   UNL A   1      47.122  27.120  34.356  1.00  0.00     0.041 A 
ATOM     94  F   UNL A   1      46.254  28.865  33.060  1.00  0.00    -0.206 F 
ATOM     95  C   UNL A   1      46.931  26.005  35.166  1.00  0.00     0.022 A 
BRANCH  92  96
ATOM     96  S   UNL A   1      45.344  24.183  36.557  1.00  0.00     0.124 S 
ATOM     97  O   UNL A   1      46.691  23.915  37.047  1.00  0.00    -0.237 OA
ATOM     98  O   UNL A   1      44.427  24.794  37.514  1.00  0.00    -0.237 OA
ATOM     99  O   UNL A   1      44.763  23.126  35.730  1.00  0.00    -0.744 OA
ENDBRANCH  92  96
ENDBRANCH  66  89
ENDBRANCH  40  41
ENDBRANCH  33  35
ENDBRANCH  32  33
ENDBRANCH  31  32
ENDBRANCH  30  31
ENDBRANCH  29  30
ENDBRANCH   1  29
TORSDOF 22
ENDMDL
MODEL 2
REMARK VINA RESULT:      -9.7      6.234     12.461
REMARK SMILES O=C1NC(=S)/C(=C/c2ccc(-c3ccc(C(=O)OCCOCCOCCOC(=O)c4ccc(-c5c6nc(c(-c7cc(S(=O)(=O)[O-])ccc7F)c7ccc([nH]7)c(-c7cc(S(=O)(=O)[O-])ccc7F)c7nc(c(-c8cc(S(=O)(=O)[O-])ccc8F)c8ccc5[nH]8)C=C7)C=C6)cc4)cc3)o2)S1
REMARK SMILES IDX 23 1 22 2 21 3 20 4 19 5 18 6 16 7 17 8 15 9 12 10 13 11
REMARK SMILES IDX 94 12 14 13 93 14 11 15 8 16 9 17 95 18 10 19 7 20 1 21 2 22
REMARK SMILES IDX 3 23 96 24 4 25 6 27 5 28 24 29 25 30 26 31 27 32 28 33
REMARK SMILES IDX 29 34 30 35 31 36 92 37 32 38 91 39 33 40 34 41 35 42 85 43
REMARK SMILES IDX 36 44 90 45 84 46 86 47 37 48 89 49 83 50 82 51 38 53 70 54
REMARK SMILES IDX 50 55 69 56 51 57 54 58 68 59 87 60 52 61 53 62 67 64 88 65
REMARK SMILES IDX 55 66 39 67 40 68 48 69 41 70 47 71 49 72 46 73 42 74 43 75
REMARK SMILES IDX 44 76 45 77 71 78 72 79 80 80 73 81 79 82 81 83 78 84 74 85
REMARK SMILES IDX 75 86 76 87 77 88 56 89 57 90 65 91 58 92 64 93 66 94 63 95
REMARK SMILES IDX 59 96 60 97 61 98 62 99
REMARK H PARENT 3 26 86 52 54 63
REMARK Flexibility Score: inf
ROOT
ATOM      1  C   UNL A   1      52.834  30.253  23.413  1.00  0.00     0.188 C 
ENDROOT
BRANCH   1   2
ATOM      2  C   UNL A   1      52.248  29.648  22.120  1.00  0.00     0.188 C 
BRANCH   2   3
ATOM      3  O   UNL A   1      50.922  29.959  21.737  1.00  0.00    -0.376 OA
BRANCH   3   4
ATOM      4  C   UNL A   1      50.176  29.071  20.921  1.00  0.00     0.202 C 
BRANCH   4   5
ATOM      5  C   UNL A   1      49.187  28.033  21.479  1.00  0.00     0.261 C 
BRANCH   5   6
ATOM      6  O   UNL A   1      49.717  27.094  22.421  1.00  0.00    -0.460 OA
BRANCH   6   7
ATOM      7  C   UNL A   1      49.514  27.410  23.724  1.00  0.00     0.338 C 
ATOM      8  O   UNL A   1      50.186  28.164  24.406  1.00  0.00    -0.246 OA
BRANCH   7   9
ATOM      9  C   UNL A   1      48.244  26.814  24.201  1.00  0.00     0.060 A 
ATOM     10  C   UNL A   1      45.947  25.727  25.371  1.00  0.00     0.017 A 
ATOM     11  C   UNL A   1      46.161  27.109  25.407  1.00  0.00     0.013 A 
ATOM     12  C   UNL A   1      46.833  24.912  24.646  1.00  0.00     0.013 A 
ATOM     13  C   UNL A   1      47.318  27.650  24.838  1.00  0.00     0.016 A 
ATOM     14  C   UNL A   1      47.977  25.452  24.053  1.00  0.00     0.016 A 
BRANCH  10  15
ATOM     15  C   UNL A   1      44.976  25.109  26.257  1.00  0.00     0.134 A 
ATOM     16  C   UNL A   1      43.473  23.588  26.845  1.00  0.00     0.128 A 
ATOM     17  C   UNL A   1      43.456  24.602  27.797  1.00  0.00     0.051 A 
ATOM     18  O   UNL A   1      44.440  23.906  25.909  1.00  0.00    -0.457 OA
ATOM     19  C   UNL A   1      44.407  25.566  27.421  1.00  0.00     0.051 A 
BRANCH  16  20
ATOM     20  C   UNL A   1      42.686  22.403  26.804  1.00  0.00     0.065 C 
ATOM     21  O   UNL A   1      44.873  18.658  24.218  1.00  0.00    -0.261 OA
ATOM     22  C   UNL A   1      44.162  19.395  24.875  1.00  0.00     0.289 C 
ATOM     23  N   UNL A   1      42.907  19.109  25.316  1.00  0.00    -0.307 N 
ATOM     24  S   UNL A   1      44.570  21.032  25.324  1.00  0.00    -0.025 SA
ATOM     25  C   UNL A   1      42.201  20.083  25.974  1.00  0.00     0.120 C 
ATOM     26  H   UNL A   1      42.513  18.220  25.164  1.00  0.00     0.171 HD
ATOM     27  C   UNL A   1      43.053  21.301  26.130  1.00  0.00     0.056 C 
ATOM     28  S   UNL A   1      40.612  19.819  26.407  1.00  0.00    -0.059 S 
ENDBRANCH  16  20
ENDBRANCH  10  15
ENDBRANCH   7   9
ENDBRANCH   6   7
ENDBRANCH   5   6
ENDBRANCH   4   5
ENDBRANCH   3   4
ENDBRANCH   2   3
ENDBRANCH   1   2
BRANCH   1  29
ATOM     29  O   UNL A   1      53.806  29.491  24.086  1.00  0.00    -0.376 OA
BRANCH  29  30
ATOM     30  C   UNL A   1      53.446  28.714  25.216  1.00  0.00     0.202 C 
BRANCH  30  31
ATOM     31  C   UNL A   1      53.543  27.179  25.350  1.00  0.00     0.261 C 
BRANCH  31  32
ATOM     32  O   UNL A   1      53.204  26.567  26.595  1.00  0.00    -0.460 OA
BRANCH  32  33
ATOM     33  C   UNL A   1      52.238  25.616  26.540  1.00  0.00     0.338 C 
ATOM     34  O   UNL A   1      52.328  24.510  26.038  1.00  0.00    -0.246 OA
BRANCH  33  35
ATOM     35  C   UNL A   1      51.091  26.065  27.353  1.00  0.00     0.060 A 
ATOM     36  C   UNL A   1      49.825  25.524  27.099  1.00  0.00     0.016 A 
ATOM     37  C   UNL A   1      51.264  27.032  28.345  1.00  0.00     0.016 A 
ATOM     38  C   UNL A   1      48.719  25.961  27.830  1.00  0.00     0.010 A 
ATOM     39  C   UNL A   1      50.150  27.485  29.060  1.00  0.00     0.010 A 
ATOM     40  C   UNL A   1      48.868  26.970  28.789  1.00  0.00    -0.014 A 
BRANCH  40  41
ATOM     41  C   UNL A   1      47.670  27.609  29.389  1.00  0.00     0.031 A 
ATOM     42  C   UNL A   1      46.967  26.901  30.517  1.00  0.00     0.074 A 
ATOM     43  C   UNL A   1      47.219  28.799  28.953  1.00  0.00     0.049 A 
ATOM     44  N   UNL A   1      45.862  27.219  31.139  1.00  0.00    -0.248 NA
ATOM     45  C   UNL A   1      47.599  25.665  30.999  1.00  0.00     0.031 C 
ATOM     46  C   UNL A   1      47.845  29.609  27.909  1.00  0.00     0.029 A 
ATOM     47  N   UNL A   1      46.119  29.531  29.331  1.00  0.00    -0.354 N 
ATOM     48  C   UNL A   1      45.660  26.219  32.084  1.00  0.00     0.074 A 
ATOM     49  C   UNL A   1      46.738  25.266  31.923  1.00  0.00     0.031 C 
ATOM     50  C   UNL A   1      47.113  30.722  27.725  1.00  0.00     0.029 A 
ATOM     51  C   UNL A   1      45.942  30.682  28.599  1.00  0.00     0.049 A 
ATOM     52  H   UNL A   1      45.514  29.256  30.057  1.00  0.00     0.167 HD
ATOM     53  C   UNL A   1      44.672  26.109  33.005  1.00  0.00     0.034 A 
ATOM     54  C   UNL A   1      44.936  31.581  28.614  1.00  0.00     0.034 A 
ATOM     55  C   UNL A   1      43.594  27.060  33.142  1.00  0.00     0.049 A 
ATOM     56  C   UNL A   1      43.784  31.380  29.574  1.00  0.00     0.074 A 
ATOM     57  C   UNL A   1      42.545  27.047  34.044  1.00  0.00     0.029 A 
ATOM     58  N   UNL A   1      43.417  28.184  32.346  1.00  0.00    -0.354 N 
ATOM     59  N   UNL A   1      43.602  30.429  30.462  1.00  0.00    -0.248 NA
ATOM     60  C   UNL A   1      42.705  32.377  29.534  1.00  0.00     0.031 C 
ATOM     61  C   UNL A   1      41.691  28.112  33.740  1.00  0.00     0.029 A 
ATOM     62  C   UNL A   1      42.256  28.849  32.711  1.00  0.00     0.049 A 
ATOM     63  H   UNL A   1      44.026  28.467  31.626  1.00  0.00     0.167 HD
ATOM     64  C   UNL A   1      42.407  30.739  31.112  1.00  0.00     0.074 A 
ATOM     65  C   UNL A   1      41.922  31.968  30.522  1.00  0.00     0.031 C 
ATOM     66  C   UNL A   1      41.775  30.073  32.112  1.00  0.00     0.034 A 
BRANCH  53  67
ATOM     67  C   UNL A   1      44.682  24.889  33.894  1.00  0.00     0.023 A 
ATOM     68  C   UNL A   1      45.185  24.930  35.206  1.00  0.00     0.031 A 
ATOM     69  C   UNL A   1      44.202  23.657  33.413  1.00  0.00     0.131 A 
ATOM     70  C   UNL A   1      45.261  23.753  35.964  1.00  0.00     0.055 A 
ATOM     71  C   UNL A   1      44.202  22.506  34.203  1.00  0.00     0.041 A 
ATOM     72  F   UNL A   1      43.733  23.548  32.160  1.00  0.00    -0.206 F 
ATOM     73  C   UNL A   1      44.747  22.547  35.483  1.00  0.00     0.022 A 
BRANCH  70  74
ATOM     74  S   UNL A   1      46.175  23.788  37.531  1.00  0.00     0.124 S 
ATOM     75  O   UNL A   1      47.519  24.140  37.081  1.00  0.00    -0.237 OA
ATOM     76  O   UNL A   1      45.465  24.813  38.287  1.00  0.00    -0.237 OA
ATOM     77  O   UNL A   1      46.033  22.425  38.042  1.00  0.00    -0.744 OA
ENDBRANCH  70  74
ENDBRANCH  53  67
BRANCH  54  78
ATOM     78  C   UNL A   1      44.934  32.736  27.667  1.00  0.00     0.023 A 
ATOM     79  C   UNL A   1      45.535  33.957  28.013  1.00  0.00     0.031 A 
ATOM     80  C   UNL A   1      44.269  32.658  26.431  1.00  0.00     0.131 A 
ATOM     81  C   UNL A   1      45.414  35.064  27.158  1.00  0.00     0.055 A 
ATOM     82  C   UNL A   1      44.205  33.744  25.555  1.00  0.00     0.041 A 
ATOM     83  F   UNL A   1      43.667  31.518  26.053  1.00  0.00    -0.206 F 
ATOM     84  C   UNL A   1      44.768  34.961  25.924  1.00  0.00     0.022 A 
BRANCH  81  85
ATOM     85  S   UNL A   1      46.023  36.674  27.730  1.00  0.00     0.124 S 
ATOM     86  O   UNL A   1      47.336  36.322  28.258  1.00  0.00    -0.237 OA
ATOM     87  O   UNL A   1      46.014  37.457  26.499  1.00  0.00    -0.237 OA
ATOM     88  O   UNL A   1      45.035  37.076  28.730  1.00  0.00    -0.744 OA
ENDBRANCH  81  85
ENDBRANCH  54  78
BRANCH  66  89
ATOM     89  C   UNL A   1      40.516  30.693  32.673  1.00  0.00     0.023 A 
ATOM     90  C   UNL A   1      39.253  30.478  32.092  1.00  0.00     0.031 A 
ATOM     91  C   UNL A   1      40.584  31.518  33.812  1.00  0.00     0.131 A 
ATOM     92  C   UNL A   1      38.122  31.125  32.615  1.00  0.00     0.055 A 
ATOM     93  C   UNL A   1      39.447  32.103  34.369  1.00  0.00     0.041 A 
ATOM     94  F   UNL A   1      41.762  31.763  34.408  1.00  0.00    -0.206 F 
ATOM     95  C   UNL A   1      38.208  31.920  33.762  1.00  0.00     0.022 A 
BRANCH  92  96
ATOM     96  S   UNL A   1      36.551  31.001  31.717  1.00  0.00     0.124 S 
ATOM     97  O   UNL A   1      35.671  31.832  32.531  1.00  0.00    -0.237 OA
ATOM     98  O   UNL A   1      36.900  31.536  30.404  1.00  0.00    -0.237 OA
ATOM     99  O   UNL A   1      36.253  29.570  31.743  1.00  0.00    -0.744 OA
ENDBRANCH  92  96
ENDBRANCH  66  89
ENDBRANCH  40  41
ENDBRANCH  33  35
ENDBRANCH  32  33
ENDBRANCH  31  32
ENDBRANCH  30  31
ENDBRANCH  29  30
ENDBRANCH   1  29
TORSDOF 22
ENDMDL
MODEL 3
REMARK VINA RESULT:      -9.7      6.186     10.439
REMARK SMILES O=C1NC(=S)/C(=C/c2ccc(-c3ccc(C(=O)OCCOCCOCCOC(=O)c4ccc(-c5c6nc(c(-c7cc(S(=O)(=O)[O-])ccc7F)c7ccc([nH]7)c(-c7cc(S(=O)(=O)[O-])ccc7F)c7nc(c(-c8cc(S(=O)(=O)[O-])ccc8F)c8ccc5[nH]8)C=C7)C=C6)cc4)cc3)o2)S1
REMARK SMILES IDX 23 1 22 2 21 3 20 4 19 5 18 6 16 7 17 8 15 9 12 10 13 11
REMARK SMILES IDX 94 12 14 13 93 14 11 15 8 16 9 17 95 18 10 19 7 20 1 21 2 22
REMARK SMILES IDX 3 23 96 24 4 25 6 27 5 28 24 29 25 30 26 31 27 32 28 33
REMARK SMILES IDX 29 34 30 35 31 36 92 37 32 38 91 39 33 40 34 41 35 42 85 43
REMARK SMILES IDX 36 44 90 45 84 46 86 47 37 48 89 49 83 50 82 51 38 53 70 54
REMARK SMILES IDX 50 55 69 56 51 57 54 58 68 59 87 60 52 61 53 62 67 64 88 65
REMARK SMILES IDX 55 66 39 67 40 68 48 69 41 70 47 71 49 72 46 73 42 74 43 75
REMARK SMILES IDX 44 76 45 77 71 78 72 79 80 80 73 81 79 82 81 83 78 84 74 85
REMARK SMILES IDX 75 86 76 87 77 88 56 89 57 90 65 91 58 92 64 93 66 94 63 95
REMARK SMILES IDX 59 96 60 97 61 98 62 99
REMARK H PARENT 3 26 86 52 54 63
REMARK Flexibility Score: inf
ROOT
ATOM      1  C   UNL A   1      39.276  27.003  28.428  1.00  0.00     0.188 C 
ENDROOT
BRANCH   1   2
ATOM      2  C   UNL A   1      38.709  28.391  28.066  1.00  0.00     0.188 C 
BRANCH   2   3
ATOM      3  O   UNL A   1      38.138  29.203  29.075  1.00  0.00    -0.376 OA
BRANCH   3   4
ATOM      4  C   UNL A   1      37.316  30.308  28.738  1.00  0.00     0.202 C 
BRANCH   4   5
ATOM      5  C   UNL A   1      36.188  30.241  27.694  1.00  0.00     0.261 C 
BRANCH   5   6
ATOM      6  O   UNL A   1      35.098  29.362  27.994  1.00  0.00    -0.460 OA
BRANCH   6   7
ATOM      7  C   UNL A   1      33.881  29.791  27.576  1.00  0.00     0.338 C 
ATOM      8  O   UNL A   1      33.387  30.889  27.772  1.00  0.00    -0.246 OA
BRANCH   7   9
ATOM      9  C   UNL A   1      33.256  28.775  26.699  1.00  0.00     0.060 A 
ATOM     10  C   UNL A   1      32.164  26.657  25.233  1.00  0.00     0.017 A 
ATOM     11  C   UNL A   1      31.541  27.084  26.410  1.00  0.00     0.013 A 
ATOM     12  C   UNL A   1      33.268  27.373  24.740  1.00  0.00     0.013 A 
ATOM     13  C   UNL A   1      32.097  28.131  27.152  1.00  0.00     0.016 A 
ATOM     14  C   UNL A   1      33.812  28.436  25.464  1.00  0.00     0.016 A 
BRANCH  10  15
ATOM     15  C   UNL A   1      31.840  25.363  24.656  1.00  0.00     0.134 A 
ATOM     16  C   UNL A   1      31.911  23.152  24.512  1.00  0.00     0.128 A 
ATOM     17  C   UNL A   1      31.276  23.638  23.375  1.00  0.00     0.051 A 
ATOM     18  O   UNL A   1      32.233  24.235  25.309  1.00  0.00    -0.457 OA
ATOM     19  C   UNL A   1      31.235  25.040  23.466  1.00  0.00     0.051 A 
BRANCH  16  20
ATOM     20  C   UNL A   1      32.182  21.799  24.862  1.00  0.00     0.065 C 
ATOM     21  O   UNL A   1      37.105  20.681  24.798  1.00  0.00    -0.261 OA
ATOM     22  C   UNL A   1      35.892  20.711  24.881  1.00  0.00     0.289 C 
ATOM     23  N   UNL A   1      35.083  19.649  25.139  1.00  0.00    -0.307 N 
ATOM     24  S   UNL A   1      34.910  22.126  24.598  1.00  0.00    -0.025 SA
ATOM     25  C   UNL A   1      33.724  19.833  25.115  1.00  0.00     0.120 C 
ATOM     26  H   UNL A   1      35.464  18.764  25.337  1.00  0.00     0.171 HD
ATOM     27  C   UNL A   1      33.418  21.274  24.862  1.00  0.00     0.056 C 
ATOM     28  S   UNL A   1      32.698  18.529  25.287  1.00  0.00    -0.059 S 
ENDBRANCH  16  20
ENDBRANCH  10  15
ENDBRANCH   7   9
ENDBRANCH   6   7
ENDBRANCH   5   6
ENDBRANCH   4   5
ENDBRANCH   3   4
ENDBRANCH   2   3
ENDBRANCH   1   2
BRANCH   1  29
ATOM     29  O   UNL A   1      40.422  26.583  27.728  1.00  0.00    -0.376 OA
BRANCH  29  30
ATOM     30  C   UNL A   1      40.367  25.439  26.893  1.00  0.00     0.202 C 
BRANCH  30  31
ATOM     31  C   UNL A   1      41.534  24.826  26.090  1.00  0.00     0.261 C 
BRANCH  31  32
ATOM     32  O   UNL A   1      42.188  25.620  25.098  1.00  0.00    -0.460 OA
BRANCH  32  33
ATOM     33  C   UNL A   1      43.435  26.050  25.417  1.00  0.00     0.338 C 
ATOM     34  O   UNL A   1      44.487  25.651  24.953  1.00  0.00    -0.246 OA
BRANCH  33  35
ATOM     35  C   UNL A   1      43.311  27.224  26.303  1.00  0.00     0.060 A 
ATOM     36  C   UNL A   1      42.572  28.331  25.864  1.00  0.00     0.016 A 
ATOM     37  C   UNL A   1      43.942  27.239  27.548  1.00  0.00     0.016 A 
ATOM     38  C   UNL A   1      42.473  29.467  26.669  1.00  0.00     0.010 A 
ATOM     39  C   UNL A   1      43.860  28.388  28.342  1.00  0.00     0.010 A 
ATOM     40  C   UNL A   1      43.146  29.517  27.896  1.00  0.00    -0.014 A 
BRANCH  40  41
ATOM     41  C   UNL A   1      43.250  30.800  28.637  1.00  0.00     0.031 A 
ATOM     42  C   UNL A   1      44.351  31.756  28.264  1.00  0.00     0.074 A 
ATOM     43  C   UNL A   1      42.379  31.118  29.612  1.00  0.00     0.049 A 
ATOM     44  N   UNL A   1      44.691  32.890  28.819  1.00  0.00    -0.248 NA
ATOM     45  C   UNL A   1      45.180  31.372  27.112  1.00  0.00     0.031 C 
ATOM     46  C   UNL A   1      41.238  30.303  30.024  1.00  0.00     0.029 A 
ATOM     47  N   UNL A   1      42.327  32.213  30.439  1.00  0.00    -0.354 N 
ATOM     48  C   UNL A   1      45.780  33.355  28.088  1.00  0.00     0.074 A 
ATOM     49  C   UNL A   1      46.064  32.359  27.077  1.00  0.00     0.031 C 
ATOM     50  C   UNL A   1      40.603  30.923  31.034  1.00  0.00     0.029 A 
ATOM     51  C   UNL A   1      41.318  32.153  31.373  1.00  0.00     0.049 A 
ATOM     52  H   UNL A   1      42.953  32.970  30.371  1.00  0.00     0.167 HD
ATOM     53  C   UNL A   1      46.474  34.510  28.242  1.00  0.00     0.034 A 
ATOM     54  C   UNL A   1      41.027  32.979  32.400  1.00  0.00     0.034 A 
ATOM     55  C   UNL A   1      46.189  35.486  29.267  1.00  0.00     0.049 A 
ATOM     56  C   UNL A   1      41.884  34.205  32.622  1.00  0.00     0.074 A 
ATOM     57  C   UNL A   1      46.825  36.691  29.507  1.00  0.00     0.029 A 
ATOM     58  N   UNL A   1      45.195  35.364  30.229  1.00  0.00    -0.354 N 
ATOM     59  N   UNL A   1      42.913  34.634  31.927  1.00  0.00    -0.248 NA
ATOM     60  C   UNL A   1      41.536  35.060  33.767  1.00  0.00     0.031 C 
ATOM     61  C   UNL A   1      46.275  37.255  30.663  1.00  0.00     0.029 A 
ATOM     62  C   UNL A   1      45.228  36.453  31.089  1.00  0.00     0.049 A 
ATOM     63  H   UNL A   1      44.561  34.614  30.294  1.00  0.00     0.167 HD
ATOM     64  C   UNL A   1      43.307  35.830  32.529  1.00  0.00     0.074 A 
ATOM     65  C   UNL A   1      42.398  36.056  33.633  1.00  0.00     0.031 C 
ATOM     66  C   UNL A   1      44.321  36.668  32.193  1.00  0.00     0.034 A 
BRANCH  53  67
ATOM     67  C   UNL A   1      47.643  34.747  27.317  1.00  0.00     0.023 A 
ATOM     68  C   UNL A   1      48.925  34.241  27.594  1.00  0.00     0.031 A 
ATOM     69  C   UNL A   1      47.477  35.512  26.147  1.00  0.00     0.131 A 
ATOM     70  C   UNL A   1      50.001  34.563  26.756  1.00  0.00     0.055 A 
ATOM     71  C   UNL A   1      48.536  35.757  25.271  1.00  0.00     0.041 A 
ATOM     72  F   UNL A   1      46.284  36.043  25.842  1.00  0.00    -0.206 F 
ATOM     73  C   UNL A   1      49.811  35.294  25.581  1.00  0.00     0.022 A 
BRANCH  70  74
ATOM     74  S   UNL A   1      51.680  34.138  27.298  1.00  0.00     0.124 S 
ATOM     75  O   UNL A   1      51.450  33.743  28.685  1.00  0.00    -0.237 OA
ATOM     76  O   UNL A   1      52.047  33.067  26.379  1.00  0.00    -0.237 OA
ATOM     77  O   UNL A   1      52.422  35.387  27.128  1.00  0.00    -0.744 OA
ENDBRANCH  70  74
ENDBRANCH  53  67
BRANCH  54  78
ATOM     78  C   UNL A   1      39.903  32.667  33.332  1.00  0.00     0.023 A 
ATOM     79  C   UNL A   1      38.610  33.164  33.100  1.00  0.00     0.031 A 
ATOM     80  C   UNL A   1      40.120  31.926  34.507  1.00  0.00     0.131 A 
ATOM     81  C   UNL A   1      37.600  32.959  34.053  1.00  0.00     0.055 A 
ATOM     82  C   UNL A   1      39.096  31.671  35.422  1.00  0.00     0.041 A 
ATOM     83  F   UNL A   1      41.339  31.435  34.786  1.00  0.00    -0.206 F 
ATOM     84  C   UNL A   1      37.829  32.202  35.204  1.00  0.00     0.022 A 
BRANCH  81  85
ATOM     85  S   UNL A   1      36.004  33.789  33.818  1.00  0.00     0.124 S 
ATOM     86  O   UNL A   1      36.423  35.115  33.377  1.00  0.00    -0.237 OA
ATOM     87  O   UNL A   1      35.370  32.947  32.809  1.00  0.00    -0.237 OA
ATOM     88  O   UNL A   1      35.393  33.736  35.144  1.00  0.00    -0.744 OA
ENDBRANCH  81  85
ENDBRANCH  54  78
BRANCH  66  89
ATOM     89  C   UNL A   1      44.466  37.941  32.995  1.00  0.00     0.023 A 
ATOM     90  C   UNL A   1      43.674  39.076  32.747  1.00  0.00     0.031 A 
ATOM     91  C   UNL A   1      45.420  38.018  34.028  1.00  0.00     0.131 A 
ATOM     92  C   UNL A   1      43.890  40.254  33.480  1.00  0.00     0.055 A 
ATOM     93  C   UNL A   1      45.582  39.168  34.800  1.00  0.00     0.041 A 
ATOM     94  F   UNL A   1      46.209  36.967  34.309  1.00  0.00    -0.206 F 
ATOM     95  C   UNL A   1      44.824  40.301  34.518  1.00  0.00     0.022 A 
BRANCH  92  96
ATOM     96  S   UNL A   1      43.005  41.760  32.992  1.00  0.00     0.124 S 
ATOM     97  O   UNL A   1      42.825  41.555  31.559  1.00  0.00    -0.237 OA
ATOM     98  O   UNL A   1      41.794  41.688  33.804  1.00  0.00    -0.237 OA
ATOM     99  O   UNL A   1      43.929  42.835  33.353  1.00  0.00    -0.744 OA
ENDBRANCH  92  96
ENDBRANCH  66  89
ENDBRANCH  40  41
ENDBRANCH  33  35
ENDBRANCH  32  33
ENDBRANCH  31  32
ENDBRANCH  30  31
ENDBRANCH  29  30
ENDBRANCH   1  29
TORSDOF 22
ENDMDL
