MODEL 1
REMARK VINA RESULT:      -8.8      0.000      0.000
REMARK SMILES Cc1cc2c(c(C)c1Br)C=C(C(=O)OCCOCCOCCOC(=O)c1ccc(-c3c4nc(c(-c5cc(S(=O)(=O)[O-])ccc5F)c5ccc([nH]5)c(-c5cc(S(=O)(=O)[O-])ccc5F)c5nc(c(-c6cc(S(=O)(=O)[O-])ccc6F)c6ccc3[nH]6)C=C5)C=C4)cc1)[C@@H](C(F)(F)F)O2
REMARK SMILES IDX 19 1 18 2 17 3 16 4 15 5 14 6 12 7 13 8 11 9 1 10 2 11 3 12
REMARK SMILES IDX 8 13 4 14 6 15 9 16 5 17 94 18 7 19 10 20 89 21 90 22 91 23
REMARK SMILES IDX 92 24 93 25 20 26 21 27 22 28 23 29 24 30 25 31 26 32 27 33
REMARK SMILES IDX 88 34 28 35 87 36 29 37 30 38 31 39 81 40 32 41 86 42 80 43
REMARK SMILES IDX 82 44 33 45 85 46 79 47 78 48 34 50 66 51 46 52 65 53 47 54
REMARK SMILES IDX 50 55 64 56 83 57 48 58 49 59 63 61 84 62 51 63 35 64 36 65
REMARK SMILES IDX 44 66 37 67 43 68 45 69 42 70 38 71 39 72 40 73 41 74 67 75
REMARK SMILES IDX 68 76 76 77 69 78 75 79 77 80 74 81 70 82 71 83 72 84 73 85
REMARK SMILES IDX 52 86 53 87 61 88 54 89 60 90 62 91 59 92 55 93 56 94 57 95
REMARK SMILES IDX 58 96
REMARK H PARENT 82 49 50 60
REMARK Flexibility Score: inf
ROOT
ATOM      1  C   UNL A   1      33.216  36.118  30.736  1.00  0.00     0.188 C 
ENDROOT
BRANCH   1   2
ATOM      2  C   UNL A   1      32.541  36.127  32.124  1.00  0.00     0.188 C 
BRANCH   2   3
ATOM      3  O   UNL A   1      32.323  34.897  32.775  1.00  0.00    -0.376 OA
BRANCH   3   4
ATOM      4  C   UNL A   1      33.329  33.912  32.901  1.00  0.00     0.202 C 
BRANCH   4   5
ATOM      5  C   UNL A   1      34.660  34.067  33.654  1.00  0.00     0.261 C 
BRANCH   5   6
ATOM      6  O   UNL A   1      35.328  32.872  34.053  1.00  0.00    -0.460 OA
BRANCH   6   7
ATOM      7  C   UNL A   1      36.032  32.252  33.075  1.00  0.00     0.338 C 
ATOM      8  O   UNL A   1      35.636  31.358  32.346  1.00  0.00    -0.246 OA
BRANCH   7   9
ATOM      9  C   UNL A   1      37.353  32.894  32.950  1.00  0.00     0.087 C 
ATOM     10  C   UNL A   1      43.213  34.953  31.164  1.00  0.00     0.046 C 
ATOM     11  C   UNL A   1      41.741  34.652  31.260  1.00  0.00    -0.033 A 
ATOM     12  C   UNL A   1      41.213  34.334  32.517  1.00  0.00     0.051 A 
ATOM     13  C   UNL A   1      40.887  34.640  30.138  1.00  0.00     0.024 A 
ATOM     14  C   UNL A   1      39.885  33.942  32.655  1.00  0.00     0.128 A 
ATOM     15  C   UNL A   1      39.523  34.277  30.264  1.00  0.00    -0.026 A 
ATOM     16  Br  UNL A   1      41.630  35.089  28.432  1.00  0.00    -0.050 Br
ATOM     17  C   UNL A   1      39.044  33.872  31.538  1.00  0.00     0.021 A 
ATOM     18  O   UNL A   1      39.509  33.639  33.934  1.00  0.00    -0.475 OA
ATOM     19  C   UNL A   1      38.571  34.294  29.087  1.00  0.00     0.046 C 
ATOM     20  C   UNL A   1      37.708  33.308  31.729  1.00  0.00     0.027 C 
ATOM     21  C   UNL A   1      38.212  33.040  34.171  1.00  0.00     0.316 C 
BRANCH  21  22
ATOM     22  C   UNL A   1      38.426  31.713  34.913  1.00  0.00     0.430 C 
ATOM     23  F   UNL A   1      39.735  31.530  35.221  1.00  0.00    -0.167 F 
ATOM     24  F   UNL A   1      37.752  31.676  36.088  1.00  0.00    -0.167 F 
ATOM     25  F   UNL A   1      38.030  30.646  34.186  1.00  0.00    -0.167 F 
ENDBRANCH  21  22
ENDBRANCH   7   9
ENDBRANCH   6   7
ENDBRANCH   5   6
ENDBRANCH   4   5
ENDBRANCH   3   4
ENDBRANCH   2   3
ENDBRANCH   1   2
BRANCH   1  26
ATOM     26  O   UNL A   1      33.238  34.925  29.968  1.00  0.00    -0.376 OA
BRANCH  26  27
ATOM     27  C   UNL A   1      34.464  34.537  29.359  1.00  0.00     0.202 C 
BRANCH  27  28
ATOM     28  C   UNL A   1      34.517  33.232  28.554  1.00  0.00     0.261 C 
BRANCH  28  29
ATOM     29  O   UNL A   1      35.420  32.261  29.112  1.00  0.00    -0.460 OA
BRANCH  29  30
ATOM     30  C   UNL A   1      35.249  30.989  28.669  1.00  0.00     0.338 C 
ATOM     31  O   UNL A   1      34.250  30.517  28.157  1.00  0.00    -0.246 OA
BRANCH  30  32
ATOM     32  C   UNL A   1      36.546  30.287  28.707  1.00  0.00     0.060 A 
ATOM     33  C   UNL A   1      36.855  29.539  29.851  1.00  0.00     0.016 A 
ATOM     34  C   UNL A   1      37.457  30.384  27.653  1.00  0.00     0.016 A 
ATOM     35  C   UNL A   1      38.084  28.890  29.947  1.00  0.00     0.010 A 
ATOM     36  C   UNL A   1      38.704  29.758  27.766  1.00  0.00     0.010 A 
ATOM     37  C   UNL A   1      39.030  29.027  28.923  1.00  0.00    -0.014 A 
BRANCH  37  38
ATOM     38  C   UNL A   1      40.420  28.577  29.173  1.00  0.00     0.031 A 
ATOM     39  C   UNL A   1      41.212  29.283  30.241  1.00  0.00     0.074 A 
ATOM     40  C   UNL A   1      40.943  27.518  28.530  1.00  0.00     0.049 A 
ATOM     41  N   UNL A   1      42.422  29.042  30.670  1.00  0.00    -0.248 NA
ATOM     42  C   UNL A   1      40.539  30.402  30.922  1.00  0.00     0.031 C 
ATOM     43  C   UNL A   1      40.251  26.713  27.523  1.00  0.00     0.029 A 
ATOM     44  N   UNL A   1      42.178  26.930  28.640  1.00  0.00    -0.354 N 
ATOM     45  C   UNL A   1      42.647  29.959  31.691  1.00  0.00     0.074 A 
ATOM     46  C   UNL A   1      41.465  30.786  31.787  1.00  0.00     0.031 C 
ATOM     47  C   UNL A   1      41.073  25.730  27.113  1.00  0.00     0.029 A 
ATOM     48  C   UNL A   1      42.357  25.852  27.804  1.00  0.00     0.049 A 
ATOM     49  H   UNL A   1      42.873  27.249  29.260  1.00  0.00     0.167 HD
ATOM     50  C   UNL A   1      43.733  30.089  32.487  1.00  0.00     0.034 A 
ATOM     51  C   UNL A   1      43.439  25.067  27.610  1.00  0.00     0.034 A 
ATOM     52  C   UNL A   1      44.919  29.285  32.369  1.00  0.00     0.049 A 
ATOM     53  C   UNL A   1      44.696  25.334  28.403  1.00  0.00     0.074 A 
ATOM     54  C   UNL A   1      46.077  29.344  33.123  1.00  0.00     0.029 A 
ATOM     55  N   UNL A   1      45.106  28.286  31.425  1.00  0.00    -0.354 N 
ATOM     56  N   UNL A   1      44.899  26.213  29.358  1.00  0.00    -0.248 NA
ATOM     57  C   UNL A   1      45.876  24.515  28.084  1.00  0.00     0.031 C 
ATOM     58  C   UNL A   1      46.988  28.425  32.594  1.00  0.00     0.029 A 
ATOM     59  C   UNL A   1      46.376  27.752  31.548  1.00  0.00     0.049 A 
ATOM     60  H   UNL A   1      44.434  28.000  30.765  1.00  0.00     0.167 HD
ATOM     61  C   UNL A   1      46.221  26.042  29.759  1.00  0.00     0.074 A 
ATOM     62  C   UNL A   1      46.770  24.974  28.950  1.00  0.00     0.031 C 
ATOM     63  C   UNL A   1      46.916  26.705  30.716  1.00  0.00     0.034 A 
BRANCH  50  64
ATOM     64  C   UNL A   1      43.695  31.171  33.530  1.00  0.00     0.023 A 
ATOM     65  C   UNL A   1      44.415  32.366  33.367  1.00  0.00     0.031 A 
ATOM     66  C   UNL A   1      42.938  31.002  34.701  1.00  0.00     0.131 A 
ATOM     67  C   UNL A   1      44.398  33.332  34.382  1.00  0.00     0.055 A 
ATOM     68  C   UNL A   1      42.877  31.992  35.681  1.00  0.00     0.041 A 
ATOM     69  F   UNL A   1      42.252  29.867  34.912  1.00  0.00    -0.206 F 
ATOM     70  C   UNL A   1      43.616  33.163  35.529  1.00  0.00     0.022 A 
BRANCH  67  71
ATOM     71  S   UNL A   1      45.479  34.778  34.225  1.00  0.00     0.124 S 
ATOM     72  O   UNL A   1      46.042  34.581  32.892  1.00  0.00    -0.237 OA
ATOM     73  O   UNL A   1      44.546  35.890  34.365  1.00  0.00    -0.237 OA
ATOM     74  O   UNL A   1      46.427  34.619  35.326  1.00  0.00    -0.744 OA
ENDBRANCH  67  71
ENDBRANCH  50  64
BRANCH  51  75
ATOM     75  C   UNL A   1      43.409  23.982  26.590  1.00  0.00     0.023 A 
ATOM     76  C   UNL A   1      42.716  22.786  26.823  1.00  0.00     0.031 A 
ATOM     77  C   UNL A   1      44.114  24.116  25.380  1.00  0.00     0.131 A 
ATOM     78  C   UNL A   1      42.762  21.756  25.869  1.00  0.00     0.055 A 
ATOM     79  C   UNL A   1      44.126  23.104  24.419  1.00  0.00     0.041 A 
ATOM     80  F   UNL A   1      44.797  25.241  25.113  1.00  0.00    -0.206 F 
ATOM     81  C   UNL A   1      43.451  21.913  24.663  1.00  0.00     0.022 A 
BRANCH  78  82
ATOM     82  S   UNL A   1      41.933  20.184  26.238  1.00  0.00     0.124 S 
ATOM     83  O   UNL A   1      42.515  19.301  25.235  1.00  0.00    -0.237 OA
ATOM     84  O   UNL A   1      42.336  19.943  27.620  1.00  0.00    -0.237 OA
ATOM     85  O   UNL A   1      40.518  20.495  26.051  1.00  0.00    -0.744 OA
ENDBRANCH  78  82
ENDBRANCH  51  75
BRANCH  63  86
ATOM     86  C   UNL A   1      48.348  26.306  30.951  1.00  0.00     0.023 A 
ATOM     87  C   UNL A   1      48.692  25.399  31.966  1.00  0.00     0.031 A 
ATOM     88  C   UNL A   1      49.363  26.768  30.095  1.00  0.00     0.131 A 
ATOM     89  C   UNL A   1      50.025  24.985  32.106  1.00  0.00     0.055 A 
ATOM     90  C   UNL A   1      50.680  26.323  30.215  1.00  0.00     0.041 A 
ATOM     91  F   UNL A   1      49.080  27.630  29.105  1.00  0.00    -0.206 F 
ATOM     92  C   UNL A   1      51.017  25.426  31.225  1.00  0.00     0.022 A 
BRANCH  89  93
ATOM     93  S   UNL A   1      50.452  23.850  33.455  1.00  0.00     0.124 S 
ATOM     94  O   UNL A   1      50.637  22.591  32.743  1.00  0.00    -0.237 OA
ATOM     95  O   UNL A   1      51.661  24.453  34.008  1.00  0.00    -0.237 OA
ATOM     96  O   UNL A   1      49.282  23.902  34.331  1.00  0.00    -0.744 OA
ENDBRANCH  89  93
ENDBRANCH  63  86
ENDBRANCH  37  38
ENDBRANCH  30  32
ENDBRANCH  29  30
ENDBRANCH  28  29
ENDBRANCH  27  28
ENDBRANCH  26  27
ENDBRANCH   1  26
TORSDOF 21
ENDMDL
MODEL 2
REMARK VINA RESULT:      -8.6      2.396      3.474
REMARK SMILES Cc1cc2c(c(C)c1Br)C=C(C(=O)OCCOCCOCCOC(=O)c1ccc(-c3c4nc(c(-c5cc(S(=O)(=O)[O-])ccc5F)c5ccc([nH]5)c(-c5cc(S(=O)(=O)[O-])ccc5F)c5nc(c(-c6cc(S(=O)(=O)[O-])ccc6F)c6ccc3[nH]6)C=C5)C=C4)cc1)[C@@H](C(F)(F)F)O2
REMARK SMILES IDX 19 1 18 2 17 3 16 4 15 5 14 6 12 7 13 8 11 9 1 10 2 11 3 12
REMARK SMILES IDX 8 13 4 14 6 15 9 16 5 17 94 18 7 19 10 20 89 21 90 22 91 23
REMARK SMILES IDX 92 24 93 25 20 26 21 27 22 28 23 29 24 30 25 31 26 32 27 33
REMARK SMILES IDX 88 34 28 35 87 36 29 37 30 38 31 39 81 40 32 41 86 42 80 43
REMARK SMILES IDX 82 44 33 45 85 46 79 47 78 48 34 50 66 51 46 52 65 53 47 54
REMARK SMILES IDX 50 55 64 56 83 57 48 58 49 59 63 61 84 62 51 63 35 64 36 65
REMARK SMILES IDX 44 66 37 67 43 68 45 69 42 70 38 71 39 72 40 73 41 74 67 75
REMARK SMILES IDX 68 76 76 77 69 78 75 79 77 80 74 81 70 82 71 83 72 84 73 85
REMARK SMILES IDX 52 86 53 87 61 88 54 89 60 90 62 91 59 92 55 93 56 94 57 95
REMARK SMILES IDX 58 96
REMARK H PARENT 82 49 50 60
REMARK Flexibility Score: inf
ROOT
ATOM      1  C   UNL A   1      33.351  35.822  30.971  1.00  0.00     0.188 C 
ENDROOT
BRANCH   1   2
ATOM      2  C   UNL A   1      33.400  35.652  32.505  1.00  0.00     0.188 C 
BRANCH   2   3
ATOM      3  O   UNL A   1      34.000  34.493  33.035  1.00  0.00    -0.376 OA
BRANCH   3   4
ATOM      4  C   UNL A   1      35.297  34.068  32.665  1.00  0.00     0.202 C 
BRANCH   4   5
ATOM      5  C   UNL A   1      36.619  34.738  33.070  1.00  0.00     0.261 C 
BRANCH   5   6
ATOM      6  O   UNL A   1      37.826  34.058  32.732  1.00  0.00    -0.460 OA
BRANCH   6   7
ATOM      7  C   UNL A   1      38.855  34.250  33.592  1.00  0.00     0.338 C 
ATOM      8  O   UNL A   1      39.933  34.763  33.337  1.00  0.00    -0.246 OA
BRANCH   7   9
ATOM      9  C   UNL A   1      38.443  33.827  34.942  1.00  0.00     0.087 C 
ATOM     10  C   UNL A   1      37.955  32.442  41.237  1.00  0.00     0.046 C 
ATOM     11  C   UNL A   1      38.096  33.122  39.901  1.00  0.00    -0.033 A 
ATOM     12  C   UNL A   1      37.635  32.448  38.764  1.00  0.00     0.051 A 
ATOM     13  C   UNL A   1      38.704  34.385  39.746  1.00  0.00     0.024 A 
ATOM     14  C   UNL A   1      37.834  32.975  37.492  1.00  0.00     0.128 A 
ATOM     15  C   UNL A   1      38.884  34.954  38.460  1.00  0.00    -0.026 A 
ATOM     16  Br  UNL A   1      39.316  35.293  41.316  1.00  0.00    -0.050 Br
ATOM     17  C   UNL A   1      38.488  34.201  37.324  1.00  0.00     0.021 A 
ATOM     18  O   UNL A   1      37.354  32.201  36.472  1.00  0.00    -0.475 OA
ATOM     19  C   UNL A   1      39.495  36.325  38.262  1.00  0.00     0.046 C 
ATOM     20  C   UNL A   1      38.798  34.623  35.958  1.00  0.00     0.027 C 
ATOM     21  C   UNL A   1      37.669  32.553  35.104  1.00  0.00     0.316 C 
BRANCH  21  22
ATOM     22  C   UNL A   1      38.358  31.348  34.447  1.00  0.00     0.430 C 
ATOM     23  F   UNL A   1      38.058  30.196  35.099  1.00  0.00    -0.167 F 
ATOM     24  F   UNL A   1      37.957  31.173  33.164  1.00  0.00    -0.167 F 
ATOM     25  F   UNL A   1      39.703  31.467  34.437  1.00  0.00    -0.167 F 
ENDBRANCH  21  22
ENDBRANCH   7   9
ENDBRANCH   6   7
ENDBRANCH   5   6
ENDBRANCH   4   5
ENDBRANCH   3   4
ENDBRANCH   2   3
ENDBRANCH   1   2
BRANCH   1  26
ATOM     26  O   UNL A   1      33.141  34.691  30.141  1.00  0.00    -0.376 OA
BRANCH  26  27
ATOM     27  C   UNL A   1      34.067  34.446  29.088  1.00  0.00     0.202 C 
BRANCH  27  28
ATOM     28  C   UNL A   1      34.028  33.097  28.359  1.00  0.00     0.261 C 
BRANCH  28  29
ATOM     29  O   UNL A   1      35.064  32.194  28.784  1.00  0.00    -0.460 OA
BRANCH  29  30
ATOM     30  C   UNL A   1      34.902  30.903  28.400  1.00  0.00     0.338 C 
ATOM     31  O   UNL A   1      33.914  30.406  27.888  1.00  0.00    -0.246 OA
BRANCH  30  32
ATOM     32  C   UNL A   1      36.196  30.203  28.502  1.00  0.00     0.060 A 
ATOM     33  C   UNL A   1      36.480  29.514  29.689  1.00  0.00     0.016 A 
ATOM     34  C   UNL A   1      37.130  30.244  27.465  1.00  0.00     0.016 A 
ATOM     35  C   UNL A   1      37.705  28.870  29.846  1.00  0.00     0.010 A 
ATOM     36  C   UNL A   1      38.374  29.625  27.637  1.00  0.00     0.010 A 
ATOM     37  C   UNL A   1      38.674  28.954  28.837  1.00  0.00    -0.014 A 
BRANCH  37  38
ATOM     38  C   UNL A   1      40.057  28.516  29.140  1.00  0.00     0.031 A 
ATOM     39  C   UNL A   1      40.825  29.274  30.190  1.00  0.00     0.074 A 
ATOM     40  C   UNL A   1      40.593  27.427  28.562  1.00  0.00     0.049 A 
ATOM     41  N   UNL A   1      42.024  29.054  30.658  1.00  0.00    -0.248 NA
ATOM     42  C   UNL A   1      40.138  30.424  30.801  1.00  0.00     0.031 C 
ATOM     43  C   UNL A   1      39.924  26.574  27.580  1.00  0.00     0.029 A 
ATOM     44  N   UNL A   1      41.825  26.845  28.729  1.00  0.00    -0.354 N 
ATOM     45  C   UNL A   1      42.227  30.019  31.638  1.00  0.00     0.074 A 
ATOM     46  C   UNL A   1      41.044  30.850  31.667  1.00  0.00     0.031 C 
ATOM     47  C   UNL A   1      40.754  25.572  27.237  1.00  0.00     0.029 A 
ATOM     48  C   UNL A   1      42.022  25.727  27.951  1.00  0.00     0.049 A 
ATOM     49  H   UNL A   1      42.506  27.194  29.348  1.00  0.00     0.167 HD
ATOM     50  C   UNL A   1      43.295  30.188  32.452  1.00  0.00     0.034 A 
ATOM     51  C   UNL A   1      43.106  24.934  27.820  1.00  0.00     0.034 A 
ATOM     52  C   UNL A   1      44.482  29.379  32.401  1.00  0.00     0.049 A 
ATOM     53  C   UNL A   1      44.346  25.240  28.627  1.00  0.00     0.074 A 
ATOM     54  C   UNL A   1      45.623  29.474  33.177  1.00  0.00     0.029 A 
ATOM     55  N   UNL A   1      44.689  28.336  31.511  1.00  0.00    -0.354 N 
ATOM     56  N   UNL A   1      44.528  26.164  29.542  1.00  0.00    -0.248 NA
ATOM     57  C   UNL A   1      45.531  24.406  28.376  1.00  0.00     0.031 C 
ATOM     58  C   UNL A   1      46.545  28.531  32.715  1.00  0.00     0.029 A 
ATOM     59  C   UNL A   1      45.956  27.807  31.688  1.00  0.00     0.049 A 
ATOM     60  H   UNL A   1      44.032  28.017  30.850  1.00  0.00     0.167 HD
ATOM     61  C   UNL A   1      45.840  26.013  29.982  1.00  0.00     0.074 A 
ATOM     62  C   UNL A   1      46.406  24.906  29.239  1.00  0.00     0.031 C 
ATOM     63  C   UNL A   1      46.514  26.721  30.921  1.00  0.00     0.034 A 
BRANCH  50  64
ATOM     64  C   UNL A   1      43.235  31.319  33.440  1.00  0.00     0.023 A 
ATOM     65  C   UNL A   1      42.993  31.083  34.803  1.00  0.00     0.031 A 
ATOM     66  C   UNL A   1      43.414  32.645  33.013  1.00  0.00     0.131 A 
ATOM     67  C   UNL A   1      42.892  32.165  35.688  1.00  0.00     0.055 A 
ATOM     68  C   UNL A   1      43.372  33.713  33.909  1.00  0.00     0.041 A 
ATOM     69  F   UNL A   1      43.625  32.922  31.716  1.00  0.00    -0.206 F 
ATOM     70  C   UNL A   1      43.102  33.478  35.255  1.00  0.00     0.022 A 
BRANCH  67  71
ATOM     71  S   UNL A   1      42.398  31.843  37.402  1.00  0.00     0.124 S 
ATOM     72  O   UNL A   1      43.222  32.804  38.132  1.00  0.00    -0.237 OA
ATOM     73  O   UNL A   1      40.966  32.118  37.379  1.00  0.00    -0.237 OA
ATOM     74  O   UNL A   1      42.759  30.441  37.605  1.00  0.00    -0.744 OA
ENDBRANCH  67  71
ENDBRANCH  50  64
BRANCH  51  75
ATOM     75  C   UNL A   1      43.099  23.801  26.853  1.00  0.00     0.023 A 
ATOM     76  C   UNL A   1      42.446  22.596  27.153  1.00  0.00     0.031 A 
ATOM     77  C   UNL A   1      43.784  23.898  25.629  1.00  0.00     0.131 A 
ATOM     78  C   UNL A   1      42.513  21.523  26.249  1.00  0.00     0.055 A 
ATOM     79  C   UNL A   1      43.816  22.841  24.717  1.00  0.00     0.041 A 
ATOM     80  F   UNL A   1      44.428  25.029  25.300  1.00  0.00    -0.206 F 
ATOM     81  C   UNL A   1      43.183  21.643  25.028  1.00  0.00     0.022 A 
BRANCH  78  82
ATOM     82  S   UNL A   1      41.739  19.946  26.704  1.00  0.00     0.124 S 
ATOM     83  O   UNL A   1      40.825  20.361  27.761  1.00  0.00    -0.237 OA
ATOM     84  O   UNL A   1      41.123  19.534  25.446  1.00  0.00    -0.237 OA
ATOM     85  O   UNL A   1      42.868  19.127  27.138  1.00  0.00    -0.744 OA
ENDBRANCH  78  82
ENDBRANCH  51  75
BRANCH  63  86
ATOM     86  C   UNL A   1      47.940  26.335  31.208  1.00  0.00     0.023 A 
ATOM     87  C   UNL A   1      48.252  25.414  32.221  1.00  0.00     0.031 A 
ATOM     88  C   UNL A   1      48.983  26.822  30.401  1.00  0.00     0.131 A 
ATOM     89  C   UNL A   1      49.583  25.012  32.409  1.00  0.00     0.055 A 
ATOM     90  C   UNL A   1      50.299  26.389  30.568  1.00  0.00     0.041 A 
ATOM     91  F   UNL A   1      48.731  27.697  29.415  1.00  0.00    -0.206 F 
ATOM     92  C   UNL A   1      50.605  25.479  31.577  1.00  0.00     0.022 A 
BRANCH  89  93
ATOM     93  S   UNL A   1      49.968  23.860  33.756  1.00  0.00     0.124 S 
ATOM     94  O   UNL A   1      51.079  24.534  34.420  1.00  0.00    -0.237 OA
ATOM     95  O   UNL A   1      48.715  23.811  34.502  1.00  0.00    -0.237 OA
ATOM     96  O   UNL A   1      50.320  22.623  33.059  1.00  0.00    -0.744 OA
ENDBRANCH  89  93
ENDBRANCH  63  86
ENDBRANCH  37  38
ENDBRANCH  30  32
ENDBRANCH  29  30
ENDBRANCH  28  29
ENDBRANCH  27  28
ENDBRANCH  26  27
ENDBRANCH   1  26
TORSDOF 21
ENDMDL
MODEL 3
REMARK VINA RESULT:      -8.4      6.314     11.324
REMARK SMILES Cc1cc2c(c(C)c1Br)C=C(C(=O)OCCOCCOCCOC(=O)c1ccc(-c3c4nc(c(-c5cc(S(=O)(=O)[O-])ccc5F)c5ccc([nH]5)c(-c5cc(S(=O)(=O)[O-])ccc5F)c5nc(c(-c6cc(S(=O)(=O)[O-])ccc6F)c6ccc3[nH]6)C=C5)C=C4)cc1)[C@@H](C(F)(F)F)O2
REMARK SMILES IDX 19 1 18 2 17 3 16 4 15 5 14 6 12 7 13 8 11 9 1 10 2 11 3 12
REMARK SMILES IDX 8 13 4 14 6 15 9 16 5 17 94 18 7 19 10 20 89 21 90 22 91 23
REMARK SMILES IDX 92 24 93 25 20 26 21 27 22 28 23 29 24 30 25 31 26 32 27 33
REMARK SMILES IDX 88 34 28 35 87 36 29 37 30 38 31 39 81 40 32 41 86 42 80 43
REMARK SMILES IDX 82 44 33 45 85 46 79 47 78 48 34 50 66 51 46 52 65 53 47 54
REMARK SMILES IDX 50 55 64 56 83 57 48 58 49 59 63 61 84 62 51 63 35 64 36 65
REMARK SMILES IDX 44 66 37 67 43 68 45 69 42 70 38 71 39 72 40 73 41 74 67 75
REMARK SMILES IDX 68 76 76 77 69 78 75 79 77 80 74 81 70 82 71 83 72 84 73 85
REMARK SMILES IDX 52 86 53 87 61 88 54 89 60 90 62 91 59 92 55 93 56 94 57 95
REMARK SMILES IDX 58 96
REMARK H PARENT 82 49 50 60
REMARK Flexibility Score: inf
ROOT
ATOM      1  C   UNL A   1      34.057  33.860  29.485  1.00  0.00     0.188 C 
ENDROOT
BRANCH   1   2
ATOM      2  C   UNL A   1      34.277  32.964  28.247  1.00  0.00     0.188 C 
BRANCH   2   3
ATOM      3  O   UNL A   1      34.159  31.569  28.396  1.00  0.00    -0.376 OA
BRANCH   3   4
ATOM      4  C   UNL A   1      33.953  30.699  27.301  1.00  0.00     0.202 C 
BRANCH   4   5
ATOM      5  C   UNL A   1      34.030  29.165  27.336  1.00  0.00     0.261 C 
BRANCH   5   6
ATOM      6  O   UNL A   1      33.295  28.451  26.345  1.00  0.00    -0.460 OA
BRANCH   6   7
ATOM      7  C   UNL A   1      32.119  27.925  26.767  1.00  0.00     0.338 C 
ATOM      8  O   UNL A   1      31.363  28.403  27.597  1.00  0.00    -0.246 OA
BRANCH   7   9
ATOM      9  C   UNL A   1      31.828  26.707  25.992  1.00  0.00     0.087 C 
ATOM     10  C   UNL A   1      31.997  21.233  22.558  1.00  0.00     0.046 C 
ATOM     11  C   UNL A   1      32.119  22.288  23.625  1.00  0.00    -0.033 A 
ATOM     12  C   UNL A   1      31.282  23.408  23.546  1.00  0.00     0.051 A 
ATOM     13  C   UNL A   1      33.062  22.214  24.671  1.00  0.00     0.024 A 
ATOM     14  C   UNL A   1      31.420  24.467  24.438  1.00  0.00     0.128 A 
ATOM     15  C   UNL A   1      33.193  23.267  25.610  1.00  0.00    -0.026 A 
ATOM     16  Br  UNL A   1      34.187  20.668  24.766  1.00  0.00    -0.050 Br
ATOM     17  C   UNL A   1      32.392  24.427  25.445  1.00  0.00     0.021 A 
ATOM     18  O   UNL A   1      30.554  25.504  24.231  1.00  0.00    -0.475 OA
ATOM     19  C   UNL A   1      34.165  23.199  26.769  1.00  0.00     0.046 C 
ATOM     20  C   UNL A   1      32.584  25.633  26.250  1.00  0.00     0.027 C 
ATOM     21  C   UNL A   1      30.728  26.735  24.973  1.00  0.00     0.316 C 
BRANCH  21  22
ATOM     22  C   UNL A   1      30.877  27.884  23.965  1.00  0.00     0.430 C 
ATOM     23  F   UNL A   1      32.164  28.008  23.550  1.00  0.00    -0.167 F 
ATOM     24  F   UNL A   1      30.137  27.677  22.848  1.00  0.00    -0.167 F 
ATOM     25  F   UNL A   1      30.504  29.074  24.481  1.00  0.00    -0.167 F 
ENDBRANCH  21  22
ENDBRANCH   7   9
ENDBRANCH   6   7
ENDBRANCH   5   6
ENDBRANCH   4   5
ENDBRANCH   3   4
ENDBRANCH   2   3
ENDBRANCH   1   2
BRANCH   1  26
ATOM     26  O   UNL A   1      35.162  34.234  30.292  1.00  0.00    -0.376 OA
BRANCH  26  27
ATOM     27  C   UNL A   1      36.021  33.208  30.778  1.00  0.00     0.202 C 
BRANCH  27  28
ATOM     28  C   UNL A   1      35.485  32.217  31.818  1.00  0.00     0.261 C 
BRANCH  28  29
ATOM     29  O   UNL A   1      36.524  31.600  32.598  1.00  0.00    -0.460 OA
BRANCH  29  30
ATOM     30  C   UNL A   1      37.021  30.443  32.091  1.00  0.00     0.338 C 
ATOM     31  O   UNL A   1      36.431  29.386  31.956  1.00  0.00    -0.246 OA
BRANCH  30  32
ATOM     32  C   UNL A   1      38.356  30.701  31.520  1.00  0.00     0.060 A 
ATOM     33  C   UNL A   1      39.357  31.178  32.376  1.00  0.00     0.016 A 
ATOM     34  C   UNL A   1      38.616  30.507  30.161  1.00  0.00     0.016 A 
ATOM     35  C   UNL A   1      40.623  31.471  31.873  1.00  0.00     0.010 A 
ATOM     36  C   UNL A   1      39.878  30.835  29.652  1.00  0.00     0.010 A 
ATOM     37  C   UNL A   1      40.879  31.338  30.502  1.00  0.00    -0.014 A 
BRANCH  37  38
ATOM     38  C   UNL A   1      42.124  31.926  29.951  1.00  0.00     0.031 A 
ATOM     39  C   UNL A   1      43.258  30.995  29.616  1.00  0.00     0.074 A 
ATOM     40  C   UNL A   1      42.220  33.239  29.676  1.00  0.00     0.049 A 
ATOM     41  N   UNL A   1      44.420  31.264  29.085  1.00  0.00    -0.248 NA
ATOM     42  C   UNL A   1      43.042  29.568  29.910  1.00  0.00     0.031 C 
ATOM     43  C   UNL A   1      41.166  34.228  29.893  1.00  0.00     0.029 A 
ATOM     44  N   UNL A   1      43.256  33.963  29.139  1.00  0.00    -0.354 N 
ATOM     45  C   UNL A   1      45.065  30.039  28.953  1.00  0.00     0.074 A 
ATOM     46  C   UNL A   1      44.181  29.033  29.499  1.00  0.00     0.031 C 
ATOM     47  C   UNL A   1      41.609  35.432  29.487  1.00  0.00     0.029 A 
ATOM     48  C   UNL A   1      42.986  35.305  29.008  1.00  0.00     0.049 A 
ATOM     49  H   UNL A   1      44.113  33.559  28.873  1.00  0.00     0.167 HD
ATOM     50  C   UNL A   1      46.277  29.774  28.411  1.00  0.00     0.034 A 
ATOM     51  C   UNL A   1      43.767  36.314  28.566  1.00  0.00     0.034 A 
ATOM     52  C   UNL A   1      47.165  30.779  27.896  1.00  0.00     0.049 A 
ATOM     53  C   UNL A   1      45.176  36.012  28.113  1.00  0.00     0.074 A 
ATOM     54  C   UNL A   1      48.418  30.614  27.334  1.00  0.00     0.029 A 
ATOM     55  N   UNL A   1      46.904  32.141  27.898  1.00  0.00    -0.354 N 
ATOM     56  N   UNL A   1      45.777  34.850  28.005  1.00  0.00    -0.248 NA
ATOM     57  C   UNL A   1      46.018  37.158  27.736  1.00  0.00     0.031 C 
ATOM     58  C   UNL A   1      48.941  31.880  27.054  1.00  0.00     0.029 A 
ATOM     59  C   UNL A   1      47.989  32.832  27.387  1.00  0.00     0.049 A 
ATOM     60  H   UNL A   1      46.069  32.556  28.215  1.00  0.00     0.167 HD
ATOM     61  C   UNL A   1      47.059  35.125  27.537  1.00  0.00     0.074 A 
ATOM     62  C   UNL A   1      47.147  36.561  27.375  1.00  0.00     0.031 C 
ATOM     63  C   UNL A   1      48.070  34.265  27.258  1.00  0.00     0.034 A 
BRANCH  50  64
ATOM     64  C   UNL A   1      46.720  28.338  28.388  1.00  0.00     0.023 A 
ATOM     65  C   UNL A   1      46.415  27.499  27.302  1.00  0.00     0.031 A 
ATOM     66  C   UNL A   1      47.447  27.801  29.462  1.00  0.00     0.131 A 
ATOM     67  C   UNL A   1      46.799  26.152  27.337  1.00  0.00     0.055 A 
ATOM     68  C   UNL A   1      47.879  26.475  29.463  1.00  0.00     0.041 A 
ATOM     69  F   UNL A   1      47.743  28.558  30.532  1.00  0.00    -0.206 F 
ATOM     70  C   UNL A   1      47.549  25.639  28.399  1.00  0.00     0.022 A 
BRANCH  67  71
ATOM     71  S   UNL A   1      46.234  25.053  26.010  1.00  0.00     0.124 S 
ATOM     72  O   UNL A   1      44.795  25.007  26.259  1.00  0.00    -0.237 OA
ATOM     73  O   UNL A   1      46.650  25.766  24.808  1.00  0.00    -0.237 OA
ATOM     74  O   UNL A   1      46.946  23.805  26.273  1.00  0.00    -0.744 OA
ENDBRANCH  67  71
ENDBRANCH  50  64
BRANCH  51  75
ATOM     75  C   UNL A   1      43.264  37.716  28.575  1.00  0.00     0.023 A 
ATOM     76  C   UNL A   1      43.496  38.563  29.669  1.00  0.00     0.031 A 
ATOM     77  C   UNL A   1      42.505  38.212  27.500  1.00  0.00     0.131 A 
ATOM     78  C   UNL A   1      42.952  39.858  29.675  1.00  0.00     0.055 A 
ATOM     79  C   UNL A   1      41.999  39.513  27.495  1.00  0.00     0.041 A 
ATOM     80  F   UNL A   1      42.252  37.438  26.433  1.00  0.00    -0.206 F 
ATOM     81  C   UNL A   1      42.217  40.342  28.590  1.00  0.00     0.022 A 
BRANCH  78  82
ATOM     82  S   UNL A   1      43.189  40.899  31.142  1.00  0.00     0.124 S 
ATOM     83  O   UNL A   1      41.823  41.034  31.632  1.00  0.00    -0.237 OA
ATOM     84  O   UNL A   1      44.086  40.082  31.954  1.00  0.00    -0.237 OA
ATOM     85  O   UNL A   1      43.783  42.119  30.601  1.00  0.00    -0.744 OA
ENDBRANCH  78  82
ENDBRANCH  51  75
BRANCH  63  86
ATOM     86  C   UNL A   1      49.365  34.840  26.751  1.00  0.00     0.023 A 
ATOM     87  C   UNL A   1      50.468  35.007  27.603  1.00  0.00     0.031 A 
ATOM     88  C   UNL A   1      49.522  35.138  25.386  1.00  0.00     0.131 A 
ATOM     89  C   UNL A   1      51.686  35.468  27.081  1.00  0.00     0.055 A 
ATOM     90  C   UNL A   1      50.747  35.560  24.866  1.00  0.00     0.041 A 
ATOM     91  F   UNL A   1      48.498  34.986  24.531  1.00  0.00    -0.206 F 
ATOM     92  C   UNL A   1      51.837  35.728  25.716  1.00  0.00     0.022 A 
BRANCH  89  93
ATOM     93  S   UNL A   1      53.082  35.722  28.211  1.00  0.00     0.124 S 
ATOM     94  O   UNL A   1      52.591  36.803  29.059  1.00  0.00    -0.237 OA
ATOM     95  O   UNL A   1      53.215  34.418  28.852  1.00  0.00    -0.237 OA
ATOM     96  O   UNL A   1      54.183  36.085  27.319  1.00  0.00    -0.744 OA
ENDBRANCH  89  93
ENDBRANCH  63  86
ENDBRANCH  37  38
ENDBRANCH  30  32
ENDBRANCH  29  30
ENDBRANCH  28  29
ENDBRANCH  27  28
ENDBRANCH  26  27
ENDBRANCH   1  26
TORSDOF 21
ENDMDL
