MODEL 1
REMARK VINA RESULT:     -10.8      0.000      0.000
REMARK SMILES CCCc1cc(-n2ccc(C(=O)OCCOCCOCCOC(=O)c3ccc(-c4c5nc(c(-c6cc(S(=O)(=O)[O-])ccc6F)c6ccc([nH]6)c(-c6cc(S(=O)(=O)[O-])ccc6F)c6nc(c(-c7cc(S(=O)(=O)[O-])ccc7F)c7ccc4[nH]7)C=C6)C=C5)cc3)n2)nc(C(C)C)n1
REMARK SMILES IDX 17 1 16 2 15 3 14 4 13 5 11 6 12 7 10 8 7 9 8 10 88 11 9 12
REMARK SMILES IDX 6 13 4 14 5 15 94 16 90 17 89 18 3 19 2 20 1 21 91 22 92 23
REMARK SMILES IDX 93 24 18 25 19 26 20 27 21 28 22 29 23 30 24 31 25 32 26 33
REMARK SMILES IDX 87 34 27 35 86 36 28 37 29 38 30 39 80 40 31 41 85 42 79 43
REMARK SMILES IDX 81 44 32 45 84 46 78 47 77 48 33 50 65 51 45 52 64 53 46 54
REMARK SMILES IDX 49 55 63 56 82 57 47 58 48 59 62 61 83 62 50 63 34 64 35 65
REMARK SMILES IDX 43 66 36 67 42 68 44 69 41 70 37 71 38 72 39 73 40 74 66 75
REMARK SMILES IDX 67 76 75 77 68 78 74 79 76 80 73 81 69 82 70 83 71 84 72 85
REMARK SMILES IDX 51 86 52 87 60 88 53 89 59 90 61 91 58 92 54 93 55 94 56 95
REMARK SMILES IDX 57 96
REMARK H PARENT 81 49 49 60
REMARK Flexibility Score: inf
ROOT
ATOM      1  C   UNL A   1      35.523  23.600  23.799  1.00  0.00     0.188 C 
ENDROOT
BRANCH   1   2
ATOM      2  O   UNL A   1      34.837  23.873  22.585  1.00  0.00    -0.376 OA
BRANCH   2   3
ATOM      3  C   UNL A   1      33.551  23.327  22.342  1.00  0.00     0.202 C 
BRANCH   3   4
ATOM      4  C   UNL A   1      33.142  21.930  22.860  1.00  0.00     0.261 C 
BRANCH   4   5
ATOM      5  O   UNL A   1      33.230  21.719  24.275  1.00  0.00    -0.458 OA
BRANCH   5   6
ATOM      6  C   UNL A   1      32.043  21.702  24.967  1.00  0.00     0.358 C 
ATOM      7  O   UNL A   1      31.411  20.707  25.230  1.00  0.00    -0.244 OA
BRANCH   6   8
ATOM      8  C   UNL A   1      31.743  23.025  25.548  1.00  0.00     0.170 A 
ATOM      9  N   UNL A   1      31.504  25.150  25.751  1.00  0.00    -0.222 N 
ATOM     10  C   UNL A   1      31.542  24.659  27.038  1.00  0.00     0.118 A 
ATOM     11  N   UNL A   1      31.617  24.152  24.830  1.00  0.00    -0.159 NA
ATOM     12  C   UNL A   1      31.610  23.291  26.935  1.00  0.00     0.058 A 
BRANCH   9  13
ATOM     13  C   UNL A   1      31.346  26.514  25.355  1.00  0.00     0.157 A 
ATOM     14  C   UNL A   1      30.758  28.154  23.774  1.00  0.00     0.046 A 
ATOM     15  C   UNL A   1      30.950  26.815  24.063  1.00  0.00     0.073 A 
ATOM     16  N   UNL A   1      31.085  29.120  24.660  1.00  0.00    -0.238 NA
ATOM     17  C   UNL A   1      31.520  28.736  25.877  1.00  0.00     0.133 A 
ATOM     18  N   UNL A   1      31.613  27.464  26.276  1.00  0.00    -0.213 NA
BRANCH  14  19
ATOM     19  C   UNL A   1      30.200  28.650  22.461  1.00  0.00     0.056 C 
BRANCH  19  20
ATOM     20  C   UNL A   1      29.091  29.710  22.495  1.00  0.00     0.003 C 
ATOM     21  C   UNL A   1      27.731  29.168  22.918  1.00  0.00     0.004 C 
ENDBRANCH  19  20
ENDBRANCH  14  19
BRANCH  17  22
ATOM     22  C   UNL A   1      32.010  29.788  26.842  1.00  0.00     0.051 C 
ATOM     23  C   UNL A   1      33.518  29.657  27.065  1.00  0.00     0.016 C 
ATOM     24  C   UNL A   1      31.634  31.188  26.369  1.00  0.00     0.016 C 
ENDBRANCH  17  22
ENDBRANCH   9  13
ENDBRANCH   6   8
ENDBRANCH   5   6
ENDBRANCH   4   5
ENDBRANCH   3   4
ENDBRANCH   2   3
ENDBRANCH   1   2
BRANCH   1  25
ATOM     25  C   UNL A   1      36.658  22.553  23.871  1.00  0.00     0.188 C 
BRANCH  25  26
ATOM     26  O   UNL A   1      37.582  22.755  24.915  1.00  0.00    -0.376 OA
BRANCH  26  27
ATOM     27  C   UNL A   1      38.186  21.663  25.585  1.00  0.00     0.202 C 
BRANCH  27  28
ATOM     28  C   UNL A   1      39.662  21.603  25.976  1.00  0.00     0.261 C 
BRANCH  28  29
ATOM     29  O   UNL A   1      40.057  22.333  27.120  1.00  0.00    -0.460 OA
BRANCH  29  30
ATOM     30  C   UNL A   1      40.952  23.308  26.853  1.00  0.00     0.338 C 
ATOM     31  O   UNL A   1      41.836  23.272  26.012  1.00  0.00    -0.246 OA
BRANCH  30  32
ATOM     32  C   UNL A   1      40.789  24.387  27.827  1.00  0.00     0.060 A 
ATOM     33  C   UNL A   1      39.567  25.058  27.810  1.00  0.00     0.016 A 
ATOM     34  C   UNL A   1      41.919  24.900  28.483  1.00  0.00     0.016 A 
ATOM     35  C   UNL A   1      39.539  26.355  28.267  1.00  0.00     0.010 A 
ATOM     36  C   UNL A   1      41.889  26.200  28.929  1.00  0.00     0.010 A 
ATOM     37  C   UNL A   1      40.727  26.937  28.731  1.00  0.00    -0.014 A 
BRANCH  37  38
ATOM     38  C   UNL A   1      40.683  28.336  29.095  1.00  0.00     0.031 A 
ATOM     39  C   UNL A   1      41.770  29.117  28.473  1.00  0.00     0.074 A 
ATOM     40  C   UNL A   1      39.729  28.875  29.875  1.00  0.00     0.049 A 
ATOM     41  N   UNL A   1      42.804  29.613  29.061  1.00  0.00    -0.248 NA
ATOM     42  C   UNL A   1      41.821  29.176  27.006  1.00  0.00     0.031 C 
ATOM     43  C   UNL A   1      38.491  28.264  30.358  1.00  0.00     0.029 A 
ATOM     44  N   UNL A   1      39.638  30.152  30.330  1.00  0.00    -0.354 N 
ATOM     45  C   UNL A   1      43.515  30.268  28.066  1.00  0.00     0.074 A 
ATOM     46  C   UNL A   1      42.991  29.787  26.818  1.00  0.00     0.031 C 
ATOM     47  C   UNL A   1      37.676  29.234  30.837  1.00  0.00     0.029 A 
ATOM     48  C   UNL A   1      38.383  30.506  30.812  1.00  0.00     0.049 A 
ATOM     49  H   UNL A   1      40.399  30.777  30.319  1.00  0.00     0.167 HD
ATOM     50  C   UNL A   1      44.293  31.342  28.365  1.00  0.00     0.034 A 
ATOM     51  C   UNL A   1      37.950  31.765  31.096  1.00  0.00     0.034 A 
ATOM     52  C   UNL A   1      44.619  31.374  29.775  1.00  0.00     0.049 A 
ATOM     53  C   UNL A   1      39.164  32.586  31.352  1.00  0.00     0.074 A 
ATOM     54  C   UNL A   1      45.237  30.486  30.637  1.00  0.00     0.029 A 
ATOM     55  N   UNL A   1      43.948  32.262  30.587  1.00  0.00    -0.354 N 
ATOM     56  N   UNL A   1      39.954  32.391  32.372  1.00  0.00    -0.248 NA
ATOM     57  C   UNL A   1      39.774  33.278  30.225  1.00  0.00     0.031 C 
ATOM     58  C   UNL A   1      44.493  30.573  31.851  1.00  0.00     0.029 A 
ATOM     59  C   UNL A   1      43.522  31.563  31.693  1.00  0.00     0.049 A 
ATOM     60  H   UNL A   1      43.801  33.218  30.409  1.00  0.00     0.167 HD
ATOM     61  C   UNL A   1      41.237  32.521  31.864  1.00  0.00     0.074 A 
ATOM     62  C   UNL A   1      41.063  33.162  30.561  1.00  0.00     0.031 C 
ATOM     63  C   UNL A   1      42.292  31.846  32.410  1.00  0.00     0.034 A 
BRANCH  50  64
ATOM     64  C   UNL A   1      44.425  32.550  27.466  1.00  0.00     0.023 A 
ATOM     65  C   UNL A   1      43.812  33.737  27.901  1.00  0.00     0.031 A 
ATOM     66  C   UNL A   1      44.845  32.534  26.114  1.00  0.00     0.131 A 
ATOM     67  C   UNL A   1      43.540  34.778  26.999  1.00  0.00     0.055 A 
ATOM     68  C   UNL A   1      44.637  33.603  25.239  1.00  0.00     0.041 A 
ATOM     69  F   UNL A   1      45.393  31.462  25.531  1.00  0.00    -0.206 F 
ATOM     70  C   UNL A   1      43.948  34.720  25.670  1.00  0.00     0.022 A 
BRANCH  67  71
ATOM     71  S   UNL A   1      42.470  36.127  27.556  1.00  0.00     0.124 S 
ATOM     72  O   UNL A   1      42.665  37.110  26.496  1.00  0.00    -0.237 OA
ATOM     73  O   UNL A   1      41.165  35.473  27.597  1.00  0.00    -0.237 OA
ATOM     74  O   UNL A   1      43.030  36.487  28.855  1.00  0.00    -0.744 OA
ENDBRANCH  67  71
ENDBRANCH  50  64
BRANCH  51  75
ATOM     75  C   UNL A   1      36.607  32.350  30.817  1.00  0.00     0.023 A 
ATOM     76  C   UNL A   1      35.913  33.147  31.756  1.00  0.00     0.031 A 
ATOM     77  C   UNL A   1      36.091  32.342  29.500  1.00  0.00     0.131 A 
ATOM     78  C   UNL A   1      34.771  33.887  31.364  1.00  0.00     0.055 A 
ATOM     79  C   UNL A   1      34.963  33.072  29.119  1.00  0.00     0.041 A 
ATOM     80  F   UNL A   1      36.720  31.692  28.509  1.00  0.00    -0.206 F 
ATOM     81  C   UNL A   1      34.305  33.860  30.048  1.00  0.00     0.022 A 
BRANCH  78  82
ATOM     82  S   UNL A   1      33.927  34.995  32.542  1.00  0.00     0.124 S 
ATOM     83  O   UNL A   1      34.944  36.010  32.794  1.00  0.00    -0.237 OA
ATOM     84  O   UNL A   1      32.753  35.424  31.790  1.00  0.00    -0.237 OA
ATOM     85  O   UNL A   1      33.636  34.122  33.680  1.00  0.00    -0.744 OA
ENDBRANCH  78  82
ENDBRANCH  51  75
BRANCH  63  86
ATOM     86  C   UNL A   1      42.103  31.166  33.757  1.00  0.00     0.023 A 
ATOM     87  C   UNL A   1      41.975  29.771  33.953  1.00  0.00     0.031 A 
ATOM     88  C   UNL A   1      42.169  31.978  34.904  1.00  0.00     0.131 A 
ATOM     89  C   UNL A   1      41.903  29.244  35.260  1.00  0.00     0.055 A 
ATOM     90  C   UNL A   1      42.121  31.451  36.194  1.00  0.00     0.041 A 
ATOM     91  F   UNL A   1      42.316  33.308  34.789  1.00  0.00    -0.206 F 
ATOM     92  C   UNL A   1      41.980  30.081  36.377  1.00  0.00     0.022 A 
BRANCH  89  93
ATOM     93  S   UNL A   1      41.685  27.454  35.535  1.00  0.00     0.124 S 
ATOM     94  O   UNL A   1      40.831  27.039  34.428  1.00  0.00    -0.237 OA
ATOM     95  O   UNL A   1      43.059  26.961  35.504  1.00  0.00    -0.237 OA
ATOM     96  O   UNL A   1      41.048  27.389  36.852  1.00  0.00    -0.744 OA
ENDBRANCH  89  93
ENDBRANCH  63  86
ENDBRANCH  37  38
ENDBRANCH  30  32
ENDBRANCH  29  30
ENDBRANCH  28  29
ENDBRANCH  27  28
ENDBRANCH  26  27
ENDBRANCH  25  26
ENDBRANCH   1  25
TORSDOF 24
ENDMDL
MODEL 2
REMARK VINA RESULT:     -10.7      1.459      2.336
REMARK SMILES CCCc1cc(-n2ccc(C(=O)OCCOCCOCCOC(=O)c3ccc(-c4c5nc(c(-c6cc(S(=O)(=O)[O-])ccc6F)c6ccc([nH]6)c(-c6cc(S(=O)(=O)[O-])ccc6F)c6nc(c(-c7cc(S(=O)(=O)[O-])ccc7F)c7ccc4[nH]7)C=C6)C=C5)cc3)n2)nc(C(C)C)n1
REMARK SMILES IDX 17 1 16 2 15 3 14 4 13 5 11 6 12 7 10 8 7 9 8 10 88 11 9 12
REMARK SMILES IDX 6 13 4 14 5 15 94 16 90 17 89 18 3 19 2 20 1 21 91 22 92 23
REMARK SMILES IDX 93 24 18 25 19 26 20 27 21 28 22 29 23 30 24 31 25 32 26 33
REMARK SMILES IDX 87 34 27 35 86 36 28 37 29 38 30 39 80 40 31 41 85 42 79 43
REMARK SMILES IDX 81 44 32 45 84 46 78 47 77 48 33 50 65 51 45 52 64 53 46 54
REMARK SMILES IDX 49 55 63 56 82 57 47 58 48 59 62 61 83 62 50 63 34 64 35 65
REMARK SMILES IDX 43 66 36 67 42 68 44 69 41 70 37 71 38 72 39 73 40 74 66 75
REMARK SMILES IDX 67 76 75 77 68 78 74 79 76 80 73 81 69 82 70 83 71 84 72 85
REMARK SMILES IDX 51 86 52 87 60 88 53 89 59 90 61 91 58 92 54 93 55 94 56 95
REMARK SMILES IDX 57 96
REMARK H PARENT 81 49 49 60
REMARK Flexibility Score: inf
ROOT
ATOM      1  C   UNL A   1      36.616  22.810  24.584  1.00  0.00     0.188 C 
ENDROOT
BRANCH   1   2
ATOM      2  O   UNL A   1      35.825  22.779  23.404  1.00  0.00    -0.376 OA
BRANCH   2   3
ATOM      3  C   UNL A   1      34.421  22.593  23.479  1.00  0.00     0.202 C 
BRANCH   3   4
ATOM      4  C   UNL A   1      33.749  21.914  24.693  1.00  0.00     0.261 C 
BRANCH   4   5
ATOM      5  O   UNL A   1      33.116  22.780  25.644  1.00  0.00    -0.458 OA
BRANCH   5   6
ATOM      6  C   UNL A   1      31.746  22.872  25.572  1.00  0.00     0.358 C 
ATOM      7  O   UNL A   1      30.975  22.219  26.233  1.00  0.00    -0.244 OA
BRANCH   6   8
ATOM      8  C   UNL A   1      31.330  24.025  24.751  1.00  0.00     0.170 A 
ATOM      9  N   UNL A   1      30.785  26.022  24.177  1.00  0.00    -0.222 N 
ATOM     10  C   UNL A   1      30.326  25.209  23.164  1.00  0.00     0.118 A 
ATOM     11  N   UNL A   1      31.411  25.304  25.151  1.00  0.00    -0.159 NA
ATOM     12  C   UNL A   1      30.736  23.934  23.466  1.00  0.00     0.058 A 
BRANCH   9  13
ATOM     13  C   UNL A   1      30.676  27.445  24.255  1.00  0.00     0.157 A 
ATOM     14  C   UNL A   1      31.356  29.527  25.114  1.00  0.00     0.046 A 
ATOM     15  C   UNL A   1      31.473  28.150  25.141  1.00  0.00     0.073 A 
ATOM     16  N   UNL A   1      30.407  30.138  24.370  1.00  0.00    -0.238 NA
ATOM     17  C   UNL A   1      29.635  29.368  23.580  1.00  0.00     0.133 A 
ATOM     18  N   UNL A   1      29.769  28.044  23.455  1.00  0.00    -0.213 NA
BRANCH  14  19
ATOM     19  C   UNL A   1      32.241  30.454  25.914  1.00  0.00     0.056 C 
BRANCH  19  20
ATOM     20  C   UNL A   1      31.578  31.404  26.920  1.00  0.00     0.003 C 
ATOM     21  C   UNL A   1      31.856  32.878  26.653  1.00  0.00     0.004 C 
ENDBRANCH  19  20
ENDBRANCH  14  19
BRANCH  17  22
ATOM     22  C   UNL A   1      28.488  30.007  22.834  1.00  0.00     0.051 C 
ATOM     23  C   UNL A   1      28.919  30.412  21.424  1.00  0.00     0.016 C 
ATOM     24  C   UNL A   1      27.269  29.091  22.807  1.00  0.00     0.016 C 
ENDBRANCH  17  22
ENDBRANCH   9  13
ENDBRANCH   6   8
ENDBRANCH   5   6
ENDBRANCH   4   5
ENDBRANCH   3   4
ENDBRANCH   2   3
ENDBRANCH   1   2
BRANCH   1  25
ATOM     25  C   UNL A   1      37.577  21.654  24.946  1.00  0.00     0.188 C 
BRANCH  25  26
ATOM     26  O   UNL A   1      38.728  22.044  25.658  1.00  0.00    -0.376 OA
BRANCH  26  27
ATOM     27  C   UNL A   1      39.602  21.085  26.225  1.00  0.00     0.202 C 
BRANCH  27  28
ATOM     28  C   UNL A   1      41.090  21.323  26.483  1.00  0.00     0.261 C 
BRANCH  28  29
ATOM     29  O   UNL A   1      41.430  22.343  27.401  1.00  0.00    -0.460 OA
BRANCH  29  30
ATOM     30  C   UNL A   1      41.669  23.535  26.815  1.00  0.00     0.338 C 
ATOM     31  O   UNL A   1      42.238  23.721  25.751  1.00  0.00    -0.246 OA
BRANCH  30  32
ATOM     32  C   UNL A   1      41.254  24.605  27.722  1.00  0.00     0.060 A 
ATOM     33  C   UNL A   1      40.100  25.304  27.371  1.00  0.00     0.016 A 
ATOM     34  C   UNL A   1      42.160  25.085  28.682  1.00  0.00     0.016 A 
ATOM     35  C   UNL A   1      39.967  26.595  27.825  1.00  0.00     0.010 A 
ATOM     36  C   UNL A   1      42.028  26.379  29.125  1.00  0.00     0.010 A 
ATOM     37  C   UNL A   1      40.983  27.145  28.618  1.00  0.00    -0.014 A 
BRANCH  37  38
ATOM     38  C   UNL A   1      40.863  28.539  28.981  1.00  0.00     0.031 A 
ATOM     39  C   UNL A   1      41.942  29.368  28.410  1.00  0.00     0.074 A 
ATOM     40  C   UNL A   1      39.851  29.035  29.716  1.00  0.00     0.049 A 
ATOM     41  N   UNL A   1      42.926  29.907  29.045  1.00  0.00    -0.248 NA
ATOM     42  C   UNL A   1      42.058  29.433  26.947  1.00  0.00     0.031 C 
ATOM     43  C   UNL A   1      38.620  28.370  30.142  1.00  0.00     0.029 A 
ATOM     44  N   UNL A   1      39.684  30.306  30.167  1.00  0.00    -0.354 N 
ATOM     45  C   UNL A   1      43.653  30.594  28.085  1.00  0.00     0.074 A 
ATOM     46  C   UNL A   1      43.207  30.094  26.813  1.00  0.00     0.031 C 
ATOM     47  C   UNL A   1      37.743  29.302  30.584  1.00  0.00     0.029 A 
ATOM     48  C   UNL A   1      38.395  30.604  30.592  1.00  0.00     0.049 A 
ATOM     49  H   UNL A   1      40.418  30.963  30.193  1.00  0.00     0.167 HD
ATOM     50  C   UNL A   1      44.369  31.700  28.419  1.00  0.00     0.034 A 
ATOM     51  C   UNL A   1      37.895  31.842  30.856  1.00  0.00     0.034 A 
ATOM     52  C   UNL A   1      44.629  31.743  29.842  1.00  0.00     0.049 A 
ATOM     53  C   UNL A   1      39.060  32.714  31.168  1.00  0.00     0.074 A 
ATOM     54  C   UNL A   1      45.244  30.879  30.732  1.00  0.00     0.029 A 
ATOM     55  N   UNL A   1      43.883  32.598  30.624  1.00  0.00    -0.354 N 
ATOM     56  N   UNL A   1      39.810  32.551  32.224  1.00  0.00    -0.248 NA
ATOM     57  C   UNL A   1      39.690  33.435  30.071  1.00  0.00     0.031 C 
ATOM     58  C   UNL A   1      44.442  30.931  31.910  1.00  0.00     0.029 A 
ATOM     59  C   UNL A   1      43.438  31.879  31.708  1.00  0.00     0.049 A 
ATOM     60  H   UNL A   1      43.703  33.548  30.440  1.00  0.00     0.167 HD
ATOM     61  C   UNL A   1      41.108  32.737  31.776  1.00  0.00     0.074 A 
ATOM     62  C   UNL A   1      40.966  33.373  30.466  1.00  0.00     0.031 C 
ATOM     63  C   UNL A   1      42.165  32.106  32.369  1.00  0.00     0.034 A 
BRANCH  50  64
ATOM     64  C   UNL A   1      44.490  32.915  27.528  1.00  0.00     0.023 A 
ATOM     65  C   UNL A   1      43.808  34.074  27.936  1.00  0.00     0.031 A 
ATOM     66  C   UNL A   1      44.971  32.921  26.197  1.00  0.00     0.131 A 
ATOM     67  C   UNL A   1      43.532  35.104  27.023  1.00  0.00     0.055 A 
ATOM     68  C   UNL A   1      44.757  33.981  25.314  1.00  0.00     0.041 A 
ATOM     69  F   UNL A   1      45.590  31.875  25.638  1.00  0.00    -0.206 F 
ATOM     70  C   UNL A   1      44.002  35.068  25.714  1.00  0.00     0.022 A 
BRANCH  67  71
ATOM     71  S   UNL A   1      42.381  36.404  27.531  1.00  0.00     0.124 S 
ATOM     72  O   UNL A   1      42.576  37.394  26.477  1.00  0.00    -0.237 OA
ATOM     73  O   UNL A   1      41.106  35.693  27.521  1.00  0.00    -0.237 OA
ATOM     74  O   UNL A   1      42.870  36.791  28.852  1.00  0.00    -0.744 OA
ENDBRANCH  67  71
ENDBRANCH  50  64
BRANCH  51  75
ATOM     75  C   UNL A   1      36.542  32.370  30.516  1.00  0.00     0.023 A 
ATOM     76  C   UNL A   1      35.841  33.264  31.357  1.00  0.00     0.031 A 
ATOM     77  C   UNL A   1      36.021  32.194  29.213  1.00  0.00     0.131 A 
ATOM     78  C   UNL A   1      34.686  33.935  30.884  1.00  0.00     0.055 A 
ATOM     79  C   UNL A   1      34.881  32.857  28.753  1.00  0.00     0.041 A 
ATOM     80  F   UNL A   1      36.656  31.438  28.304  1.00  0.00    -0.206 F 
ATOM     81  C   UNL A   1      34.215  33.741  29.584  1.00  0.00     0.022 A 
BRANCH  78  82
ATOM     82  S   UNL A   1      33.830  35.165  31.924  1.00  0.00     0.124 S 
ATOM     83  O   UNL A   1      33.278  36.079  30.930  1.00  0.00    -0.237 OA
ATOM     84  O   UNL A   1      32.872  34.348  32.659  1.00  0.00    -0.237 OA
ATOM     85  O   UNL A   1      34.907  35.726  32.742  1.00  0.00    -0.744 OA
ENDBRANCH  78  82
ENDBRANCH  51  75
BRANCH  63  86
ATOM     86  C   UNL A   1      41.944  31.416  33.705  1.00  0.00     0.023 A 
ATOM     87  C   UNL A   1      42.090  32.029  34.971  1.00  0.00     0.031 A 
ATOM     88  C   UNL A   1      41.450  30.099  33.677  1.00  0.00     0.131 A 
ATOM     89  C   UNL A   1      41.762  31.317  36.144  1.00  0.00     0.055 A 
ATOM     90  C   UNL A   1      41.105  29.407  34.837  1.00  0.00     0.041 A 
ATOM     91  F   UNL A   1      41.264  29.467  32.506  1.00  0.00    -0.206 F 
ATOM     92  C   UNL A   1      41.266  30.012  36.077  1.00  0.00     0.022 A 
BRANCH  89  93
ATOM     93  S   UNL A   1      41.993  32.070  37.789  1.00  0.00     0.124 S 
ATOM     94  O   UNL A   1      42.849  31.117  38.485  1.00  0.00    -0.237 OA
ATOM     95  O   UNL A   1      42.599  33.358  37.464  1.00  0.00    -0.237 OA
ATOM     96  O   UNL A   1      40.629  32.159  38.316  1.00  0.00    -0.744 OA
ENDBRANCH  89  93
ENDBRANCH  63  86
ENDBRANCH  37  38
ENDBRANCH  30  32
ENDBRANCH  29  30
ENDBRANCH  28  29
ENDBRANCH  27  28
ENDBRANCH  26  27
ENDBRANCH  25  26
ENDBRANCH   1  25
TORSDOF 24
ENDMDL
MODEL 3
REMARK VINA RESULT:     -10.7      1.306      2.346
REMARK SMILES CCCc1cc(-n2ccc(C(=O)OCCOCCOCCOC(=O)c3ccc(-c4c5nc(c(-c6cc(S(=O)(=O)[O-])ccc6F)c6ccc([nH]6)c(-c6cc(S(=O)(=O)[O-])ccc6F)c6nc(c(-c7cc(S(=O)(=O)[O-])ccc7F)c7ccc4[nH]7)C=C6)C=C5)cc3)n2)nc(C(C)C)n1
REMARK SMILES IDX 17 1 16 2 15 3 14 4 13 5 11 6 12 7 10 8 7 9 8 10 88 11 9 12
REMARK SMILES IDX 6 13 4 14 5 15 94 16 90 17 89 18 3 19 2 20 1 21 91 22 92 23
REMARK SMILES IDX 93 24 18 25 19 26 20 27 21 28 22 29 23 30 24 31 25 32 26 33
REMARK SMILES IDX 87 34 27 35 86 36 28 37 29 38 30 39 80 40 31 41 85 42 79 43
REMARK SMILES IDX 81 44 32 45 84 46 78 47 77 48 33 50 65 51 45 52 64 53 46 54
REMARK SMILES IDX 49 55 63 56 82 57 47 58 48 59 62 61 83 62 50 63 34 64 35 65
REMARK SMILES IDX 43 66 36 67 42 68 44 69 41 70 37 71 38 72 39 73 40 74 66 75
REMARK SMILES IDX 67 76 75 77 68 78 74 79 76 80 73 81 69 82 70 83 71 84 72 85
REMARK SMILES IDX 51 86 52 87 60 88 53 89 59 90 61 91 58 92 54 93 55 94 56 95
REMARK SMILES IDX 57 96
REMARK H PARENT 81 49 49 60
REMARK Flexibility Score: inf
ROOT
ATOM      1  C   UNL A   1      36.979  22.483  25.487  1.00  0.00     0.188 C 
ENDROOT
BRANCH   1   2
ATOM      2  O   UNL A   1      36.543  23.454  24.546  1.00  0.00    -0.376 OA
BRANCH   2   3
ATOM      3  C   UNL A   1      35.179  23.530  24.164  1.00  0.00     0.202 C 
BRANCH   3   4
ATOM      4  C   UNL A   1      34.317  22.266  23.947  1.00  0.00     0.261 C 
BRANCH   4   5
ATOM      5  O   UNL A   1      33.067  22.449  23.272  1.00  0.00    -0.458 OA
BRANCH   5   6
ATOM      6  C   UNL A   1      32.979  23.529  22.426  1.00  0.00     0.358 C 
ATOM      7  O   UNL A   1      33.520  23.608  21.349  1.00  0.00    -0.244 OA
BRANCH   6   8
ATOM      8  C   UNL A   1      31.960  24.490  22.890  1.00  0.00     0.170 A 
ATOM      9  N   UNL A   1      31.051  26.282  23.650  1.00  0.00    -0.222 N 
ATOM     10  C   UNL A   1      30.108  25.291  23.815  1.00  0.00     0.118 A 
ATOM     11  N   UNL A   1      32.187  25.800  23.073  1.00  0.00    -0.159 NA
ATOM     12  C   UNL A   1      30.632  24.151  23.260  1.00  0.00     0.058 A 
BRANCH   9  13
ATOM     13  C   UNL A   1      30.918  27.663  23.993  1.00  0.00     0.157 A 
ATOM     14  C   UNL A   1      31.572  29.562  25.219  1.00  0.00     0.046 A 
ATOM     15  C   UNL A   1      31.714  28.206  24.987  1.00  0.00     0.073 A 
ATOM     16  N   UNL A   1      30.602  30.281  24.612  1.00  0.00    -0.238 NA
ATOM     17  C   UNL A   1      29.833  29.656  23.699  1.00  0.00     0.133 A 
ATOM     18  N   UNL A   1      29.989  28.382  23.328  1.00  0.00    -0.213 NA
BRANCH  14  19
ATOM     19  C   UNL A   1      32.450  30.341  26.168  1.00  0.00     0.056 C 
BRANCH  19  20
ATOM     20  C   UNL A   1      33.170  29.576  27.287  1.00  0.00     0.003 C 
ATOM     21  C   UNL A   1      34.686  29.533  27.130  1.00  0.00     0.004 C 
ENDBRANCH  19  20
ENDBRANCH  14  19
BRANCH  17  22
ATOM     22  C   UNL A   1      28.665  30.400  23.097  1.00  0.00     0.051 C 
ATOM     23  C   UNL A   1      29.132  31.316  21.965  1.00  0.00     0.016 C 
ATOM     24  C   UNL A   1      27.580  29.436  22.627  1.00  0.00     0.016 C 
ENDBRANCH  17  22
ENDBRANCH   9  13
ENDBRANCH   6   8
ENDBRANCH   5   6
ENDBRANCH   4   5
ENDBRANCH   3   4
ENDBRANCH   2   3
ENDBRANCH   1   2
BRANCH   1  25
ATOM     25  C   UNL A   1      37.679  21.179  25.041  1.00  0.00     0.188 C 
BRANCH  25  26
ATOM     26  O   UNL A   1      38.983  21.006  25.544  1.00  0.00    -0.376 OA
BRANCH  26  27
ATOM     27  C   UNL A   1      39.633  22.031  26.274  1.00  0.00     0.202 C 
BRANCH  27  28
ATOM     28  C   UNL A   1      40.815  21.801  27.215  1.00  0.00     0.261 C 
BRANCH  28  29
ATOM     29  O   UNL A   1      42.097  22.158  26.738  1.00  0.00    -0.460 OA
BRANCH  29  30
ATOM     30  C   UNL A   1      42.152  23.406  26.226  1.00  0.00     0.338 C 
ATOM     31  O   UNL A   1      42.622  23.728  25.146  1.00  0.00    -0.246 OA
BRANCH  30  32
ATOM     32  C   UNL A   1      41.673  24.356  27.230  1.00  0.00     0.060 A 
ATOM     33  C   UNL A   1      40.575  25.136  26.872  1.00  0.00     0.016 A 
ATOM     34  C   UNL A   1      42.490  24.668  28.328  1.00  0.00     0.016 A 
ATOM     35  C   UNL A   1      40.425  26.357  27.487  1.00  0.00     0.010 A 
ATOM     36  C   UNL A   1      42.343  25.893  28.933  1.00  0.00     0.010 A 
ATOM     37  C   UNL A   1      41.370  26.757  28.441  1.00  0.00    -0.014 A 
BRANCH  37  38
ATOM     38  C   UNL A   1      41.245  28.092  28.982  1.00  0.00     0.031 A 
ATOM     39  C   UNL A   1      42.267  29.016  28.451  1.00  0.00     0.074 A 
ATOM     40  C   UNL A   1      40.274  28.464  29.835  1.00  0.00     0.049 A 
ATOM     41  N   UNL A   1      43.279  29.501  29.085  1.00  0.00    -0.248 NA
ATOM     42  C   UNL A   1      42.283  29.264  27.003  1.00  0.00     0.031 C 
ATOM     43  C   UNL A   1      39.088  27.717  30.252  1.00  0.00     0.029 A 
ATOM     44  N   UNL A   1      40.111  29.665  30.451  1.00  0.00    -0.354 N 
ATOM     45  C   UNL A   1      43.926  30.322  28.173  1.00  0.00     0.074 A 
ATOM     46  C   UNL A   1      43.408  29.969  26.880  1.00  0.00     0.031 C 
ATOM     47  C   UNL A   1      38.223  28.562  30.861  1.00  0.00     0.029 A 
ATOM     48  C   UNL A   1      38.847  29.871  30.990  1.00  0.00     0.049 A 
ATOM     49  H   UNL A   1      40.831  30.335  30.511  1.00  0.00     0.167 HD
ATOM     50  C   UNL A   1      44.640  31.399  28.597  1.00  0.00     0.034 A 
ATOM     51  C   UNL A   1      38.340  31.053  31.438  1.00  0.00     0.034 A 
ATOM     52  C   UNL A   1      44.992  31.274  29.995  1.00  0.00     0.049 A 
ATOM     53  C   UNL A   1      39.504  31.913  31.781  1.00  0.00     0.074 A 
ATOM     54  C   UNL A   1      45.684  30.325  30.729  1.00  0.00     0.029 A 
ATOM     55  N   UNL A   1      44.282  32.005  30.923  1.00  0.00    -0.354 N 
ATOM     56  N   UNL A   1      40.326  31.643  32.759  1.00  0.00    -0.248 NA
ATOM     57  C   UNL A   1      40.046  32.781  30.745  1.00  0.00     0.031 C 
ATOM     58  C   UNL A   1      44.960  30.209  31.953  1.00  0.00     0.029 A 
ATOM     59  C   UNL A   1      43.925  31.145  31.935  1.00  0.00     0.049 A 
ATOM     60  H   UNL A   1      44.071  32.964  30.870  1.00  0.00     0.167 HD
ATOM     61  C   UNL A   1      41.588  31.921  32.256  1.00  0.00     0.074 A 
ATOM     62  C   UNL A   1      41.346  32.709  31.047  1.00  0.00     0.031 C 
ATOM     63  C   UNL A   1      42.695  31.253  32.698  1.00  0.00     0.034 A 
BRANCH  50  64
ATOM     64  C   UNL A   1      44.676  32.716  27.858  1.00  0.00     0.023 A 
ATOM     65  C   UNL A   1      43.908  33.766  28.391  1.00  0.00     0.031 A 
ATOM     66  C   UNL A   1      45.162  32.916  26.544  1.00  0.00     0.131 A 
ATOM     67  C   UNL A   1      43.563  34.876  27.603  1.00  0.00     0.055 A 
ATOM     68  C   UNL A   1      44.876  34.056  25.790  1.00  0.00     0.041 A 
ATOM     69  F   UNL A   1      45.859  31.992  25.873  1.00  0.00    -0.206 F 
ATOM     70  C   UNL A   1      44.041  35.030  26.305  1.00  0.00     0.022 A 
BRANCH  67  71
ATOM     71  S   UNL A   1      42.317  36.019  28.246  1.00  0.00     0.124 S 
ATOM     72  O   UNL A   1      43.076  36.735  29.265  1.00  0.00    -0.237 OA
ATOM     73  O   UNL A   1      41.966  36.780  27.050  1.00  0.00    -0.237 OA
ATOM     74  O   UNL A   1      41.272  35.132  28.750  1.00  0.00    -0.744 OA
ENDBRANCH  67  71
ENDBRANCH  50  64
BRANCH  51  75
ATOM     75  C   UNL A   1      36.957  31.579  31.252  1.00  0.00     0.023 A 
ATOM     76  C   UNL A   1      36.229  32.192  32.297  1.00  0.00     0.031 A 
ATOM     77  C   UNL A   1      36.420  31.715  29.951  1.00  0.00     0.131 A 
ATOM     78  C   UNL A   1      35.034  32.901  32.019  1.00  0.00     0.055 A 
ATOM     79  C   UNL A   1      35.241  32.413  29.683  1.00  0.00     0.041 A 
ATOM     80  F   UNL A   1      37.073  31.249  28.875  1.00  0.00    -0.206 F 
ATOM     81  C   UNL A   1      34.548  33.020  30.716  1.00  0.00     0.022 A 
BRANCH  78  82
ATOM     82  S   UNL A   1      34.140  33.779  33.344  1.00  0.00     0.124 S 
ATOM     83  O   UNL A   1      32.900  33.017  33.437  1.00  0.00    -0.237 OA
ATOM     84  O   UNL A   1      35.057  33.668  34.473  1.00  0.00    -0.237 OA
ATOM     85  O   UNL A   1      33.990  35.134  32.812  1.00  0.00    -0.744 OA
ENDBRANCH  78  82
ENDBRANCH  51  75
BRANCH  63  86
ATOM     86  C   UNL A   1      42.577  30.398  33.949  1.00  0.00     0.023 A 
ATOM     87  C   UNL A   1      42.527  28.984  33.966  1.00  0.00     0.031 A 
ATOM     88  C   UNL A   1      42.632  31.058  35.190  1.00  0.00     0.131 A 
ATOM     89  C   UNL A   1      42.517  28.291  35.194  1.00  0.00     0.055 A 
ATOM     90  C   UNL A   1      42.645  30.369  36.401  1.00  0.00     0.041 A 
ATOM     91  F   UNL A   1      42.706  32.398  35.245  1.00  0.00    -0.206 F 
ATOM     92  C   UNL A   1      42.581  28.981  36.409  1.00  0.00     0.022 A 
BRANCH  89  93
ATOM     93  S   UNL A   1      42.400  26.471  35.240  1.00  0.00     0.124 S 
ATOM     94  O   UNL A   1      42.918  26.128  36.559  1.00  0.00    -0.237 OA
ATOM     95  O   UNL A   1      40.972  26.242  35.033  1.00  0.00    -0.237 OA
ATOM     96  O   UNL A   1      43.249  26.048  34.125  1.00  0.00    -0.744 OA
ENDBRANCH  89  93
ENDBRANCH  63  86
ENDBRANCH  37  38
ENDBRANCH  30  32
ENDBRANCH  29  30
ENDBRANCH  28  29
ENDBRANCH  27  28
ENDBRANCH  26  27
ENDBRANCH  25  26
ENDBRANCH   1  25
TORSDOF 24
ENDMDL
