MODEL 1
REMARK VINA RESULT:     -11.2      0.000      0.000
REMARK SMILES Cc1cc(NC(=O)c2ccc(Br)cc2N)ccc1C(=O)OCCOCCOCCOC(=O)c1ccc(-c2c3nc(c(-c4cc(S(=O)(=O)[O-])ccc4F)c4ccc([nH]4)c(-c4cc(S(=O)(=O)[O-])ccc4F)c4nc(c(-c5cc(S(=O)(=O)[O-])ccc5F)c5ccc2[nH]5)C=C4)C=C3)cc1
REMARK SMILES IDX 25 1 24 2 23 3 22 4 21 5 19 6 20 7 18 8 1 9 2 10 3 11 4 12
REMARK SMILES IDX 17 13 16 14 5 15 6 16 7 18 8 19 9 20 14 21 10 22 13 23 11 24
REMARK SMILES IDX 12 25 15 26 26 29 27 30 28 31 29 32 30 33 31 34 32 35 33 36
REMARK SMILES IDX 34 37 95 38 35 39 94 40 36 41 37 42 38 43 88 44 39 45 93 46
REMARK SMILES IDX 87 47 89 48 40 49 92 50 86 51 85 52 41 54 73 55 53 56 72 57
REMARK SMILES IDX 54 58 57 59 71 60 90 61 55 62 56 63 70 65 91 66 58 67 42 68
REMARK SMILES IDX 43 69 51 70 44 71 50 72 52 73 49 74 45 75 46 76 47 77 48 78
REMARK SMILES IDX 74 79 75 80 83 81 76 82 82 83 84 84 81 85 77 86 78 87 79 88
REMARK SMILES IDX 80 89 59 90 60 91 68 92 61 93 67 94 69 95 66 96 62 97 63 98
REMARK SMILES IDX 64 99 65 100
REMARK H PARENT 5 17 15 27 15 28 89 53 57 64
REMARK Flexibility Score: inf
ROOT
ATOM      1  C   UNL A   1      40.916  21.432  27.638  1.00  0.00     0.188 C 
ENDROOT
BRANCH   1   2
ATOM      2  O   UNL A   1      40.061  22.388  26.957  1.00  0.00    -0.376 OA
BRANCH   2   3
ATOM      3  C   UNL A   1      38.914  22.057  26.125  1.00  0.00     0.202 C 
BRANCH   3   4
ATOM      4  C   UNL A   1      37.640  23.109  25.970  1.00  0.00     0.261 C 
BRANCH   4   5
ATOM      5  O   UNL A   1      36.183  22.716  25.385  1.00  0.00    -0.460 OA
BRANCH   5   6
ATOM      6  C   UNL A   1      35.085  23.546  25.084  1.00  0.00     0.338 C 
ATOM      7  O   UNL A   1      34.973  24.744  25.324  1.00  0.00    -0.246 OA
BRANCH   6   8
ATOM      8  C   UNL A   1      33.808  23.227  24.398  1.00  0.00     0.063 A 
ATOM      9  C   UNL A   1      32.944  22.246  26.528  1.00  0.00     0.045 C 
ATOM     10  C   UNL A   1      32.726  22.880  25.193  1.00  0.00    -0.035 A 
ATOM     11  C   UNL A   1      31.445  23.371  24.846  1.00  0.00     0.030 A 
ATOM     12  C   UNL A   1      31.234  24.212  23.737  1.00  0.00     0.041 A 
ATOM     13  C   UNL A   1      33.540  23.986  23.207  1.00  0.00     0.018 A 
ATOM     14  C   UNL A   1      32.269  24.449  22.858  1.00  0.00     0.027 A 
BRANCH  12  15
ATOM     15  N   UNL A   1      30.032  24.912  23.534  1.00  0.00    -0.322 N 
ATOM     16  C   UNL A   1      29.628  26.076  24.161  1.00  0.00     0.257 C 
ATOM     17  H   UNL A   1      29.408  24.531  22.874  1.00  0.00     0.170 HD
ATOM     18  O   UNL A   1      28.451  26.427  24.151  1.00  0.00    -0.269 OA
BRANCH  16  19
ATOM     19  C   UNL A   1      30.649  26.950  24.795  1.00  0.00     0.063 A 
ATOM     20  C   UNL A   1      30.922  26.712  26.150  1.00  0.00     0.017 A 
ATOM     21  C   UNL A   1      31.328  27.965  24.085  1.00  0.00     0.045 A 
ATOM     22  C   UNL A   1      31.896  27.464  26.807  1.00  0.00     0.016 A 
ATOM     23  C   UNL A   1      32.272  28.735  24.778  1.00  0.00     0.042 A 
ATOM     24  C   UNL A   1      32.566  28.470  26.117  1.00  0.00     0.020 A 
ATOM     25  Br  UNL A   1      33.877  29.500  27.009  1.00  0.00    -0.051 Br
BRANCH  21  26
ATOM     26  N   UNL A   1      30.999  28.350  22.787  1.00  0.00    -0.398 N 
ATOM     27  H   UNL A   1      30.842  29.299  22.579  1.00  0.00     0.156 HD
ATOM     28  H   UNL A   1      30.924  27.672  22.076  1.00  0.00     0.156 HD
ENDBRANCH  21  26
ENDBRANCH  16  19
ENDBRANCH  12  15
ENDBRANCH   6   8
ENDBRANCH   5   6
ENDBRANCH   4   5
ENDBRANCH   3   4
ENDBRANCH   2   3
ENDBRANCH   1   2
BRANCH   1  29
ATOM     29  C   UNL A   1      41.064  19.969  27.199  1.00  0.00     0.188 C 
BRANCH  29  30
ATOM     30  O   UNL A   1      41.913  19.865  26.066  1.00  0.00    -0.376 OA
BRANCH  30  31
ATOM     31  C   UNL A   1      42.804  18.760  26.052  1.00  0.00     0.202 C 
BRANCH  31  32
ATOM     32  C   UNL A   1      44.035  18.946  25.136  1.00  0.00     0.261 C 
BRANCH  32  33
ATOM     33  O   UNL A   1      44.697  20.222  25.342  1.00  0.00    -0.460 OA
BRANCH  33  34
ATOM     34  C   UNL A   1      44.677  21.121  24.296  1.00  0.00     0.338 C 
ATOM     35  O   UNL A   1      44.620  20.768  23.126  1.00  0.00    -0.246 OA
BRANCH  34  36
ATOM     36  C   UNL A   1      44.511  22.534  24.779  1.00  0.00     0.060 A 
ATOM     37  C   UNL A   1      45.459  23.571  24.846  1.00  0.00     0.016 A 
ATOM     38  C   UNL A   1      43.308  22.842  25.316  1.00  0.00     0.016 A 
ATOM     39  C   UNL A   1      45.177  24.855  25.517  1.00  0.00     0.010 A 
ATOM     40  C   UNL A   1      43.202  23.994  26.093  1.00  0.00     0.010 A 
ATOM     41  C   UNL A   1      43.983  25.120  26.191  1.00  0.00    -0.014 A 
BRANCH  41  42
ATOM     42  C   UNL A   1      43.518  26.233  27.203  1.00  0.00     0.031 A 
ATOM     43  C   UNL A   1      42.213  27.210  27.338  1.00  0.00     0.074 A 
ATOM     44  C   UNL A   1      44.374  26.325  28.246  1.00  0.00     0.049 A 
ATOM     45  N   UNL A   1      42.265  28.405  27.902  1.00  0.00    -0.248 NA
ATOM     46  C   UNL A   1      40.787  27.047  26.894  1.00  0.00     0.031 C 
ATOM     47  C   UNL A   1      44.257  27.098  29.473  1.00  0.00     0.029 A 
ATOM     48  N   UNL A   1      45.706  25.905  28.235  1.00  0.00    -0.354 N 
ATOM     49  C   UNL A   1      40.958  28.902  28.006  1.00  0.00     0.074 A 
ATOM     50  C   UNL A   1      40.198  28.219  27.049  1.00  0.00     0.031 C 
ATOM     51  C   UNL A   1      45.498  27.402  29.889  1.00  0.00     0.029 A 
ATOM     52  C   UNL A   1      46.429  26.904  28.890  1.00  0.00     0.049 A 
ATOM     53  H   UNL A   1      46.062  25.075  27.845  1.00  0.00     0.167 HD
ATOM     54  C   UNL A   1      40.496  29.695  29.013  1.00  0.00     0.034 A 
ATOM     55  C   UNL A   1      47.352  27.614  28.184  1.00  0.00     0.034 A 
ATOM     56  C   UNL A   1      41.621  30.329  29.649  1.00  0.00     0.049 A 
ATOM     57  C   UNL A   1      47.022  29.093  28.141  1.00  0.00     0.074 A 
ATOM     58  C   UNL A   1      42.303  30.142  30.831  1.00  0.00     0.029 A 
ATOM     59  N   UNL A   1      42.449  31.072  28.821  1.00  0.00    -0.354 N 
ATOM     60  N   UNL A   1      45.909  29.621  28.585  1.00  0.00    -0.248 NA
ATOM     61  C   UNL A   1      47.932  30.098  27.609  1.00  0.00     0.031 C 
ATOM     62  C   UNL A   1      43.636  30.618  30.616  1.00  0.00     0.029 A 
ATOM     63  C   UNL A   1      43.722  31.160  29.340  1.00  0.00     0.049 A 
ATOM     64  H   UNL A   1      42.164  31.483  27.973  1.00  0.00     0.167 HD
ATOM     65  C   UNL A   1      45.892  30.967  28.322  1.00  0.00     0.074 A 
ATOM     66  C   UNL A   1      47.215  31.221  27.780  1.00  0.00     0.031 C 
ATOM     67  C   UNL A   1      44.779  31.747  28.520  1.00  0.00     0.034 A 
BRANCH  54  68
ATOM     68  C   UNL A   1      39.016  29.821  29.424  1.00  0.00     0.023 A 
ATOM     69  C   UNL A   1      38.255  30.937  29.019  1.00  0.00     0.031 A 
ATOM     70  C   UNL A   1      38.317  28.938  30.300  1.00  0.00     0.131 A 
ATOM     71  C   UNL A   1      36.899  31.092  29.415  1.00  0.00     0.055 A 
ATOM     72  C   UNL A   1      36.950  29.033  30.596  1.00  0.00     0.041 A 
ATOM     73  F   UNL A   1      38.933  27.983  31.011  1.00  0.00    -0.206 F 
ATOM     74  C   UNL A   1      36.228  30.118  30.152  1.00  0.00     0.022 A 
BRANCH  71  75
ATOM     75  S   UNL A   1      36.021  32.646  29.070  1.00  0.00     0.124 S 
ATOM     76  O   UNL A   1      34.754  32.439  29.763  1.00  0.00    -0.237 OA
ATOM     77  O   UNL A   1      36.918  33.645  29.637  1.00  0.00    -0.237 OA
ATOM     78  O   UNL A   1      35.920  32.668  27.609  1.00  0.00    -0.744 OA
ENDBRANCH  71  75
ENDBRANCH  54  68
BRANCH  55  79
ATOM     79  C   UNL A   1      48.088  26.784  27.160  1.00  0.00     0.023 A 
ATOM     80  C   UNL A   1      47.784  27.045  25.797  1.00  0.00     0.031 A 
ATOM     81  C   UNL A   1      49.243  26.034  27.412  1.00  0.00     0.131 A 
ATOM     82  C   UNL A   1      48.690  26.733  24.772  1.00  0.00     0.055 A 
ATOM     83  C   UNL A   1      50.102  25.629  26.368  1.00  0.00     0.041 A 
ATOM     84  F   UNL A   1      49.649  25.798  28.668  1.00  0.00    -0.206 F 
ATOM     85  C   UNL A   1      49.849  26.013  25.048  1.00  0.00     0.022 A 
BRANCH  82  86
ATOM     86  S   UNL A   1      48.497  27.522  23.140  1.00  0.00     0.124 S 
ATOM     87  O   UNL A   1      48.401  26.368  22.253  1.00  0.00    -0.237 OA
ATOM     88  O   UNL A   1      47.278  28.315  23.286  1.00  0.00    -0.237 OA
ATOM     89  O   UNL A   1      49.711  28.323  23.013  1.00  0.00    -0.744 OA
ENDBRANCH  82  86
ENDBRANCH  55  79
BRANCH  67  90
ATOM     90  C   UNL A   1      44.588  33.137  27.922  1.00  0.00     0.023 A 
ATOM     91  C   UNL A   1      44.774  34.313  28.661  1.00  0.00     0.031 A 
ATOM     92  C   UNL A   1      44.278  33.340  26.553  1.00  0.00     0.131 A 
ATOM     93  C   UNL A   1      44.529  35.580  28.111  1.00  0.00     0.055 A 
ATOM     94  C   UNL A   1      44.168  34.609  25.970  1.00  0.00     0.041 A 
ATOM     95  F   UNL A   1      44.076  32.317  25.711  1.00  0.00    -0.206 F 
ATOM     96  C   UNL A   1      44.259  35.744  26.759  1.00  0.00     0.022 A 
BRANCH  93  97
ATOM     97  S   UNL A   1      44.417  36.979  29.255  1.00  0.00     0.124 S 
ATOM     98  O   UNL A   1      45.826  37.283  29.497  1.00  0.00    -0.237 OA
ATOM     99  O   UNL A   1      43.684  37.967  28.472  1.00  0.00    -0.237 OA
ATOM    100  O   UNL A   1      43.699  36.428  30.402  1.00  0.00    -0.744 OA
ENDBRANCH  93  97
ENDBRANCH  67  90
ENDBRANCH  41  42
ENDBRANCH  34  36
ENDBRANCH  33  34
ENDBRANCH  32  33
ENDBRANCH  31  32
ENDBRANCH  30  31
ENDBRANCH  29  30
ENDBRANCH   1  29
TORSDOF 23
ENDMDL
MODEL 2
REMARK VINA RESULT:     -11.2      1.979      2.982
REMARK SMILES Cc1cc(NC(=O)c2ccc(Br)cc2N)ccc1C(=O)OCCOCCOCCOC(=O)c1ccc(-c2c3nc(c(-c4cc(S(=O)(=O)[O-])ccc4F)c4ccc([nH]4)c(-c4cc(S(=O)(=O)[O-])ccc4F)c4nc(c(-c5cc(S(=O)(=O)[O-])ccc5F)c5ccc2[nH]5)C=C4)C=C3)cc1
REMARK SMILES IDX 25 1 24 2 23 3 22 4 21 5 19 6 20 7 18 8 1 9 2 10 3 11 4 12
REMARK SMILES IDX 17 13 16 14 5 15 6 16 7 18 8 19 9 20 14 21 10 22 13 23 11 24
REMARK SMILES IDX 12 25 15 26 26 29 27 30 28 31 29 32 30 33 31 34 32 35 33 36
REMARK SMILES IDX 34 37 95 38 35 39 94 40 36 41 37 42 38 43 88 44 39 45 93 46
REMARK SMILES IDX 87 47 89 48 40 49 92 50 86 51 85 52 41 54 73 55 53 56 72 57
REMARK SMILES IDX 54 58 57 59 71 60 90 61 55 62 56 63 70 65 91 66 58 67 42 68
REMARK SMILES IDX 43 69 51 70 44 71 50 72 52 73 49 74 45 75 46 76 47 77 48 78
REMARK SMILES IDX 74 79 75 80 83 81 76 82 82 83 84 84 81 85 77 86 78 87 79 88
REMARK SMILES IDX 80 89 59 90 60 91 68 92 61 93 67 94 69 95 66 96 62 97 63 98
REMARK SMILES IDX 64 99 65 100
REMARK H PARENT 5 17 15 27 15 28 89 53 57 64
REMARK Flexibility Score: inf
ROOT
ATOM      1  C   UNL A   1      42.208  19.483  25.775  1.00  0.00     0.188 C 
ENDROOT
BRANCH   1   2
ATOM      2  O   UNL A   1      41.966  20.491  26.791  1.00  0.00    -0.376 OA
BRANCH   2   3
ATOM      3  C   UNL A   1      40.661  21.010  27.177  1.00  0.00     0.202 C 
BRANCH   3   4
ATOM      4  C   UNL A   1      39.506  21.349  26.035  1.00  0.00     0.261 C 
BRANCH   4   5
ATOM      5  O   UNL A   1      38.430  22.553  26.138  1.00  0.00    -0.460 OA
BRANCH   5   6
ATOM      6  C   UNL A   1      37.070  22.573  25.769  1.00  0.00     0.338 C 
ATOM      7  O   UNL A   1      36.263  21.654  25.861  1.00  0.00    -0.246 OA
BRANCH   6   8
ATOM      8  C   UNL A   1      36.251  23.675  25.207  1.00  0.00     0.063 A 
ATOM      9  C   UNL A   1      36.728  22.815  22.908  1.00  0.00     0.045 C 
ATOM     10  C   UNL A   1      35.879  23.577  23.873  1.00  0.00    -0.035 A 
ATOM     11  C   UNL A   1      34.573  23.976  23.503  1.00  0.00     0.030 A 
ATOM     12  C   UNL A   1      33.633  24.446  24.439  1.00  0.00     0.041 A 
ATOM     13  C   UNL A   1      35.311  24.273  26.115  1.00  0.00     0.018 A 
ATOM     14  C   UNL A   1      34.030  24.684  25.738  1.00  0.00     0.027 A 
BRANCH  12  15
ATOM     15  N   UNL A   1      32.268  24.593  24.136  1.00  0.00    -0.322 N 
ATOM     16  C   UNL A   1      31.414  23.625  23.643  1.00  0.00     0.257 C 
ATOM     17  H   UNL A   1      31.878  25.484  24.291  1.00  0.00     0.170 HD
ATOM     18  O   UNL A   1      30.345  23.927  23.120  1.00  0.00    -0.269 OA
BRANCH  16  19
ATOM     19  C   UNL A   1      31.768  22.192  23.814  1.00  0.00     0.063 A 
ATOM     20  C   UNL A   1      32.036  21.468  22.642  1.00  0.00     0.017 A 
ATOM     21  C   UNL A   1      31.845  21.573  25.083  1.00  0.00     0.045 A 
ATOM     22  C   UNL A   1      32.413  20.128  22.721  1.00  0.00     0.016 A 
ATOM     23  C   UNL A   1      32.185  20.214  25.133  1.00  0.00     0.042 A 
ATOM     24  C   UNL A   1      32.487  19.509  23.967  1.00  0.00     0.020 A 
ATOM     25  Br  UNL A   1      32.984  17.688  24.075  1.00  0.00    -0.051 Br
BRANCH  21  26
ATOM     26  N   UNL A   1      31.448  22.191  26.266  1.00  0.00    -0.398 N 
ATOM     27  H   UNL A   1      30.508  22.144  26.554  1.00  0.00     0.156 HD
ATOM     28  H   UNL A   1      32.107  22.673  26.816  1.00  0.00     0.156 HD
ENDBRANCH  21  26
ENDBRANCH  16  19
ENDBRANCH  12  15
ENDBRANCH   6   8
ENDBRANCH   5   6
ENDBRANCH   4   5
ENDBRANCH   3   4
ENDBRANCH   2   3
ENDBRANCH   1   2
BRANCH   1  29
ATOM     29  C   UNL A   1      43.583  18.846  25.529  1.00  0.00     0.188 C 
BRANCH  29  30
ATOM     30  O   UNL A   1      44.009  19.064  24.192  1.00  0.00    -0.376 OA
BRANCH  30  31
ATOM     31  C   UNL A   1      45.393  19.318  24.011  1.00  0.00     0.202 C 
BRANCH  31  32
ATOM     32  C   UNL A   1      45.935  20.507  24.838  1.00  0.00     0.261 C 
BRANCH  32  33
ATOM     33  O   UNL A   1      46.011  21.735  24.067  1.00  0.00    -0.460 OA
BRANCH  33  34
ATOM     34  C   UNL A   1      44.858  22.486  23.959  1.00  0.00     0.338 C 
ATOM     35  O   UNL A   1      44.089  22.380  23.014  1.00  0.00    -0.246 OA
BRANCH  34  36
ATOM     36  C   UNL A   1      44.574  23.253  25.220  1.00  0.00     0.060 A 
ATOM     37  C   UNL A   1      43.899  22.842  26.382  1.00  0.00     0.016 A 
ATOM     38  C   UNL A   1      44.934  24.557  25.215  1.00  0.00     0.016 A 
ATOM     39  C   UNL A   1      43.549  23.781  27.466  1.00  0.00     0.010 A 
ATOM     40  C   UNL A   1      44.392  25.400  26.184  1.00  0.00     0.010 A 
ATOM     41  C   UNL A   1      43.798  25.154  27.398  1.00  0.00    -0.014 A 
BRANCH  41  42
ATOM     42  C   UNL A   1      43.308  26.400  28.226  1.00  0.00     0.031 A 
ATOM     43  C   UNL A   1      41.997  27.378  28.189  1.00  0.00     0.074 A 
ATOM     44  C   UNL A   1      44.140  26.648  29.263  1.00  0.00     0.049 A 
ATOM     45  N   UNL A   1      42.032  28.642  28.572  1.00  0.00    -0.248 NA
ATOM     46  C   UNL A   1      40.581  27.143  27.742  1.00  0.00     0.031 C 
ATOM     47  C   UNL A   1      43.993  27.592  30.360  1.00  0.00     0.029 A 
ATOM     48  N   UNL A   1      45.473  26.240  29.341  1.00  0.00    -0.354 N 
ATOM     49  C   UNL A   1      40.722  29.141  28.575  1.00  0.00     0.074 A 
ATOM     50  C   UNL A   1      39.986  28.321  27.712  1.00  0.00     0.031 C 
ATOM     51  C   UNL A   1      45.223  27.962  30.754  1.00  0.00     0.029 A 
ATOM     52  C   UNL A   1      46.179  27.329  29.859  1.00  0.00     0.049 A 
ATOM     53  H   UNL A   1      45.841  25.364  29.085  1.00  0.00     0.167 HD
ATOM     54  C   UNL A   1      40.236  30.070  29.445  1.00  0.00     0.034 A 
ATOM     55  C   UNL A   1      47.114  27.934  29.076  1.00  0.00     0.034 A 
ATOM     56  C   UNL A   1      41.344  30.797  30.006  1.00  0.00     0.049 A 
ATOM     57  C   UNL A   1      46.781  29.388  28.811  1.00  0.00     0.074 A 
ATOM     58  C   UNL A   1      42.000  30.789  31.217  1.00  0.00     0.029 A 
ATOM     59  N   UNL A   1      42.188  31.416  29.095  1.00  0.00    -0.354 N 
ATOM     60  N   UNL A   1      45.657  29.968  29.149  1.00  0.00    -0.248 NA
ATOM     61  C   UNL A   1      47.699  30.310  28.158  1.00  0.00     0.031 C 
ATOM     62  C   UNL A   1      43.336  31.237  30.963  1.00  0.00     0.029 A 
ATOM     63  C   UNL A   1      43.448  31.587  29.624  1.00  0.00     0.049 A 
ATOM     64  H   UNL A   1      41.921  31.698  28.191  1.00  0.00     0.167 HD
ATOM     65  C   UNL A   1      45.641  31.261  28.691  1.00  0.00     0.074 A 
ATOM     66  C   UNL A   1      46.975  31.442  28.147  1.00  0.00     0.031 C 
ATOM     67  C   UNL A   1      44.522  32.055  28.750  1.00  0.00     0.034 A 
BRANCH  54  68
ATOM     68  C   UNL A   1      38.746  30.246  29.801  1.00  0.00     0.023 A 
ATOM     69  C   UNL A   1      38.012  31.334  29.286  1.00  0.00     0.031 A 
ATOM     70  C   UNL A   1      38.011  29.443  30.724  1.00  0.00     0.131 A 
ATOM     71  C   UNL A   1      36.647  31.535  29.629  1.00  0.00     0.055 A 
ATOM     72  C   UNL A   1      36.637  29.577  30.971  1.00  0.00     0.041 A 
ATOM     73  F   UNL A   1      38.594  28.541  31.527  1.00  0.00    -0.206 F 
ATOM     74  C   UNL A   1      35.943  30.631  30.421  1.00  0.00     0.022 A 
BRANCH  71  75
ATOM     75  S   UNL A   1      35.801  33.066  29.135  1.00  0.00     0.124 S 
ATOM     76  O   UNL A   1      36.643  34.089  29.749  1.00  0.00    -0.237 OA
ATOM     77  O   UNL A   1      35.830  32.986  27.681  1.00  0.00    -0.237 OA
ATOM     78  O   UNL A   1      34.471  32.933  29.733  1.00  0.00    -0.744 OA
ENDBRANCH  71  75
ENDBRANCH  54  68
BRANCH  55  79
ATOM     79  C   UNL A   1      47.875  26.968  28.201  1.00  0.00     0.023 A 
ATOM     80  C   UNL A   1      47.482  26.904  26.838  1.00  0.00     0.031 A 
ATOM     81  C   UNL A   1      49.108  26.388  28.525  1.00  0.00     0.131 A 
ATOM     82  C   UNL A   1      48.362  26.457  25.841  1.00  0.00     0.055 A 
ATOM     83  C   UNL A   1      49.950  25.841  27.533  1.00  0.00     0.041 A 
ATOM     84  F   UNL A   1      49.596  26.462  29.772  1.00  0.00    -0.206 F 
ATOM     85  C   UNL A   1      49.597  25.911  26.182  1.00  0.00     0.022 A 
BRANCH  82  86
ATOM     86  S   UNL A   1      48.015  26.858  24.098  1.00  0.00     0.124 S 
ATOM     87  O   UNL A   1      48.166  25.560  23.450  1.00  0.00    -0.237 OA
ATOM     88  O   UNL A   1      46.656  27.396  24.135  1.00  0.00    -0.237 OA
ATOM     89  O   UNL A   1      49.036  27.852  23.776  1.00  0.00    -0.744 OA
ENDBRANCH  82  86
ENDBRANCH  55  79
BRANCH  67  90
ATOM     90  C   UNL A   1      44.339  33.342  27.951  1.00  0.00     0.023 A 
ATOM     91  C   UNL A   1      44.523  34.613  28.509  1.00  0.00     0.031 A 
ATOM     92  C   UNL A   1      44.041  33.340  26.564  1.00  0.00     0.131 A 
ATOM     93  C   UNL A   1      44.286  35.786  27.775  1.00  0.00     0.055 A 
ATOM     94  C   UNL A   1      43.939  34.509  25.799  1.00  0.00     0.041 A 
ATOM     95  F   UNL A   1      43.843  32.204  25.881  1.00  0.00    -0.206 F 
ATOM     96  C   UNL A   1      44.028  35.749  26.412  1.00  0.00     0.022 A 
BRANCH  93  97
ATOM     97  S   UNL A   1      44.169  37.339  28.699  1.00  0.00     0.124 S 
ATOM     98  O   UNL A   1      43.678  36.880  29.996  1.00  0.00    -0.237 OA
ATOM     99  O   UNL A   1      45.546  37.820  28.680  1.00  0.00    -0.237 OA
ATOM    100  O   UNL A   1      43.216  38.130  27.923  1.00  0.00    -0.744 OA
ENDBRANCH  93  97
ENDBRANCH  67  90
ENDBRANCH  41  42
ENDBRANCH  34  36
ENDBRANCH  33  34
ENDBRANCH  32  33
ENDBRANCH  31  32
ENDBRANCH  30  31
ENDBRANCH  29  30
ENDBRANCH   1  29
TORSDOF 23
ENDMDL
MODEL 3
REMARK VINA RESULT:     -10.9      3.225      4.691
REMARK SMILES Cc1cc(NC(=O)c2ccc(Br)cc2N)ccc1C(=O)OCCOCCOCCOC(=O)c1ccc(-c2c3nc(c(-c4cc(S(=O)(=O)[O-])ccc4F)c4ccc([nH]4)c(-c4cc(S(=O)(=O)[O-])ccc4F)c4nc(c(-c5cc(S(=O)(=O)[O-])ccc5F)c5ccc2[nH]5)C=C4)C=C3)cc1
REMARK SMILES IDX 25 1 24 2 23 3 22 4 21 5 19 6 20 7 18 8 1 9 2 10 3 11 4 12
REMARK SMILES IDX 17 13 16 14 5 15 6 16 7 18 8 19 9 20 14 21 10 22 13 23 11 24
REMARK SMILES IDX 12 25 15 26 26 29 27 30 28 31 29 32 30 33 31 34 32 35 33 36
REMARK SMILES IDX 34 37 95 38 35 39 94 40 36 41 37 42 38 43 88 44 39 45 93 46
REMARK SMILES IDX 87 47 89 48 40 49 92 50 86 51 85 52 41 54 73 55 53 56 72 57
REMARK SMILES IDX 54 58 57 59 71 60 90 61 55 62 56 63 70 65 91 66 58 67 42 68
REMARK SMILES IDX 43 69 51 70 44 71 50 72 52 73 49 74 45 75 46 76 47 77 48 78
REMARK SMILES IDX 74 79 75 80 83 81 76 82 82 83 84 84 81 85 77 86 78 87 79 88
REMARK SMILES IDX 80 89 59 90 60 91 68 92 61 93 67 94 69 95 66 96 62 97 63 98
REMARK SMILES IDX 64 99 65 100
REMARK H PARENT 5 17 15 27 15 28 89 53 57 64
REMARK Flexibility Score: inf
ROOT
ATOM      1  C   UNL A   1      36.380  21.270  24.853  1.00  0.00     0.188 C 
ENDROOT
BRANCH   1   2
ATOM      2  O   UNL A   1      35.154  20.690  25.369  1.00  0.00    -0.376 OA
BRANCH   2   3
ATOM      3  C   UNL A   1      34.355  19.667  24.709  1.00  0.00     0.202 C 
BRANCH   3   4
ATOM      4  C   UNL A   1      32.697  19.727  24.741  1.00  0.00     0.261 C 
BRANCH   4   5
ATOM      5  O   UNL A   1      31.827  21.020  25.175  1.00  0.00    -0.460 OA
BRANCH   5   6
ATOM      6  C   UNL A   1      32.230  22.181  25.863  1.00  0.00     0.338 C 
ATOM      7  O   UNL A   1      32.578  22.265  27.037  1.00  0.00    -0.246 OA
BRANCH   6   8
ATOM      8  C   UNL A   1      32.366  23.578  25.380  1.00  0.00     0.063 A 
ATOM      9  C   UNL A   1      30.205  24.144  26.501  1.00  0.00     0.045 C 
ATOM     10  C   UNL A   1      31.538  24.534  25.950  1.00  0.00    -0.035 A 
ATOM     11  C   UNL A   1      32.075  25.811  26.238  1.00  0.00     0.030 A 
ATOM     12  C   UNL A   1      33.420  26.139  25.986  1.00  0.00     0.041 A 
ATOM     13  C   UNL A   1      33.699  23.983  25.024  1.00  0.00     0.018 A 
ATOM     14  C   UNL A   1      34.216  25.252  25.291  1.00  0.00     0.027 A 
BRANCH  12  15
ATOM     15  N   UNL A   1      34.028  27.297  26.501  1.00  0.00    -0.322 N 
ATOM     16  C   UNL A   1      33.957  28.577  25.985  1.00  0.00     0.257 C 
ATOM     17  H   UNL A   1      34.564  27.184  27.320  1.00  0.00     0.170 HD
ATOM     18  O   UNL A   1      34.765  29.441  26.317  1.00  0.00    -0.269 OA
BRANCH  16  19
ATOM     19  C   UNL A   1      32.842  28.927  25.067  1.00  0.00     0.063 A 
ATOM     20  C   UNL A   1      32.931  28.434  23.756  1.00  0.00     0.017 A 
ATOM     21  C   UNL A   1      31.737  29.707  25.476  1.00  0.00     0.045 A 
ATOM     22  C   UNL A   1      31.906  28.687  22.846  1.00  0.00     0.016 A 
ATOM     23  C   UNL A   1      30.740  29.982  24.530  1.00  0.00     0.042 A 
ATOM     24  C   UNL A   1      30.815  29.459  23.238  1.00  0.00     0.020 A 
ATOM     25  Br  UNL A   1      29.430  29.814  22.001  1.00  0.00    -0.051 Br
BRANCH  21  26
ATOM     26  N   UNL A   1      31.660  30.348  26.710  1.00  0.00    -0.398 N 
ATOM     27  H   UNL A   1      31.058  31.117  26.829  1.00  0.00     0.156 HD
ATOM     28  H   UNL A   1      32.209  30.032  27.465  1.00  0.00     0.156 HD
ENDBRANCH  21  26
ENDBRANCH  16  19
ENDBRANCH  12  15
ENDBRANCH   6   8
ENDBRANCH   5   6
ENDBRANCH   4   5
ENDBRANCH   3   4
ENDBRANCH   2   3
ENDBRANCH   1   2
BRANCH   1  29
ATOM     29  C   UNL A   1      37.749  20.584  24.960  1.00  0.00     0.188 C 
BRANCH  29  30
ATOM     30  O   UNL A   1      38.675  21.409  25.650  1.00  0.00    -0.376 OA
BRANCH  30  31
ATOM     31  C   UNL A   1      39.845  20.767  26.133  1.00  0.00     0.202 C 
BRANCH  31  32
ATOM     32  C   UNL A   1      41.048  21.714  26.347  1.00  0.00     0.261 C 
BRANCH  32  33
ATOM     33  O   UNL A   1      40.644  23.094  26.550  1.00  0.00    -0.460 OA
BRANCH  33  34
ATOM     34  C   UNL A   1      41.600  24.068  26.347  1.00  0.00     0.338 C 
ATOM     35  O   UNL A   1      42.665  23.839  25.790  1.00  0.00    -0.246 OA
BRANCH  34  36
ATOM     36  C   UNL A   1      41.081  25.437  26.687  1.00  0.00     0.060 A 
ATOM     37  C   UNL A   1      41.151  26.627  25.944  1.00  0.00     0.016 A 
ATOM     38  C   UNL A   1      40.549  25.580  27.922  1.00  0.00     0.016 A 
ATOM     39  C   UNL A   1      40.745  27.932  26.502  1.00  0.00     0.010 A 
ATOM     40  C   UNL A   1      40.381  26.868  28.429  1.00  0.00     0.010 A 
ATOM     41  C   UNL A   1      40.326  28.100  27.825  1.00  0.00    -0.014 A 
BRANCH  41  42
ATOM     42  C   UNL A   1      40.114  29.351  28.757  1.00  0.00     0.031 A 
ATOM     43  C   UNL A   1      39.006  30.550  28.860  1.00  0.00     0.074 A 
ATOM     44  C   UNL A   1      41.026  29.369  29.755  1.00  0.00     0.049 A 
ATOM     45  N   UNL A   1      39.292  31.756  29.319  1.00  0.00    -0.248 NA
ATOM     46  C   UNL A   1      37.552  30.608  28.485  1.00  0.00     0.031 C 
ATOM     47  C   UNL A   1      41.108  30.242  30.916  1.00  0.00     0.029 A 
ATOM     48  N   UNL A   1      42.263  28.722  29.728  1.00  0.00    -0.354 N 
ATOM     49  C   UNL A   1      38.098  32.482  29.431  1.00  0.00     0.074 A 
ATOM     50  C   UNL A   1      37.183  31.873  28.564  1.00  0.00     0.031 C 
ATOM     51  C   UNL A   1      42.402  30.353  31.258  1.00  0.00     0.029 A 
ATOM     52  C   UNL A   1      43.181  29.625  30.270  1.00  0.00     0.049 A 
ATOM     53  H   UNL A   1      42.450  27.815  29.396  1.00  0.00     0.167 HD
ATOM     54  C   UNL A   1      37.833  33.418  30.385  1.00  0.00     0.034 A 
ATOM     55  C   UNL A   1      44.174  30.106  29.472  1.00  0.00     0.034 A 
ATOM     56  C   UNL A   1      39.081  33.890  30.923  1.00  0.00     0.049 A 
ATOM     57  C   UNL A   1      44.102  31.612  29.319  1.00  0.00     0.074 A 
ATOM     58  C   UNL A   1      39.781  33.675  32.089  1.00  0.00     0.029 A 
ATOM     59  N   UNL A   1      39.981  34.410  30.004  1.00  0.00    -0.354 N 
ATOM     60  N   UNL A   1      43.122  32.360  29.759  1.00  0.00    -0.248 NA
ATOM     61  C   UNL A   1      45.143  32.398  28.671  1.00  0.00     0.031 C 
ATOM     62  C   UNL A   1      41.163  33.892  31.785  1.00  0.00     0.029 A 
ATOM     63  C   UNL A   1      41.275  34.312  30.466  1.00  0.00     0.049 A 
ATOM     64  H   UNL A   1      39.728  34.801  29.137  1.00  0.00     0.167 HD
ATOM     65  C   UNL A   1      43.323  33.664  29.385  1.00  0.00     0.074 A 
ATOM     66  C   UNL A   1      44.640  33.639  28.774  1.00  0.00     0.031 C 
ATOM     67  C   UNL A   1      42.374  34.640  29.560  1.00  0.00     0.034 A 
BRANCH  54  68
ATOM     68  C   UNL A   1      36.419  33.833  30.841  1.00  0.00     0.023 A 
ATOM     69  C   UNL A   1      35.498  34.364  29.914  1.00  0.00     0.031 A 
ATOM     70  C   UNL A   1      35.946  33.835  32.186  1.00  0.00     0.131 A 
ATOM     71  C   UNL A   1      34.202  34.786  30.318  1.00  0.00     0.055 A 
ATOM     72  C   UNL A   1      34.631  34.145  32.563  1.00  0.00     0.041 A 
ATOM     73  F   UNL A   1      36.751  33.637  33.240  1.00  0.00    -0.206 F 
ATOM     74  C   UNL A   1      33.746  34.625  31.624  1.00  0.00     0.022 A 
BRANCH  71  75
ATOM     75  S   UNL A   1      33.129  35.674  29.149  1.00  0.00     0.124 S 
ATOM     76  O   UNL A   1      32.528  34.577  28.397  1.00  0.00    -0.237 OA
ATOM     77  O   UNL A   1      32.244  36.416  30.038  1.00  0.00    -0.237 OA
ATOM     78  O   UNL A   1      34.064  36.499  28.382  1.00  0.00    -0.744 OA
ENDBRANCH  71  75
ENDBRANCH  54  68
BRANCH  55  79
ATOM     79  C   UNL A   1      44.702  29.085  28.494  1.00  0.00     0.023 A 
ATOM     80  C   UNL A   1      45.431  27.998  29.046  1.00  0.00     0.031 A 
ATOM     81  C   UNL A   1      44.273  28.942  27.169  1.00  0.00     0.131 A 
ATOM     82  C   UNL A   1      45.550  26.775  28.368  1.00  0.00     0.055 A 
ATOM     83  C   UNL A   1      44.485  27.747  26.449  1.00  0.00     0.041 A 
ATOM     84  F   UNL A   1      43.517  29.884  26.586  1.00  0.00    -0.206 F 
ATOM     85  C   UNL A   1      45.089  26.645  27.061  1.00  0.00     0.022 A 
BRANCH  82  86
ATOM     86  S   UNL A   1      46.037  25.284  29.296  1.00  0.00     0.124 S 
ATOM     87  O   UNL A   1      46.603  24.443  28.247  1.00  0.00    -0.237 OA
ATOM     88  O   UNL A   1      46.987  25.792  30.284  1.00  0.00    -0.237 OA
ATOM     89  O   UNL A   1      44.776  24.823  29.870  1.00  0.00    -0.744 OA
ENDBRANCH  82  86
ENDBRANCH  55  79
BRANCH  67  90
ATOM     90  C   UNL A   1      42.393  35.993  28.856  1.00  0.00     0.023 A 
ATOM     91  C   UNL A   1      43.028  37.120  29.395  1.00  0.00     0.031 A 
ATOM     92  C   UNL A   1      41.833  36.189  27.568  1.00  0.00     0.131 A 
ATOM     93  C   UNL A   1      42.979  38.372  28.763  1.00  0.00     0.055 A 
ATOM     94  C   UNL A   1      41.903  37.405  26.875  1.00  0.00     0.041 A 
ATOM     95  F   UNL A   1      41.196  35.207  26.913  1.00  0.00    -0.206 F 
ATOM     96  C   UNL A   1      42.450  38.520  27.488  1.00  0.00     0.022 A 
BRANCH  93  97
ATOM     97  S   UNL A   1      43.482  39.816  29.732  1.00  0.00     0.124 S 
ATOM     98  O   UNL A   1      43.551  39.262  31.082  1.00  0.00    -0.237 OA
ATOM     99  O   UNL A   1      44.762  40.169  29.128  1.00  0.00    -0.237 OA
ATOM    100  O   UNL A   1      42.399  40.772  29.512  1.00  0.00    -0.744 OA
ENDBRANCH  93  97
ENDBRANCH  67  90
ENDBRANCH  41  42
ENDBRANCH  34  36
ENDBRANCH  33  34
ENDBRANCH  32  33
ENDBRANCH  31  32
ENDBRANCH  30  31
ENDBRANCH  29  30
ENDBRANCH   1  29
TORSDOF 23
ENDMDL
