MODEL 1
REMARK VINA RESULT:     -11.5      0.000      0.000
REMARK SMILES Cc1ccc(S(=O)(=O)N(c2ccccc2)[C@H](C)C(=O)OCCOCCOCCOC(=O)c2ccc(-c3c4nc(c(-c5cc(S(=O)(=O)[O-])ccc5F)c5ccc([nH]5)c(-c5cc(S(=O)(=O)[O-])ccc5F)c5nc(c(-c6cc(S(=O)(=O)[O-])ccc6F)c6ccc3[nH]6)C=C5)C=C4)cc2)cc1
REMARK SMILES IDX 24 1 23 2 22 3 21 4 20 5 18 6 19 7 16 8 17 9 9 10 6 11 7 12
REMARK SMILES IDX 8 13 5 14 1 15 2 16 3 17 96 18 4 19 95 20 10 21 11 22 15 23
REMARK SMILES IDX 12 24 14 25 13 26 25 27 26 28 27 29 28 30 29 31 30 32 31 33
REMARK SMILES IDX 32 34 33 35 94 36 34 37 93 38 35 39 36 40 37 41 87 42 38 43
REMARK SMILES IDX 92 44 86 45 88 46 39 47 91 48 85 49 84 50 40 52 72 53 52 54
REMARK SMILES IDX 71 55 53 56 56 57 70 58 89 59 54 60 55 61 69 63 90 64 57 65
REMARK SMILES IDX 41 66 42 67 50 68 43 69 49 70 51 71 48 72 44 73 45 74 46 75
REMARK SMILES IDX 47 76 73 77 74 78 82 79 75 80 81 81 83 82 80 83 76 84 77 85
REMARK SMILES IDX 78 86 79 87 58 88 59 89 67 90 60 91 66 92 68 93 65 94 61 95
REMARK SMILES IDX 62 96 63 97 64 98
REMARK H PARENT 88 51 56 62
REMARK Flexibility Score: inf
ROOT
ATOM      1  C   UNL A   1      30.707  24.505  26.034  1.00  0.00     0.188 C 
ENDROOT
BRANCH   1   2
ATOM      2  O   UNL A   1      29.679  24.299  26.975  1.00  0.00    -0.376 OA
BRANCH   2   3
ATOM      3  C   UNL A   1      29.539  22.913  27.190  1.00  0.00     0.202 C 
BRANCH   3   4
ATOM      4  C   UNL A   1      30.874  22.106  27.021  1.00  0.00     0.261 C 
BRANCH   4   5
ATOM      5  O   UNL A   1      32.541  22.363  27.391  1.00  0.00    -0.462 OA
BRANCH   5   6
ATOM      6  C   UNL A   1      33.831  21.918  27.022  1.00  0.00     0.329 C 
ATOM      7  O   UNL A   1      34.705  21.935  27.882  1.00  0.00    -0.250 OA
BRANCH   6   8
ATOM      8  C   UNL A   1      34.434  21.429  25.627  1.00  0.00     0.206 C 
ATOM      9  C   UNL A   1      33.684  20.473  24.710  1.00  0.00     0.045 C 
BRANCH   8  10
ATOM     10  N   UNL A   1      35.295  22.480  24.820  1.00  0.00    -0.252 N 
BRANCH  10  11
ATOM     11  S   UNL A   1      36.981  22.236  24.459  1.00  0.00     0.265 S 
ATOM     12  O   UNL A   1      37.299  23.176  23.394  1.00  0.00    -0.201 OA
ATOM     13  O   UNL A   1      37.179  20.821  24.217  1.00  0.00    -0.201 OA
BRANCH  11  14
ATOM     14  C   UNL A   1      38.184  22.700  25.770  1.00  0.00     0.088 A 
ATOM     15  C   UNL A   1      41.510  23.947  28.332  1.00  0.00     0.044 C 
ATOM     16  C   UNL A   1      40.367  23.477  27.478  1.00  0.00    -0.051 A 
ATOM     17  C   UNL A   1      40.193  22.144  27.088  1.00  0.00     0.005 A 
ATOM     18  C   UNL A   1      39.388  24.379  27.089  1.00  0.00     0.005 A 
ATOM     19  C   UNL A   1      39.128  21.762  26.226  1.00  0.00     0.022 A 
ATOM     20  C   UNL A   1      38.308  23.972  26.284  1.00  0.00     0.022 A 
ENDBRANCH  11  14
ENDBRANCH  10  11
BRANCH  10  21
ATOM     21  C   UNL A   1      34.592  23.477  24.109  1.00  0.00     0.053 A 
ATOM     22  C   UNL A   1      34.687  25.085  24.714  1.00  0.00     0.027 A 
ATOM     23  C   UNL A   1      33.754  23.001  22.750  1.00  0.00     0.027 A 
ATOM     24  C   UNL A   1      33.805  26.458  24.063  1.00  0.00     0.002 A 
ATOM     25  C   UNL A   1      32.868  24.234  21.905  1.00  0.00     0.002 A 
ATOM     26  C   UNL A   1      32.793  26.168  22.665  1.00  0.00     0.000 A 
ENDBRANCH  10  21
ENDBRANCH   8  10
ENDBRANCH   6   8
ENDBRANCH   5   6
ENDBRANCH   4   5
ENDBRANCH   3   4
ENDBRANCH   2   3
ENDBRANCH   1   2
BRANCH   1  27
ATOM     27  C   UNL A   1      30.304  25.454  24.936  1.00  0.00     0.188 C 
BRANCH  27  28
ATOM     28  O   UNL A   1      30.262  26.796  25.356  1.00  0.00    -0.376 OA
BRANCH  28  29
ATOM     29  C   UNL A   1      31.385  27.562  25.676  1.00  0.00     0.202 C 
BRANCH  29  30
ATOM     30  C   UNL A   1      31.362  27.530  27.179  1.00  0.00     0.261 C 
BRANCH  30  31
ATOM     31  O   UNL A   1      32.560  28.231  27.689  1.00  0.00    -0.460 OA
BRANCH  31  32
ATOM     32  C   UNL A   1      32.702  29.578  27.422  1.00  0.00     0.338 C 
ATOM     33  O   UNL A   1      31.758  30.343  27.273  1.00  0.00    -0.246 OA
BRANCH  32  34
ATOM     34  C   UNL A   1      34.160  29.985  27.201  1.00  0.00     0.060 A 
ATOM     35  C   UNL A   1      35.195  29.066  27.375  1.00  0.00     0.016 A 
ATOM     36  C   UNL A   1      34.538  31.329  27.134  1.00  0.00     0.016 A 
ATOM     37  C   UNL A   1      36.505  29.523  27.688  1.00  0.00     0.010 A 
ATOM     38  C   UNL A   1      35.799  31.753  27.639  1.00  0.00     0.010 A 
ATOM     39  C   UNL A   1      36.750  30.836  28.109  1.00  0.00    -0.014 A 
BRANCH  39  40
ATOM     40  C   UNL A   1      37.986  31.280  29.021  1.00  0.00     0.031 A 
ATOM     41  C   UNL A   1      38.859  29.929  28.955  1.00  0.00     0.074 A 
ATOM     42  C   UNL A   1      38.304  32.496  29.813  1.00  0.00     0.049 A 
ATOM     43  N   UNL A   1      40.019  29.060  30.053  1.00  0.00    -0.248 NA
ATOM     44  C   UNL A   1      39.475  29.438  27.080  1.00  0.00     0.031 C 
ATOM     45  C   UNL A   1      39.497  33.418  29.884  1.00  0.00     0.029 A 
ATOM     46  N   UNL A   1      37.563  33.240  30.782  1.00  0.00    -0.354 N 
ATOM     47  C   UNL A   1      41.380  28.273  29.103  1.00  0.00     0.074 A 
ATOM     48  C   UNL A   1      40.851  28.519  27.240  1.00  0.00     0.031 C 
ATOM     49  C   UNL A   1      39.454  34.254  30.960  1.00  0.00     0.029 A 
ATOM     50  C   UNL A   1      38.186  34.126  31.635  1.00  0.00     0.049 A 
ATOM     51  H   UNL A   1      36.588  33.119  30.841  1.00  0.00     0.167 HD
ATOM     52  C   UNL A   1      42.673  28.651  29.530  1.00  0.00     0.034 A 
ATOM     53  C   UNL A   1      37.797  34.318  32.941  1.00  0.00     0.034 A 
ATOM     54  C   UNL A   1      42.800  29.763  30.625  1.00  0.00     0.049 A 
ATOM     55  C   UNL A   1      38.859  33.511  33.748  1.00  0.00     0.074 A 
ATOM     56  C   UNL A   1      43.300  31.077  30.556  1.00  0.00     0.029 A 
ATOM     57  N   UNL A   1      42.177  29.762  31.903  1.00  0.00    -0.354 N 
ATOM     58  N   UNL A   1      39.905  32.881  33.233  1.00  0.00    -0.248 NA
ATOM     59  C   UNL A   1      38.817  33.392  35.195  1.00  0.00     0.031 C 
ATOM     60  C   UNL A   1      42.885  31.849  31.707  1.00  0.00     0.029 A 
ATOM     61  C   UNL A   1      42.152  31.037  32.555  1.00  0.00     0.049 A 
ATOM     62  H   UNL A   1      41.794  28.951  32.306  1.00  0.00     0.167 HD
ATOM     63  C   UNL A   1      40.592  32.171  34.203  1.00  0.00     0.074 A 
ATOM     64  C   UNL A   1      39.906  32.638  35.423  1.00  0.00     0.031 C 
ATOM     65  C   UNL A   1      41.618  31.249  33.951  1.00  0.00     0.034 A 
BRANCH  52  66
ATOM     66  C   UNL A   1      43.767  28.397  28.510  1.00  0.00     0.023 A 
ATOM     67  C   UNL A   1      44.538  29.462  28.031  1.00  0.00     0.031 A 
ATOM     68  C   UNL A   1      44.096  27.126  27.988  1.00  0.00     0.131 A 
ATOM     69  C   UNL A   1      45.505  29.280  27.034  1.00  0.00     0.055 A 
ATOM     70  C   UNL A   1      45.020  26.945  26.950  1.00  0.00     0.041 A 
ATOM     71  F   UNL A   1      43.533  26.006  28.475  1.00  0.00    -0.206 F 
ATOM     72  C   UNL A   1      45.734  28.031  26.465  1.00  0.00     0.022 A 
BRANCH  69  73
ATOM     73  S   UNL A   1      46.521  30.705  26.576  1.00  0.00     0.124 S 
ATOM     74  O   UNL A   1      47.743  30.063  26.102  1.00  0.00    -0.237 OA
ATOM     75  O   UNL A   1      45.696  31.352  25.561  1.00  0.00    -0.237 OA
ATOM     76  O   UNL A   1      46.646  31.442  27.831  1.00  0.00    -0.744 OA
ENDBRANCH  69  73
ENDBRANCH  52  66
BRANCH  53  77
ATOM     77  C   UNL A   1      36.241  34.480  33.293  1.00  0.00     0.023 A 
ATOM     78  C   UNL A   1      35.520  35.665  32.924  1.00  0.00     0.031 A 
ATOM     79  C   UNL A   1      35.393  33.448  33.763  1.00  0.00     0.131 A 
ATOM     80  C   UNL A   1      34.085  35.709  32.855  1.00  0.00     0.055 A 
ATOM     81  C   UNL A   1      33.989  33.435  33.532  1.00  0.00     0.041 A 
ATOM     82  F   UNL A   1      35.895  32.348  34.344  1.00  0.00    -0.206 F 
ATOM     83  C   UNL A   1      33.332  34.553  33.038  1.00  0.00     0.022 A 
BRANCH  80  84
ATOM     84  S   UNL A   1      33.156  37.232  32.369  1.00  0.00     0.124 S 
ATOM     85  O   UNL A   1      33.146  37.138  30.914  1.00  0.00    -0.237 OA
ATOM     86  O   UNL A   1      31.868  37.060  33.027  1.00  0.00    -0.237 OA
ATOM     87  O   UNL A   1      33.985  38.324  32.884  1.00  0.00    -0.744 OA
ENDBRANCH  80  84
ENDBRANCH  53  77
BRANCH  65  88
ATOM     88  C   UNL A   1      42.361  30.472  35.055  1.00  0.00     0.023 A 
ATOM     89  C   UNL A   1      42.169  29.117  35.337  1.00  0.00     0.031 A 
ATOM     90  C   UNL A   1      43.295  31.102  35.919  1.00  0.00     0.131 A 
ATOM     91  C   UNL A   1      42.814  28.460  36.399  1.00  0.00     0.055 A 
ATOM     92  C   UNL A   1      44.003  30.437  36.924  1.00  0.00     0.041 A 
ATOM     93  F   UNL A   1      43.568  32.412  35.866  1.00  0.00    -0.206 F 
ATOM     94  C   UNL A   1      43.757  29.105  37.182  1.00  0.00     0.022 A 
BRANCH  91  95
ATOM     95  S   UNL A   1      42.316  26.756  36.753  1.00  0.00     0.124 S 
ATOM     96  O   UNL A   1      42.866  26.550  38.090  1.00  0.00    -0.237 OA
ATOM     97  O   UNL A   1      40.862  26.835  36.674  1.00  0.00    -0.237 OA
ATOM     98  O   UNL A   1      42.958  25.984  35.691  1.00  0.00    -0.744 OA
ENDBRANCH  91  95
ENDBRANCH  65  88
ENDBRANCH  39  40
ENDBRANCH  32  34
ENDBRANCH  31  32
ENDBRANCH  30  31
ENDBRANCH  29  30
ENDBRANCH  28  29
ENDBRANCH  27  28
ENDBRANCH   1  27
TORSDOF 24
ENDMDL
MODEL 2
REMARK VINA RESULT:     -11.2      1.945      2.625
REMARK SMILES Cc1ccc(S(=O)(=O)N(c2ccccc2)[C@H](C)C(=O)OCCOCCOCCOC(=O)c2ccc(-c3c4nc(c(-c5cc(S(=O)(=O)[O-])ccc5F)c5ccc([nH]5)c(-c5cc(S(=O)(=O)[O-])ccc5F)c5nc(c(-c6cc(S(=O)(=O)[O-])ccc6F)c6ccc3[nH]6)C=C5)C=C4)cc2)cc1
REMARK SMILES IDX 24 1 23 2 22 3 21 4 20 5 18 6 19 7 16 8 17 9 9 10 6 11 7 12
REMARK SMILES IDX 8 13 5 14 1 15 2 16 3 17 96 18 4 19 95 20 10 21 11 22 15 23
REMARK SMILES IDX 12 24 14 25 13 26 25 27 26 28 27 29 28 30 29 31 30 32 31 33
REMARK SMILES IDX 32 34 33 35 94 36 34 37 93 38 35 39 36 40 37 41 87 42 38 43
REMARK SMILES IDX 92 44 86 45 88 46 39 47 91 48 85 49 84 50 40 52 72 53 52 54
REMARK SMILES IDX 71 55 53 56 56 57 70 58 89 59 54 60 55 61 69 63 90 64 57 65
REMARK SMILES IDX 41 66 42 67 50 68 43 69 49 70 51 71 48 72 44 73 45 74 46 75
REMARK SMILES IDX 47 76 73 77 74 78 82 79 75 80 81 81 83 82 80 83 76 84 77 85
REMARK SMILES IDX 78 86 79 87 58 88 59 89 67 90 60 91 66 92 68 93 65 94 61 95
REMARK SMILES IDX 62 96 63 97 64 98
REMARK H PARENT 88 51 56 62
REMARK Flexibility Score: inf
ROOT
ATOM      1  C   UNL A   1      30.845  26.392  25.234  1.00  0.00     0.188 C 
ENDROOT
BRANCH   1   2
ATOM      2  O   UNL A   1      29.630  26.054  25.860  1.00  0.00    -0.376 OA
BRANCH   2   3
ATOM      3  C   UNL A   1      29.648  24.677  26.159  1.00  0.00     0.202 C 
BRANCH   3   4
ATOM      4  C   UNL A   1      31.083  24.042  26.145  1.00  0.00     0.261 C 
BRANCH   4   5
ATOM      5  O   UNL A   1      31.969  22.942  27.139  1.00  0.00    -0.462 OA
BRANCH   5   6
ATOM      6  C   UNL A   1      33.241  22.335  27.244  1.00  0.00     0.329 C 
ATOM      7  O   UNL A   1      33.877  22.525  28.275  1.00  0.00    -0.250 OA
BRANCH   6   8
ATOM      8  C   UNL A   1      34.093  21.456  26.219  1.00  0.00     0.206 C 
ATOM      9  C   UNL A   1      33.536  20.194  25.575  1.00  0.00     0.045 C 
BRANCH   8  10
ATOM     10  N   UNL A   1      35.067  22.240  25.254  1.00  0.00    -0.252 N 
BRANCH  10  11
ATOM     11  S   UNL A   1      36.614  21.608  24.761  1.00  0.00     0.265 S 
ATOM     12  O   UNL A   1      36.825  22.086  23.402  1.00  0.00    -0.201 OA
ATOM     13  O   UNL A   1      36.601  20.178  24.998  1.00  0.00    -0.201 OA
BRANCH  11  14
ATOM     14  C   UNL A   1      38.092  22.255  25.643  1.00  0.00     0.088 A 
ATOM     15  C   UNL A   1      41.259  23.590  28.358  1.00  0.00     0.044 C 
ATOM     16  C   UNL A   1      40.171  23.177  27.406  1.00  0.00    -0.051 A 
ATOM     17  C   UNL A   1      39.132  24.026  27.008  1.00  0.00     0.005 A 
ATOM     18  C   UNL A   1      40.206  21.914  26.835  1.00  0.00     0.005 A 
ATOM     19  C   UNL A   1      38.092  23.565  26.155  1.00  0.00     0.022 A 
ATOM     20  C   UNL A   1      39.200  21.494  25.946  1.00  0.00     0.022 A 
ENDBRANCH  11  14
ENDBRANCH  10  11
BRANCH  10  21
ATOM     21  C   UNL A   1      34.522  23.324  24.530  1.00  0.00     0.053 A 
ATOM     22  C   UNL A   1      33.622  22.945  23.113  1.00  0.00     0.027 A 
ATOM     23  C   UNL A   1      34.793  24.855  25.127  1.00  0.00     0.027 A 
ATOM     24  C   UNL A   1      32.955  24.130  22.001  1.00  0.00     0.002 A 
ATOM     25  C   UNL A   1      34.144  26.179  24.207  1.00  0.00     0.002 A 
ATOM     26  C   UNL A   1      33.189  25.818  22.395  1.00  0.00     0.000 A 
ENDBRANCH  10  21
ENDBRANCH   8  10
ENDBRANCH   6   8
ENDBRANCH   5   6
ENDBRANCH   4   5
ENDBRANCH   3   4
ENDBRANCH   2   3
ENDBRANCH   1   2
BRANCH   1  27
ATOM     27  C   UNL A   1      30.726  27.615  24.362  1.00  0.00     0.188 C 
BRANCH  27  28
ATOM     28  O   UNL A   1      31.011  28.809  25.046  1.00  0.00    -0.376 OA
BRANCH  28  29
ATOM     29  C   UNL A   1      32.291  29.227  25.413  1.00  0.00     0.202 C 
BRANCH  29  30
ATOM     30  C   UNL A   1      32.160  29.354  26.906  1.00  0.00     0.261 C 
BRANCH  30  31
ATOM     31  O   UNL A   1      33.506  29.551  27.488  1.00  0.00    -0.460 OA
BRANCH  31  32
ATOM     32  C   UNL A   1      33.945  30.839  27.713  1.00  0.00     0.338 C 
ATOM     33  O   UNL A   1      33.196  31.797  27.861  1.00  0.00    -0.246 OA
BRANCH  32  34
ATOM     34  C   UNL A   1      35.468  30.967  27.625  1.00  0.00     0.060 A 
ATOM     35  C   UNL A   1      36.277  29.836  27.515  1.00  0.00     0.016 A 
ATOM     36  C   UNL A   1      36.120  32.155  27.966  1.00  0.00     0.016 A 
ATOM     37  C   UNL A   1      37.629  29.885  27.952  1.00  0.00     0.010 A 
ATOM     38  C   UNL A   1      37.405  32.128  28.576  1.00  0.00     0.010 A 
ATOM     39  C   UNL A   1      38.113  30.929  28.749  1.00  0.00    -0.014 A 
BRANCH  39  40
ATOM     40  C   UNL A   1      39.351  30.807  29.752  1.00  0.00     0.031 A 
ATOM     41  C   UNL A   1      39.749  29.268  29.490  1.00  0.00     0.074 A 
ATOM     42  C   UNL A   1      39.979  31.722  30.739  1.00  0.00     0.049 A 
ATOM     43  N   UNL A   1      40.481  27.918  30.462  1.00  0.00    -0.248 NA
ATOM     44  C   UNL A   1      40.319  28.881  27.577  1.00  0.00     0.031 C 
ATOM     45  C   UNL A   1      41.394  32.182  30.991  1.00  0.00     0.029 A 
ATOM     46  N   UNL A   1      39.441  32.519  31.797  1.00  0.00    -0.354 N 
ATOM     47  C   UNL A   1      41.588  26.875  29.432  1.00  0.00     0.074 A 
ATOM     48  C   UNL A   1      41.312  27.548  27.622  1.00  0.00     0.031 C 
ATOM     49  C   UNL A   1      41.537  32.820  32.187  1.00  0.00     0.029 A 
ATOM     50  C   UNL A   1      40.246  33.017  32.798  1.00  0.00     0.049 A 
ATOM     51  H   UNL A   1      38.477  32.717  31.810  1.00  0.00     0.167 HD
ATOM     52  C   UNL A   1      42.897  26.742  29.949  1.00  0.00     0.034 A 
ATOM     53  C   UNL A   1      39.839  33.135  34.107  1.00  0.00     0.034 A 
ATOM     54  C   UNL A   1      43.288  27.580  31.213  1.00  0.00     0.049 A 
ATOM     55  C   UNL A   1      40.521  31.917  34.800  1.00  0.00     0.074 A 
ATOM     56  C   UNL A   1      44.185  28.652  31.372  1.00  0.00     0.029 A 
ATOM     57  N   UNL A   1      42.600  27.597  32.457  1.00  0.00    -0.354 N 
ATOM     58  N   UNL A   1      41.347  31.061  34.217  1.00  0.00    -0.248 NA
ATOM     59  C   UNL A   1      40.331  31.609  36.208  1.00  0.00     0.031 C 
ATOM     60  C   UNL A   1      43.951  29.342  32.621  1.00  0.00     0.029 A 
ATOM     61  C   UNL A   1      42.933  28.701  33.307  1.00  0.00     0.049 A 
ATOM     62  H   UNL A   1      41.948  26.907  32.713  1.00  0.00     0.167 HD
ATOM     63  C   UNL A   1      41.694  30.031  35.076  1.00  0.00     0.074 A 
ATOM     64  C   UNL A   1      41.101  30.515  36.338  1.00  0.00     0.031 C 
ATOM     65  C   UNL A   1      42.388  28.871  34.704  1.00  0.00     0.034 A 
BRANCH  52  66
ATOM     66  C   UNL A   1      43.929  26.295  28.930  1.00  0.00     0.023 A 
ATOM     67  C   UNL A   1      44.342  27.172  27.921  1.00  0.00     0.031 A 
ATOM     68  C   UNL A   1      44.542  25.022  28.917  1.00  0.00     0.131 A 
ATOM     69  C   UNL A   1      45.233  26.770  26.918  1.00  0.00     0.055 A 
ATOM     70  C   UNL A   1      45.390  24.595  27.886  1.00  0.00     0.041 A 
ATOM     71  F   UNL A   1      44.345  24.143  29.916  1.00  0.00    -0.206 F 
ATOM     72  C   UNL A   1      45.741  25.476  26.873  1.00  0.00     0.022 A 
BRANCH  69  73
ATOM     73  S   UNL A   1      45.786  28.022  25.733  1.00  0.00     0.124 S 
ATOM     74  O   UNL A   1      45.915  27.239  24.508  1.00  0.00    -0.237 OA
ATOM     75  O   UNL A   1      44.689  28.983  25.773  1.00  0.00    -0.237 OA
ATOM     76  O   UNL A   1      47.042  28.495  26.309  1.00  0.00    -0.744 OA
ENDBRANCH  69  73
ENDBRANCH  52  66
BRANCH  53  77
ATOM     77  C   UNL A   1      38.394  33.745  34.441  1.00  0.00     0.023 A 
ATOM     78  C   UNL A   1      37.410  33.921  33.410  1.00  0.00     0.031 A 
ATOM     79  C   UNL A   1      37.866  33.945  35.740  1.00  0.00     0.131 A 
ATOM     80  C   UNL A   1      36.011  34.083  33.693  1.00  0.00     0.055 A 
ATOM     81  C   UNL A   1      36.471  33.932  36.019  1.00  0.00     0.041 A 
ATOM     82  F   UNL A   1      38.670  34.027  36.810  1.00  0.00    -0.206 F 
ATOM     83  C   UNL A   1      35.534  33.960  34.995  1.00  0.00     0.022 A 
BRANCH  80  84
ATOM     84  S   UNL A   1      34.743  34.298  32.365  1.00  0.00     0.124 S 
ATOM     85  O   UNL A   1      35.528  34.105  31.153  1.00  0.00    -0.237 OA
ATOM     86  O   UNL A   1      33.768  33.258  32.665  1.00  0.00    -0.237 OA
ATOM     87  O   UNL A   1      34.275  35.673  32.552  1.00  0.00    -0.744 OA
ENDBRANCH  80  84
ENDBRANCH  53  77
BRANCH  65  88
ATOM     88  C   UNL A   1      42.756  27.742  35.686  1.00  0.00     0.023 A 
ATOM     89  C   UNL A   1      43.800  27.807  36.613  1.00  0.00     0.031 A 
ATOM     90  C   UNL A   1      42.068  26.500  35.696  1.00  0.00     0.131 A 
ATOM     91  C   UNL A   1      44.151  26.729  37.444  1.00  0.00     0.055 A 
ATOM     92  C   UNL A   1      42.358  25.453  36.576  1.00  0.00     0.041 A 
ATOM     93  F   UNL A   1      41.085  26.204  34.837  1.00  0.00    -0.206 F 
ATOM     94  C   UNL A   1      43.417  25.556  37.454  1.00  0.00     0.022 A 
BRANCH  91  95
ATOM     95  S   UNL A   1      45.644  26.903  38.453  1.00  0.00     0.124 S 
ATOM     96  O   UNL A   1      46.444  27.830  37.655  1.00  0.00    -0.237 OA
ATOM     97  O   UNL A   1      45.114  27.442  39.701  1.00  0.00    -0.237 OA
ATOM     98  O   UNL A   1      46.165  25.540  38.532  1.00  0.00    -0.744 OA
ENDBRANCH  91  95
ENDBRANCH  65  88
ENDBRANCH  39  40
ENDBRANCH  32  34
ENDBRANCH  31  32
ENDBRANCH  30  31
ENDBRANCH  29  30
ENDBRANCH  28  29
ENDBRANCH  27  28
ENDBRANCH   1  27
TORSDOF 24
ENDMDL
MODEL 3
REMARK VINA RESULT:     -10.0      4.495     10.628
REMARK SMILES Cc1ccc(S(=O)(=O)N(c2ccccc2)[C@H](C)C(=O)OCCOCCOCCOC(=O)c2ccc(-c3c4nc(c(-c5cc(S(=O)(=O)[O-])ccc5F)c5ccc([nH]5)c(-c5cc(S(=O)(=O)[O-])ccc5F)c5nc(c(-c6cc(S(=O)(=O)[O-])ccc6F)c6ccc3[nH]6)C=C5)C=C4)cc2)cc1
REMARK SMILES IDX 24 1 23 2 22 3 21 4 20 5 18 6 19 7 16 8 17 9 9 10 6 11 7 12
REMARK SMILES IDX 8 13 5 14 1 15 2 16 3 17 96 18 4 19 95 20 10 21 11 22 15 23
REMARK SMILES IDX 12 24 14 25 13 26 25 27 26 28 27 29 28 30 29 31 30 32 31 33
REMARK SMILES IDX 32 34 33 35 94 36 34 37 93 38 35 39 36 40 37 41 87 42 38 43
REMARK SMILES IDX 92 44 86 45 88 46 39 47 91 48 85 49 84 50 40 52 72 53 52 54
REMARK SMILES IDX 71 55 53 56 56 57 70 58 89 59 54 60 55 61 69 63 90 64 57 65
REMARK SMILES IDX 41 66 42 67 50 68 43 69 49 70 51 71 48 72 44 73 45 74 46 75
REMARK SMILES IDX 47 76 73 77 74 78 82 79 75 80 81 81 83 82 80 83 76 84 77 85
REMARK SMILES IDX 78 86 79 87 58 88 59 89 67 90 60 91 66 92 68 93 65 94 61 95
REMARK SMILES IDX 62 96 63 97 64 98
REMARK H PARENT 88 51 56 62
REMARK Flexibility Score: inf
ROOT
ATOM      1  C   UNL A   1      40.203  22.146  26.137  1.00  0.00     0.188 C 
ENDROOT
BRANCH   1   2
ATOM      2  O   UNL A   1      38.797  22.127  26.223  1.00  0.00    -0.376 OA
BRANCH   2   3
ATOM      3  C   UNL A   1      38.310  21.104  25.384  1.00  0.00     0.202 C 
BRANCH   3   4
ATOM      4  C   UNL A   1      36.954  21.453  24.678  1.00  0.00     0.261 C 
BRANCH   4   5
ATOM      5  O   UNL A   1      35.959  22.856  24.513  1.00  0.00    -0.462 OA
BRANCH   5   6
ATOM      6  C   UNL A   1      35.147  23.724  25.277  1.00  0.00     0.329 C 
ATOM      7  O   UNL A   1      35.711  24.533  26.007  1.00  0.00    -0.250 OA
BRANCH   6   8
ATOM      8  C   UNL A   1      33.563  23.836  25.443  1.00  0.00     0.206 C 
ATOM      9  C   UNL A   1      32.849  23.408  26.718  1.00  0.00     0.045 C 
BRANCH   8  10
ATOM     10  N   UNL A   1      32.865  25.073  24.754  1.00  0.00    -0.252 N 
BRANCH  10  11
ATOM     11  S   UNL A   1      31.856  24.919  23.343  1.00  0.00     0.265 S 
ATOM     12  O   UNL A   1      31.035  23.737  23.567  1.00  0.00    -0.201 OA
ATOM     13  O   UNL A   1      32.719  24.952  22.179  1.00  0.00    -0.201 OA
BRANCH  11  14
ATOM     14  C   UNL A   1      30.596  26.231  23.077  1.00  0.00     0.088 A 
ATOM     15  C   UNL A   1      27.843  29.639  23.080  1.00  0.00     0.044 C 
ATOM     16  C   UNL A   1      28.749  28.439  23.075  1.00  0.00    -0.051 A 
ATOM     17  C   UNL A   1      28.413  27.216  23.666  1.00  0.00     0.005 A 
ATOM     18  C   UNL A   1      29.963  28.502  22.407  1.00  0.00     0.005 A 
ATOM     19  C   UNL A   1      29.333  26.132  23.688  1.00  0.00     0.022 A 
ATOM     20  C   UNL A   1      30.836  27.399  22.387  1.00  0.00     0.022 A 
ENDBRANCH  11  14
ENDBRANCH  10  11
BRANCH  10  21
ATOM     21  C   UNL A   1      32.805  26.275  25.495  1.00  0.00     0.053 A 
ATOM     22  C   UNL A   1      34.039  27.437  25.203  1.00  0.00     0.027 A 
ATOM     23  C   UNL A   1      31.540  26.450  26.565  1.00  0.00     0.027 A 
ATOM     24  C   UNL A   1      34.229  28.943  26.088  1.00  0.00     0.002 A 
ATOM     25  C   UNL A   1      31.499  27.919  27.492  1.00  0.00     0.002 A 
ATOM     26  C   UNL A   1      33.044  29.301  27.324  1.00  0.00     0.000 A 
ENDBRANCH  10  21
ENDBRANCH   8  10
ENDBRANCH   6   8
ENDBRANCH   5   6
ENDBRANCH   4   5
ENDBRANCH   3   4
ENDBRANCH   2   3
ENDBRANCH   1   2
BRANCH   1  27
ATOM     27  C   UNL A   1      40.823  20.833  26.538  1.00  0.00     0.188 C 
BRANCH  27  28
ATOM     28  O   UNL A   1      41.901  20.458  25.716  1.00  0.00    -0.376 OA
BRANCH  28  29
ATOM     29  C   UNL A   1      43.234  20.412  26.128  1.00  0.00     0.202 C 
BRANCH  29  30
ATOM     30  C   UNL A   1      43.789  21.671  25.522  1.00  0.00     0.261 C 
BRANCH  30  31
ATOM     31  O   UNL A   1      44.716  22.298  26.489  1.00  0.00    -0.460 OA
BRANCH  31  32
ATOM     32  C   UNL A   1      44.376  23.520  27.033  1.00  0.00     0.338 C 
ATOM     33  O   UNL A   1      43.941  24.458  26.376  1.00  0.00    -0.246 OA
BRANCH  32  34
ATOM     34  C   UNL A   1      44.725  23.622  28.519  1.00  0.00     0.060 A 
ATOM     35  C   UNL A   1      43.982  22.933  29.478  1.00  0.00     0.016 A 
ATOM     36  C   UNL A   1      45.568  24.627  29.002  1.00  0.00     0.016 A 
ATOM     37  C   UNL A   1      43.942  23.405  30.819  1.00  0.00     0.010 A 
ATOM     38  C   UNL A   1      45.358  25.192  30.291  1.00  0.00     0.010 A 
ATOM     39  C   UNL A   1      44.384  24.688  31.166  1.00  0.00    -0.014 A 
BRANCH  39  40
ATOM     40  C   UNL A   1      43.863  25.516  32.430  1.00  0.00     0.031 A 
ATOM     41  C   UNL A   1      43.795  26.985  31.771  1.00  0.00     0.074 A 
ATOM     42  C   UNL A   1      43.582  25.174  33.848  1.00  0.00     0.049 A 
ATOM     43  N   UNL A   1      43.995  28.696  32.353  1.00  0.00    -0.248 NA
ATOM     44  C   UNL A   1      42.491  27.129  30.218  1.00  0.00     0.031 C 
ATOM     45  C   UNL A   1      42.401  25.387  34.763  1.00  0.00     0.029 A 
ATOM     46  N   UNL A   1      44.341  24.488  34.846  1.00  0.00    -0.354 N 
ATOM     47  C   UNL A   1      42.835  29.835  31.498  1.00  0.00     0.074 A 
ATOM     48  C   UNL A   1      42.020  28.720  30.119  1.00  0.00     0.031 C 
ATOM     49  C   UNL A   1      42.697  25.145  36.072  1.00  0.00     0.029 A 
ATOM     50  C   UNL A   1      44.023  24.590  36.183  1.00  0.00     0.049 A 
ATOM     51  H   UNL A   1      45.104  23.930  34.572  1.00  0.00     0.167 HD
ATOM     52  C   UNL A   1      42.023  30.591  32.373  1.00  0.00     0.034 A 
ATOM     53  C   UNL A   1      44.968  24.616  37.183  1.00  0.00     0.034 A 
ATOM     54  C   UNL A   1      42.094  30.285  33.907  1.00  0.00     0.049 A 
ATOM     55  C   UNL A   1      45.042  26.126  37.561  1.00  0.00     0.074 A 
ATOM     56  C   UNL A   1      41.146  29.725  34.784  1.00  0.00     0.029 A 
ATOM     57  N   UNL A   1      43.267  30.272  34.710  1.00  0.00    -0.354 N 
ATOM     58  N   UNL A   1      44.285  27.087  37.049  1.00  0.00    -0.248 NA
ATOM     59  C   UNL A   1      45.959  26.639  38.564  1.00  0.00     0.031 C 
ATOM     60  C   UNL A   1      41.771  29.298  36.017  1.00  0.00     0.029 A 
ATOM     61  C   UNL A   1      43.118  29.615  35.973  1.00  0.00     0.049 A 
ATOM     62  H   UNL A   1      44.113  30.683  34.421  1.00  0.00     0.167 HD
ATOM     63  C   UNL A   1      44.673  28.333  37.514  1.00  0.00     0.074 A 
ATOM     64  C   UNL A   1      45.656  27.948  38.545  1.00  0.00     0.031 C 
ATOM     65  C   UNL A   1      44.207  29.558  37.017  1.00  0.00     0.034 A 
BRANCH  52  66
ATOM     66  C   UNL A   1      40.780  31.173  31.725  1.00  0.00     0.023 A 
ATOM     67  C   UNL A   1      39.559  30.496  31.821  1.00  0.00     0.031 A 
ATOM     68  C   UNL A   1      40.745  32.393  31.013  1.00  0.00     0.131 A 
ATOM     69  C   UNL A   1      38.408  30.962  31.173  1.00  0.00     0.055 A 
ATOM     70  C   UNL A   1      39.612  32.834  30.316  1.00  0.00     0.041 A 
ATOM     71  F   UNL A   1      41.812  33.209  30.976  1.00  0.00    -0.206 F 
ATOM     72  C   UNL A   1      38.430  32.114  30.393  1.00  0.00     0.022 A 
BRANCH  69  73
ATOM     73  S   UNL A   1      36.860  30.070  31.463  1.00  0.00     0.124 S 
ATOM     74  O   UNL A   1      35.919  31.165  31.679  1.00  0.00    -0.237 OA
ATOM     75  O   UNL A   1      36.704  29.321  30.221  1.00  0.00    -0.237 OA
ATOM     76  O   UNL A   1      37.158  29.259  32.641  1.00  0.00    -0.744 OA
ENDBRANCH  69  73
ENDBRANCH  52  66
BRANCH  53  77
ATOM     77  C   UNL A   1      46.184  23.571  37.159  1.00  0.00     0.023 A 
ATOM     78  C   UNL A   1      46.067  22.285  37.787  1.00  0.00     0.031 A 
ATOM     79  C   UNL A   1      47.351  23.686  36.364  1.00  0.00     0.131 A 
ATOM     80  C   UNL A   1      46.937  21.186  37.473  1.00  0.00     0.055 A 
ATOM     81  C   UNL A   1      48.102  22.560  35.925  1.00  0.00     0.041 A 
ATOM     82  F   UNL A   1      47.738  24.870  35.867  1.00  0.00    -0.206 F 
ATOM     83  C   UNL A   1      47.872  21.295  36.448  1.00  0.00     0.022 A 
BRANCH  80  84
ATOM     84  S   UNL A   1      46.779  19.528  38.275  1.00  0.00     0.124 S 
ATOM     85  O   UNL A   1      46.011  18.778  37.288  1.00  0.00    -0.237 OA
ATOM     86  O   UNL A   1      48.163  19.112  38.454  1.00  0.00    -0.237 OA
ATOM     87  O   UNL A   1      46.040  19.807  39.508  1.00  0.00    -0.744 OA
ENDBRANCH  80  84
ENDBRANCH  53  77
BRANCH  65  88
ATOM     88  C   UNL A   1      44.661  30.929  37.556  1.00  0.00     0.023 A 
ATOM     89  C   UNL A   1      45.984  31.378  37.564  1.00  0.00     0.031 A 
ATOM     90  C   UNL A   1      43.748  31.848  38.137  1.00  0.00     0.131 A 
ATOM     91  C   UNL A   1      46.369  32.606  38.129  1.00  0.00     0.055 A 
ATOM     92  C   UNL A   1      44.110  33.106  38.626  1.00  0.00     0.041 A 
ATOM     93  F   UNL A   1      42.446  31.581  38.295  1.00  0.00    -0.206 F 
ATOM     94  C   UNL A   1      45.435  33.492  38.637  1.00  0.00     0.022 A 
BRANCH  91  95
ATOM     95  S   UNL A   1      48.142  32.959  38.233  1.00  0.00     0.124 S 
ATOM     96  O   UNL A   1      48.502  32.336  39.504  1.00  0.00    -0.237 OA
ATOM     97  O   UNL A   1      48.659  32.301  37.038  1.00  0.00    -0.237 OA
ATOM     98  O   UNL A   1      48.202  34.419  38.217  1.00  0.00    -0.744 OA
ENDBRANCH  91  95
ENDBRANCH  65  88
ENDBRANCH  39  40
ENDBRANCH  32  34
ENDBRANCH  31  32
ENDBRANCH  30  31
ENDBRANCH  29  30
ENDBRANCH  28  29
ENDBRANCH  27  28
ENDBRANCH   1  27
TORSDOF 24
ENDMDL
