MODEL 1
REMARK VINA RESULT:     -11.0      0.000      0.000
REMARK SMILES COc1ccc2c(c1C)OC(=O)[C@@H](CC(=O)N[C@@H](CC1=c3ccccc3=NC1)C(=O)OCCOCCOCCOC(=O)c1ccc(-c3c4nc(c(-c5cc(S(=O)(=O)[O-])ccc5F)c5ccc([nH]5)c(-c5cc(S(=O)(=O)[O-])ccc5F)c5nc(c(-c6cc(S(=O)(=O)[O-])ccc6F)c6ccc3[nH]6)C=C5)C=C4)cc1)[C@H]2C
REMARK SMILES IDX 35 1 34 2 33 3 32 4 31 5 29 6 30 7 18 8 17 9 15 10 16 11
REMARK SMILES IDX 14 13 13 14 3 15 4 16 8 17 5 18 7 19 9 20 6 21 10 22 106 23
REMARK SMILES IDX 11 24 107 25 12 26 2 27 1 28 19 29 20 30 21 31 28 32 22 33
REMARK SMILES IDX 26 34 27 35 23 36 25 37 24 38 36 39 37 40 38 41 39 42 40 43
REMARK SMILES IDX 41 44 42 45 43 46 44 47 105 48 45 49 104 50 46 51 47 52
REMARK SMILES IDX 48 53 98 54 49 55 103 56 97 57 99 58 50 59 102 60 96 61
REMARK SMILES IDX 95 62 51 64 83 65 63 66 82 67 64 68 67 69 81 70 100 71 65 72
REMARK SMILES IDX 66 73 80 75 101 76 68 77 52 78 53 79 61 80 54 81 60 82 62 83
REMARK SMILES IDX 59 84 55 85 56 86 57 87 58 88 84 89 85 90 93 91 86 92 92 93
REMARK SMILES IDX 94 94 91 95 87 96 88 97 89 98 90 99 69 100 70 101 78 102
REMARK SMILES IDX 71 103 77 104 79 105 76 106 72 107 73 108 74 109 75 110
REMARK H PARENT 17 12 99 63 67 74
REMARK Flexibility Score: inf
ROOT
ATOM      1  C   UNL A   1      35.283  32.629  29.428  1.00  0.00     0.188 C 
ENDROOT
BRANCH   1   2
ATOM      2  O   UNL A   1      35.237  31.435  28.676  1.00  0.00    -0.376 OA
BRANCH   2   3
ATOM      3  C   UNL A   1      34.061  31.151  27.927  1.00  0.00     0.202 C 
BRANCH   3   4
ATOM      4  C   UNL A   1      34.062  30.000  26.911  1.00  0.00     0.261 C 
BRANCH   4   5
ATOM      5  O   UNL A   1      32.744  29.468  26.662  1.00  0.00    -0.462 OA
BRANCH   5   6
ATOM      6  C   UNL A   1      31.946  30.263  25.925  1.00  0.00     0.329 C 
ATOM      7  O   UNL A   1      31.471  31.326  26.326  1.00  0.00    -0.250 OA
BRANCH   6   8
ATOM      8  C   UNL A   1      31.748  29.822  24.457  1.00  0.00     0.196 C 
BRANCH   8   9
ATOM      9  N   UNL A   1      32.725  29.384  23.449  1.00  0.00    -0.342 N 
ATOM     10  C   UNL A   1      33.054  28.154  22.942  1.00  0.00     0.221 C 
ATOM     11  O   UNL A   1      34.123  28.111  22.317  1.00  0.00    -0.275 OA
ATOM     12  H   UNL A   1      33.247  30.122  23.061  1.00  0.00     0.164 HD
BRANCH  10  13
ATOM     13  C   UNL A   1      32.170  26.883  22.939  1.00  0.00     0.116 C 
BRANCH  13  14
ATOM     14  C   UNL A   1      32.722  25.510  23.358  1.00  0.00     0.116 C 
ATOM     15  C   UNL A   1      35.560  21.800  24.965  1.00  0.00     0.125 A 
ATOM     16  C   UNL A   1      36.274  22.979  25.204  1.00  0.00     0.047 A 
ATOM     17  C   UNL A   1      34.193  21.841  24.605  1.00  0.00     0.034 A 
ATOM     18  C   UNL A   1      35.630  24.196  25.154  1.00  0.00     0.012 A 
ATOM     19  C   UNL A   1      33.574  23.092  24.506  1.00  0.00     0.140 A 
ATOM     20  C   UNL A   1      33.411  20.594  24.317  1.00  0.00     0.052 C 
ATOM     21  C   UNL A   1      34.282  24.248  24.796  1.00  0.00    -0.001 A 
ATOM     22  O   UNL A   1      32.221  23.214  24.103  1.00  0.00    -0.426 OA
ATOM     23  C   UNL A   1      33.652  25.571  24.559  1.00  0.00     0.035 C 
ATOM     24  C   UNL A   1      31.674  24.450  23.695  1.00  0.00     0.315 C 
ATOM     25  C   UNL A   1      33.178  26.269  25.828  1.00  0.00     0.014 C 
ATOM     26  O   UNL A   1      30.469  24.604  23.552  1.00  0.00    -0.251 OA
BRANCH  15  27
ATOM     27  O   UNL A   1      36.180  20.577  25.029  1.00  0.00    -0.496 OA
ATOM     28  C   UNL A   1      37.605  20.656  24.960  1.00  0.00     0.278 C 
ENDBRANCH  15  27
ENDBRANCH  13  14
ENDBRANCH  10  13
ENDBRANCH   8   9
BRANCH   8  29
ATOM     29  C   UNL A   1      30.572  28.802  24.486  1.00  0.00     0.070 C 
BRANCH  29  30
ATOM     30  C   UNL A   1      29.477  29.274  23.562  1.00  0.00    -0.037 C 
ATOM     31  C   UNL A   1      29.057  30.529  23.410  1.00  0.00     0.001 A 
ATOM     32  C   UNL A   1      28.913  28.402  22.476  1.00  0.00     0.174 C 
ATOM     33  C   UNL A   1      29.309  31.758  24.090  1.00  0.00     0.010 A 
ATOM     34  C   UNL A   1      28.442  30.494  22.075  1.00  0.00     0.065 A 
ATOM     35  N   UNL A   1      28.279  29.336  21.513  1.00  0.00    -0.280 NA
ATOM     36  C   UNL A   1      29.075  32.912  23.448  1.00  0.00     0.001 A 
ATOM     37  C   UNL A   1      28.170  31.808  21.450  1.00  0.00     0.028 A 
ATOM     38  C   UNL A   1      28.519  32.927  22.107  1.00  0.00     0.002 A 
ENDBRANCH  29  30
ENDBRANCH   8  29
ENDBRANCH   6   8
ENDBRANCH   5   6
ENDBRANCH   4   5
ENDBRANCH   3   4
ENDBRANCH   2   3
ENDBRANCH   1   2
BRANCH   1  39
ATOM     39  C   UNL A   1      35.059  33.956  28.706  1.00  0.00     0.188 C 
BRANCH  39  40
ATOM     40  O   UNL A   1      33.782  34.533  28.637  1.00  0.00    -0.376 OA
BRANCH  40  41
ATOM     41  C   UNL A   1      33.566  35.869  29.071  1.00  0.00     0.202 C 
BRANCH  41  42
ATOM     42  C   UNL A   1      32.644  36.334  30.229  1.00  0.00     0.261 C 
BRANCH  42  43
ATOM     43  O   UNL A   1      33.177  36.463  31.552  1.00  0.00    -0.460 OA
BRANCH  43  44
ATOM     44  C   UNL A   1      32.982  35.402  32.382  1.00  0.00     0.338 C 
ATOM     45  O   UNL A   1      31.902  34.941  32.730  1.00  0.00    -0.246 OA
BRANCH  44  46
ATOM     46  C   UNL A   1      34.280  34.707  32.569  1.00  0.00     0.060 A 
ATOM     47  C   UNL A   1      34.280  33.427  33.151  1.00  0.00     0.016 A 
ATOM     48  C   UNL A   1      35.477  35.290  32.161  1.00  0.00     0.016 A 
ATOM     49  C   UNL A   1      35.473  32.722  33.317  1.00  0.00     0.010 A 
ATOM     50  C   UNL A   1      36.680  34.611  32.388  1.00  0.00     0.010 A 
ATOM     51  C   UNL A   1      36.685  33.335  32.984  1.00  0.00    -0.014 A 
BRANCH  51  52
ATOM     52  C   UNL A   1      37.956  32.763  33.493  1.00  0.00     0.031 A 
ATOM     53  C   UNL A   1      38.578  31.639  32.712  1.00  0.00     0.074 A 
ATOM     54  C   UNL A   1      38.552  33.215  34.610  1.00  0.00     0.049 A 
ATOM     55  N   UNL A   1      39.616  30.903  33.005  1.00  0.00    -0.248 NA
ATOM     56  C   UNL A   1      37.940  31.302  31.427  1.00  0.00     0.031 C 
ATOM     57  C   UNL A   1      38.096  34.346  35.414  1.00  0.00     0.029 A 
ATOM     58  N   UNL A   1      39.670  32.760  35.269  1.00  0.00    -0.354 N 
ATOM     59  C   UNL A   1      39.750  30.010  31.949  1.00  0.00     0.074 A 
ATOM     60  C   UNL A   1      38.681  30.284  31.016  1.00  0.00     0.031 C 
ATOM     61  C   UNL A   1      38.911  34.479  36.476  1.00  0.00     0.029 A 
ATOM     62  C   UNL A   1      39.920  33.416  36.451  1.00  0.00     0.049 A 
ATOM     63  H   UNL A   1      40.237  32.032  34.926  1.00  0.00     0.167 HD
ATOM     64  C   UNL A   1      40.681  29.047  31.773  1.00  0.00     0.034 A 
ATOM     65  C   UNL A   1      40.833  33.169  37.416  1.00  0.00     0.034 A 
ATOM     66  C   UNL A   1      41.742  28.774  32.704  1.00  0.00     0.049 A 
ATOM     67  C   UNL A   1      41.813  32.032  37.242  1.00  0.00     0.074 A 
ATOM     68  C   UNL A   1      42.737  27.818  32.602  1.00  0.00     0.029 A 
ATOM     69  N   UNL A   1      41.948  29.444  33.898  1.00  0.00    -0.354 N 
ATOM     70  N   UNL A   1      41.946  31.206  36.232  1.00  0.00    -0.248 NA
ATOM     71  C   UNL A   1      42.768  31.788  38.335  1.00  0.00     0.031 C 
ATOM     72  C   UNL A   1      43.505  27.867  33.764  1.00  0.00     0.029 A 
ATOM     73  C   UNL A   1      43.038  28.904  34.557  1.00  0.00     0.049 A 
ATOM     74  H   UNL A   1      41.401  30.194  34.229  1.00  0.00     0.167 HD
ATOM     75  C   UNL A   1      43.016  30.371  36.551  1.00  0.00     0.074 A 
ATOM     76  C   UNL A   1      43.501  30.796  37.846  1.00  0.00     0.031 C 
ATOM     77  C   UNL A   1      43.544  29.348  35.833  1.00  0.00     0.034 A 
BRANCH  64  78
ATOM     78  C   UNL A   1      40.604  28.191  30.538  1.00  0.00     0.023 A 
ATOM     79  C   UNL A   1      41.499  28.421  29.478  1.00  0.00     0.031 A 
ATOM     80  C   UNL A   1      39.577  27.250  30.359  1.00  0.00     0.131 A 
ATOM     81  C   UNL A   1      41.321  27.750  28.264  1.00  0.00     0.055 A 
ATOM     82  C   UNL A   1      39.429  26.553  29.160  1.00  0.00     0.041 A 
ATOM     83  F   UNL A   1      38.708  26.992  31.350  1.00  0.00    -0.206 F 
ATOM     84  C   UNL A   1      40.295  26.813  28.101  1.00  0.00     0.022 A 
BRANCH  81  85
ATOM     85  S   UNL A   1      42.382  28.106  26.839  1.00  0.00     0.124 S 
ATOM     86  O   UNL A   1      41.583  27.591  25.730  1.00  0.00    -0.237 OA
ATOM     87  O   UNL A   1      42.498  29.560  26.904  1.00  0.00    -0.237 OA
ATOM     88  O   UNL A   1      43.606  27.361  27.117  1.00  0.00    -0.744 OA
ENDBRANCH  81  85
ENDBRANCH  64  78
BRANCH  65  89
ATOM     89  C   UNL A   1      40.860  34.034  38.631  1.00  0.00     0.023 A 
ATOM     90  C   UNL A   1      40.012  33.774  39.722  1.00  0.00     0.031 A 
ATOM     91  C   UNL A   1      41.676  35.176  38.686  1.00  0.00     0.131 A 
ATOM     92  C   UNL A   1      39.954  34.678  40.790  1.00  0.00     0.055 A 
ATOM     93  C   UNL A   1      41.661  36.041  39.781  1.00  0.00     0.041 A 
ATOM     94  F   UNL A   1      42.502  35.465  37.667  1.00  0.00    -0.206 F 
ATOM     95  C   UNL A   1      40.785  35.801  40.835  1.00  0.00     0.022 A 
BRANCH  92  96
ATOM     96  S   UNL A   1      38.729  34.474  42.113  1.00  0.00     0.124 S 
ATOM     97  O   UNL A   1      39.352  35.187  43.224  1.00  0.00    -0.237 OA
ATOM     98  O   UNL A   1      37.557  35.119  41.527  1.00  0.00    -0.237 OA
ATOM     99  O   UNL A   1      38.631  33.027  42.271  1.00  0.00    -0.744 OA
ENDBRANCH  92  96
ENDBRANCH  65  89
BRANCH  77 100
ATOM    100  C   UNL A   1      44.736  28.599  36.378  1.00  0.00     0.023 A 
ATOM    101  C   UNL A   1      44.548  27.628  37.382  1.00  0.00     0.031 A 
ATOM    102  C   UNL A   1      46.049  28.974  36.054  1.00  0.00     0.131 A 
ATOM    103  C   UNL A   1      45.654  27.105  38.064  1.00  0.00     0.055 A 
ATOM    104  C   UNL A   1      47.152  28.415  36.705  1.00  0.00     0.041 A 
ATOM    105  F   UNL A   1      46.280  29.904  35.112  1.00  0.00    -0.206 F 
ATOM    106  C   UNL A   1      46.956  27.489  37.726  1.00  0.00     0.022 A 
BRANCH 103 107
ATOM    107  S   UNL A   1      45.442  25.972  39.465  1.00  0.00     0.124 S 
ATOM    108  O   UNL A   1      44.216  26.476  40.081  1.00  0.00    -0.237 OA
ATOM    109  O   UNL A   1      45.318  24.679  38.798  1.00  0.00    -0.237 OA
ATOM    110  O   UNL A   1      46.653  26.160  40.256  1.00  0.00    -0.744 OA
ENDBRANCH 103 107
ENDBRANCH  77 100
ENDBRANCH  51  52
ENDBRANCH  44  46
ENDBRANCH  43  44
ENDBRANCH  42  43
ENDBRANCH  41  42
ENDBRANCH  40  41
ENDBRANCH  39  40
ENDBRANCH   1  39
TORSDOF 26
ENDMDL
MODEL 2
REMARK VINA RESULT:     -10.3      8.729     14.752
REMARK SMILES COc1ccc2c(c1C)OC(=O)[C@@H](CC(=O)N[C@@H](CC1=c3ccccc3=NC1)C(=O)OCCOCCOCCOC(=O)c1ccc(-c3c4nc(c(-c5cc(S(=O)(=O)[O-])ccc5F)c5ccc([nH]5)c(-c5cc(S(=O)(=O)[O-])ccc5F)c5nc(c(-c6cc(S(=O)(=O)[O-])ccc6F)c6ccc3[nH]6)C=C5)C=C4)cc1)[C@H]2C
REMARK SMILES IDX 35 1 34 2 33 3 32 4 31 5 29 6 30 7 18 8 17 9 15 10 16 11
REMARK SMILES IDX 14 13 13 14 3 15 4 16 8 17 5 18 7 19 9 20 6 21 10 22 106 23
REMARK SMILES IDX 11 24 107 25 12 26 2 27 1 28 19 29 20 30 21 31 28 32 22 33
REMARK SMILES IDX 26 34 27 35 23 36 25 37 24 38 36 39 37 40 38 41 39 42 40 43
REMARK SMILES IDX 41 44 42 45 43 46 44 47 105 48 45 49 104 50 46 51 47 52
REMARK SMILES IDX 48 53 98 54 49 55 103 56 97 57 99 58 50 59 102 60 96 61
REMARK SMILES IDX 95 62 51 64 83 65 63 66 82 67 64 68 67 69 81 70 100 71 65 72
REMARK SMILES IDX 66 73 80 75 101 76 68 77 52 78 53 79 61 80 54 81 60 82 62 83
REMARK SMILES IDX 59 84 55 85 56 86 57 87 58 88 84 89 85 90 93 91 86 92 92 93
REMARK SMILES IDX 94 94 91 95 87 96 88 97 89 98 90 99 69 100 70 101 78 102
REMARK SMILES IDX 71 103 77 104 79 105 76 106 72 107 73 108 74 109 75 110
REMARK H PARENT 17 12 99 63 67 74
REMARK Flexibility Score: inf
ROOT
ATOM      1  C   UNL A   1      49.491  41.879  29.377  1.00  0.00     0.188 C 
ENDROOT
BRANCH   1   2
ATOM      2  O   UNL A   1      48.773  42.186  28.201  1.00  0.00    -0.376 OA
BRANCH   2   3
ATOM      3  C   UNL A   1      47.370  41.954  28.183  1.00  0.00     0.202 C 
BRANCH   3   4
ATOM      4  C   UNL A   1      46.602  42.012  26.854  1.00  0.00     0.261 C 
BRANCH   4   5
ATOM      5  O   UNL A   1      45.239  42.457  27.010  1.00  0.00    -0.462 OA
BRANCH   5   6
ATOM      6  C   UNL A   1      44.833  43.361  26.099  1.00  0.00     0.329 C 
ATOM      7  O   UNL A   1      45.303  44.495  25.996  1.00  0.00    -0.250 OA
BRANCH   6   8
ATOM      8  C   UNL A   1      43.800  42.847  25.071  1.00  0.00     0.196 C 
BRANCH   8   9
ATOM      9  N   UNL A   1      42.531  42.131  25.267  1.00  0.00    -0.342 N 
ATOM     10  C   UNL A   1      42.212  40.951  25.888  1.00  0.00     0.221 C 
ATOM     11  O   UNL A   1      41.090  40.500  25.616  1.00  0.00    -0.275 OA
ATOM     12  H   UNL A   1      41.755  42.591  24.874  1.00  0.00     0.164 HD
BRANCH  10  13
ATOM     13  C   UNL A   1      43.029  40.228  26.986  1.00  0.00     0.116 C 
BRANCH  13  14
ATOM     14  C   UNL A   1      43.795  38.925  26.702  1.00  0.00     0.116 C 
ATOM     15  C   UNL A   1      47.287  35.515  25.945  1.00  0.00     0.125 A 
ATOM     16  C   UNL A   1      47.949  36.676  26.360  1.00  0.00     0.047 A 
ATOM     17  C   UNL A   1      45.882  35.403  26.054  1.00  0.00     0.034 A 
ATOM     18  C   UNL A   1      47.238  37.702  26.944  1.00  0.00     0.012 A 
ATOM     19  C   UNL A   1      45.175  36.481  26.599  1.00  0.00     0.140 A 
ATOM     20  C   UNL A   1      45.146  34.181  25.592  1.00  0.00     0.052 C 
ATOM     21  C   UNL A   1      45.849  37.603  27.053  1.00  0.00    -0.001 A 
ATOM     22  O   UNL A   1      43.761  36.460  26.694  1.00  0.00    -0.426 OA
ATOM     23  C   UNL A   1      45.078  38.788  27.505  1.00  0.00     0.035 C 
ATOM     24  C   UNL A   1      43.014  37.633  26.938  1.00  0.00     0.315 C 
ATOM     25  C   UNL A   1      45.026  38.955  29.018  1.00  0.00     0.014 C 
ATOM     26  O   UNL A   1      41.827  37.590  27.231  1.00  0.00    -0.251 OA
BRANCH  15  27
ATOM     27  O   UNL A   1      47.982  34.474  25.379  1.00  0.00    -0.496 OA
ATOM     28  C   UNL A   1      49.400  34.627  25.458  1.00  0.00     0.278 C 
ENDBRANCH  15  27
ENDBRANCH  13  14
ENDBRANCH  10  13
ENDBRANCH   8   9
BRANCH   8  29
ATOM     29  C   UNL A   1      43.555  44.038  24.100  1.00  0.00     0.070 C 
BRANCH  29  30
ATOM     30  C   UNL A   1      44.074  43.681  22.729  1.00  0.00    -0.037 C 
ATOM     31  C   UNL A   1      43.340  43.357  21.666  1.00  0.00     0.001 A 
ATOM     32  C   UNL A   1      45.499  43.929  22.322  1.00  0.00     0.174 C 
ATOM     33  C   UNL A   1      41.957  43.078  21.452  1.00  0.00     0.010 A 
ATOM     34  C   UNL A   1      44.250  43.660  20.553  1.00  0.00     0.065 A 
ATOM     35  N   UNL A   1      45.486  43.935  20.837  1.00  0.00    -0.280 NA
ATOM     36  C   UNL A   1      41.457  43.200  20.214  1.00  0.00     0.001 A 
ATOM     37  C   UNL A   1      43.634  43.732  19.209  1.00  0.00     0.028 A 
ATOM     38  C   UNL A   1      42.307  43.551  19.091  1.00  0.00     0.002 A 
ENDBRANCH  29  30
ENDBRANCH   8  29
ENDBRANCH   6   8
ENDBRANCH   5   6
ENDBRANCH   4   5
ENDBRANCH   3   4
ENDBRANCH   2   3
ENDBRANCH   1   2
BRANCH   1  39
ATOM     39  C   UNL A   1      48.859  40.926  30.389  1.00  0.00     0.188 C 
BRANCH  39  40
ATOM     40  O   UNL A   1      48.920  39.536  30.207  1.00  0.00    -0.376 OA
BRANCH  40  41
ATOM     41  C   UNL A   1      48.276  38.657  31.119  1.00  0.00     0.202 C 
BRANCH  41  42
ATOM     42  C   UNL A   1      47.763  37.222  30.825  1.00  0.00     0.261 C 
BRANCH  42  43
ATOM     43  O   UNL A   1      47.210  36.435  31.887  1.00  0.00    -0.460 OA
BRANCH  43  44
ATOM     44  C   UNL A   1      45.863  36.248  31.853  1.00  0.00     0.338 C 
ATOM     45  O   UNL A   1      45.006  37.083  32.116  1.00  0.00    -0.246 OA
BRANCH  44  46
ATOM     46  C   UNL A   1      45.584  34.961  31.169  1.00  0.00     0.060 A 
ATOM     47  C   UNL A   1      44.973  34.990  29.902  1.00  0.00     0.016 A 
ATOM     48  C   UNL A   1      45.937  33.744  31.748  1.00  0.00     0.016 A 
ATOM     49  C   UNL A   1      44.722  33.807  29.208  1.00  0.00     0.010 A 
ATOM     50  C   UNL A   1      45.625  32.553  31.079  1.00  0.00     0.010 A 
ATOM     51  C   UNL A   1      44.998  32.579  29.818  1.00  0.00    -0.014 A 
BRANCH  51  52
ATOM     52  C   UNL A   1      44.404  31.338  29.264  1.00  0.00     0.031 A 
ATOM     53  C   UNL A   1      42.991  31.004  29.657  1.00  0.00     0.074 A 
ATOM     54  C   UNL A   1      45.082  30.523  28.437  1.00  0.00     0.049 A 
ATOM     55  N   UNL A   1      42.292  29.932  29.399  1.00  0.00    -0.248 NA
ATOM     56  C   UNL A   1      42.273  32.020  30.447  1.00  0.00     0.031 C 
ATOM     57  C   UNL A   1      46.425  30.770  27.920  1.00  0.00     0.029 A 
ATOM     58  N   UNL A   1      44.730  29.307  27.899  1.00  0.00    -0.354 N 
ATOM     59  C   UNL A   1      41.058  30.137  30.003  1.00  0.00     0.074 A 
ATOM     60  C   UNL A   1      41.106  31.427  30.651  1.00  0.00     0.031 C 
ATOM     61  C   UNL A   1      46.796  29.722  27.161  1.00  0.00     0.029 A 
ATOM     62  C   UNL A   1      45.735  28.712  27.175  1.00  0.00     0.049 A 
ATOM     63  H   UNL A   1      43.841  28.902  28.023  1.00  0.00     0.167 HD
ATOM     64  C   UNL A   1      39.980  29.322  30.015  1.00  0.00     0.034 A 
ATOM     65  C   UNL A   1      45.806  27.483  26.617  1.00  0.00     0.034 A 
ATOM     66  C   UNL A   1      39.935  28.038  29.371  1.00  0.00     0.049 A 
ATOM     67  C   UNL A   1      44.620  26.550  26.715  1.00  0.00     0.074 A 
ATOM     68  C   UNL A   1      38.879  27.146  29.327  1.00  0.00     0.029 A 
ATOM     69  N   UNL A   1      40.980  27.461  28.667  1.00  0.00    -0.354 N 
ATOM     70  N   UNL A   1      43.450  26.760  27.269  1.00  0.00    -0.248 NA
ATOM     71  C   UNL A   1      44.759  25.214  26.114  1.00  0.00     0.031 C 
ATOM     72  C   UNL A   1      39.305  26.002  28.653  1.00  0.00     0.029 A 
ATOM     73  C   UNL A   1      40.602  26.211  28.209  1.00  0.00     0.049 A 
ATOM     74  H   UNL A   1      41.859  27.878  28.515  1.00  0.00     0.167 HD
ATOM     75  C   UNL A   1      42.706  25.601  27.055  1.00  0.00     0.074 A 
ATOM     76  C   UNL A   1      43.554  24.694  26.312  1.00  0.00     0.031 C 
ATOM     77  C   UNL A   1      41.435  25.319  27.440  1.00  0.00     0.034 A 
BRANCH  64  78
ATOM     78  C   UNL A   1      38.751  29.770  30.758  1.00  0.00     0.023 A 
ATOM     79  C   UNL A   1      37.877  30.694  30.159  1.00  0.00     0.031 A 
ATOM     80  C   UNL A   1      38.517  29.387  32.089  1.00  0.00     0.131 A 
ATOM     81  C   UNL A   1      36.832  31.245  30.909  1.00  0.00     0.055 A 
ATOM     82  C   UNL A   1      37.448  29.908  32.819  1.00  0.00     0.041 A 
ATOM     83  F   UNL A   1      39.320  28.498  32.694  1.00  0.00    -0.206 F 
ATOM     84  C   UNL A   1      36.610  30.852  32.233  1.00  0.00     0.022 A 
BRANCH  81  85
ATOM     85  S   UNL A   1      35.759  32.525  30.209  1.00  0.00     0.124 S 
ATOM     86  O   UNL A   1      34.524  32.334  30.968  1.00  0.00    -0.237 OA
ATOM     87  O   UNL A   1      36.499  33.744  30.517  1.00  0.00    -0.237 OA
ATOM     88  O   UNL A   1      35.674  32.177  28.794  1.00  0.00    -0.744 OA
ENDBRANCH  81  85
ENDBRANCH  64  78
BRANCH  65  89
ATOM     89  C   UNL A   1      47.052  27.078  25.905  1.00  0.00     0.023 A 
ATOM     90  C   UNL A   1      48.094  26.427  26.588  1.00  0.00     0.031 A 
ATOM     91  C   UNL A   1      47.249  27.404  24.553  1.00  0.00     0.131 A 
ATOM     92  C   UNL A   1      49.309  26.183  25.934  1.00  0.00     0.055 A 
ATOM     93  C   UNL A   1      48.439  27.101  23.887  1.00  0.00     0.041 A 
ATOM     94  F   UNL A   1      46.282  28.025  23.860  1.00  0.00    -0.206 F 
ATOM     95  C   UNL A   1      49.482  26.500  24.584  1.00  0.00     0.022 A 
BRANCH  92  96
ATOM     96  S   UNL A   1      50.737  25.528  26.843  1.00  0.00     0.124 S 
ATOM     97  O   UNL A   1      50.148  24.420  27.588  1.00  0.00    -0.237 OA
ATOM     98  O   UNL A   1      51.630  25.151  25.751  1.00  0.00    -0.237 OA
ATOM     99  O   UNL A   1      51.181  26.661  27.648  1.00  0.00    -0.744 OA
ENDBRANCH  92  96
ENDBRANCH  65  89
BRANCH  77 100
ATOM    100  C   UNL A   1      40.824  23.991  27.062  1.00  0.00     0.023 A 
ATOM    101  C   UNL A   1      39.607  23.962  26.353  1.00  0.00     0.031 A 
ATOM    102  C   UNL A   1      41.332  22.781  27.561  1.00  0.00     0.131 A 
ATOM    103  C   UNL A   1      38.911  22.755  26.210  1.00  0.00     0.055 A 
ATOM    104  C   UNL A   1      40.657  21.572  27.376  1.00  0.00     0.041 A 
ATOM    105  F   UNL A   1      42.482  22.759  28.254  1.00  0.00    -0.206 F 
ATOM    106  C   UNL A   1      39.432  21.559  26.712  1.00  0.00     0.022 A 
BRANCH 103 107
ATOM    107  S   UNL A   1      37.268  22.707  25.440  1.00  0.00     0.124 S 
ATOM    108  O   UNL A   1      37.448  23.581  24.283  1.00  0.00    -0.237 OA
ATOM    109  O   UNL A   1      37.116  21.288  25.131  1.00  0.00    -0.237 OA
ATOM    110  O   UNL A   1      36.380  23.225  26.475  1.00  0.00    -0.744 OA
ENDBRANCH 103 107
ENDBRANCH  77 100
ENDBRANCH  51  52
ENDBRANCH  44  46
ENDBRANCH  43  44
ENDBRANCH  42  43
ENDBRANCH  41  42
ENDBRANCH  40  41
ENDBRANCH  39  40
ENDBRANCH   1  39
TORSDOF 26
ENDMDL
MODEL 3
REMARK VINA RESULT:      -9.9      8.124     11.589
REMARK SMILES COc1ccc2c(c1C)OC(=O)[C@@H](CC(=O)N[C@@H](CC1=c3ccccc3=NC1)C(=O)OCCOCCOCCOC(=O)c1ccc(-c3c4nc(c(-c5cc(S(=O)(=O)[O-])ccc5F)c5ccc([nH]5)c(-c5cc(S(=O)(=O)[O-])ccc5F)c5nc(c(-c6cc(S(=O)(=O)[O-])ccc6F)c6ccc3[nH]6)C=C5)C=C4)cc1)[C@H]2C
REMARK SMILES IDX 35 1 34 2 33 3 32 4 31 5 29 6 30 7 18 8 17 9 15 10 16 11
REMARK SMILES IDX 14 13 13 14 3 15 4 16 8 17 5 18 7 19 9 20 6 21 10 22 106 23
REMARK SMILES IDX 11 24 107 25 12 26 2 27 1 28 19 29 20 30 21 31 28 32 22 33
REMARK SMILES IDX 26 34 27 35 23 36 25 37 24 38 36 39 37 40 38 41 39 42 40 43
REMARK SMILES IDX 41 44 42 45 43 46 44 47 105 48 45 49 104 50 46 51 47 52
REMARK SMILES IDX 48 53 98 54 49 55 103 56 97 57 99 58 50 59 102 60 96 61
REMARK SMILES IDX 95 62 51 64 83 65 63 66 82 67 64 68 67 69 81 70 100 71 65 72
REMARK SMILES IDX 66 73 80 75 101 76 68 77 52 78 53 79 61 80 54 81 60 82 62 83
REMARK SMILES IDX 59 84 55 85 56 86 57 87 58 88 84 89 85 90 93 91 86 92 92 93
REMARK SMILES IDX 94 94 91 95 87 96 88 97 89 98 90 99 69 100 70 101 78 102
REMARK SMILES IDX 71 103 77 104 79 105 76 106 72 107 73 108 74 109 75 110
REMARK H PARENT 17 12 99 63 67 74
REMARK Flexibility Score: inf
ROOT
ATOM      1  C   UNL A   1      40.093  29.102  28.516  1.00  0.00     0.188 C 
ENDROOT
BRANCH   1   2
ATOM      2  O   UNL A   1      40.919  28.235  27.770  1.00  0.00    -0.376 OA
BRANCH   2   3
ATOM      3  C   UNL A   1      40.417  26.947  27.430  1.00  0.00     0.202 C 
BRANCH   3   4
ATOM      4  C   UNL A   1      40.855  25.718  28.239  1.00  0.00     0.261 C 
BRANCH   4   5
ATOM      5  O   UNL A   1      41.942  24.996  27.624  1.00  0.00    -0.462 OA
BRANCH   5   6
ATOM      6  C   UNL A   1      41.603  24.297  26.525  1.00  0.00     0.329 C 
ATOM      7  O   UNL A   1      42.095  24.482  25.411  1.00  0.00    -0.250 OA
BRANCH   6   8
ATOM      8  C   UNL A   1      40.623  23.126  26.762  1.00  0.00     0.196 C 
BRANCH   8   9
ATOM      9  N   UNL A   1      39.688  22.460  25.843  1.00  0.00    -0.342 N 
ATOM     10  C   UNL A   1      38.320  22.443  25.755  1.00  0.00     0.221 C 
ATOM     11  O   UNL A   1      37.850  21.546  25.040  1.00  0.00    -0.275 OA
ATOM     12  H   UNL A   1      40.133  21.919  25.152  1.00  0.00     0.164 HD
BRANCH  10  13
ATOM     13  C   UNL A   1      37.339  23.498  26.319  1.00  0.00     0.116 C 
BRANCH  13  14
ATOM     14  C   UNL A   1      35.890  23.611  25.814  1.00  0.00     0.116 C 
ATOM     15  C   UNL A   1      31.753  24.906  23.448  1.00  0.00     0.125 A 
ATOM     16  C   UNL A   1      32.797  25.607  22.835  1.00  0.00     0.047 A 
ATOM     17  C   UNL A   1      32.019  23.852  24.352  1.00  0.00     0.034 A 
ATOM     18  C   UNL A   1      34.103  25.230  23.059  1.00  0.00     0.012 A 
ATOM     19  C   UNL A   1      33.356  23.524  24.606  1.00  0.00     0.140 A 
ATOM     20  C   UNL A   1      30.920  23.102  25.043  1.00  0.00     0.052 C 
ATOM     21  C   UNL A   1      34.378  24.193  23.953  1.00  0.00    -0.001 A 
ATOM     22  O   UNL A   1      33.700  22.512  25.537  1.00  0.00    -0.426 OA
ATOM     23  C   UNL A   1      35.788  23.926  24.330  1.00  0.00     0.035 C 
ATOM     24  C   UNL A   1      35.012  22.380  26.041  1.00  0.00     0.315 C 
ATOM     25  C   UNL A   1      36.543  23.054  23.334  1.00  0.00     0.014 C 
ATOM     26  O   UNL A   1      35.363  21.392  26.671  1.00  0.00    -0.251 OA
BRANCH  15  27
ATOM     27  O   UNL A   1      30.443  25.254  23.222  1.00  0.00    -0.496 OA
ATOM     28  C   UNL A   1      30.094  26.532  23.755  1.00  0.00     0.278 C 
ENDBRANCH  15  27
ENDBRANCH  13  14
ENDBRANCH  10  13
ENDBRANCH   8   9
BRANCH   8  29
ATOM     29  C   UNL A   1      41.451  22.038  27.504  1.00  0.00     0.070 C 
BRANCH  29  30
ATOM     30  C   UNL A   1      41.839  20.953  26.530  1.00  0.00    -0.037 C 
ATOM     31  C   UNL A   1      42.985  20.871  25.855  1.00  0.00     0.001 A 
ATOM     32  C   UNL A   1      41.076  19.664  26.419  1.00  0.00     0.174 C 
ATOM     33  C   UNL A   1      44.098  21.742  25.662  1.00  0.00     0.010 A 
ATOM     34  C   UNL A   1      43.060  19.437  25.540  1.00  0.00     0.065 A 
ATOM     35  N   UNL A   1      42.013  18.708  25.777  1.00  0.00    -0.280 NA
ATOM     36  C   UNL A   1      45.273  21.217  25.285  1.00  0.00     0.001 A 
ATOM     37  C   UNL A   1      44.378  18.939  25.084  1.00  0.00     0.028 A 
ATOM     38  C   UNL A   1      45.410  19.797  25.015  1.00  0.00     0.002 A 
ENDBRANCH  29  30
ENDBRANCH   8  29
ENDBRANCH   6   8
ENDBRANCH   5   6
ENDBRANCH   4   5
ENDBRANCH   3   4
ENDBRANCH   2   3
ENDBRANCH   1   2
BRANCH   1  39
ATOM     39  C   UNL A   1      38.579  28.912  28.443  1.00  0.00     0.188 C 
BRANCH  39  40
ATOM     40  O   UNL A   1      37.704  29.937  28.832  1.00  0.00    -0.376 OA
BRANCH  40  41
ATOM     41  C   UNL A   1      37.562  30.288  30.202  1.00  0.00     0.202 C 
BRANCH  41  42
ATOM     42  C   UNL A   1      38.526  31.164  31.044  1.00  0.00     0.261 C 
BRANCH  42  43
ATOM     43  O   UNL A   1      37.998  32.218  31.859  1.00  0.00    -0.460 OA
BRANCH  43  44
ATOM     44  C   UNL A   1      37.705  33.381  31.217  1.00  0.00     0.338 C 
ATOM     45  O   UNL A   1      36.650  33.999  31.279  1.00  0.00    -0.246 OA
BRANCH  44  46
ATOM     46  C   UNL A   1      38.962  33.939  30.658  1.00  0.00     0.060 A 
ATOM     47  C   UNL A   1      38.985  34.323  29.305  1.00  0.00     0.016 A 
ATOM     48  C   UNL A   1      40.094  34.105  31.453  1.00  0.00     0.016 A 
ATOM     49  C   UNL A   1      40.134  34.882  28.746  1.00  0.00     0.010 A 
ATOM     50  C   UNL A   1      41.267  34.605  30.874  1.00  0.00     0.010 A 
ATOM     51  C   UNL A   1      41.299  34.976  29.515  1.00  0.00    -0.014 A 
BRANCH  51  52
ATOM     52  C   UNL A   1      42.600  35.211  28.844  1.00  0.00     0.031 A 
ATOM     53  C   UNL A   1      43.513  34.031  28.656  1.00  0.00     0.074 A 
ATOM     54  C   UNL A   1      42.975  36.427  28.409  1.00  0.00     0.049 A 
ATOM     55  N   UNL A   1      44.737  33.996  28.204  1.00  0.00    -0.248 NA
ATOM     56  C   UNL A   1      42.967  32.714  29.030  1.00  0.00     0.031 C 
ATOM     57  C   UNL A   1      42.155  37.633  28.460  1.00  0.00     0.029 A 
ATOM     58  N   UNL A   1      44.159  36.845  27.848  1.00  0.00    -0.354 N 
ATOM     59  C   UNL A   1      45.113  32.658  28.248  1.00  0.00     0.074 A 
ATOM     60  C   UNL A   1      43.995  31.916  28.784  1.00  0.00     0.031 C 
ATOM     61  C   UNL A   1      42.872  38.665  27.978  1.00  0.00     0.029 A 
ATOM     62  C   UNL A   1      44.216  38.200  27.625  1.00  0.00     0.049 A 
ATOM     63  H   UNL A   1      44.897  36.231  27.629  1.00  0.00     0.167 HD
ATOM     64  C   UNL A   1      46.285  32.100  27.876  1.00  0.00     0.034 A 
ATOM     65  C   UNL A   1      45.241  38.981  27.216  1.00  0.00     0.034 A 
ATOM     66  C   UNL A   1      47.397  32.842  27.345  1.00  0.00     0.049 A 
ATOM     67  C   UNL A   1      46.574  38.349  26.886  1.00  0.00     0.074 A 
ATOM     68  C   UNL A   1      48.625  32.354  26.935  1.00  0.00     0.029 A 
ATOM     69  N   UNL A   1      47.424  34.213  27.156  1.00  0.00    -0.354 N 
ATOM     70  N   UNL A   1      46.914  37.081  26.910  1.00  0.00    -0.248 NA
ATOM     71  C   UNL A   1      47.664  39.246  26.472  1.00  0.00     0.031 C 
ATOM     72  C   UNL A   1      49.417  33.437  26.557  1.00  0.00     0.029 A 
ATOM     73  C   UNL A   1      48.658  34.594  26.659  1.00  0.00     0.049 A 
ATOM     74  H   UNL A   1      46.676  34.826  27.344  1.00  0.00     0.167 HD
ATOM     75  C   UNL A   1      48.240  37.028  26.485  1.00  0.00     0.074 A 
ATOM     76  C   UNL A   1      48.641  38.389  26.200  1.00  0.00     0.031 C 
ATOM     77  C   UNL A   1      49.048  35.946  26.344  1.00  0.00     0.034 A 
BRANCH  64  78
ATOM     78  C   UNL A   1      46.455  30.614  28.035  1.00  0.00     0.023 A 
ATOM     79  C   UNL A   1      46.000  29.751  27.022  1.00  0.00     0.031 A 
ATOM     80  C   UNL A   1      46.941  30.053  29.228  1.00  0.00     0.131 A 
ATOM     81  C   UNL A   1      45.994  28.370  27.240  1.00  0.00     0.055 A 
ATOM     82  C   UNL A   1      46.972  28.673  29.424  1.00  0.00     0.041 A 
ATOM     83  F   UNL A   1      47.396  30.841  30.216  1.00  0.00    -0.206 F 
ATOM     84  C   UNL A   1      46.484  27.825  28.432  1.00  0.00     0.022 A 
BRANCH  81  85
ATOM     85  S   UNL A   1      45.307  27.236  26.006  1.00  0.00     0.124 S 
ATOM     86  O   UNL A   1      45.724  27.862  24.753  1.00  0.00    -0.237 OA
ATOM     87  O   UNL A   1      45.983  25.984  26.334  1.00  0.00    -0.237 OA
ATOM     88  O   UNL A   1      43.871  27.265  26.263  1.00  0.00    -0.744 OA
ENDBRANCH  81  85
ENDBRANCH  64  78
BRANCH  65  89
ATOM     89  C   UNL A   1      45.030  40.452  27.089  1.00  0.00     0.023 A 
ATOM     90  C   UNL A   1      44.543  41.011  25.895  1.00  0.00     0.031 A 
ATOM     91  C   UNL A   1      45.386  41.324  28.132  1.00  0.00     0.131 A 
ATOM     92  C   UNL A   1      44.486  42.403  25.750  1.00  0.00     0.055 A 
ATOM     93  C   UNL A   1      45.268  42.709  28.006  1.00  0.00     0.041 A 
ATOM     94  F   UNL A   1      45.856  40.835  29.290  1.00  0.00    -0.206 F 
ATOM     95  C   UNL A   1      44.830  43.255  26.804  1.00  0.00     0.022 A 
BRANCH  92  96
ATOM     96  S   UNL A   1      44.053  43.154  24.156  1.00  0.00     0.124 S 
ATOM     97  O   UNL A   1      42.635  42.828  24.036  1.00  0.00    -0.237 OA
ATOM     98  O   UNL A   1      44.359  44.560  24.403  1.00  0.00    -0.237 OA
ATOM     99  O   UNL A   1      44.934  42.481  23.208  1.00  0.00    -0.744 OA
ENDBRANCH  92  96
ENDBRANCH  65  89
BRANCH  77 100
ATOM    100  C   UNL A   1      50.456  36.135  25.832  1.00  0.00     0.023 A 
ATOM    101  C   UNL A   1      51.526  36.199  26.747  1.00  0.00     0.031 A 
ATOM    102  C   UNL A   1      50.712  36.443  24.486  1.00  0.00     0.131 A 
ATOM    103  C   UNL A   1      52.791  36.613  26.312  1.00  0.00     0.055 A 
ATOM    104  C   UNL A   1      51.987  36.811  24.050  1.00  0.00     0.041 A 
ATOM    105  F   UNL A   1      49.722  36.408  23.579  1.00  0.00    -0.206 F 
ATOM    106  C   UNL A   1      53.029  36.914  24.967  1.00  0.00     0.022 A 
BRANCH 103 107
ATOM    107  S   UNL A   1      54.152  36.857  27.488  1.00  0.00     0.124 S 
ATOM    108  O   UNL A   1      54.284  38.313  27.503  1.00  0.00    -0.237 OA
ATOM    109  O   UNL A   1      53.612  36.268  28.710  1.00  0.00    -0.237 OA
ATOM    110  O   UNL A   1      55.271  36.141  26.884  1.00  0.00    -0.744 OA
ENDBRANCH 103 107
ENDBRANCH  77 100
ENDBRANCH  51  52
ENDBRANCH  44  46
ENDBRANCH  43  44
ENDBRANCH  42  43
ENDBRANCH  41  42
ENDBRANCH  40  41
ENDBRANCH  39  40
ENDBRANCH   1  39
TORSDOF 26
ENDMDL
