MODEL 1
REMARK VINA RESULT:     -10.3      0.000      0.000
REMARK SMILES O=C(Cc1ccccc1Nc1c(F)cccc1C(F)(F)F)OCCOCCOCCOC(=O)c1ccc(-c2c3nc(c(-c4cc(S(=O)(=O)[O-])ccc4F)c4ccc([nH]4)c(-c4cc(S(=O)(=O)[O-])ccc4F)c4nc(c(-c5cc(S(=O)(=O)[O-])ccc5F)c5ccc2[nH]5)C=C4)C=C3)cc1
REMARK SMILES IDX 26 1 25 2 24 3 23 4 22 5 2 6 1 7 3 8 4 9 5 10 9 11 6 12 8 13
REMARK SMILES IDX 7 14 10 15 11 17 12 18 17 19 13 20 14 21 16 22 15 23 18 24
REMARK SMILES IDX 19 25 20 26 21 27 27 28 28 29 29 30 30 31 31 32 32 33 33 34
REMARK SMILES IDX 34 35 35 36 96 37 36 38 95 39 37 40 38 41 39 42 89 43 40 44
REMARK SMILES IDX 94 45 88 46 90 47 41 48 93 49 87 50 86 51 42 53 74 54 54 55
REMARK SMILES IDX 73 56 55 57 58 58 72 59 91 60 56 61 57 62 71 64 92 65 59 66
REMARK SMILES IDX 43 67 44 68 52 69 45 70 51 71 53 72 50 73 46 74 47 75 48 76
REMARK SMILES IDX 49 77 75 78 76 79 84 80 77 81 83 82 85 83 82 84 78 85 79 86
REMARK SMILES IDX 80 87 81 88 60 89 61 90 69 91 62 92 68 93 70 94 67 95 63 96
REMARK SMILES IDX 64 97 65 98 66 99
REMARK H PARENT 10 16 90 52 58 63
REMARK Flexibility Score: inf
ROOT
ATOM      1  C   UNL A   1      35.695  21.058  25.272  1.00  0.00     0.188 C 
ENDROOT
BRANCH   1   2
ATOM      2  O   UNL A   1      34.677  20.120  24.964  1.00  0.00    -0.376 OA
BRANCH   2   3
ATOM      3  C   UNL A   1      33.331  20.450  25.278  1.00  0.00     0.202 C 
BRANCH   3   4
ATOM      4  C   UNL A   1      32.604  21.463  24.392  1.00  0.00     0.261 C 
BRANCH   4   5
ATOM      5  O   UNL A   1      32.907  22.868  24.513  1.00  0.00    -0.463 OA
BRANCH   5   6
ATOM      6  C   UNL A   1      32.070  23.925  24.477  1.00  0.00     0.310 C 
ATOM      7  O   UNL A   1      31.009  23.864  25.100  1.00  0.00    -0.252 OA
BRANCH   6   8
ATOM      8  C   UNL A   1      32.354  25.070  23.541  1.00  0.00     0.160 C 
BRANCH   8   9
ATOM      9  C   UNL A   1      32.685  26.367  24.239  1.00  0.00    -0.013 A 
ATOM     10  C   UNL A   1      33.498  26.322  25.383  1.00  0.00     0.006 A 
ATOM     11  C   UNL A   1      32.195  27.605  23.774  1.00  0.00     0.042 A 
ATOM     12  C   UNL A   1      33.793  27.486  26.084  1.00  0.00     0.000 A 
ATOM     13  C   UNL A   1      32.496  28.764  24.496  1.00  0.00     0.026 A 
ATOM     14  C   UNL A   1      33.293  28.707  25.641  1.00  0.00     0.002 A 
BRANCH  11  15
ATOM     15  N   UNL A   1      31.215  27.643  22.761  1.00  0.00    -0.352 N 
ATOM     16  H   UNL A   1      31.460  27.136  21.954  1.00  0.00     0.167 HD
BRANCH  15  17
ATOM     17  C   UNL A   1      29.949  28.268  22.679  1.00  0.00     0.087 A 
ATOM     18  C   UNL A   1      29.920  29.546  22.075  1.00  0.00     0.147 A 
ATOM     19  C   UNL A   1      28.757  27.791  23.251  1.00  0.00     0.082 A 
ATOM     20  F   UNL A   1      31.063  30.055  21.584  1.00  0.00    -0.205 F 
ATOM     21  C   UNL A   1      28.768  30.319  21.990  1.00  0.00     0.041 A 
ATOM     22  C   UNL A   1      27.583  28.578  23.141  1.00  0.00     0.015 A 
ATOM     23  C   UNL A   1      27.587  29.828  22.519  1.00  0.00     0.004 A 
BRANCH  19  24
ATOM     24  C   UNL A   1      28.664  26.511  24.049  1.00  0.00     0.418 C 
ATOM     25  F   UNL A   1      29.471  26.536  25.157  1.00  0.00    -0.166 F 
ATOM     26  F   UNL A   1      27.417  26.273  24.532  1.00  0.00    -0.166 F 
ATOM     27  F   UNL A   1      29.056  25.409  23.365  1.00  0.00    -0.166 F 
ENDBRANCH  19  24
ENDBRANCH  15  17
ENDBRANCH  11  15
ENDBRANCH   8   9
ENDBRANCH   6   8
ENDBRANCH   5   6
ENDBRANCH   4   5
ENDBRANCH   3   4
ENDBRANCH   2   3
ENDBRANCH   1   2
BRANCH   1  28
ATOM     28  C   UNL A   1      37.123  20.738  24.821  1.00  0.00     0.188 C 
BRANCH  28  29
ATOM     29  O   UNL A   1      37.417  19.346  24.764  1.00  0.00    -0.376 OA
BRANCH  29  30
ATOM     30  C   UNL A   1      38.586  18.967  25.490  1.00  0.00     0.202 C 
BRANCH  30  31
ATOM     31  C   UNL A   1      39.704  20.024  25.533  1.00  0.00     0.261 C 
BRANCH  31  32
ATOM     32  O   UNL A   1      40.695  19.869  26.563  1.00  0.00    -0.460 OA
BRANCH  32  33
ATOM     33  C   UNL A   1      41.855  20.535  26.396  1.00  0.00     0.338 C 
ATOM     34  O   UNL A   1      42.820  20.158  25.745  1.00  0.00    -0.246 OA
BRANCH  33  35
ATOM     35  C   UNL A   1      41.737  21.874  27.007  1.00  0.00     0.060 A 
ATOM     36  C   UNL A   1      41.183  22.911  26.247  1.00  0.00     0.016 A 
ATOM     37  C   UNL A   1      42.222  22.126  28.295  1.00  0.00     0.016 A 
ATOM     38  C   UNL A   1      41.151  24.210  26.754  1.00  0.00     0.010 A 
ATOM     39  C   UNL A   1      42.219  23.435  28.791  1.00  0.00     0.010 A 
ATOM     40  C   UNL A   1      41.726  24.491  28.001  1.00  0.00    -0.014 A 
BRANCH  40  41
ATOM     41  C   UNL A   1      42.081  25.901  28.310  1.00  0.00     0.031 A 
ATOM     42  C   UNL A   1      43.469  26.362  27.939  1.00  0.00     0.074 A 
ATOM     43  C   UNL A   1      41.197  26.771  28.832  1.00  0.00     0.049 A 
ATOM     44  N   UNL A   1      44.006  27.551  28.021  1.00  0.00    -0.248 NA
ATOM     45  C   UNL A   1      44.370  25.332  27.396  1.00  0.00     0.031 C 
ATOM     46  C   UNL A   1      39.818  26.461  29.197  1.00  0.00     0.029 A 
ATOM     47  N   UNL A   1      41.334  28.104  29.130  1.00  0.00    -0.354 N 
ATOM     48  C   UNL A   1      45.301  27.415  27.528  1.00  0.00     0.074 A 
ATOM     49  C   UNL A   1      45.481  26.018  27.197  1.00  0.00     0.031 C 
ATOM     50  C   UNL A   1      39.232  27.576  29.672  1.00  0.00     0.029 A 
ATOM     51  C   UNL A   1      40.199  28.675  29.659  1.00  0.00     0.049 A 
ATOM     52  H   UNL A   1      42.167  28.606  28.982  1.00  0.00     0.167 HD
ATOM     53  C   UNL A   1      46.251  28.365  27.354  1.00  0.00     0.034 A 
ATOM     54  C   UNL A   1      39.973  29.936  30.082  1.00  0.00     0.034 A 
ATOM     55  C   UNL A   1      46.075  29.749  27.716  1.00  0.00     0.049 A 
ATOM     56  C   UNL A   1      41.075  30.965  29.955  1.00  0.00     0.074 A 
ATOM     57  C   UNL A   1      46.972  30.795  27.592  1.00  0.00     0.029 A 
ATOM     58  N   UNL A   1      44.927  30.277  28.294  1.00  0.00    -0.354 N 
ATOM     59  N   UNL A   1      42.285  30.829  29.461  1.00  0.00    -0.248 NA
ATOM     60  C   UNL A   1      40.769  32.323  30.427  1.00  0.00     0.031 C 
ATOM     61  C   UNL A   1      46.393  31.938  28.156  1.00  0.00     0.029 A 
ATOM     62  C   UNL A   1      45.104  31.625  28.558  1.00  0.00     0.049 A 
ATOM     63  H   UNL A   1      44.107  29.767  28.488  1.00  0.00     0.167 HD
ATOM     64  C   UNL A   1      42.865  32.097  29.520  1.00  0.00     0.074 A 
ATOM     65  C   UNL A   1      41.870  32.980  30.092  1.00  0.00     0.031 C 
ATOM     66  C   UNL A   1      44.102  32.497  29.128  1.00  0.00     0.034 A 
BRANCH  53  67
ATOM     67  C   UNL A   1      47.581  27.909  26.803  1.00  0.00     0.023 A 
ATOM     68  C   UNL A   1      47.845  27.895  25.421  1.00  0.00     0.031 A 
ATOM     69  C   UNL A   1      48.576  27.424  27.669  1.00  0.00     0.131 A 
ATOM     70  C   UNL A   1      49.038  27.332  24.943  1.00  0.00     0.055 A 
ATOM     71  C   UNL A   1      49.796  26.941  27.191  1.00  0.00     0.041 A 
ATOM     72  F   UNL A   1      48.370  27.388  28.995  1.00  0.00    -0.206 F 
ATOM     73  C   UNL A   1      50.026  26.878  25.820  1.00  0.00     0.022 A 
BRANCH  70  74
ATOM     74  S   UNL A   1      49.214  27.057  23.158  1.00  0.00     0.124 S 
ATOM     75  O   UNL A   1      48.318  25.922  22.945  1.00  0.00    -0.237 OA
ATOM     76  O   UNL A   1      48.779  28.330  22.598  1.00  0.00    -0.237 OA
ATOM     77  O   UNL A   1      50.635  26.756  22.997  1.00  0.00    -0.744 OA
ENDBRANCH  70  74
ENDBRANCH  53  67
BRANCH  54  78
ATOM     78  C   UNL A   1      38.661  30.316  30.686  1.00  0.00     0.023 A 
ATOM     79  C   UNL A   1      37.630  30.869  29.906  1.00  0.00     0.031 A 
ATOM     80  C   UNL A   1      38.448  30.202  32.071  1.00  0.00     0.131 A 
ATOM     81  C   UNL A   1      36.459  31.338  30.524  1.00  0.00     0.055 A 
ATOM     82  C   UNL A   1      37.261  30.621  32.674  1.00  0.00     0.041 A 
ATOM     83  F   UNL A   1      39.400  29.684  32.864  1.00  0.00    -0.206 F 
ATOM     84  C   UNL A   1      36.263  31.207  31.901  1.00  0.00     0.022 A 
BRANCH  81  85
ATOM     85  S   UNL A   1      35.228  32.208  29.513  1.00  0.00     0.124 S 
ATOM     86  O   UNL A   1      36.045  33.226  28.863  1.00  0.00    -0.237 OA
ATOM     87  O   UNL A   1      34.732  31.138  28.654  1.00  0.00    -0.237 OA
ATOM     88  O   UNL A   1      34.271  32.708  30.498  1.00  0.00    -0.744 OA
ENDBRANCH  81  85
ENDBRANCH  54  78
BRANCH  66  89
ATOM     89  C   UNL A   1      44.421  33.971  29.240  1.00  0.00     0.023 A 
ATOM     90  C   UNL A   1      45.038  34.519  30.378  1.00  0.00     0.031 A 
ATOM     91  C   UNL A   1      44.083  34.843  28.188  1.00  0.00     0.131 A 
ATOM     92  C   UNL A   1      45.241  35.905  30.464  1.00  0.00     0.055 A 
ATOM     93  C   UNL A   1      44.345  36.212  28.254  1.00  0.00     0.041 A 
ATOM     94  F   UNL A   1      43.492  34.376  27.076  1.00  0.00    -0.206 F 
ATOM     95  C   UNL A   1      44.912  36.753  29.403  1.00  0.00     0.022 A 
BRANCH  92  96
ATOM     96  S   UNL A   1      45.840  36.603  32.028  1.00  0.00     0.124 S 
ATOM     97  O   UNL A   1      47.226  36.926  31.708  1.00  0.00    -0.237 OA
ATOM     98  O   UNL A   1      44.949  37.742  32.222  1.00  0.00    -0.237 OA
ATOM     99  O   UNL A   1      45.662  35.510  32.983  1.00  0.00    -0.744 OA
ENDBRANCH  92  96
ENDBRANCH  66  89
ENDBRANCH  40  41
ENDBRANCH  33  35
ENDBRANCH  32  33
ENDBRANCH  31  32
ENDBRANCH  30  31
ENDBRANCH  29  30
ENDBRANCH  28  29
ENDBRANCH   1  28
TORSDOF 24
ENDMDL
MODEL 2
REMARK VINA RESULT:     -10.1      5.138     10.732
REMARK SMILES O=C(Cc1ccccc1Nc1c(F)cccc1C(F)(F)F)OCCOCCOCCOC(=O)c1ccc(-c2c3nc(c(-c4cc(S(=O)(=O)[O-])ccc4F)c4ccc([nH]4)c(-c4cc(S(=O)(=O)[O-])ccc4F)c4nc(c(-c5cc(S(=O)(=O)[O-])ccc5F)c5ccc2[nH]5)C=C4)C=C3)cc1
REMARK SMILES IDX 26 1 25 2 24 3 23 4 22 5 2 6 1 7 3 8 4 9 5 10 9 11 6 12 8 13
REMARK SMILES IDX 7 14 10 15 11 17 12 18 17 19 13 20 14 21 16 22 15 23 18 24
REMARK SMILES IDX 19 25 20 26 21 27 27 28 28 29 29 30 30 31 31 32 32 33 33 34
REMARK SMILES IDX 34 35 35 36 96 37 36 38 95 39 37 40 38 41 39 42 89 43 40 44
REMARK SMILES IDX 94 45 88 46 90 47 41 48 93 49 87 50 86 51 42 53 74 54 54 55
REMARK SMILES IDX 73 56 55 57 58 58 72 59 91 60 56 61 57 62 71 64 92 65 59 66
REMARK SMILES IDX 43 67 44 68 52 69 45 70 51 71 53 72 50 73 46 74 47 75 48 76
REMARK SMILES IDX 49 77 75 78 76 79 84 80 77 81 83 82 85 83 82 84 78 85 79 86
REMARK SMILES IDX 80 87 81 88 60 89 61 90 69 91 62 92 68 93 70 94 67 95 63 96
REMARK SMILES IDX 64 97 65 98 66 99
REMARK H PARENT 10 16 90 52 58 63
REMARK Flexibility Score: inf
ROOT
ATOM      1  C   UNL A   1      34.663  31.806  28.110  1.00  0.00     0.188 C 
ENDROOT
BRANCH   1   2
ATOM      2  O   UNL A   1      34.023  30.569  27.842  1.00  0.00    -0.376 OA
BRANCH   2   3
ATOM      3  C   UNL A   1      34.796  29.509  27.297  1.00  0.00     0.202 C 
BRANCH   3   4
ATOM      4  C   UNL A   1      34.170  28.634  26.210  1.00  0.00     0.261 C 
BRANCH   4   5
ATOM      5  O   UNL A   1      33.540  27.387  26.568  1.00  0.00    -0.463 OA
BRANCH   5   6
ATOM      6  C   UNL A   1      32.228  27.106  26.709  1.00  0.00     0.310 C 
ATOM      7  O   UNL A   1      31.588  27.682  27.591  1.00  0.00    -0.252 OA
BRANCH   6   8
ATOM      8  C   UNL A   1      31.620  25.976  25.923  1.00  0.00     0.160 C 
BRANCH   8   9
ATOM      9  C   UNL A   1      32.099  25.893  24.494  1.00  0.00    -0.013 A 
ATOM     10  C   UNL A   1      31.298  26.455  23.487  1.00  0.00     0.006 A 
ATOM     11  C   UNL A   1      33.317  25.267  24.155  1.00  0.00     0.042 A 
ATOM     12  C   UNL A   1      31.677  26.364  22.152  1.00  0.00     0.000 A 
ATOM     13  C   UNL A   1      33.679  25.180  22.807  1.00  0.00     0.026 A 
ATOM     14  C   UNL A   1      32.867  25.728  21.812  1.00  0.00     0.002 A 
BRANCH  11  15
ATOM     15  N   UNL A   1      34.023  24.522  25.122  1.00  0.00    -0.352 N 
ATOM     16  H   UNL A   1      34.194  25.016  25.956  1.00  0.00     0.167 HD
BRANCH  15  17
ATOM     17  C   UNL A   1      34.532  23.203  25.126  1.00  0.00     0.087 A 
ATOM     18  C   UNL A   1      35.933  23.072  24.983  1.00  0.00     0.147 A 
ATOM     19  C   UNL A   1      33.765  22.025  25.134  1.00  0.00     0.082 A 
ATOM     20  F   UNL A   1      36.680  24.185  24.901  1.00  0.00    -0.205 F 
ATOM     21  C   UNL A   1      36.575  21.843  24.891  1.00  0.00     0.041 A 
ATOM     22  C   UNL A   1      34.431  20.775  25.060  1.00  0.00     0.015 A 
ATOM     23  C   UNL A   1      35.819  20.683  24.940  1.00  0.00     0.004 A 
BRANCH  19  24
ATOM     24  C   UNL A   1      32.254  22.008  25.141  1.00  0.00     0.418 C 
ATOM     25  F   UNL A   1      31.755  20.734  25.210  1.00  0.00    -0.166 F 
ATOM     26  F   UNL A   1      31.718  22.651  26.211  1.00  0.00    -0.166 F 
ATOM     27  F   UNL A   1      31.695  22.533  24.024  1.00  0.00    -0.166 F 
ENDBRANCH  19  24
ENDBRANCH  15  17
ENDBRANCH  11  15
ENDBRANCH   8   9
ENDBRANCH   6   8
ENDBRANCH   5   6
ENDBRANCH   4   5
ENDBRANCH   3   4
ENDBRANCH   2   3
ENDBRANCH   1   2
BRANCH   1  28
ATOM     28  C   UNL A   1      33.819  33.081  28.026  1.00  0.00     0.188 C 
BRANCH  28  29
ATOM     29  O   UNL A   1      34.554  34.243  27.655  1.00  0.00    -0.376 OA
BRANCH  29  30
ATOM     30  C   UNL A   1      33.993  35.465  28.133  1.00  0.00     0.202 C 
BRANCH  30  31
ATOM     31  C   UNL A   1      33.119  35.338  29.393  1.00  0.00     0.261 C 
BRANCH  31  32
ATOM     32  O   UNL A   1      33.729  35.720  30.638  1.00  0.00    -0.460 OA
BRANCH  32  33
ATOM     33  C   UNL A   1      33.786  34.778  31.601  1.00  0.00     0.338 C 
ATOM     34  O   UNL A   1      32.958  34.592  32.483  1.00  0.00    -0.246 OA
BRANCH  33  35
ATOM     35  C   UNL A   1      34.944  33.896  31.349  1.00  0.00     0.060 A 
ATOM     36  C   UNL A   1      34.890  32.575  31.807  1.00  0.00     0.016 A 
ATOM     37  C   UNL A   1      36.097  34.379  30.721  1.00  0.00     0.016 A 
ATOM     38  C   UNL A   1      36.004  31.744  31.678  1.00  0.00     0.010 A 
ATOM     39  C   UNL A   1      37.225  33.556  30.621  1.00  0.00     0.010 A 
ATOM     40  C   UNL A   1      37.197  32.249  31.143  1.00  0.00    -0.014 A 
BRANCH  40  41
ATOM     41  C   UNL A   1      38.460  31.517  31.426  1.00  0.00     0.031 A 
ATOM     42  C   UNL A   1      39.168  31.834  32.720  1.00  0.00     0.074 A 
ATOM     43  C   UNL A   1      38.934  30.555  30.615  1.00  0.00     0.049 A 
ATOM     44  N   UNL A   1      40.233  31.289  33.247  1.00  0.00    -0.248 NA
ATOM     45  C   UNL A   1      38.585  32.918  33.528  1.00  0.00     0.031 C 
ATOM     46  C   UNL A   1      38.324  30.129  29.358  1.00  0.00     0.029 A 
ATOM     47  N   UNL A   1      40.041  29.751  30.742  1.00  0.00    -0.354 N 
ATOM     48  C   UNL A   1      40.438  31.952  34.454  1.00  0.00     0.074 A 
ATOM     49  C   UNL A   1      39.416  32.971  34.554  1.00  0.00     0.031 C 
ATOM     50  C   UNL A   1      39.065  29.138  28.829  1.00  0.00     0.029 A 
ATOM     51  C   UNL A   1      40.211  28.870  29.699  1.00  0.00     0.049 A 
ATOM     52  H   UNL A   1      40.656  29.802  31.508  1.00  0.00     0.167 HD
ATOM     53  C   UNL A   1      41.382  31.728  35.400  1.00  0.00     0.034 A 
ATOM     54  C   UNL A   1      41.180  27.958  29.478  1.00  0.00     0.034 A 
ATOM     55  C   UNL A   1      42.416  30.732  35.278  1.00  0.00     0.049 A 
ATOM     56  C   UNL A   1      42.273  27.779  30.509  1.00  0.00     0.074 A 
ATOM     57  C   UNL A   1      43.428  30.424  36.170  1.00  0.00     0.029 A 
ATOM     58  N   UNL A   1      42.583  29.892  34.184  1.00  0.00    -0.354 N 
ATOM     59  N   UNL A   1      42.440  28.393  31.658  1.00  0.00    -0.248 NA
ATOM     60  C   UNL A   1      43.298  26.766  30.217  1.00  0.00     0.031 C 
ATOM     61  C   UNL A   1      44.245  29.448  35.587  1.00  0.00     0.029 A 
ATOM     62  C   UNL A   1      43.697  29.088  34.366  1.00  0.00     0.049 A 
ATOM     63  H   UNL A   1      41.995  29.872  33.394  1.00  0.00     0.167 HD
ATOM     64  C   UNL A   1      43.560  27.805  32.246  1.00  0.00     0.074 A 
ATOM     65  C   UNL A   1      44.024  26.788  31.325  1.00  0.00     0.031 C 
ATOM     66  C   UNL A   1      44.147  28.075  33.440  1.00  0.00     0.034 A 
BRANCH  53  67
ATOM     67  C   UNL A   1      41.362  32.627  36.612  1.00  0.00     0.023 A 
ATOM     68  C   UNL A   1      40.486  32.400  37.689  1.00  0.00     0.031 A 
ATOM     69  C   UNL A   1      42.187  33.764  36.664  1.00  0.00     0.131 A 
ATOM     70  C   UNL A   1      40.399  33.337  38.730  1.00  0.00     0.055 A 
ATOM     71  C   UNL A   1      42.154  34.649  37.742  1.00  0.00     0.041 A 
ATOM     72  F   UNL A   1      43.023  34.048  35.652  1.00  0.00    -0.206 F 
ATOM     73  C   UNL A   1      41.245  34.447  38.776  1.00  0.00     0.022 A 
BRANCH  70  74
ATOM     74  S   UNL A   1      39.057  33.168  39.940  1.00  0.00     0.124 S 
ATOM     75  O   UNL A   1      39.568  32.105  40.801  1.00  0.00    -0.237 OA
ATOM     76  O   UNL A   1      38.997  34.499  40.533  1.00  0.00    -0.237 OA
ATOM     77  O   UNL A   1      37.903  32.795  39.123  1.00  0.00    -0.744 OA
ENDBRANCH  70  74
ENDBRANCH  53  67
BRANCH  54  78
ATOM     78  C   UNL A   1      41.191  27.144  28.226  1.00  0.00     0.023 A 
ATOM     79  C   UNL A   1      40.810  25.791  28.230  1.00  0.00     0.031 A 
ATOM     80  C   UNL A   1      41.662  27.690  27.019  1.00  0.00     0.131 A 
ATOM     81  C   UNL A   1      40.957  25.018  27.067  1.00  0.00     0.055 A 
ATOM     82  C   UNL A   1      41.757  26.931  25.851  1.00  0.00     0.041 A 
ATOM     83  F   UNL A   1      42.043  28.976  26.959  1.00  0.00    -0.206 F 
ATOM     84  C   UNL A   1      41.417  25.582  25.874  1.00  0.00     0.022 A 
BRANCH  81  85
ATOM     85  S   UNL A   1      40.624  23.235  27.156  1.00  0.00     0.124 S 
ATOM     86  O   UNL A   1      41.190  22.765  25.897  1.00  0.00    -0.237 OA
ATOM     87  O   UNL A   1      41.344  22.853  28.365  1.00  0.00    -0.237 OA
ATOM     88  O   UNL A   1      39.167  23.166  27.251  1.00  0.00    -0.744 OA
ENDBRANCH  81  85
ENDBRANCH  54  78
BRANCH  66  89
ATOM     89  C   UNL A   1      45.315  27.205  33.850  1.00  0.00     0.023 A 
ATOM     90  C   UNL A   1      45.143  26.016  34.580  1.00  0.00     0.031 A 
ATOM     91  C   UNL A   1      46.626  27.587  33.512  1.00  0.00     0.131 A 
ATOM     92  C   UNL A   1      46.265  25.287  35.004  1.00  0.00     0.055 A 
ATOM     93  C   UNL A   1      47.734  26.824  33.882  1.00  0.00     0.041 A 
ATOM     94  F   UNL A   1      46.852  28.712  32.815  1.00  0.00    -0.206 F 
ATOM     95  C   UNL A   1      47.558  25.675  34.646  1.00  0.00     0.022 A 
BRANCH  92  96
ATOM     96  S   UNL A   1      46.019  23.881  36.124  1.00  0.00     0.124 S 
ATOM     97  O   UNL A   1      45.526  24.534  37.331  1.00  0.00    -0.237 OA
ATOM     98  O   UNL A   1      45.048  23.070  35.397  1.00  0.00    -0.237 OA
ATOM     99  O   UNL A   1      47.353  23.293  36.236  1.00  0.00    -0.744 OA
ENDBRANCH  92  96
ENDBRANCH  66  89
ENDBRANCH  40  41
ENDBRANCH  33  35
ENDBRANCH  32  33
ENDBRANCH  31  32
ENDBRANCH  30  31
ENDBRANCH  29  30
ENDBRANCH  28  29
ENDBRANCH   1  28
TORSDOF 24
ENDMDL
MODEL 3
REMARK VINA RESULT:     -10.0      1.957      2.243
REMARK SMILES O=C(Cc1ccccc1Nc1c(F)cccc1C(F)(F)F)OCCOCCOCCOC(=O)c1ccc(-c2c3nc(c(-c4cc(S(=O)(=O)[O-])ccc4F)c4ccc([nH]4)c(-c4cc(S(=O)(=O)[O-])ccc4F)c4nc(c(-c5cc(S(=O)(=O)[O-])ccc5F)c5ccc2[nH]5)C=C4)C=C3)cc1
REMARK SMILES IDX 26 1 25 2 24 3 23 4 22 5 2 6 1 7 3 8 4 9 5 10 9 11 6 12 8 13
REMARK SMILES IDX 7 14 10 15 11 17 12 18 17 19 13 20 14 21 16 22 15 23 18 24
REMARK SMILES IDX 19 25 20 26 21 27 27 28 28 29 29 30 30 31 31 32 32 33 33 34
REMARK SMILES IDX 34 35 35 36 96 37 36 38 95 39 37 40 38 41 39 42 89 43 40 44
REMARK SMILES IDX 94 45 88 46 90 47 41 48 93 49 87 50 86 51 42 53 74 54 54 55
REMARK SMILES IDX 73 56 55 57 58 58 72 59 91 60 56 61 57 62 71 64 92 65 59 66
REMARK SMILES IDX 43 67 44 68 52 69 45 70 51 71 53 72 50 73 46 74 47 75 48 76
REMARK SMILES IDX 49 77 75 78 76 79 84 80 77 81 83 82 85 83 82 84 78 85 79 86
REMARK SMILES IDX 80 87 81 88 60 89 61 90 69 91 62 92 68 93 70 94 67 95 63 96
REMARK SMILES IDX 64 97 65 98 66 99
REMARK H PARENT 10 16 90 52 58 63
REMARK Flexibility Score: inf
ROOT
ATOM      1  C   UNL A   1      35.963  21.190  25.403  1.00  0.00     0.188 C 
ENDROOT
BRANCH   1   2
ATOM      2  O   UNL A   1      34.809  20.503  24.947  1.00  0.00    -0.376 OA
BRANCH   2   3
ATOM      3  C   UNL A   1      33.608  21.238  24.766  1.00  0.00     0.202 C 
BRANCH   3   4
ATOM      4  C   UNL A   1      33.519  22.212  23.590  1.00  0.00     0.261 C 
BRANCH   4   5
ATOM      5  O   UNL A   1      33.871  23.598  23.780  1.00  0.00    -0.463 OA
BRANCH   5   6
ATOM      6  C   UNL A   1      33.074  24.645  24.076  1.00  0.00     0.310 C 
ATOM      7  O   UNL A   1      32.180  24.495  24.910  1.00  0.00    -0.252 OA
BRANCH   6   8
ATOM      8  C   UNL A   1      33.168  25.907  23.259  1.00  0.00     0.160 C 
BRANCH   8   9
ATOM      9  C   UNL A   1      33.139  27.173  24.080  1.00  0.00    -0.013 A 
ATOM     10  C   UNL A   1      33.971  27.258  25.207  1.00  0.00     0.006 A 
ATOM     11  C   UNL A   1      32.300  28.256  23.742  1.00  0.00     0.042 A 
ATOM     12  C   UNL A   1      33.945  28.388  26.018  1.00  0.00     0.000 A 
ATOM     13  C   UNL A   1      32.283  29.381  24.573  1.00  0.00     0.026 A 
ATOM     14  C   UNL A   1      33.103  29.449  25.701  1.00  0.00     0.002 A 
BRANCH  11  15
ATOM     15  N   UNL A   1      31.316  28.105  22.744  1.00  0.00    -0.352 N 
ATOM     16  H   UNL A   1      31.650  27.684  21.918  1.00  0.00     0.167 HD
BRANCH  15  17
ATOM     17  C   UNL A   1      29.943  28.440  22.698  1.00  0.00     0.087 A 
ATOM     18  C   UNL A   1      29.616  29.651  22.044  1.00  0.00     0.147 A 
ATOM     19  C   UNL A   1      28.905  27.748  23.345  1.00  0.00     0.082 A 
ATOM     20  F   UNL A   1      30.602  30.367  21.479  1.00  0.00    -0.205 F 
ATOM     21  C   UNL A   1      28.322  30.155  21.984  1.00  0.00     0.041 A 
ATOM     22  C   UNL A   1      27.585  28.259  23.259  1.00  0.00     0.015 A 
ATOM     23  C   UNL A   1      27.295  29.448  22.588  1.00  0.00     0.004 A 
BRANCH  19  24
ATOM     24  C   UNL A   1      29.121  26.519  24.197  1.00  0.00     0.418 C 
ATOM     25  F   UNL A   1      29.689  25.494  23.488  1.00  0.00    -0.166 F 
ATOM     26  F   UNL A   1      29.967  26.733  25.238  1.00  0.00    -0.166 F 
ATOM     27  F   UNL A   1      27.977  25.994  24.700  1.00  0.00    -0.166 F 
ENDBRANCH  19  24
ENDBRANCH  15  17
ENDBRANCH  11  15
ENDBRANCH   8   9
ENDBRANCH   6   8
ENDBRANCH   5   6
ENDBRANCH   4   5
ENDBRANCH   3   4
ENDBRANCH   2   3
ENDBRANCH   1   2
BRANCH   1  28
ATOM     28  C   UNL A   1      37.323  20.750  24.851  1.00  0.00     0.188 C 
BRANCH  28  29
ATOM     29  O   UNL A   1      37.568  19.351  24.956  1.00  0.00    -0.376 OA
BRANCH  29  30
ATOM     30  C   UNL A   1      38.785  19.021  25.625  1.00  0.00     0.202 C 
BRANCH  30  31
ATOM     31  C   UNL A   1      39.924  20.042  25.458  1.00  0.00     0.261 C 
BRANCH  31  32
ATOM     32  O   UNL A   1      40.747  20.279  26.612  1.00  0.00    -0.460 OA
BRANCH  32  33
ATOM     33  C   UNL A   1      41.861  21.015  26.423  1.00  0.00     0.338 C 
ATOM     34  O   UNL A   1      42.829  20.703  25.741  1.00  0.00    -0.246 OA
BRANCH  33  35
ATOM     35  C   UNL A   1      41.682  22.337  27.056  1.00  0.00     0.060 A 
ATOM     36  C   UNL A   1      41.196  23.392  26.274  1.00  0.00     0.016 A 
ATOM     37  C   UNL A   1      42.045  22.556  28.389  1.00  0.00     0.016 A 
ATOM     38  C   UNL A   1      41.112  24.678  26.811  1.00  0.00     0.010 A 
ATOM     39  C   UNL A   1      41.992  23.852  28.916  1.00  0.00     0.010 A 
ATOM     40  C   UNL A   1      41.569  24.926  28.112  1.00  0.00    -0.014 A 
BRANCH  40  41
ATOM     41  C   UNL A   1      41.889  26.329  28.489  1.00  0.00     0.031 A 
ATOM     42  C   UNL A   1      43.299  26.807  28.244  1.00  0.00     0.074 A 
ATOM     43  C   UNL A   1      40.960  27.179  28.962  1.00  0.00     0.049 A 
ATOM     44  N   UNL A   1      43.820  27.995  28.403  1.00  0.00    -0.248 NA
ATOM     45  C   UNL A   1      44.247  25.797  27.746  1.00  0.00     0.031 C 
ATOM     46  C   UNL A   1      39.558  26.852  29.207  1.00  0.00     0.029 A 
ATOM     47  N   UNL A   1      41.063  28.504  29.309  1.00  0.00    -0.354 N 
ATOM     48  C   UNL A   1      45.150  27.880  28.012  1.00  0.00     0.074 A 
ATOM     49  C   UNL A   1      45.366  26.494  27.656  1.00  0.00     0.031 C 
ATOM     50  C   UNL A   1      38.928  27.951  29.664  1.00  0.00     0.029 A 
ATOM     51  C   UNL A   1      39.886  29.054  29.761  1.00  0.00     0.049 A 
ATOM     52  H   UNL A   1      41.902  29.014  29.242  1.00  0.00     0.167 HD
ATOM     53  C   UNL A   1      46.105  28.839  27.942  1.00  0.00     0.034 A 
ATOM     54  C   UNL A   1      39.617  30.301  30.200  1.00  0.00     0.034 A 
ATOM     55  C   UNL A   1      45.890  30.211  28.329  1.00  0.00     0.049 A 
ATOM     56  C   UNL A   1      40.719  31.338  30.192  1.00  0.00     0.074 A 
ATOM     57  C   UNL A   1      46.787  31.264  28.307  1.00  0.00     0.029 A 
ATOM     58  N   UNL A   1      44.696  30.716  28.827  1.00  0.00    -0.354 N 
ATOM     59  N   UNL A   1      41.966  31.223  29.793  1.00  0.00    -0.248 NA
ATOM     60  C   UNL A   1      40.367  32.681  30.676  1.00  0.00     0.031 C 
ATOM     61  C   UNL A   1      46.157  32.388  28.855  1.00  0.00     0.029 A 
ATOM     62  C   UNL A   1      44.842  32.057  29.143  1.00  0.00     0.049 A 
ATOM     63  H   UNL A   1      43.867  30.197  28.940  1.00  0.00     0.167 HD
ATOM     64  C   UNL A   1      42.530  32.490  29.934  1.00  0.00     0.074 A 
ATOM     65  C   UNL A   1      41.487  33.352  30.450  1.00  0.00     0.031 C 
ATOM     66  C   UNL A   1      43.792  32.907  29.655  1.00  0.00     0.034 A 
BRANCH  53  67
ATOM     67  C   UNL A   1      47.477  28.406  27.488  1.00  0.00     0.023 A 
ATOM     68  C   UNL A   1      48.493  28.078  28.405  1.00  0.00     0.031 A 
ATOM     69  C   UNL A   1      47.794  28.380  26.119  1.00  0.00     0.131 A 
ATOM     70  C   UNL A   1      49.793  27.818  27.946  1.00  0.00     0.055 A 
ATOM     71  C   UNL A   1      49.070  28.040  25.664  1.00  0.00     0.041 A 
ATOM     72  F   UNL A   1      46.874  28.710  25.198  1.00  0.00    -0.206 F 
ATOM     73  C   UNL A   1      50.082  27.773  26.580  1.00  0.00     0.022 A 
BRANCH  70  74
ATOM     74  S   UNL A   1      51.135  27.697  29.162  1.00  0.00     0.124 S 
ATOM     75  O   UNL A   1      51.758  26.429  28.788  1.00  0.00    -0.237 OA
ATOM     76  O   UNL A   1      51.916  28.898  28.892  1.00  0.00    -0.237 OA
ATOM     77  O   UNL A   1      50.435  27.682  30.445  1.00  0.00    -0.744 OA
ENDBRANCH  70  74
ENDBRANCH  53  67
BRANCH  54  78
ATOM     78  C   UNL A   1      38.258  30.657  30.707  1.00  0.00     0.023 A 
ATOM     79  C   UNL A   1      37.304  31.265  29.874  1.00  0.00     0.031 A 
ATOM     80  C   UNL A   1      37.923  30.464  32.059  1.00  0.00     0.131 A 
ATOM     81  C   UNL A   1      36.084  31.707  30.412  1.00  0.00     0.055 A 
ATOM     82  C   UNL A   1      36.688  30.858  32.578  1.00  0.00     0.041 A 
ATOM     83  F   UNL A   1      38.798  29.892  32.900  1.00  0.00    -0.206 F 
ATOM     84  C   UNL A   1      35.765  31.498  31.756  1.00  0.00     0.022 A 
BRANCH  81  85
ATOM     85  S   UNL A   1      34.951  32.647  29.349  1.00  0.00     0.124 S 
ATOM     86  O   UNL A   1      34.141  33.356  30.334  1.00  0.00    -0.237 OA
ATOM     87  O   UNL A   1      35.874  33.463  28.570  1.00  0.00    -0.237 OA
ATOM     88  O   UNL A   1      34.251  31.608  28.597  1.00  0.00    -0.744 OA
ENDBRANCH  81  85
ENDBRANCH  54  78
BRANCH  66  89
ATOM     89  C   UNL A   1      44.091  34.379  29.835  1.00  0.00     0.023 A 
ATOM     90  C   UNL A   1      43.737  35.338  28.870  1.00  0.00     0.031 A 
ATOM     91  C   UNL A   1      44.758  34.822  30.992  1.00  0.00     0.131 A 
ATOM     92  C   UNL A   1      44.108  36.680  29.049  1.00  0.00     0.055 A 
ATOM     93  C   UNL A   1      45.067  36.168  31.193  1.00  0.00     0.041 A 
ATOM     94  F   UNL A   1      45.120  33.952  31.948  1.00  0.00    -0.206 F 
ATOM     95  C   UNL A   1      44.757  37.103  30.212  1.00  0.00     0.022 A 
BRANCH  92  96
ATOM     96  S   UNL A   1      43.828  37.851  27.691  1.00  0.00     0.124 S 
ATOM     97  O   UNL A   1      43.218  37.000  26.675  1.00  0.00    -0.237 OA
ATOM     98  O   UNL A   1      42.949  38.838  28.308  1.00  0.00    -0.237 OA
ATOM     99  O   UNL A   1      45.171  38.333  27.371  1.00  0.00    -0.744 OA
ENDBRANCH  92  96
ENDBRANCH  66  89
ENDBRANCH  40  41
ENDBRANCH  33  35
ENDBRANCH  32  33
ENDBRANCH  31  32
ENDBRANCH  30  31
ENDBRANCH  29  30
ENDBRANCH  28  29
ENDBRANCH   1  28
TORSDOF 24
ENDMDL
