MODEL 1
REMARK VINA RESULT:     -11.9      0.000      0.000
REMARK SMILES Cc1ccc(Nc2c(F)cccc2I)c(CC(=O)OCCOCCOCCOC(=O)c2ccc(-c3c4nc(c(-c5cc(S(=O)(=O)[O-])ccc5F)c5ccc([nH]5)c(-c5cc(S(=O)(=O)[O-])ccc5F)c5nc(c(-c6cc(S(=O)(=O)[O-])ccc6F)c6ccc3[nH]6)C=C5)C=C4)cc2)c1
REMARK SMILES IDX 23 1 22 2 21 3 20 4 19 5 17 6 18 7 16 8 15 9 1 10 2 11 3 12
REMARK SMILES IDX 94 13 4 14 5 15 6 16 7 18 8 19 13 20 9 21 10 22 12 23 14 24
REMARK SMILES IDX 11 25 24 26 25 27 26 28 27 29 28 30 29 31 30 32 31 33 32 34
REMARK SMILES IDX 93 35 33 36 92 37 34 38 35 39 36 40 86 41 37 42 91 43 85 44
REMARK SMILES IDX 87 45 38 46 90 47 84 48 83 49 39 51 71 52 51 53 70 54 52 55
REMARK SMILES IDX 55 56 69 57 88 58 53 59 54 60 68 62 89 63 56 64 40 65 41 66
REMARK SMILES IDX 49 67 42 68 48 69 50 70 47 71 43 72 44 73 45 74 46 75 72 76
REMARK SMILES IDX 73 77 81 78 74 79 80 80 82 81 79 82 75 83 76 84 77 85 78 86
REMARK SMILES IDX 57 87 58 88 66 89 59 90 65 91 67 92 64 93 60 94 61 95 62 96
REMARK SMILES IDX 63 97
REMARK H PARENT 6 17 87 50 55 61
REMARK Flexibility Score: inf
ROOT
ATOM      1  C   UNL A   1      45.494  24.889  37.675  1.00  0.00     0.188 C 
ENDROOT
BRANCH   1   2
ATOM      2  O   UNL A   1      46.413  23.863  37.906  1.00  0.00    -0.376 OA
BRANCH   2   3
ATOM      3  C   UNL A   1      45.966  22.659  38.479  1.00  0.00     0.202 C 
BRANCH   3   4
ATOM      4  C   UNL A   1      45.703  22.174  40.002  1.00  0.00     0.261 C 
BRANCH   4   5
ATOM      5  O   UNL A   1      45.481  20.641  40.989  1.00  0.00    -0.463 OA
BRANCH   5   6
ATOM      6  C   UNL A   1      44.525  19.869  42.106  1.00  0.00     0.310 C 
ATOM      7  O   UNL A   1      43.471  19.217  42.046  1.00  0.00    -0.252 OA
BRANCH   6   8
ATOM      8  C   UNL A   1      45.194  19.642  43.341  1.00  0.00     0.160 C 
BRANCH   8   9
ATOM      9  C   UNL A   1      45.670  18.245  43.177  1.00  0.00    -0.013 A 
ATOM     10  C   UNL A   1      49.513  18.437  43.218  1.00  0.00     0.044 C 
ATOM     11  C   UNL A   1      48.119  18.030  43.567  1.00  0.00    -0.051 A 
ATOM     12  C   UNL A   1      47.785  17.285  44.669  1.00  0.00     0.005 A 
ATOM     13  C   UNL A   1      47.066  18.495  42.821  1.00  0.00     0.009 A 
ATOM     14  C   UNL A   1      46.416  16.989  44.951  1.00  0.00     0.026 A 
ATOM     15  C   UNL A   1      45.109  17.240  44.033  1.00  0.00     0.042 A 
BRANCH  15  16
ATOM     16  N   UNL A   1      43.513  15.996  43.983  1.00  0.00    -0.352 N 
ATOM     17  H   UNL A   1      43.088  15.885  44.864  1.00  0.00     0.167 HD
BRANCH  16  18
ATOM     18  C   UNL A   1      42.680  15.025  42.663  1.00  0.00     0.088 A 
ATOM     19  C   UNL A   1      42.097  13.603  42.922  1.00  0.00     0.147 A 
ATOM     20  C   UNL A   1      42.714  15.255  41.255  1.00  0.00     0.040 A 
ATOM     21  F   UNL A   1      42.203  12.908  44.078  1.00  0.00    -0.205 F 
ATOM     22  C   UNL A   1      41.568  12.713  41.982  1.00  0.00     0.041 A 
ATOM     23  C   UNL A   1      42.082  14.298  40.341  1.00  0.00     0.017 A 
ATOM     24  I   UNL A   1      43.770  16.403  39.892  1.00  0.00    -0.042 I 
ATOM     25  C   UNL A   1      41.556  13.059  40.674  1.00  0.00     0.004 A 
ENDBRANCH  16  18
ENDBRANCH  15  16
ENDBRANCH   8   9
ENDBRANCH   6   8
ENDBRANCH   5   6
ENDBRANCH   4   5
ENDBRANCH   3   4
ENDBRANCH   2   3
ENDBRANCH   1   2
BRANCH   1  26
ATOM     26  C   UNL A   1      45.855  26.268  38.178  1.00  0.00     0.188 C 
BRANCH  26  27
ATOM     27  O   UNL A   1      44.911  27.301  38.031  1.00  0.00    -0.376 OA
BRANCH  27  28
ATOM     28  C   UNL A   1      45.507  28.534  37.636  1.00  0.00     0.202 C 
BRANCH  28  29
ATOM     29  C   UNL A   1      44.613  29.846  37.499  1.00  0.00     0.261 C 
BRANCH  29  30
ATOM     30  O   UNL A   1      43.694  29.947  36.330  1.00  0.00    -0.460 OA
BRANCH  30  31
ATOM     31  C   UNL A   1      42.351  29.494  36.308  1.00  0.00     0.338 C 
ATOM     32  O   UNL A   1      41.485  30.212  36.775  1.00  0.00    -0.246 OA
BRANCH  31  33
ATOM     33  C   UNL A   1      42.203  27.941  35.605  1.00  0.00     0.060 A 
ATOM     34  C   UNL A   1      43.336  26.400  35.160  1.00  0.00     0.016 A 
ATOM     35  C   UNL A   1      41.560  28.791  34.156  1.00  0.00     0.016 A 
ATOM     36  C   UNL A   1      43.847  26.138  33.353  1.00  0.00     0.010 A 
ATOM     37  C   UNL A   1      42.185  28.490  32.565  1.00  0.00     0.010 A 
ATOM     38  C   UNL A   1      43.325  27.238  31.983  1.00  0.00    -0.014 A 
BRANCH  38  39
ATOM     39  C   UNL A   1      43.440  27.214  30.079  1.00  0.00     0.031 A 
ATOM     40  C   UNL A   1      43.755  25.662  28.964  1.00  0.00     0.074 A 
ATOM     41  C   UNL A   1      42.978  28.232  29.314  1.00  0.00     0.049 A 
ATOM     42  N   UNL A   1      44.841  25.338  28.270  1.00  0.00    -0.248 NA
ATOM     43  C   UNL A   1      43.079  24.103  29.142  1.00  0.00     0.031 C 
ATOM     44  C   UNL A   1      42.578  28.187  27.895  1.00  0.00     0.029 A 
ATOM     45  N   UNL A   1      42.641  29.534  29.664  1.00  0.00    -0.354 N 
ATOM     46  C   UNL A   1      44.741  23.950  27.903  1.00  0.00     0.074 A 
ATOM     47  C   UNL A   1      44.085  23.278  28.945  1.00  0.00     0.031 C 
ATOM     48  C   UNL A   1      42.407  29.444  27.435  1.00  0.00     0.029 A 
ATOM     49  C   UNL A   1      42.787  30.339  28.514  1.00  0.00     0.049 A 
ATOM     50  H   UNL A   1      42.352  29.841  30.553  1.00  0.00     0.167 HD
ATOM     51  C   UNL A   1      44.453  23.537  26.622  1.00  0.00     0.034 A 
ATOM     52  C   UNL A   1      43.836  31.205  28.533  1.00  0.00     0.034 A 
ATOM     53  C   UNL A   1      44.281  24.738  25.835  1.00  0.00     0.049 A 
ATOM     54  C   UNL A   1      44.936  30.567  27.684  1.00  0.00     0.074 A 
ATOM     55  C   UNL A   1      43.206  25.434  25.319  1.00  0.00     0.029 A 
ATOM     56  N   UNL A   1      45.315  25.638  25.926  1.00  0.00    -0.354 N 
ATOM     57  N   UNL A   1      44.992  29.287  27.380  1.00  0.00    -0.248 NA
ATOM     58  C   UNL A   1      45.895  31.347  26.912  1.00  0.00     0.031 C 
ATOM     59  C   UNL A   1      43.637  26.796  25.146  1.00  0.00     0.029 A 
ATOM     60  C   UNL A   1      44.945  26.913  25.594  1.00  0.00     0.049 A 
ATOM     61  H   UNL A   1      46.228  25.392  26.201  1.00  0.00     0.167 HD
ATOM     62  C   UNL A   1      45.836  29.084  26.328  1.00  0.00     0.074 A 
ATOM     63  C   UNL A   1      46.403  30.406  26.097  1.00  0.00     0.031 C 
ATOM     64  C   UNL A   1      46.006  27.902  25.650  1.00  0.00     0.034 A 
BRANCH  51  65
ATOM     65  C   UNL A   1      43.970  22.132  26.201  1.00  0.00     0.023 A 
ATOM     66  C   UNL A   1      44.894  21.302  25.546  1.00  0.00     0.031 A 
ATOM     67  C   UNL A   1      42.709  21.517  26.446  1.00  0.00     0.131 A 
ATOM     68  C   UNL A   1      44.578  19.980  25.163  1.00  0.00     0.055 A 
ATOM     69  C   UNL A   1      42.369  20.224  25.998  1.00  0.00     0.041 A 
ATOM     70  F   UNL A   1      41.751  22.096  27.184  1.00  0.00    -0.206 F 
ATOM     71  C   UNL A   1      43.315  19.438  25.366  1.00  0.00     0.022 A 
BRANCH  68  72
ATOM     72  S   UNL A   1      45.902  18.950  24.480  1.00  0.00     0.124 S 
ATOM     73  O   UNL A   1      47.061  19.828  24.605  1.00  0.00    -0.237 OA
ATOM     74  O   UNL A   1      45.869  17.788  25.360  1.00  0.00    -0.237 OA
ATOM     75  O   UNL A   1      45.462  18.696  23.108  1.00  0.00    -0.744 OA
ENDBRANCH  68  72
ENDBRANCH  51  65
BRANCH  52  76
ATOM     76  C   UNL A   1      43.834  31.876  29.896  1.00  0.00     0.023 A 
ATOM     77  C   UNL A   1      44.946  31.578  30.751  1.00  0.00     0.031 A 
ATOM     78  C   UNL A   1      43.191  33.108  30.112  1.00  0.00     0.131 A 
ATOM     79  C   UNL A   1      45.437  32.524  31.674  1.00  0.00     0.055 A 
ATOM     80  C   UNL A   1      43.679  34.042  31.045  1.00  0.00     0.041 A 
ATOM     81  F   UNL A   1      42.183  33.497  29.318  1.00  0.00    -0.206 F 
ATOM     82  C   UNL A   1      44.802  33.755  31.825  1.00  0.00     0.022 A 
BRANCH  79  83
ATOM     83  S   UNL A   1      46.998  32.190  32.568  1.00  0.00     0.124 S 
ATOM     84  O   UNL A   1      47.497  33.526  32.868  1.00  0.00    -0.237 OA
ATOM     85  O   UNL A   1      46.537  31.417  33.719  1.00  0.00    -0.237 OA
ATOM     86  O   UNL A   1      47.800  31.446  31.596  1.00  0.00    -0.744 OA
ENDBRANCH  79  83
ENDBRANCH  52  76
BRANCH  64  87
ATOM     87  C   UNL A   1      47.327  27.539  24.988  1.00  0.00     0.023 A 
ATOM     88  C   UNL A   1      47.555  27.861  23.656  1.00  0.00     0.031 A 
ATOM     89  C   UNL A   1      48.442  26.977  25.671  1.00  0.00     0.131 A 
ATOM     90  C   UNL A   1      48.707  27.429  23.002  1.00  0.00     0.055 A 
ATOM     91  C   UNL A   1      49.674  26.747  25.062  1.00  0.00     0.041 A 
ATOM     92  F   UNL A   1      48.411  26.622  26.963  1.00  0.00    -0.206 F 
ATOM     93  C   UNL A   1      49.792  26.911  23.697  1.00  0.00     0.022 A 
BRANCH  90  94
ATOM     94  S   UNL A   1      48.617  27.371  21.206  1.00  0.00     0.124 S 
ATOM     95  O   UNL A   1      49.730  28.244  20.832  1.00  0.00    -0.237 OA
ATOM     96  O   UNL A   1      48.806  25.953  20.924  1.00  0.00    -0.237 OA
ATOM     97  O   UNL A   1      47.288  27.901  20.917  1.00  0.00    -0.744 OA
ENDBRANCH  90  94
ENDBRANCH  64  87
ENDBRANCH  38  39
ENDBRANCH  31  33
ENDBRANCH  30  31
ENDBRANCH  29  30
ENDBRANCH  28  29
ENDBRANCH  27  28
ENDBRANCH  26  27
ENDBRANCH   1  26
TORSDOF 23
ENDMDL
MODEL 2
REMARK VINA RESULT:     -11.8      6.286     14.903
REMARK SMILES Cc1ccc(Nc2c(F)cccc2I)c(CC(=O)OCCOCCOCCOC(=O)c2ccc(-c3c4nc(c(-c5cc(S(=O)(=O)[O-])ccc5F)c5ccc([nH]5)c(-c5cc(S(=O)(=O)[O-])ccc5F)c5nc(c(-c6cc(S(=O)(=O)[O-])ccc6F)c6ccc3[nH]6)C=C5)C=C4)cc2)c1
REMARK SMILES IDX 23 1 22 2 21 3 20 4 19 5 17 6 18 7 16 8 15 9 1 10 2 11 3 12
REMARK SMILES IDX 94 13 4 14 5 15 6 16 7 18 8 19 13 20 9 21 10 22 12 23 14 24
REMARK SMILES IDX 11 25 24 26 25 27 26 28 27 29 28 30 29 31 30 32 31 33 32 34
REMARK SMILES IDX 93 35 33 36 92 37 34 38 35 39 36 40 86 41 37 42 91 43 85 44
REMARK SMILES IDX 87 45 38 46 90 47 84 48 83 49 39 51 71 52 51 53 70 54 52 55
REMARK SMILES IDX 55 56 69 57 88 58 53 59 54 60 68 62 89 63 56 64 40 65 41 66
REMARK SMILES IDX 49 67 42 68 48 69 50 70 47 71 43 72 44 73 45 74 46 75 72 76
REMARK SMILES IDX 73 77 81 78 74 79 80 80 82 81 79 82 75 83 76 84 77 85 78 86
REMARK SMILES IDX 57 87 58 88 66 89 59 90 65 91 67 92 64 93 60 94 61 95 62 96
REMARK SMILES IDX 63 97
REMARK H PARENT 6 17 87 50 55 61
REMARK Flexibility Score: inf
ROOT
ATOM      1  C   UNL A   1      42.414  22.241  26.876  1.00  0.00     0.188 C 
ENDROOT
BRANCH   1   2
ATOM      2  O   UNL A   1      41.307  21.426  27.125  1.00  0.00    -0.376 OA
BRANCH   2   3
ATOM      3  C   UNL A   1      40.019  21.922  26.865  1.00  0.00     0.202 C 
BRANCH   3   4
ATOM      4  C   UNL A   1      39.382  23.411  26.807  1.00  0.00     0.261 C 
BRANCH   4   5
ATOM      5  O   UNL A   1      39.005  24.840  27.897  1.00  0.00    -0.463 OA
BRANCH   5   6
ATOM      6  C   UNL A   1      39.655  26.100  28.762  1.00  0.00     0.310 C 
ATOM      7  O   UNL A   1      39.295  26.748  29.758  1.00  0.00    -0.252 OA
BRANCH   6   8
ATOM      8  C   UNL A   1      41.042  26.288  28.508  1.00  0.00     0.160 C 
BRANCH   8   9
ATOM      9  C   UNL A   1      41.138  27.768  28.426  1.00  0.00    -0.013 A 
ATOM     10  C   UNL A   1      44.778  28.527  27.432  1.00  0.00     0.044 C 
ATOM     11  C   UNL A   1      43.284  28.521  27.413  1.00  0.00    -0.051 A 
ATOM     12  C   UNL A   1      42.523  28.985  26.371  1.00  0.00     0.005 A 
ATOM     13  C   UNL A   1      42.592  27.927  28.437  1.00  0.00     0.009 A 
ATOM     14  C   UNL A   1      41.099  28.888  26.419  1.00  0.00     0.026 A 
ATOM     15  C   UNL A   1      40.147  28.462  27.655  1.00  0.00     0.042 A 
BRANCH  15  16
ATOM     16  N   UNL A   1      38.322  29.267  28.000  1.00  0.00    -0.352 N 
ATOM     17  H   UNL A   1      37.674  29.060  27.288  1.00  0.00     0.167 HD
BRANCH  16  18
ATOM     18  C   UNL A   1      37.603  30.297  29.341  1.00  0.00     0.088 A 
ATOM     19  C   UNL A   1      36.167  30.895  29.248  1.00  0.00     0.147 A 
ATOM     20  C   UNL A   1      38.287  30.919  30.428  1.00  0.00     0.040 A 
ATOM     21  F   UNL A   1      35.344  30.802  28.178  1.00  0.00    -0.205 F 
ATOM     22  C   UNL A   1      35.559  31.798  30.127  1.00  0.00     0.041 A 
ATOM     23  C   UNL A   1      37.559  31.808  31.339  1.00  0.00     0.017 A 
ATOM     24  I   UNL A   1      40.232  31.330  31.010  1.00  0.00    -0.042 I 
ATOM     25  C   UNL A   1      36.258  32.263  31.188  1.00  0.00     0.004 A 
ENDBRANCH  16  18
ENDBRANCH  15  16
ENDBRANCH   8   9
ENDBRANCH   6   8
ENDBRANCH   5   6
ENDBRANCH   4   5
ENDBRANCH   3   4
ENDBRANCH   2   3
ENDBRANCH   1   2
BRANCH   1  26
ATOM     26  C   UNL A   1      42.727  22.560  25.432  1.00  0.00     0.188 C 
BRANCH  26  27
ATOM     27  O   UNL A   1      43.443  21.612  24.677  1.00  0.00    -0.376 OA
BRANCH  27  28
ATOM     28  C   UNL A   1      44.585  22.172  24.037  1.00  0.00     0.202 C 
BRANCH  28  29
ATOM     29  C   UNL A   1      45.024  23.671  24.353  1.00  0.00     0.261 C 
BRANCH  29  30
ATOM     30  O   UNL A   1      46.225  23.883  25.210  1.00  0.00    -0.460 OA
BRANCH  30  31
ATOM     31  C   UNL A   1      46.269  23.686  26.613  1.00  0.00     0.338 C 
ATOM     32  O   UNL A   1      45.960  22.596  27.060  1.00  0.00    -0.246 OA
BRANCH  31  33
ATOM     33  C   UNL A   1      46.759  25.096  27.449  1.00  0.00     0.060 A 
ATOM     34  C   UNL A   1      48.187  25.681  28.663  1.00  0.00     0.016 A 
ATOM     35  C   UNL A   1      45.138  25.051  28.228  1.00  0.00     0.016 A 
ATOM     36  C   UNL A   1      47.795  25.859  30.510  1.00  0.00     0.010 A 
ATOM     37  C   UNL A   1      44.947  25.156  29.951  1.00  0.00     0.010 A 
ATOM     38  C   UNL A   1      46.142  25.532  31.231  1.00  0.00    -0.014 A 
BRANCH  38  39
ATOM     39  C   UNL A   1      45.309  25.780  32.928  1.00  0.00     0.031 A 
ATOM     40  C   UNL A   1      44.509  27.414  33.591  1.00  0.00     0.074 A 
ATOM     41  C   UNL A   1      44.905  24.737  33.694  1.00  0.00     0.049 A 
ATOM     42  N   UNL A   1      44.945  28.232  34.542  1.00  0.00    -0.248 NA
ATOM     43  C   UNL A   1      43.527  28.512  32.726  1.00  0.00     0.031 C 
ATOM     44  C   UNL A   1      43.882  24.740  34.756  1.00  0.00     0.029 A 
ATOM     45  N   UNL A   1      45.235  23.389  33.619  1.00  0.00    -0.354 N 
ATOM     46  C   UNL A   1      44.224  29.473  34.432  1.00  0.00     0.074 A 
ATOM     47  C   UNL A   1      43.971  29.702  33.072  1.00  0.00     0.031 C 
ATOM     48  C   UNL A   1      43.940  23.578  35.441  1.00  0.00     0.029 A 
ATOM     49  C   UNL A   1      45.068  22.834  34.905  1.00  0.00     0.049 A 
ATOM     50  H   UNL A   1      45.533  22.908  32.814  1.00  0.00     0.167 HD
ATOM     51  C   UNL A   1      43.235  29.841  35.316  1.00  0.00     0.034 A 
ATOM     52  C   UNL A   1      46.215  22.500  35.555  1.00  0.00     0.034 A 
ATOM     53  C   UNL A   1      43.116  28.760  36.269  1.00  0.00     0.049 A 
ATOM     54  C   UNL A   1      46.483  23.621  36.559  1.00  0.00     0.074 A 
ATOM     55  C   UNL A   1      42.228  27.723  36.480  1.00  0.00     0.029 A 
ATOM     56  N   UNL A   1      44.298  28.382  36.859  1.00  0.00    -0.354 N 
ATOM     57  N   UNL A   1      45.955  24.825  36.487  1.00  0.00    -0.248 NA
ATOM     58  C   UNL A   1      47.147  23.400  37.836  1.00  0.00     0.031 C 
ATOM     59  C   UNL A   1      42.948  26.697  37.187  1.00  0.00     0.029 A 
ATOM     60  C   UNL A   1      44.263  27.108  37.357  1.00  0.00     0.049 A 
ATOM     61  H   UNL A   1      45.088  28.966  36.918  1.00  0.00     0.167 HD
ATOM     62  C   UNL A   1      46.063  25.466  37.687  1.00  0.00     0.074 A 
ATOM     63  C   UNL A   1      46.852  24.538  38.487  1.00  0.00     0.031 C 
ATOM     64  C   UNL A   1      45.479  26.665  38.013  1.00  0.00     0.034 A 
BRANCH  51  65
ATOM     65  C   UNL A   1      42.172  30.939  35.093  1.00  0.00     0.023 A 
ATOM     66  C   UNL A   1      40.822  30.554  35.158  1.00  0.00     0.031 A 
ATOM     67  C   UNL A   1      42.367  32.335  34.888  1.00  0.00     0.131 A 
ATOM     68  C   UNL A   1      39.767  31.482  35.022  1.00  0.00     0.055 A 
ATOM     69  C   UNL A   1      41.315  33.250  34.678  1.00  0.00     0.041 A 
ATOM     70  F   UNL A   1      43.576  32.912  34.941  1.00  0.00    -0.206 F 
ATOM     71  C   UNL A   1      40.001  32.827  34.763  1.00  0.00     0.022 A 
BRANCH  68  72
ATOM     72  S   UNL A   1      38.075  30.897  35.296  1.00  0.00     0.124 S 
ATOM     73  O   UNL A   1      38.159  30.357  36.649  1.00  0.00    -0.237 OA
ATOM     74  O   UNL A   1      37.300  32.121  35.132  1.00  0.00    -0.237 OA
ATOM     75  O   UNL A   1      37.885  29.902  34.241  1.00  0.00    -0.744 OA
ENDBRANCH  68  72
ENDBRANCH  51  65
BRANCH  52  76
ATOM     76  C   UNL A   1      47.094  21.769  34.556  1.00  0.00     0.023 A 
ATOM     77  C   UNL A   1      48.366  22.369  34.273  1.00  0.00     0.031 A 
ATOM     78  C   UNL A   1      47.003  20.378  34.370  1.00  0.00     0.131 A 
ATOM     79  C   UNL A   1      49.491  21.584  33.943  1.00  0.00     0.055 A 
ATOM     80  C   UNL A   1      48.128  19.604  34.029  1.00  0.00     0.041 A 
ATOM     81  F   UNL A   1      45.873  19.724  34.672  1.00  0.00    -0.206 F 
ATOM     82  C   UNL A   1      49.372  20.201  33.817  1.00  0.00     0.022 A 
BRANCH  79  83
ATOM     83  S   UNL A   1      51.139  22.371  33.827  1.00  0.00     0.124 S 
ATOM     84  O   UNL A   1      50.822  23.793  33.798  1.00  0.00    -0.237 OA
ATOM     85  O   UNL A   1      51.795  21.897  35.044  1.00  0.00    -0.237 OA
ATOM     86  O   UNL A   1      51.685  21.844  32.577  1.00  0.00    -0.744 OA
ENDBRANCH  79  83
ENDBRANCH  52  76
BRANCH  64  87
ATOM     87  C   UNL A   1      46.108  27.616  39.021  1.00  0.00     0.023 A 
ATOM     88  C   UNL A   1      45.687  27.613  40.345  1.00  0.00     0.031 A 
ATOM     89  C   UNL A   1      47.217  28.464  38.744  1.00  0.00     0.131 A 
ATOM     90  C   UNL A   1      46.165  28.558  41.250  1.00  0.00     0.055 A 
ATOM     91  C   UNL A   1      47.837  29.251  39.712  1.00  0.00     0.041 A 
ATOM     92  F   UNL A   1      47.769  28.580  37.528  1.00  0.00    -0.206 F 
ATOM     93  C   UNL A   1      47.267  29.353  40.964  1.00  0.00     0.022 A 
BRANCH  90  94
ATOM     94  S   UNL A   1      45.142  28.843  42.703  1.00  0.00     0.124 S 
ATOM     95  O   UNL A   1      45.379  30.266  42.950  1.00  0.00    -0.237 OA
ATOM     96  O   UNL A   1      43.808  28.501  42.224  1.00  0.00    -0.237 OA
ATOM     97  O   UNL A   1      45.708  27.938  43.698  1.00  0.00    -0.744 OA
ENDBRANCH  90  94
ENDBRANCH  64  87
ENDBRANCH  38  39
ENDBRANCH  31  33
ENDBRANCH  30  31
ENDBRANCH  29  30
ENDBRANCH  28  29
ENDBRANCH  27  28
ENDBRANCH  26  27
ENDBRANCH   1  26
TORSDOF 23
ENDMDL
MODEL 3
REMARK VINA RESULT:     -11.8      6.197     15.035
REMARK SMILES Cc1ccc(Nc2c(F)cccc2I)c(CC(=O)OCCOCCOCCOC(=O)c2ccc(-c3c4nc(c(-c5cc(S(=O)(=O)[O-])ccc5F)c5ccc([nH]5)c(-c5cc(S(=O)(=O)[O-])ccc5F)c5nc(c(-c6cc(S(=O)(=O)[O-])ccc6F)c6ccc3[nH]6)C=C5)C=C4)cc2)c1
REMARK SMILES IDX 23 1 22 2 21 3 20 4 19 5 17 6 18 7 16 8 15 9 1 10 2 11 3 12
REMARK SMILES IDX 94 13 4 14 5 15 6 16 7 18 8 19 13 20 9 21 10 22 12 23 14 24
REMARK SMILES IDX 11 25 24 26 25 27 26 28 27 29 28 30 29 31 30 32 31 33 32 34
REMARK SMILES IDX 93 35 33 36 92 37 34 38 35 39 36 40 86 41 37 42 91 43 85 44
REMARK SMILES IDX 87 45 38 46 90 47 84 48 83 49 39 51 71 52 51 53 70 54 52 55
REMARK SMILES IDX 55 56 69 57 88 58 53 59 54 60 68 62 89 63 56 64 40 65 41 66
REMARK SMILES IDX 49 67 42 68 48 69 50 70 47 71 43 72 44 73 45 74 46 75 72 76
REMARK SMILES IDX 73 77 81 78 74 79 80 80 82 81 79 82 75 83 76 84 77 85 78 86
REMARK SMILES IDX 57 87 58 88 66 89 59 90 65 91 67 92 64 93 60 94 61 95 62 96
REMARK SMILES IDX 63 97
REMARK H PARENT 6 17 87 50 55 61
REMARK Flexibility Score: inf
ROOT
ATOM      1  C   UNL A   1      42.453  21.923  26.720  1.00  0.00     0.188 C 
ENDROOT
BRANCH   1   2
ATOM      2  O   UNL A   1      41.490  20.919  26.835  1.00  0.00    -0.376 OA
BRANCH   2   3
ATOM      3  C   UNL A   1      40.131  21.257  26.715  1.00  0.00     0.202 C 
BRANCH   3   4
ATOM      4  C   UNL A   1      39.336  22.660  26.555  1.00  0.00     0.261 C 
BRANCH   4   5
ATOM      5  O   UNL A   1      38.934  24.183  27.498  1.00  0.00    -0.463 OA
BRANCH   5   6
ATOM      6  C   UNL A   1      39.565  25.509  28.275  1.00  0.00     0.310 C 
ATOM      7  O   UNL A   1      39.318  26.089  29.344  1.00  0.00    -0.252 OA
BRANCH   6   8
ATOM      8  C   UNL A   1      40.842  25.886  27.775  1.00  0.00     0.160 C 
BRANCH   8   9
ATOM      9  C   UNL A   1      40.876  27.336  28.093  1.00  0.00    -0.013 A 
ATOM     10  C   UNL A   1      44.360  28.563  27.014  1.00  0.00     0.044 C 
ATOM     11  C   UNL A   1      42.874  28.468  27.132  1.00  0.00    -0.051 A 
ATOM     12  C   UNL A   1      41.991  29.146  26.332  1.00  0.00     0.005 A 
ATOM     13  C   UNL A   1      42.316  27.578  28.014  1.00  0.00     0.009 A 
ATOM     14  C   UNL A   1      40.584  28.950  26.483  1.00  0.00     0.026 A 
ATOM     15  C   UNL A   1      39.785  28.148  27.638  1.00  0.00     0.042 A 
BRANCH  15  16
ATOM     16  N   UNL A   1      37.979  28.714  28.356  1.00  0.00    -0.352 N 
ATOM     17  H   UNL A   1      37.569  28.032  28.937  1.00  0.00     0.167 HD
BRANCH  16  18
ATOM     18  C   UNL A   1      36.931  30.212  28.167  1.00  0.00     0.088 A 
ATOM     19  C   UNL A   1      37.217  31.529  28.950  1.00  0.00     0.147 A 
ATOM     20  C   UNL A   1      35.634  30.303  27.579  1.00  0.00     0.040 A 
ATOM     21  F   UNL A   1      38.180  31.693  29.887  1.00  0.00    -0.205 F 
ATOM     22  C   UNL A   1      36.426  32.681  29.001  1.00  0.00     0.041 A 
ATOM     23  C   UNL A   1      34.896  31.569  27.626  1.00  0.00     0.017 A 
ATOM     24  I   UNL A   1      34.125  29.036  26.938  1.00  0.00    -0.042 I 
ATOM     25  C   UNL A   1      35.250  32.709  28.331  1.00  0.00     0.004 A 
ENDBRANCH  16  18
ENDBRANCH  15  16
ENDBRANCH   8   9
ENDBRANCH   6   8
ENDBRANCH   5   6
ENDBRANCH   4   5
ENDBRANCH   3   4
ENDBRANCH   2   3
ENDBRANCH   1   2
BRANCH   1  26
ATOM     26  C   UNL A   1      42.747  22.445  25.332  1.00  0.00     0.188 C 
BRANCH  26  27
ATOM     27  O   UNL A   1      43.780  21.837  24.593  1.00  0.00    -0.376 OA
BRANCH  27  28
ATOM     28  C   UNL A   1      44.654  22.788  23.992  1.00  0.00     0.202 C 
BRANCH  28  29
ATOM     29  C   UNL A   1      44.810  24.242  24.624  1.00  0.00     0.261 C 
BRANCH  29  30
ATOM     30  O   UNL A   1      46.085  24.567  25.325  1.00  0.00    -0.460 OA
BRANCH  30  31
ATOM     31  C   UNL A   1      46.426  24.144  26.634  1.00  0.00     0.338 C 
ATOM     32  O   UNL A   1      46.401  22.953  26.887  1.00  0.00    -0.246 OA
BRANCH  31  33
ATOM     33  C   UNL A   1      46.811  25.458  27.658  1.00  0.00     0.060 A 
ATOM     34  C   UNL A   1      48.132  25.931  29.033  1.00  0.00     0.016 A 
ATOM     35  C   UNL A   1      45.142  25.286  28.306  1.00  0.00     0.016 A 
ATOM     36  C   UNL A   1      47.605  25.885  30.854  1.00  0.00     0.010 A 
ATOM     37  C   UNL A   1      44.827  25.186  30.010  1.00  0.00     0.010 A 
ATOM     38  C   UNL A   1      45.916  25.438  31.410  1.00  0.00    -0.014 A 
BRANCH  38  39
ATOM     39  C   UNL A   1      44.957  25.468  33.058  1.00  0.00     0.031 A 
ATOM     40  C   UNL A   1      43.947  26.956  33.776  1.00  0.00     0.074 A 
ATOM     41  C   UNL A   1      44.621  24.335  33.719  1.00  0.00     0.049 A 
ATOM     42  N   UNL A   1      44.234  27.739  34.810  1.00  0.00    -0.248 NA
ATOM     43  C   UNL A   1      42.908  28.012  32.924  1.00  0.00     0.031 C 
ATOM     44  C   UNL A   1      43.539  24.151  34.705  1.00  0.00     0.029 A 
ATOM     45  N   UNL A   1      45.097  23.037  33.573  1.00  0.00    -0.354 N 
ATOM     46  C   UNL A   1      43.392  28.905  34.737  1.00  0.00     0.074 A 
ATOM     47  C   UNL A   1      43.200  29.211  33.382  1.00  0.00     0.031 C 
ATOM     48  C   UNL A   1      43.679  22.951  35.309  1.00  0.00     0.029 A 
ATOM     49  C   UNL A   1      44.911  22.371  34.803  1.00  0.00     0.049 A 
ATOM     50  H   UNL A   1      45.494  22.652  32.759  1.00  0.00     0.167 HD
ATOM     51  C   UNL A   1      42.316  29.100  35.573  1.00  0.00     0.034 A 
ATOM     52  C   UNL A   1      46.045  22.107  35.505  1.00  0.00     0.034 A 
ATOM     53  C   UNL A   1      42.255  27.943  36.438  1.00  0.00     0.049 A 
ATOM     54  C   UNL A   1      46.129  23.169  36.602  1.00  0.00     0.074 A 
ATOM     55  C   UNL A   1      41.472  26.808  36.514  1.00  0.00     0.029 A 
ATOM     56  N   UNL A   1      43.432  27.644  37.082  1.00  0.00    -0.354 N 
ATOM     57  N   UNL A   1      45.481  24.315  36.578  1.00  0.00    -0.248 NA
ATOM     58  C   UNL A   1      46.733  22.919  37.904  1.00  0.00     0.031 C 
ATOM     59  C   UNL A   1      42.253  25.810  37.196  1.00  0.00     0.029 A 
ATOM     60  C   UNL A   1      43.503  26.339  37.486  1.00  0.00     0.049 A 
ATOM     61  H   UNL A   1      44.150  28.300  37.236  1.00  0.00     0.167 HD
ATOM     62  C   UNL A   1      45.445  24.869  37.824  1.00  0.00     0.074 A 
ATOM     63  C   UNL A   1      46.278  23.968  38.611  1.00  0.00     0.031 C 
ATOM     64  C   UNL A   1      44.717  25.973  38.192  1.00  0.00     0.034 A 
BRANCH  51  65
ATOM     65  C   UNL A   1      41.158  30.098  35.354  1.00  0.00     0.023 A 
ATOM     66  C   UNL A   1      41.222  31.323  36.039  1.00  0.00     0.031 A 
ATOM     67  C   UNL A   1      40.035  29.978  34.485  1.00  0.00     0.131 A 
ATOM     68  C   UNL A   1      40.247  32.330  35.874  1.00  0.00     0.055 A 
ATOM     69  C   UNL A   1      39.022  30.952  34.377  1.00  0.00     0.041 A 
ATOM     70  F   UNL A   1      39.879  28.947  33.643  1.00  0.00    -0.206 F 
ATOM     71  C   UNL A   1      39.133  32.148  35.062  1.00  0.00     0.022 A 
BRANCH  68  72
ATOM     72  S   UNL A   1      40.526  33.929  36.675  1.00  0.00     0.124 S 
ATOM     73  O   UNL A   1      39.211  34.217  37.239  1.00  0.00    -0.237 OA
ATOM     74  O   UNL A   1      41.585  33.613  37.626  1.00  0.00    -0.237 OA
ATOM     75  O   UNL A   1      40.930  34.798  35.570  1.00  0.00    -0.744 OA
ENDBRANCH  68  72
ENDBRANCH  51  65
BRANCH  52  76
ATOM     76  C   UNL A   1      47.058  21.548  34.522  1.00  0.00     0.023 A 
ATOM     77  C   UNL A   1      48.236  22.338  34.308  1.00  0.00     0.031 A 
ATOM     78  C   UNL A   1      47.181  20.166  34.291  1.00  0.00     0.131 A 
ATOM     79  C   UNL A   1      49.476  21.739  34.001  1.00  0.00     0.055 A 
ATOM     80  C   UNL A   1      48.419  19.578  33.973  1.00  0.00     0.041 A 
ATOM     81  F   UNL A   1      46.150  19.343  34.528  1.00  0.00    -0.206 F 
ATOM     82  C   UNL A   1      49.568  20.359  33.829  1.00  0.00     0.022 A 
BRANCH  79  83
ATOM     83  S   UNL A   1      50.992  22.763  33.975  1.00  0.00     0.124 S 
ATOM     84  O   UNL A   1      51.971  21.916  34.645  1.00  0.00    -0.237 OA
ATOM     85  O   UNL A   1      51.207  22.961  32.543  1.00  0.00    -0.237 OA
ATOM     86  O   UNL A   1      50.612  23.962  34.722  1.00  0.00    -0.744 OA
ENDBRANCH  79  83
ENDBRANCH  52  76
BRANCH  64  87
ATOM     87  C   UNL A   1      45.177  26.903  39.305  1.00  0.00     0.023 A 
ATOM     88  C   UNL A   1      45.879  28.063  39.004  1.00  0.00     0.031 A 
ATOM     89  C   UNL A   1      44.838  26.744  40.678  1.00  0.00     0.131 A 
ATOM     90  C   UNL A   1      46.412  28.861  40.015  1.00  0.00     0.055 A 
ATOM     91  C   UNL A   1      45.189  27.665  41.664  1.00  0.00     0.041 A 
ATOM     92  F   UNL A   1      44.148  25.696  41.149  1.00  0.00    -0.206 F 
ATOM     93  C   UNL A   1      46.041  28.701  41.344  1.00  0.00     0.022 A 
BRANCH  90  94
ATOM     94  S   UNL A   1      47.763  29.945  39.531  1.00  0.00     0.124 S 
ATOM     95  O   UNL A   1      47.945  30.742  40.745  1.00  0.00    -0.237 OA
ATOM     96  O   UNL A   1      48.835  29.002  39.231  1.00  0.00    -0.237 OA
ATOM     97  O   UNL A   1      47.222  30.671  38.387  1.00  0.00    -0.744 OA
ENDBRANCH  90  94
ENDBRANCH  64  87
ENDBRANCH  38  39
ENDBRANCH  31  33
ENDBRANCH  30  31
ENDBRANCH  29  30
ENDBRANCH  28  29
ENDBRANCH  27  28
ENDBRANCH  26  27
ENDBRANCH   1  26
TORSDOF 23
ENDMDL
