MODEL 1
REMARK VINA RESULT:     -10.8      0.000      0.000
REMARK SMILES Cc1cc(C(=O)N[C@H]2C=C[C@H](C(=O)OCCOCCOCCOC(=O)c3ccc(-c4c5nc(c(-c6cc(S(=O)(=O)[O-])ccc6F)c6ccc([nH]6)c(-c6cc(S(=O)(=O)[O-])ccc6F)c6nc(c(-c7cc(S(=O)(=O)[O-])ccc7F)c7ccc4[nH]7)C=C6)C=C5)cc3)C2)ccc1F
REMARK SMILES IDX 19 1 18 2 17 3 16 4 15 5 14 6 12 7 13 8 11 9 8 10 9 11 89 12
REMARK SMILES IDX 10 13 7 14 5 15 6 16 4 18 1 19 2 20 3 21 92 22 91 23 93 24
REMARK SMILES IDX 90 25 20 26 21 27 22 28 23 29 24 30 25 31 26 32 27 33 88 34
REMARK SMILES IDX 28 35 87 36 29 37 30 38 31 39 81 40 32 41 86 42 80 43 82 44
REMARK SMILES IDX 33 45 85 46 79 47 78 48 34 50 66 51 46 52 65 53 47 54 50 55
REMARK SMILES IDX 64 56 83 57 48 58 49 59 63 61 84 62 51 63 35 64 36 65 44 66
REMARK SMILES IDX 37 67 43 68 45 69 42 70 38 71 39 72 40 73 41 74 67 75 68 76
REMARK SMILES IDX 76 77 69 78 75 79 77 80 74 81 70 82 71 83 72 84 73 85 52 86
REMARK SMILES IDX 53 87 61 88 54 89 60 90 62 91 59 92 55 93 56 94 57 95 58 96
REMARK H PARENT 7 17 82 49 50 60
REMARK Flexibility Score: inf
ROOT
ATOM      1  C   UNL A   1      40.928  19.296  26.604  1.00  0.00     0.188 C 
ENDROOT
BRANCH   1   2
ATOM      2  C   UNL A   1      39.819  19.964  25.744  1.00  0.00     0.188 C 
BRANCH   2   3
ATOM      3  O   UNL A   1      39.155  21.137  26.205  1.00  0.00    -0.376 OA
BRANCH   3   4
ATOM      4  C   UNL A   1      38.235  21.779  25.327  1.00  0.00     0.202 C 
BRANCH   4   5
ATOM      5  C   UNL A   1      36.755  21.857  25.741  1.00  0.00     0.261 C 
BRANCH   5   6
ATOM      6  O   UNL A   1      36.032  20.663  25.398  1.00  0.00    -0.463 OA
BRANCH   6   7
ATOM      7  C   UNL A   1      34.792  20.833  24.872  1.00  0.00     0.312 C 
ATOM      8  O   UNL A   1      34.112  19.916  24.426  1.00  0.00    -0.252 OA
BRANCH   7   9
ATOM      9  C   UNL A   1      34.301  22.278  25.072  1.00  0.00     0.124 C 
ATOM     10  C   UNL A   1      31.994  21.905  25.612  1.00  0.00     0.106 C 
ATOM     11  C   UNL A   1      32.109  22.608  24.294  1.00  0.00    -0.006 C 
ATOM     12  C   UNL A   1      33.319  22.318  26.256  1.00  0.00     0.048 C 
ATOM     13  C   UNL A   1      33.402  22.764  23.969  1.00  0.00    -0.014 C 
BRANCH  10  14
ATOM     14  N   UNL A   1      30.815  22.269  26.338  1.00  0.00    -0.346 N 
ATOM     15  C   UNL A   1      30.326  23.506  26.690  1.00  0.00     0.251 C 
ATOM     16  O   UNL A   1      29.405  23.524  27.511  1.00  0.00    -0.269 OA
ATOM     17  H   UNL A   1      30.263  21.509  26.633  1.00  0.00     0.164 HD
BRANCH  15  18
ATOM     18  C   UNL A   1      30.799  24.815  26.119  1.00  0.00     0.040 A 
ATOM     19  C   UNL A   1      33.706  27.295  26.074  1.00  0.00     0.047 C 
ATOM     20  C   UNL A   1      32.370  26.673  25.795  1.00  0.00    -0.015 A 
ATOM     21  C   UNL A   1      31.966  25.507  26.472  1.00  0.00     0.020 A 
ATOM     22  C   UNL A   1      31.549  27.188  24.794  1.00  0.00     0.126 A 
ATOM     23  C   UNL A   1      30.354  26.564  24.465  1.00  0.00     0.040 A 
ATOM     24  F   UNL A   1      31.906  28.301  24.141  1.00  0.00    -0.207 F 
ATOM     25  C   UNL A   1      29.989  25.381  25.116  1.00  0.00     0.017 A 
ENDBRANCH  15  18
ENDBRANCH  10  14
ENDBRANCH   7   9
ENDBRANCH   6   7
ENDBRANCH   5   6
ENDBRANCH   4   5
ENDBRANCH   3   4
ENDBRANCH   2   3
ENDBRANCH   1   2
BRANCH   1  26
ATOM     26  O   UNL A   1      41.900  20.184  27.123  1.00  0.00    -0.376 OA
BRANCH  26  27
ATOM     27  C   UNL A   1      42.874  20.785  26.279  1.00  0.00     0.202 C 
BRANCH  27  28
ATOM     28  C   UNL A   1      43.182  22.289  26.214  1.00  0.00     0.261 C 
BRANCH  28  29
ATOM     29  O   UNL A   1      42.059  23.131  25.989  1.00  0.00    -0.460 OA
BRANCH  29  30
ATOM     30  C   UNL A   1      41.529  23.565  27.152  1.00  0.00     0.338 C 
ATOM     31  O   UNL A   1      41.978  23.393  28.274  1.00  0.00    -0.246 OA
BRANCH  30  32
ATOM     32  C   UNL A   1      40.332  24.391  26.924  1.00  0.00     0.060 A 
ATOM     33  C   UNL A   1      40.589  25.493  26.078  1.00  0.00     0.016 A 
ATOM     34  C   UNL A   1      39.606  24.524  28.101  1.00  0.00     0.016 A 
ATOM     35  C   UNL A   1      40.516  26.761  26.597  1.00  0.00     0.010 A 
ATOM     36  C   UNL A   1      39.561  25.787  28.635  1.00  0.00     0.010 A 
ATOM     37  C   UNL A   1      40.146  26.851  27.922  1.00  0.00    -0.014 A 
BRANCH  37  38
ATOM     38  C   UNL A   1      40.485  28.000  28.719  1.00  0.00     0.031 A 
ATOM     39  C   UNL A   1      39.584  29.146  28.695  1.00  0.00     0.074 A 
ATOM     40  C   UNL A   1      41.513  27.869  29.584  1.00  0.00     0.049 A 
ATOM     41  N   UNL A   1      39.825  30.259  29.285  1.00  0.00    -0.248 NA
ATOM     42  C   UNL A   1      38.350  29.141  27.914  1.00  0.00     0.031 C 
ATOM     43  C   UNL A   1      41.720  28.607  30.820  1.00  0.00     0.029 A 
ATOM     44  N   UNL A   1      42.708  27.163  29.396  1.00  0.00    -0.354 N 
ATOM     45  C   UNL A   1      38.648  30.965  29.266  1.00  0.00     0.074 A 
ATOM     46  C   UNL A   1      37.835  30.320  28.264  1.00  0.00     0.031 C 
ATOM     47  C   UNL A   1      43.020  28.526  31.148  1.00  0.00     0.029 A 
ATOM     48  C   UNL A   1      43.708  27.933  30.011  1.00  0.00     0.049 A 
ATOM     49  H   UNL A   1      42.822  26.303  28.929  1.00  0.00     0.167 HD
ATOM     50  C   UNL A   1      38.442  31.882  30.251  1.00  0.00     0.034 A 
ATOM     51  C   UNL A   1      44.725  28.532  29.321  1.00  0.00     0.034 A 
ATOM     52  C   UNL A   1      39.690  32.157  30.973  1.00  0.00     0.049 A 
ATOM     53  C   UNL A   1      44.742  30.048  29.461  1.00  0.00     0.074 A 
ATOM     54  C   UNL A   1      40.206  31.787  32.203  1.00  0.00     0.029 A 
ATOM     55  N   UNL A   1      40.762  32.663  30.249  1.00  0.00    -0.354 N 
ATOM     56  N   UNL A   1      43.812  30.740  30.059  1.00  0.00    -0.248 NA
ATOM     57  C   UNL A   1      45.760  30.906  28.855  1.00  0.00     0.031 C 
ATOM     58  C   UNL A   1      41.613  32.040  32.188  1.00  0.00     0.029 A 
ATOM     59  C   UNL A   1      41.944  32.588  30.962  1.00  0.00     0.049 A 
ATOM     60  H   UNL A   1      40.688  33.030  29.338  1.00  0.00     0.167 HD
ATOM     61  C   UNL A   1      44.040  32.076  29.884  1.00  0.00     0.074 A 
ATOM     62  C   UNL A   1      45.282  32.132  29.133  1.00  0.00     0.031 C 
ATOM     63  C   UNL A   1      43.176  33.035  30.325  1.00  0.00     0.034 A 
BRANCH  50  64
ATOM     64  C   UNL A   1      37.063  32.319  30.702  1.00  0.00     0.023 A 
ATOM     65  C   UNL A   1      36.220  33.178  29.961  1.00  0.00     0.031 A 
ATOM     66  C   UNL A   1      36.485  31.784  31.869  1.00  0.00     0.131 A 
ATOM     67  C   UNL A   1      34.893  33.444  30.337  1.00  0.00     0.055 A 
ATOM     68  C   UNL A   1      35.162  32.051  32.253  1.00  0.00     0.041 A 
ATOM     69  F   UNL A   1      37.163  30.943  32.665  1.00  0.00    -0.206 F 
ATOM     70  C   UNL A   1      34.354  32.878  31.483  1.00  0.00     0.022 A 
BRANCH  67  71
ATOM     71  S   UNL A   1      33.828  34.493  29.301  1.00  0.00     0.124 S 
ATOM     72  O   UNL A   1      34.783  35.451  28.748  1.00  0.00    -0.237 OA
ATOM     73  O   UNL A   1      33.281  33.535  28.344  1.00  0.00    -0.237 OA
ATOM     74  O   UNL A   1      32.863  35.057  30.240  1.00  0.00    -0.744 OA
ENDBRANCH  67  71
ENDBRANCH  50  64
BRANCH  51  75
ATOM     75  C   UNL A   1      45.165  27.803  28.100  1.00  0.00     0.023 A 
ATOM     76  C   UNL A   1      46.293  26.968  28.123  1.00  0.00     0.031 A 
ATOM     77  C   UNL A   1      44.665  28.217  26.847  1.00  0.00     0.131 A 
ATOM     78  C   UNL A   1      46.936  26.644  26.916  1.00  0.00     0.055 A 
ATOM     79  C   UNL A   1      45.308  27.890  25.653  1.00  0.00     0.041 A 
ATOM     80  F   UNL A   1      43.587  29.015  26.778  1.00  0.00    -0.206 F 
ATOM     81  C   UNL A   1      46.465  27.120  25.687  1.00  0.00     0.022 A 
BRANCH  78  82
ATOM     82  S   UNL A   1      48.505  25.734  26.910  1.00  0.00     0.124 S 
ATOM     83  O   UNL A   1      48.092  24.432  27.426  1.00  0.00    -0.237 OA
ATOM     84  O   UNL A   1      48.875  25.758  25.493  1.00  0.00    -0.237 OA
ATOM     85  O   UNL A   1      49.358  26.529  27.780  1.00  0.00    -0.744 OA
ENDBRANCH  78  82
ENDBRANCH  51  75
BRANCH  63  86
ATOM     86  C   UNL A   1      43.417  34.510  30.163  1.00  0.00     0.023 A 
ATOM     87  C   UNL A   1      43.740  35.297  31.291  1.00  0.00     0.031 A 
ATOM     88  C   UNL A   1      43.485  35.142  28.912  1.00  0.00     0.131 A 
ATOM     89  C   UNL A   1      44.100  36.641  31.158  1.00  0.00     0.055 A 
ATOM     90  C   UNL A   1      43.803  36.499  28.782  1.00  0.00     0.041 A 
ATOM     91  F   UNL A   1      43.291  34.451  27.777  1.00  0.00    -0.206 F 
ATOM     92  C   UNL A   1      44.118  37.253  29.908  1.00  0.00     0.022 A 
BRANCH  89  93
ATOM     93  S   UNL A   1      44.641  37.602  32.598  1.00  0.00     0.124 S 
ATOM     94  O   UNL A   1      43.415  37.676  33.390  1.00  0.00    -0.237 OA
ATOM     95  O   UNL A   1      45.688  36.748  33.149  1.00  0.00    -0.237 OA
ATOM     96  O   UNL A   1      45.094  38.865  32.028  1.00  0.00    -0.744 OA
ENDBRANCH  89  93
ENDBRANCH  63  86
ENDBRANCH  37  38
ENDBRANCH  30  32
ENDBRANCH  29  30
ENDBRANCH  28  29
ENDBRANCH  27  28
ENDBRANCH  26  27
ENDBRANCH   1  26
TORSDOF 22
ENDMDL
MODEL 2
REMARK VINA RESULT:     -10.6      4.548     10.301
REMARK SMILES Cc1cc(C(=O)N[C@H]2C=C[C@H](C(=O)OCCOCCOCCOC(=O)c3ccc(-c4c5nc(c(-c6cc(S(=O)(=O)[O-])ccc6F)c6ccc([nH]6)c(-c6cc(S(=O)(=O)[O-])ccc6F)c6nc(c(-c7cc(S(=O)(=O)[O-])ccc7F)c7ccc4[nH]7)C=C6)C=C5)cc3)C2)ccc1F
REMARK SMILES IDX 19 1 18 2 17 3 16 4 15 5 14 6 12 7 13 8 11 9 8 10 9 11 89 12
REMARK SMILES IDX 10 13 7 14 5 15 6 16 4 18 1 19 2 20 3 21 92 22 91 23 93 24
REMARK SMILES IDX 90 25 20 26 21 27 22 28 23 29 24 30 25 31 26 32 27 33 88 34
REMARK SMILES IDX 28 35 87 36 29 37 30 38 31 39 81 40 32 41 86 42 80 43 82 44
REMARK SMILES IDX 33 45 85 46 79 47 78 48 34 50 66 51 46 52 65 53 47 54 50 55
REMARK SMILES IDX 64 56 83 57 48 58 49 59 63 61 84 62 51 63 35 64 36 65 44 66
REMARK SMILES IDX 37 67 43 68 45 69 42 70 38 71 39 72 40 73 41 74 67 75 68 76
REMARK SMILES IDX 76 77 69 78 75 79 77 80 74 81 70 82 71 83 72 84 73 85 52 86
REMARK SMILES IDX 53 87 61 88 54 89 60 90 62 91 59 92 55 93 56 94 57 95 58 96
REMARK H PARENT 7 17 82 49 50 60
REMARK Flexibility Score: inf
ROOT
ATOM      1  C   UNL A   1      33.059  35.140  28.614  1.00  0.00     0.188 C 
ENDROOT
BRANCH   1   2
ATOM      2  C   UNL A   1      34.563  34.789  28.434  1.00  0.00     0.188 C 
BRANCH   2   3
ATOM      3  O   UNL A   1      35.052  33.499  28.791  1.00  0.00    -0.376 OA
BRANCH   3   4
ATOM      4  C   UNL A   1      35.011  32.467  27.811  1.00  0.00     0.202 C 
BRANCH   4   5
ATOM      5  C   UNL A   1      33.986  31.332  27.981  1.00  0.00     0.261 C 
BRANCH   5   6
ATOM      6  O   UNL A   1      34.096  30.342  26.944  1.00  0.00    -0.463 OA
BRANCH   6   7
ATOM      7  C   UNL A   1      33.209  29.314  26.988  1.00  0.00     0.312 C 
ATOM      8  O   UNL A   1      32.027  29.449  27.280  1.00  0.00    -0.252 OA
BRANCH   7   9
ATOM      9  C   UNL A   1      33.844  28.014  26.462  1.00  0.00     0.124 C 
ATOM     10  C   UNL A   1      32.509  27.612  24.511  1.00  0.00     0.106 C 
ATOM     11  C   UNL A   1      32.266  26.543  25.533  1.00  0.00    -0.006 C 
ATOM     12  C   UNL A   1      33.908  28.070  24.927  1.00  0.00     0.048 C 
ATOM     13  C   UNL A   1      32.971  26.803  26.645  1.00  0.00    -0.014 C 
BRANCH  10  14
ATOM     14  N   UNL A   1      32.388  27.135  23.167  1.00  0.00    -0.346 N 
ATOM     15  C   UNL A   1      31.343  27.226  22.275  1.00  0.00     0.251 C 
ATOM     16  O   UNL A   1      31.421  26.530  21.259  1.00  0.00    -0.269 OA
ATOM     17  H   UNL A   1      33.182  26.665  22.825  1.00  0.00     0.164 HD
BRANCH  15  18
ATOM     18  C   UNL A   1      30.154  28.134  22.430  1.00  0.00     0.040 A 
ATOM     19  C   UNL A   1      26.546  28.315  23.675  1.00  0.00     0.047 C 
ATOM     20  C   UNL A   1      27.855  28.716  23.063  1.00  0.00    -0.015 A 
ATOM     21  C   UNL A   1      28.869  27.763  22.848  1.00  0.00     0.020 A 
ATOM     22  C   UNL A   1      28.120  30.054  22.783  1.00  0.00     0.126 A 
ATOM     23  C   UNL A   1      29.362  30.447  22.304  1.00  0.00     0.040 A 
ATOM     24  F   UNL A   1      27.169  30.979  22.969  1.00  0.00    -0.207 F 
ATOM     25  C   UNL A   1      30.373  29.495  22.139  1.00  0.00     0.017 A 
ENDBRANCH  15  18
ENDBRANCH  10  14
ENDBRANCH   7   9
ENDBRANCH   6   7
ENDBRANCH   5   6
ENDBRANCH   4   5
ENDBRANCH   3   4
ENDBRANCH   2   3
ENDBRANCH   1   2
BRANCH   1  26
ATOM     26  O   UNL A   1      32.576  35.043  29.940  1.00  0.00    -0.376 OA
BRANCH  26  27
ATOM     27  C   UNL A   1      33.295  35.608  31.030  1.00  0.00     0.202 C 
BRANCH  27  28
ATOM     28  C   UNL A   1      34.005  34.807  32.133  1.00  0.00     0.261 C 
BRANCH  28  29
ATOM     29  O   UNL A   1      33.876  33.395  32.036  1.00  0.00    -0.460 OA
BRANCH  29  30
ATOM     30  C   UNL A   1      35.085  32.793  32.003  1.00  0.00     0.338 C 
ATOM     31  O   UNL A   1      35.338  31.676  31.580  1.00  0.00    -0.246 OA
BRANCH  30  32
ATOM     32  C   UNL A   1      36.150  33.694  32.473  1.00  0.00     0.060 A 
ATOM     33  C   UNL A   1      37.033  34.072  31.438  1.00  0.00     0.016 A 
ATOM     34  C   UNL A   1      36.610  33.288  33.719  1.00  0.00     0.016 A 
ATOM     35  C   UNL A   1      38.334  33.639  31.483  1.00  0.00     0.010 A 
ATOM     36  C   UNL A   1      37.901  32.826  33.756  1.00  0.00     0.010 A 
ATOM     37  C   UNL A   1      38.683  32.890  32.588  1.00  0.00    -0.014 A 
BRANCH  37  38
ATOM     38  C   UNL A   1      39.802  31.985  32.557  1.00  0.00     0.031 A 
ATOM     39  C   UNL A   1      39.621  30.686  31.920  1.00  0.00     0.074 A 
ATOM     40  C   UNL A   1      40.999  32.471  32.947  1.00  0.00     0.049 A 
ATOM     41  N   UNL A   1      40.510  29.762  31.913  1.00  0.00    -0.248 NA
ATOM     42  C   UNL A   1      38.356  30.301  31.298  1.00  0.00     0.031 C 
ATOM     43  C   UNL A   1      42.314  32.007  32.532  1.00  0.00     0.029 A 
ATOM     44  N   UNL A   1      41.261  33.374  33.986  1.00  0.00    -0.354 N 
ATOM     45  C   UNL A   1      40.085  28.829  31.000  1.00  0.00     0.074 A 
ATOM     46  C   UNL A   1      38.686  29.113  30.790  1.00  0.00     0.031 C 
ATOM     47  C   UNL A   1      43.213  32.414  33.442  1.00  0.00     0.029 A 
ATOM     48  C   UNL A   1      42.463  32.945  34.572  1.00  0.00     0.049 A 
ATOM     49  H   UNL A   1      40.715  34.151  34.250  1.00  0.00     0.167 HD
ATOM     50  C   UNL A   1      41.030  28.063  30.388  1.00  0.00     0.034 A 
ATOM     51  C   UNL A   1      42.547  32.470  35.851  1.00  0.00     0.034 A 
ATOM     52  C   UNL A   1      42.320  28.182  31.078  1.00  0.00     0.049 A 
ATOM     53  C   UNL A   1      43.052  31.037  35.933  1.00  0.00     0.074 A 
ATOM     54  C   UNL A   1      43.505  28.849  30.823  1.00  0.00     0.029 A 
ATOM     55  N   UNL A   1      42.379  27.803  32.414  1.00  0.00    -0.354 N 
ATOM     56  N   UNL A   1      43.259  30.270  34.898  1.00  0.00    -0.248 NA
ATOM     57  C   UNL A   1      43.271  30.326  37.193  1.00  0.00     0.031 C 
ATOM     58  C   UNL A   1      44.257  28.901  32.037  1.00  0.00     0.029 A 
ATOM     59  C   UNL A   1      43.542  28.242  33.020  1.00  0.00     0.049 A 
ATOM     60  H   UNL A   1      41.679  27.284  32.871  1.00  0.00     0.167 HD
ATOM     61  C   UNL A   1      43.562  29.003  35.309  1.00  0.00     0.074 A 
ATOM     62  C   UNL A   1      43.572  29.089  36.759  1.00  0.00     0.031 C 
ATOM     63  C   UNL A   1      43.739  27.969  34.438  1.00  0.00     0.034 A 
BRANCH  50  64
ATOM     64  C   UNL A   1      40.827  27.424  29.030  1.00  0.00     0.023 A 
ATOM     65  C   UNL A   1      41.700  27.596  27.932  1.00  0.00     0.031 A 
ATOM     66  C   UNL A   1      39.782  26.505  28.817  1.00  0.00     0.131 A 
ATOM     67  C   UNL A   1      41.562  26.873  26.735  1.00  0.00     0.055 A 
ATOM     68  C   UNL A   1      39.635  25.784  27.622  1.00  0.00     0.041 A 
ATOM     69  F   UNL A   1      38.883  26.230  29.775  1.00  0.00    -0.206 F 
ATOM     70  C   UNL A   1      40.531  25.959  26.575  1.00  0.00     0.022 A 
BRANCH  67  71
ATOM     71  S   UNL A   1      42.764  27.074  25.386  1.00  0.00     0.124 S 
ATOM     72  O   UNL A   1      42.240  28.240  24.678  1.00  0.00    -0.237 OA
ATOM     73  O   UNL A   1      44.013  27.294  26.110  1.00  0.00    -0.237 OA
ATOM     74  O   UNL A   1      42.684  25.817  24.648  1.00  0.00    -0.744 OA
ENDBRANCH  67  71
ENDBRANCH  50  64
BRANCH  51  75
ATOM     75  C   UNL A   1      41.571  33.065  36.803  1.00  0.00     0.023 A 
ATOM     76  C   UNL A   1      40.369  32.410  37.114  1.00  0.00     0.031 A 
ATOM     77  C   UNL A   1      41.688  34.435  37.125  1.00  0.00     0.131 A 
ATOM     78  C   UNL A   1      39.299  33.148  37.647  1.00  0.00     0.055 A 
ATOM     79  C   UNL A   1      40.620  35.160  37.655  1.00  0.00     0.041 A 
ATOM     80  F   UNL A   1      42.820  35.102  36.847  1.00  0.00    -0.206 F 
ATOM     81  C   UNL A   1      39.410  34.521  37.895  1.00  0.00     0.022 A 
BRANCH  78  82
ATOM     82  S   UNL A   1      37.667  32.389  37.879  1.00  0.00     0.124 S 
ATOM     83  O   UNL A   1      37.571  32.339  39.335  1.00  0.00    -0.237 OA
ATOM     84  O   UNL A   1      36.779  33.352  37.224  1.00  0.00    -0.237 OA
ATOM     85  O   UNL A   1      37.792  31.109  37.199  1.00  0.00    -0.744 OA
ENDBRANCH  78  82
ENDBRANCH  51  75
BRANCH  63  86
ATOM     86  C   UNL A   1      44.095  26.572  34.866  1.00  0.00     0.023 A 
ATOM     87  C   UNL A   1      45.446  26.230  35.093  1.00  0.00     0.031 A 
ATOM     88  C   UNL A   1      43.134  25.606  35.201  1.00  0.00     0.131 A 
ATOM     89  C   UNL A   1      45.800  24.983  35.618  1.00  0.00     0.055 A 
ATOM     90  C   UNL A   1      43.490  24.342  35.687  1.00  0.00     0.041 A 
ATOM     91  F   UNL A   1      41.821  25.875  35.113  1.00  0.00    -0.206 F 
ATOM     92  C   UNL A   1      44.828  24.028  35.902  1.00  0.00     0.022 A 
BRANCH  89  93
ATOM     93  S   UNL A   1      47.526  24.608  36.029  1.00  0.00     0.124 S 
ATOM     94  O   UNL A   1      47.975  25.864  36.626  1.00  0.00    -0.237 OA
ATOM     95  O   UNL A   1      47.375  23.494  36.960  1.00  0.00    -0.237 OA
ATOM     96  O   UNL A   1      48.129  24.276  34.744  1.00  0.00    -0.744 OA
ENDBRANCH  89  93
ENDBRANCH  63  86
ENDBRANCH  37  38
ENDBRANCH  30  32
ENDBRANCH  29  30
ENDBRANCH  28  29
ENDBRANCH  27  28
ENDBRANCH  26  27
ENDBRANCH   1  26
TORSDOF 22
ENDMDL
MODEL 3
REMARK VINA RESULT:     -10.4      4.479     10.225
REMARK SMILES Cc1cc(C(=O)N[C@H]2C=C[C@H](C(=O)OCCOCCOCCOC(=O)c3ccc(-c4c5nc(c(-c6cc(S(=O)(=O)[O-])ccc6F)c6ccc([nH]6)c(-c6cc(S(=O)(=O)[O-])ccc6F)c6nc(c(-c7cc(S(=O)(=O)[O-])ccc7F)c7ccc4[nH]7)C=C6)C=C5)cc3)C2)ccc1F
REMARK SMILES IDX 19 1 18 2 17 3 16 4 15 5 14 6 12 7 13 8 11 9 8 10 9 11 89 12
REMARK SMILES IDX 10 13 7 14 5 15 6 16 4 18 1 19 2 20 3 21 92 22 91 23 93 24
REMARK SMILES IDX 90 25 20 26 21 27 22 28 23 29 24 30 25 31 26 32 27 33 88 34
REMARK SMILES IDX 28 35 87 36 29 37 30 38 31 39 81 40 32 41 86 42 80 43 82 44
REMARK SMILES IDX 33 45 85 46 79 47 78 48 34 50 66 51 46 52 65 53 47 54 50 55
REMARK SMILES IDX 64 56 83 57 48 58 49 59 63 61 84 62 51 63 35 64 36 65 44 66
REMARK SMILES IDX 37 67 43 68 45 69 42 70 38 71 39 72 40 73 41 74 67 75 68 76
REMARK SMILES IDX 76 77 69 78 75 79 77 80 74 81 70 82 71 83 72 84 73 85 52 86
REMARK SMILES IDX 53 87 61 88 54 89 60 90 62 91 59 92 55 93 56 94 57 95 58 96
REMARK H PARENT 7 17 82 49 50 60
REMARK Flexibility Score: inf
ROOT
ATOM      1  C   UNL A   1      33.139  34.486  28.597  1.00  0.00     0.188 C 
ENDROOT
BRANCH   1   2
ATOM      2  C   UNL A   1      34.689  34.497  28.496  1.00  0.00     0.188 C 
BRANCH   2   3
ATOM      3  O   UNL A   1      35.446  33.343  28.854  1.00  0.00    -0.376 OA
BRANCH   3   4
ATOM      4  C   UNL A   1      35.652  32.339  27.865  1.00  0.00     0.202 C 
BRANCH   4   5
ATOM      5  C   UNL A   1      34.784  31.070  27.913  1.00  0.00     0.261 C 
BRANCH   5   6
ATOM      6  O   UNL A   1      35.317  30.017  27.092  1.00  0.00    -0.463 OA
BRANCH   6   7
ATOM      7  C   UNL A   1      34.429  29.101  26.627  1.00  0.00     0.312 C 
ATOM      8  O   UNL A   1      34.756  28.046  26.096  1.00  0.00    -0.252 OA
BRANCH   7   9
ATOM      9  C   UNL A   1      32.988  29.484  27.010  1.00  0.00     0.124 C 
ATOM     10  C   UNL A   1      31.801  27.506  26.353  1.00  0.00     0.106 C 
ATOM     11  C   UNL A   1      31.395  28.663  25.491  1.00  0.00    -0.006 C 
ATOM     12  C   UNL A   1      32.279  28.253  27.600  1.00  0.00     0.048 C 
ATOM     13  C   UNL A   1      32.103  29.754  25.824  1.00  0.00    -0.014 C 
BRANCH  10  14
ATOM     14  N   UNL A   1      30.740  26.569  26.563  1.00  0.00    -0.346 N 
ATOM     15  C   UNL A   1      30.738  25.193  26.520  1.00  0.00     0.251 C 
ATOM     16  O   UNL A   1      29.634  24.641  26.517  1.00  0.00    -0.269 OA
ATOM     17  H   UNL A   1      29.868  26.975  26.772  1.00  0.00     0.164 HD
BRANCH  15  18
ATOM     18  C   UNL A   1      31.970  24.329  26.522  1.00  0.00     0.040 A 
ATOM     19  C   UNL A   1      35.623  24.154  25.414  1.00  0.00     0.047 C 
ATOM     20  C   UNL A   1      34.302  23.762  26.007  1.00  0.00    -0.015 A 
ATOM     21  C   UNL A   1      33.172  24.586  25.848  1.00  0.00     0.020 A 
ATOM     22  C   UNL A   1      34.196  22.623  26.801  1.00  0.00     0.126 A 
ATOM     23  C   UNL A   1      33.002  22.303  27.430  1.00  0.00     0.040 A 
ATOM     24  F   UNL A   1      35.255  21.817  26.960  1.00  0.00    -0.207 F 
ATOM     25  C   UNL A   1      31.901  23.156  27.298  1.00  0.00     0.017 A 
ENDBRANCH  15  18
ENDBRANCH  10  14
ENDBRANCH   7   9
ENDBRANCH   6   7
ENDBRANCH   5   6
ENDBRANCH   4   5
ENDBRANCH   3   4
ENDBRANCH   2   3
ENDBRANCH   1   2
BRANCH   1  26
ATOM     26  O   UNL A   1      32.619  34.797  29.877  1.00  0.00    -0.376 OA
BRANCH  26  27
ATOM     27  C   UNL A   1      33.415  35.456  30.854  1.00  0.00     0.202 C 
BRANCH  27  28
ATOM     28  C   UNL A   1      33.688  34.933  32.273  1.00  0.00     0.261 C 
BRANCH  28  29
ATOM     29  O   UNL A   1      33.679  33.518  32.411  1.00  0.00    -0.460 OA
BRANCH  29  30
ATOM     30  C   UNL A   1      34.908  32.996  32.210  1.00  0.00     0.338 C 
ATOM     31  O   UNL A   1      35.181  31.964  31.619  1.00  0.00    -0.246 OA
BRANCH  30  32
ATOM     32  C   UNL A   1      35.962  33.886  32.727  1.00  0.00     0.060 A 
ATOM     33  C   UNL A   1      36.855  34.308  31.717  1.00  0.00     0.016 A 
ATOM     34  C   UNL A   1      36.411  33.435  33.962  1.00  0.00     0.016 A 
ATOM     35  C   UNL A   1      38.158  33.881  31.761  1.00  0.00     0.010 A 
ATOM     36  C   UNL A   1      37.704  32.979  33.996  1.00  0.00     0.010 A 
ATOM     37  C   UNL A   1      38.499  33.092  32.840  1.00  0.00    -0.014 A 
BRANCH  37  38
ATOM     38  C   UNL A   1      39.624  32.196  32.788  1.00  0.00     0.031 A 
ATOM     39  C   UNL A   1      39.448  30.906  32.132  1.00  0.00     0.074 A 
ATOM     40  C   UNL A   1      40.821  32.684  33.178  1.00  0.00     0.049 A 
ATOM     41  N   UNL A   1      40.343  29.988  32.105  1.00  0.00    -0.248 NA
ATOM     42  C   UNL A   1      38.181  30.522  31.513  1.00  0.00     0.031 C 
ATOM     43  C   UNL A   1      42.136  32.236  32.747  1.00  0.00     0.029 A 
ATOM     44  N   UNL A   1      41.083  33.573  34.229  1.00  0.00    -0.354 N 
ATOM     45  C   UNL A   1      39.918  29.067  31.180  1.00  0.00     0.074 A 
ATOM     46  C   UNL A   1      38.516  29.344  30.984  1.00  0.00     0.031 C 
ATOM     47  C   UNL A   1      43.038  32.635  33.657  1.00  0.00     0.029 A 
ATOM     48  C   UNL A   1      42.292  33.143  34.799  1.00  0.00     0.049 A 
ATOM     49  H   UNL A   1      40.534  34.341  34.508  1.00  0.00     0.167 HD
ATOM     50  C   UNL A   1      40.864  28.317  30.550  1.00  0.00     0.034 A 
ATOM     51  C   UNL A   1      42.388  32.649  36.070  1.00  0.00     0.034 A 
ATOM     52  C   UNL A   1      42.158  28.433  31.234  1.00  0.00     0.049 A 
ATOM     53  C   UNL A   1      42.904  31.218  36.127  1.00  0.00     0.074 A 
ATOM     54  C   UNL A   1      43.337  29.113  30.980  1.00  0.00     0.029 A 
ATOM     55  N   UNL A   1      42.229  28.034  32.562  1.00  0.00    -0.354 N 
ATOM     56  N   UNL A   1      43.108  30.469  35.079  1.00  0.00    -0.248 NA
ATOM     57  C   UNL A   1      43.136  30.489  37.375  1.00  0.00     0.031 C 
ATOM     58  C   UNL A   1      44.097  29.151  32.190  1.00  0.00     0.029 A 
ATOM     59  C   UNL A   1      43.393  28.472  33.168  1.00  0.00     0.049 A 
ATOM     60  H   UNL A   1      41.535  27.503  33.017  1.00  0.00     0.167 HD
ATOM     61  C   UNL A   1      43.423  29.198  35.468  1.00  0.00     0.074 A 
ATOM     62  C   UNL A   1      43.442  29.261  36.919  1.00  0.00     0.031 C 
ATOM     63  C   UNL A   1      43.601  28.178  34.580  1.00  0.00     0.034 A 
BRANCH  50  64
ATOM     64  C   UNL A   1      40.656  27.697  29.183  1.00  0.00     0.023 A 
ATOM     65  C   UNL A   1      41.489  27.937  28.068  1.00  0.00     0.031 A 
ATOM     66  C   UNL A   1      39.654  26.730  28.978  1.00  0.00     0.131 A 
ATOM     67  C   UNL A   1      41.355  27.234  26.859  1.00  0.00     0.055 A 
ATOM     68  C   UNL A   1      39.511  26.029  27.771  1.00  0.00     0.041 A 
ATOM     69  F   UNL A   1      38.796  26.390  29.952  1.00  0.00    -0.206 F 
ATOM     70  C   UNL A   1      40.367  26.271  26.705  1.00  0.00     0.022 A 
BRANCH  67  71
ATOM     71  S   UNL A   1      42.508  27.525  25.483  1.00  0.00     0.124 S 
ATOM     72  O   UNL A   1      42.303  26.341  24.653  1.00  0.00    -0.237 OA
ATOM     73  O   UNL A   1      42.012  28.777  24.918  1.00  0.00    -0.237 OA
ATOM     74  O   UNL A   1      43.816  27.607  26.127  1.00  0.00    -0.744 OA
ENDBRANCH  67  71
ENDBRANCH  50  64
BRANCH  51  75
ATOM     75  C   UNL A   1      41.414  33.223  37.039  1.00  0.00     0.023 A 
ATOM     76  C   UNL A   1      40.219  32.554  37.347  1.00  0.00     0.031 A 
ATOM     77  C   UNL A   1      41.524  34.588  37.381  1.00  0.00     0.131 A 
ATOM     78  C   UNL A   1      39.147  33.276  37.898  1.00  0.00     0.055 A 
ATOM     79  C   UNL A   1      40.455  35.298  37.929  1.00  0.00     0.041 A 
ATOM     80  F   UNL A   1      42.649  35.267  37.105  1.00  0.00    -0.206 F 
ATOM     81  C   UNL A   1      39.251  34.646  38.168  1.00  0.00     0.022 A 
BRANCH  78  82
ATOM     82  S   UNL A   1      37.522  32.503  38.130  1.00  0.00     0.124 S 
ATOM     83  O   UNL A   1      37.367  32.573  39.580  1.00  0.00    -0.237 OA
ATOM     84  O   UNL A   1      36.644  33.387  37.361  1.00  0.00    -0.237 OA
ATOM     85  O   UNL A   1      37.700  31.173  37.566  1.00  0.00    -0.744 OA
ENDBRANCH  78  82
ENDBRANCH  51  75
BRANCH  63  86
ATOM     86  C   UNL A   1      43.970  26.778  34.984  1.00  0.00     0.023 A 
ATOM     87  C   UNL A   1      45.317  26.458  35.261  1.00  0.00     0.031 A 
ATOM     88  C   UNL A   1      43.017  25.782  35.248  1.00  0.00     0.131 A 
ATOM     89  C   UNL A   1      45.676  25.205  35.766  1.00  0.00     0.055 A 
ATOM     90  C   UNL A   1      43.380  24.513  35.714  1.00  0.00     0.041 A 
ATOM     91  F   UNL A   1      41.704  26.026  35.109  1.00  0.00    -0.206 F 
ATOM     92  C   UNL A   1      44.714  24.221  35.980  1.00  0.00     0.022 A 
BRANCH  89  93
ATOM     93  S   UNL A   1      47.390  24.855  36.243  1.00  0.00     0.124 S 
ATOM     94  O   UNL A   1      47.220  24.256  37.566  1.00  0.00    -0.237 OA
ATOM     95  O   UNL A   1      47.810  23.933  35.192  1.00  0.00    -0.237 OA
ATOM     96  O   UNL A   1      48.034  26.163  36.226  1.00  0.00    -0.744 OA
ENDBRANCH  89  93
ENDBRANCH  63  86
ENDBRANCH  37  38
ENDBRANCH  30  32
ENDBRANCH  29  30
ENDBRANCH  28  29
ENDBRANCH  27  28
ENDBRANCH  26  27
ENDBRANCH   1  26
TORSDOF 22
ENDMDL
