MODEL 1
REMARK VINA RESULT:     -12.3      0.000      0.000
REMARK SMILES Cc1ccc(Nc2c(F)cccc2Cl)c(CC(=O)OCCOCCOCCOC(=O)c2ccc(-c3c4nc(c(-c5cc(S(=O)(=O)[O-])ccc5F)c5ccc([nH]5)c(-c5cc(S(=O)(=O)[O-])ccc5F)c5nc(c(-c6cc(S(=O)(=O)[O-])ccc6F)c6ccc3[nH]6)C=C5)C=C4)cc2)c1
REMARK SMILES IDX 23 1 22 2 21 3 20 4 19 5 17 6 18 7 16 8 15 9 1 10 2 11 3 12
REMARK SMILES IDX 94 13 4 14 5 15 6 16 7 18 8 19 13 20 9 21 10 22 12 23 14 24
REMARK SMILES IDX 11 25 24 26 25 27 26 28 27 29 28 30 29 31 30 32 31 33 32 34
REMARK SMILES IDX 93 35 33 36 92 37 34 38 35 39 36 40 86 41 37 42 91 43 85 44
REMARK SMILES IDX 87 45 38 46 90 47 84 48 83 49 39 51 71 52 51 53 70 54 52 55
REMARK SMILES IDX 55 56 69 57 88 58 53 59 54 60 68 62 89 63 56 64 40 65 41 66
REMARK SMILES IDX 49 67 42 68 48 69 50 70 47 71 43 72 44 73 45 74 46 75 72 76
REMARK SMILES IDX 73 77 81 78 74 79 80 80 82 81 79 82 75 83 76 84 77 85 78 86
REMARK SMILES IDX 57 87 58 88 66 89 59 90 65 91 67 92 64 93 60 94 61 95 62 96
REMARK SMILES IDX 63 97
REMARK H PARENT 6 17 87 50 55 61
REMARK Flexibility Score: inf
ROOT
ATOM      1  C   UNL A   1      39.894  22.634  26.845  1.00  0.00     0.188 C 
ENDROOT
BRANCH   1   2
ATOM      2  O   UNL A   1      39.055  21.822  26.061  1.00  0.00    -0.376 OA
BRANCH   2   3
ATOM      3  C   UNL A   1      37.813  22.288  25.596  1.00  0.00     0.202 C 
BRANCH   3   4
ATOM      4  C   UNL A   1      37.085  22.181  24.155  1.00  0.00     0.261 C 
BRANCH   4   5
ATOM      5  O   UNL A   1      35.795  23.026  23.224  1.00  0.00    -0.463 OA
BRANCH   5   6
ATOM      6  C   UNL A   1      34.547  24.077  23.273  1.00  0.00     0.310 C 
ATOM      7  O   UNL A   1      33.962  24.793  22.451  1.00  0.00    -0.252 OA
BRANCH   6   8
ATOM      8  C   UNL A   1      33.782  23.962  24.468  1.00  0.00     0.160 C 
BRANCH   8   9
ATOM      9  C   UNL A   1      32.533  23.343  23.932  1.00  0.00    -0.013 A 
ATOM     10  C   UNL A   1      33.455  19.679  24.416  1.00  0.00     0.044 C 
ATOM     11  C   UNL A   1      32.703  20.965  24.516  1.00  0.00    -0.051 A 
ATOM     12  C   UNL A   1      31.771  21.234  25.494  1.00  0.00     0.005 A 
ATOM     13  C   UNL A   1      33.015  22.000  23.665  1.00  0.00     0.009 A 
ATOM     14  C   UNL A   1      31.166  22.522  25.573  1.00  0.00     0.026 A 
ATOM     15  C   UNL A   1      31.365  23.789  24.603  1.00  0.00     0.042 A 
BRANCH  15  16
ATOM     16  N   UNL A   1      29.976  25.197  24.251  1.00  0.00    -0.352 N 
ATOM     17  H   UNL A   1      29.074  24.817  24.142  1.00  0.00     0.167 HD
BRANCH  16  18
ATOM     18  C   UNL A   1      29.991  27.010  24.088  1.00  0.00     0.094 A 
ATOM     19  C   UNL A   1      28.873  27.851  23.494  1.00  0.00     0.148 A 
ATOM     20  C   UNL A   1      31.188  27.735  24.157  1.00  0.00     0.067 A 
ATOM     21  F   UNL A   1      27.641  27.421  23.146  1.00  0.00    -0.205 F 
ATOM     22  C   UNL A   1      29.005  29.163  23.026  1.00  0.00     0.041 A 
ATOM     23  C   UNL A   1      31.298  29.051  23.596  1.00  0.00     0.023 A 
ATOM     24  Cl  UNL A   1      32.562  27.290  25.014  1.00  0.00    -0.082 Cl
ATOM     25  C   UNL A   1      30.240  29.747  23.015  1.00  0.00     0.005 A 
ENDBRANCH  16  18
ENDBRANCH  15  16
ENDBRANCH   8   9
ENDBRANCH   6   8
ENDBRANCH   5   6
ENDBRANCH   4   5
ENDBRANCH   3   4
ENDBRANCH   2   3
ENDBRANCH   1   2
BRANCH   1  26
ATOM     26  C   UNL A   1      41.024  22.047  27.683  1.00  0.00     0.188 C 
BRANCH  26  27
ATOM     27  O   UNL A   1      41.638  22.928  28.602  1.00  0.00    -0.376 OA
BRANCH  27  28
ATOM     28  C   UNL A   1      43.058  22.791  28.680  1.00  0.00     0.202 C 
BRANCH  28  29
ATOM     29  C   UNL A   1      43.966  23.258  27.454  1.00  0.00     0.261 C 
BRANCH  29  30
ATOM     30  O   UNL A   1      43.652  24.587  26.843  1.00  0.00    -0.460 OA
BRANCH  30  31
ATOM     31  C   UNL A   1      42.760  24.802  25.765  1.00  0.00     0.338 C 
ATOM     32  O   UNL A   1      42.518  23.875  25.015  1.00  0.00    -0.246 OA
BRANCH  31  33
ATOM     33  C   UNL A   1      42.158  26.356  25.744  1.00  0.00     0.060 A 
ATOM     34  C   UNL A   1      42.760  28.218  25.819  1.00  0.00     0.016 A 
ATOM     35  C   UNL A   1      40.983  25.914  27.041  1.00  0.00     0.016 A 
ATOM     36  C   UNL A   1      42.239  29.268  27.310  1.00  0.00     0.010 A 
ATOM     37  C   UNL A   1      40.665  26.960  28.400  1.00  0.00     0.010 A 
ATOM     38  C   UNL A   1      41.196  28.644  28.684  1.00  0.00    -0.014 A 
BRANCH  38  39
ATOM     39  C   UNL A   1      40.323  29.411  30.170  1.00  0.00     0.031 A 
ATOM     40  C   UNL A   1      39.060  30.842  30.213  1.00  0.00     0.074 A 
ATOM     41  C   UNL A   1      40.244  28.789  31.369  1.00  0.00     0.049 A 
ATOM     42  N   UNL A   1      39.180  32.021  30.802  1.00  0.00    -0.248 NA
ATOM     43  C   UNL A   1      37.835  31.159  29.152  1.00  0.00     0.031 C 
ATOM     44  C   UNL A   1      39.244  29.045  32.424  1.00  0.00     0.029 A 
ATOM     45  N   UNL A   1      40.978  27.731  31.889  1.00  0.00    -0.354 N 
ATOM     46  C   UNL A   1      38.146  32.877  30.281  1.00  0.00     0.074 A 
ATOM     47  C   UNL A   1      37.843  32.459  28.977  1.00  0.00     0.031 C 
ATOM     48  C   UNL A   1      39.603  28.394  33.546  1.00  0.00     0.029 A 
ATOM     49  C   UNL A   1      40.912  27.826  33.295  1.00  0.00     0.049 A 
ATOM     50  H   UNL A   1      41.454  27.041  31.372  1.00  0.00     0.167 HD
ATOM     51  C   UNL A   1      37.140  33.416  31.042  1.00  0.00     0.034 A 
ATOM     52  C   UNL A   1      42.064  28.133  33.947  1.00  0.00     0.034 A 
ATOM     53  C   UNL A   1      37.362  32.959  32.390  1.00  0.00     0.049 A 
ATOM     54  C   UNL A   1      41.987  29.588  34.402  1.00  0.00     0.074 A 
ATOM     55  C   UNL A   1      36.819  31.966  33.182  1.00  0.00     0.029 A 
ATOM     56  N   UNL A   1      38.613  33.225  32.895  1.00  0.00    -0.354 N 
ATOM     57  N   UNL A   1      41.080  30.438  33.975  1.00  0.00    -0.248 NA
ATOM     58  C   UNL A   1      42.787  30.157  35.478  1.00  0.00     0.031 C 
ATOM     59  C   UNL A   1      37.820  31.607  34.145  1.00  0.00     0.029 A 
ATOM     60  C   UNL A   1      38.944  32.389  33.928  1.00  0.00     0.049 A 
ATOM     61  H   UNL A   1      39.203  33.936  32.554  1.00  0.00     0.167 HD
ATOM     62  C   UNL A   1      41.109  31.586  34.708  1.00  0.00     0.074 A 
ATOM     63  C   UNL A   1      42.210  31.365  35.631  1.00  0.00     0.031 C 
ATOM     64  C   UNL A   1      40.233  32.629  34.547  1.00  0.00     0.034 A 
BRANCH  51  65
ATOM     65  C   UNL A   1      35.810  33.980  30.494  1.00  0.00     0.023 A 
ATOM     66  C   UNL A   1      34.917  34.579  31.399  1.00  0.00     0.031 A 
ATOM     67  C   UNL A   1      35.366  34.004  29.141  1.00  0.00     0.131 A 
ATOM     68  C   UNL A   1      33.672  35.105  30.984  1.00  0.00     0.055 A 
ATOM     69  C   UNL A   1      34.088  34.438  28.741  1.00  0.00     0.041 A 
ATOM     70  F   UNL A   1      36.168  33.668  28.117  1.00  0.00    -0.206 F 
ATOM     71  C   UNL A   1      33.233  35.006  29.667  1.00  0.00     0.022 A 
BRANCH  68  72
ATOM     72  S   UNL A   1      32.675  36.021  32.188  1.00  0.00     0.124 S 
ATOM     73  O   UNL A   1      31.614  35.068  32.489  1.00  0.00    -0.237 OA
ATOM     74  O   UNL A   1      33.639  36.279  33.252  1.00  0.00    -0.237 OA
ATOM     75  O   UNL A   1      32.251  37.208  31.446  1.00  0.00    -0.744 OA
ENDBRANCH  68  72
ENDBRANCH  51  65
BRANCH  52  76
ATOM     76  C   UNL A   1      43.172  27.280  33.381  1.00  0.00     0.023 A 
ATOM     77  C   UNL A   1      44.221  27.987  32.713  1.00  0.00     0.031 A 
ATOM     78  C   UNL A   1      43.499  26.017  33.902  1.00  0.00     0.131 A 
ATOM     79  C   UNL A   1      45.534  27.480  32.661  1.00  0.00     0.055 A 
ATOM     80  C   UNL A   1      44.804  25.496  33.805  1.00  0.00     0.041 A 
ATOM     81  F   UNL A   1      42.612  25.331  34.637  1.00  0.00    -0.206 F 
ATOM     82  C   UNL A   1      45.820  26.217  33.171  1.00  0.00     0.022 A 
BRANCH  79  83
ATOM     83  S   UNL A   1      46.899  28.600  32.161  1.00  0.00     0.124 S 
ATOM     84  O   UNL A   1      47.784  28.550  33.320  1.00  0.00    -0.237 OA
ATOM     85  O   UNL A   1      47.406  27.958  30.950  1.00  0.00    -0.237 OA
ATOM     86  O   UNL A   1      46.246  29.889  31.943  1.00  0.00    -0.744 OA
ENDBRANCH  79  83
ENDBRANCH  52  76
BRANCH  64  87
ATOM     87  C   UNL A   1      40.554  34.060  34.939  1.00  0.00     0.023 A 
ATOM     88  C   UNL A   1      41.529  34.783  34.263  1.00  0.00     0.031 A 
ATOM     89  C   UNL A   1      39.813  34.795  35.908  1.00  0.00     0.131 A 
ATOM     90  C   UNL A   1      41.868  36.075  34.667  1.00  0.00     0.055 A 
ATOM     91  C   UNL A   1      40.019  36.149  36.162  1.00  0.00     0.041 A 
ATOM     92  F   UNL A   1      38.848  34.242  36.658  1.00  0.00    -0.206 F 
ATOM     93  C   UNL A   1      41.094  36.789  35.576  1.00  0.00     0.022 A 
BRANCH  90  94
ATOM     94  S   UNL A   1      43.477  36.681  34.128  1.00  0.00     0.124 S 
ATOM     95  O   UNL A   1      44.357  35.599  34.566  1.00  0.00    -0.237 OA
ATOM     96  O   UNL A   1      43.302  36.807  32.686  1.00  0.00    -0.237 OA
ATOM     97  O   UNL A   1      43.629  37.938  34.857  1.00  0.00    -0.744 OA
ENDBRANCH  90  94
ENDBRANCH  64  87
ENDBRANCH  38  39
ENDBRANCH  31  33
ENDBRANCH  30  31
ENDBRANCH  29  30
ENDBRANCH  28  29
ENDBRANCH  27  28
ENDBRANCH  26  27
ENDBRANCH   1  26
TORSDOF 23
ENDMDL
MODEL 2
REMARK VINA RESULT:     -12.1      2.283      3.778
REMARK SMILES Cc1ccc(Nc2c(F)cccc2Cl)c(CC(=O)OCCOCCOCCOC(=O)c2ccc(-c3c4nc(c(-c5cc(S(=O)(=O)[O-])ccc5F)c5ccc([nH]5)c(-c5cc(S(=O)(=O)[O-])ccc5F)c5nc(c(-c6cc(S(=O)(=O)[O-])ccc6F)c6ccc3[nH]6)C=C5)C=C4)cc2)c1
REMARK SMILES IDX 23 1 22 2 21 3 20 4 19 5 17 6 18 7 16 8 15 9 1 10 2 11 3 12
REMARK SMILES IDX 94 13 4 14 5 15 6 16 7 18 8 19 13 20 9 21 10 22 12 23 14 24
REMARK SMILES IDX 11 25 24 26 25 27 26 28 27 29 28 30 29 31 30 32 31 33 32 34
REMARK SMILES IDX 93 35 33 36 92 37 34 38 35 39 36 40 86 41 37 42 91 43 85 44
REMARK SMILES IDX 87 45 38 46 90 47 84 48 83 49 39 51 71 52 51 53 70 54 52 55
REMARK SMILES IDX 55 56 69 57 88 58 53 59 54 60 68 62 89 63 56 64 40 65 41 66
REMARK SMILES IDX 49 67 42 68 48 69 50 70 47 71 43 72 44 73 45 74 46 75 72 76
REMARK SMILES IDX 73 77 81 78 74 79 80 80 82 81 79 82 75 83 76 84 77 85 78 86
REMARK SMILES IDX 57 87 58 88 66 89 59 90 65 91 67 92 64 93 60 94 61 95 62 96
REMARK SMILES IDX 63 97
REMARK H PARENT 6 17 87 50 55 61
REMARK Flexibility Score: inf
ROOT
ATOM      1  C   UNL A   1      39.580  22.881  26.528  1.00  0.00     0.188 C 
ENDROOT
BRANCH   1   2
ATOM      2  O   UNL A   1      38.524  22.199  25.898  1.00  0.00    -0.376 OA
BRANCH   2   3
ATOM      3  C   UNL A   1      37.477  22.894  25.269  1.00  0.00     0.202 C 
BRANCH   3   4
ATOM      4  C   UNL A   1      36.597  22.569  23.951  1.00  0.00     0.261 C 
BRANCH   4   5
ATOM      5  O   UNL A   1      35.421  23.400  22.868  1.00  0.00    -0.463 OA
BRANCH   5   6
ATOM      6  C   UNL A   1      34.224  24.503  22.750  1.00  0.00     0.310 C 
ATOM      7  O   UNL A   1      34.008  25.502  22.052  1.00  0.00    -0.252 OA
BRANCH   6   8
ATOM      8  C   UNL A   1      33.033  24.091  23.414  1.00  0.00     0.160 C 
BRANCH   8   9
ATOM      9  C   UNL A   1      33.546  23.914  24.805  1.00  0.00    -0.013 A 
ATOM     10  C   UNL A   1      32.102  27.077  26.358  1.00  0.00     0.044 C 
ATOM     11  C   UNL A   1      32.398  25.632  26.129  1.00  0.00    -0.051 A 
ATOM     12  C   UNL A   1      31.625  24.604  26.622  1.00  0.00     0.005 A 
ATOM     13  C   UNL A   1      33.429  25.277  25.290  1.00  0.00     0.009 A 
ATOM     14  C   UNL A   1      31.925  23.254  26.278  1.00  0.00     0.026 A 
ATOM     15  C   UNL A   1      33.139  22.687  25.390  1.00  0.00     0.042 A 
BRANCH  15  16
ATOM     16  N   UNL A   1      33.972  20.871  25.607  1.00  0.00    -0.352 N 
ATOM     17  H   UNL A   1      34.423  20.765  26.475  1.00  0.00     0.167 HD
BRANCH  16  18
ATOM     18  C   UNL A   1      34.087  19.375  24.576  1.00  0.00     0.094 A 
ATOM     19  C   UNL A   1      32.917  18.674  23.905  1.00  0.00     0.148 A 
ATOM     20  C   UNL A   1      35.215  18.544  24.626  1.00  0.00     0.067 A 
ATOM     21  F   UNL A   1      31.647  19.125  23.827  1.00  0.00    -0.205 F 
ATOM     22  C   UNL A   1      32.922  17.357  23.433  1.00  0.00     0.041 A 
ATOM     23  C   UNL A   1      35.153  17.175  24.200  1.00  0.00     0.023 A 
ATOM     24  Cl  UNL A   1      36.779  19.026  25.001  1.00  0.00    -0.082 Cl
ATOM     25  C   UNL A   1      34.025  16.577  23.640  1.00  0.00     0.005 A 
ENDBRANCH  16  18
ENDBRANCH  15  16
ENDBRANCH   8   9
ENDBRANCH   6   8
ENDBRANCH   5   6
ENDBRANCH   4   5
ENDBRANCH   3   4
ENDBRANCH   2   3
ENDBRANCH   1   2
BRANCH   1  26
ATOM     26  C   UNL A   1      40.656  22.142  27.316  1.00  0.00     0.188 C 
BRANCH  26  27
ATOM     27  O   UNL A   1      41.353  22.905  28.281  1.00  0.00    -0.376 OA
BRANCH  27  28
ATOM     28  C   UNL A   1      42.758  22.648  28.321  1.00  0.00     0.202 C 
BRANCH  28  29
ATOM     29  C   UNL A   1      43.739  23.462  27.361  1.00  0.00     0.261 C 
BRANCH  29  30
ATOM     30  O   UNL A   1      43.355  24.870  27.033  1.00  0.00    -0.460 OA
BRANCH  30  31
ATOM     31  C   UNL A   1      42.621  25.272  25.891  1.00  0.00     0.338 C 
ATOM     32  O   UNL A   1      42.451  24.468  24.995  1.00  0.00    -0.246 OA
BRANCH  31  33
ATOM     33  C   UNL A   1      42.078  26.844  26.012  1.00  0.00     0.060 A 
ATOM     34  C   UNL A   1      42.751  28.670  26.221  1.00  0.00     0.016 A 
ATOM     35  C   UNL A   1      40.919  26.339  27.302  1.00  0.00     0.016 A 
ATOM     36  C   UNL A   1      42.307  29.613  27.806  1.00  0.00     0.010 A 
ATOM     37  C   UNL A   1      40.674  27.281  28.749  1.00  0.00     0.010 A 
ATOM     38  C   UNL A   1      41.275  28.916  29.153  1.00  0.00    -0.014 A 
BRANCH  38  39
ATOM     39  C   UNL A   1      40.468  29.589  30.719  1.00  0.00     0.031 A 
ATOM     40  C   UNL A   1      39.190  30.997  30.902  1.00  0.00     0.074 A 
ATOM     41  C   UNL A   1      40.458  28.904  31.886  1.00  0.00     0.049 A 
ATOM     42  N   UNL A   1      39.325  32.144  31.547  1.00  0.00    -0.248 NA
ATOM     43  C   UNL A   1      37.910  31.350  29.922  1.00  0.00     0.031 C 
ATOM     44  C   UNL A   1      39.508  29.088  33.002  1.00  0.00     0.029 A 
ATOM     45  N   UNL A   1      41.230  27.831  32.312  1.00  0.00    -0.354 N 
ATOM     46  C   UNL A   1      38.256  33.011  31.125  1.00  0.00     0.074 A 
ATOM     47  C   UNL A   1      37.893  32.657  29.817  1.00  0.00     0.031 C 
ATOM     48  C   UNL A   1      39.932  28.384  34.068  1.00  0.00     0.029 A 
ATOM     49  C   UNL A   1      41.235  27.851  33.722  1.00  0.00     0.049 A 
ATOM     50  H   UNL A   1      41.688  27.177  31.735  1.00  0.00     0.167 HD
ATOM     51  C   UNL A   1      37.282  33.493  31.962  1.00  0.00     0.034 A 
ATOM     52  C   UNL A   1      42.413  28.140  34.332  1.00  0.00     0.034 A 
ATOM     53  C   UNL A   1      37.577  32.969  33.271  1.00  0.00     0.049 A 
ATOM     54  C   UNL A   1      42.341  29.568  34.867  1.00  0.00     0.074 A 
ATOM     55  C   UNL A   1      37.088  31.926  34.035  1.00  0.00     0.029 A 
ATOM     56  N   UNL A   1      38.849  33.227  33.727  1.00  0.00    -0.354 N 
ATOM     57  N   UNL A   1      41.403  30.425  34.532  1.00  0.00    -0.248 NA
ATOM     58  C   UNL A   1      43.187  30.091  35.932  1.00  0.00     0.031 C 
ATOM     59  C   UNL A   1      38.140  31.533  34.927  1.00  0.00     0.029 A 
ATOM     60  C   UNL A   1      39.242  32.342  34.696  1.00  0.00     0.049 A 
ATOM     61  H   UNL A   1      39.412  33.964  33.395  1.00  0.00     0.167 HD
ATOM     62  C   UNL A   1      41.454  31.533  35.324  1.00  0.00     0.074 A 
ATOM     63  C   UNL A   1      42.603  31.281  36.177  1.00  0.00     0.031 C 
ATOM     64  C   UNL A   1      40.558  32.569  35.262  1.00  0.00     0.034 A 
BRANCH  51  65
ATOM     65  C   UNL A   1      35.919  34.065  31.513  1.00  0.00     0.023 A 
ATOM     66  C   UNL A   1      35.499  33.829  30.192  1.00  0.00     0.031 A 
ATOM     67  C   UNL A   1      34.983  34.799  32.295  1.00  0.00     0.131 A 
ATOM     68  C   UNL A   1      34.275  34.330  29.695  1.00  0.00     0.055 A 
ATOM     69  C   UNL A   1      33.811  35.381  31.776  1.00  0.00     0.041 A 
ATOM     70  F   UNL A   1      35.114  34.942  33.624  1.00  0.00    -0.206 F 
ATOM     71  C   UNL A   1      33.443  35.138  30.466  1.00  0.00     0.022 A 
BRANCH  68  72
ATOM     72  S   UNL A   1      33.736  33.818  28.044  1.00  0.00     0.124 S 
ATOM     73  O   UNL A   1      34.630  34.583  27.183  1.00  0.00    -0.237 OA
ATOM     74  O   UNL A   1      33.950  32.375  28.085  1.00  0.00    -0.237 OA
ATOM     75  O   UNL A   1      32.332  34.228  28.001  1.00  0.00    -0.744 OA
ENDBRANCH  68  72
ENDBRANCH  51  65
BRANCH  52  76
ATOM     76  C   UNL A   1      43.502  27.336  33.666  1.00  0.00     0.023 A 
ATOM     77  C   UNL A   1      44.507  28.093  32.985  1.00  0.00     0.031 A 
ATOM     78  C   UNL A   1      43.872  26.053  34.102  1.00  0.00     0.131 A 
ATOM     79  C   UNL A   1      45.822  27.611  32.841  1.00  0.00     0.055 A 
ATOM     80  C   UNL A   1      45.177  25.557  33.912  1.00  0.00     0.041 A 
ATOM     81  F   UNL A   1      43.032  25.315  34.842  1.00  0.00    -0.206 F 
ATOM     82  C   UNL A   1      46.150  26.327  33.268  1.00  0.00     0.022 A 
BRANCH  79  83
ATOM     83  S   UNL A   1      47.145  28.776  32.334  1.00  0.00     0.124 S 
ATOM     84  O   UNL A   1      47.922  27.976  31.393  1.00  0.00    -0.237 OA
ATOM     85  O   UNL A   1      46.387  29.880  31.750  1.00  0.00    -0.237 OA
ATOM     86  O   UNL A   1      47.837  29.100  33.580  1.00  0.00    -0.744 OA
ENDBRANCH  79  83
ENDBRANCH  52  76
BRANCH  64  87
ATOM     87  C   UNL A   1      40.880  33.982  35.714  1.00  0.00     0.023 A 
ATOM     88  C   UNL A   1      41.577  34.854  34.887  1.00  0.00     0.031 A 
ATOM     89  C   UNL A   1      40.392  34.550  36.925  1.00  0.00     0.131 A 
ATOM     90  C   UNL A   1      41.928  36.130  35.329  1.00  0.00     0.055 A 
ATOM     91  C   UNL A   1      40.571  35.890  37.267  1.00  0.00     0.041 A 
ATOM     92  F   UNL A   1      39.715  33.842  37.840  1.00  0.00    -0.206 F 
ATOM     93  C   UNL A   1      41.394  36.680  36.490  1.00  0.00     0.022 A 
BRANCH  90  94
ATOM     94  S   UNL A   1      43.278  36.934  34.447  1.00  0.00     0.124 S 
ATOM     95  O   UNL A   1      43.597  35.934  33.429  1.00  0.00    -0.237 OA
ATOM     96  O   UNL A   1      42.653  38.157  33.956  1.00  0.00    -0.237 OA
ATOM     97  O   UNL A   1      44.297  37.117  35.478  1.00  0.00    -0.744 OA
ENDBRANCH  90  94
ENDBRANCH  64  87
ENDBRANCH  38  39
ENDBRANCH  31  33
ENDBRANCH  30  31
ENDBRANCH  29  30
ENDBRANCH  28  29
ENDBRANCH  27  28
ENDBRANCH  26  27
ENDBRANCH   1  26
TORSDOF 23
ENDMDL
MODEL 3
REMARK VINA RESULT:     -11.7      5.779     12.509
REMARK SMILES Cc1ccc(Nc2c(F)cccc2Cl)c(CC(=O)OCCOCCOCCOC(=O)c2ccc(-c3c4nc(c(-c5cc(S(=O)(=O)[O-])ccc5F)c5ccc([nH]5)c(-c5cc(S(=O)(=O)[O-])ccc5F)c5nc(c(-c6cc(S(=O)(=O)[O-])ccc6F)c6ccc3[nH]6)C=C5)C=C4)cc2)c1
REMARK SMILES IDX 23 1 22 2 21 3 20 4 19 5 17 6 18 7 16 8 15 9 1 10 2 11 3 12
REMARK SMILES IDX 94 13 4 14 5 15 6 16 7 18 8 19 13 20 9 21 10 22 12 23 14 24
REMARK SMILES IDX 11 25 24 26 25 27 26 28 27 29 28 30 29 31 30 32 31 33 32 34
REMARK SMILES IDX 93 35 33 36 92 37 34 38 35 39 36 40 86 41 37 42 91 43 85 44
REMARK SMILES IDX 87 45 38 46 90 47 84 48 83 49 39 51 71 52 51 53 70 54 52 55
REMARK SMILES IDX 55 56 69 57 88 58 53 59 54 60 68 62 89 63 56 64 40 65 41 66
REMARK SMILES IDX 49 67 42 68 48 69 50 70 47 71 43 72 44 73 45 74 46 75 72 76
REMARK SMILES IDX 73 77 81 78 74 79 80 80 82 81 79 82 75 83 76 84 77 85 78 86
REMARK SMILES IDX 57 87 58 88 66 89 59 90 65 91 67 92 64 93 60 94 61 95 62 96
REMARK SMILES IDX 63 97
REMARK H PARENT 6 17 87 50 55 61
REMARK Flexibility Score: inf
ROOT
ATOM      1  C   UNL A   1      42.854  30.031  33.899  1.00  0.00     0.188 C 
ENDROOT
BRANCH   1   2
ATOM      2  O   UNL A   1      42.277  31.213  34.399  1.00  0.00    -0.376 OA
BRANCH   2   3
ATOM      3  C   UNL A   1      41.064  31.707  33.891  1.00  0.00     0.202 C 
BRANCH   3   4
ATOM      4  C   UNL A   1      40.400  31.644  32.417  1.00  0.00     0.261 C 
BRANCH   4   5
ATOM      5  O   UNL A   1      39.163  32.529  31.450  1.00  0.00    -0.463 OA
BRANCH   5   6
ATOM      6  C   UNL A   1      38.836  33.834  30.527  1.00  0.00     0.310 C 
ATOM      7  O   UNL A   1      39.481  34.553  29.753  1.00  0.00    -0.252 OA
BRANCH   6   8
ATOM      8  C   UNL A   1      37.439  34.053  30.362  1.00  0.00     0.160 C 
BRANCH   8   9
ATOM      9  C   UNL A   1      36.907  33.302  31.538  1.00  0.00    -0.013 A 
ATOM     10  C   UNL A   1      34.680  36.024  32.999  1.00  0.00     0.044 C 
ATOM     11  C   UNL A   1      35.107  34.711  32.430  1.00  0.00    -0.051 A 
ATOM     12  C   UNL A   1      34.240  33.804  31.862  1.00  0.00     0.005 A 
ATOM     13  C   UNL A   1      36.447  34.410  32.355  1.00  0.00     0.009 A 
ATOM     14  C   UNL A   1      34.742  32.615  31.257  1.00  0.00     0.026 A 
ATOM     15  C   UNL A   1      36.260  32.092  31.173  1.00  0.00     0.042 A 
BRANCH  15  16
ATOM     16  N   UNL A   1      36.808  30.161  31.081  1.00  0.00    -0.352 N 
ATOM     17  H   UNL A   1      36.238  29.582  31.637  1.00  0.00     0.167 HD
BRANCH  16  18
ATOM     18  C   UNL A   1      38.108  29.230  30.211  1.00  0.00     0.094 A 
ATOM     19  C   UNL A   1      38.556  29.472  28.778  1.00  0.00     0.148 A 
ATOM     20  C   UNL A   1      38.537  27.979  30.672  1.00  0.00     0.067 A 
ATOM     21  F   UNL A   1      38.189  30.499  27.983  1.00  0.00    -0.205 F 
ATOM     22  C   UNL A   1      39.264  28.562  27.985  1.00  0.00     0.041 A 
ATOM     23  C   UNL A   1      39.194  27.047  29.800  1.00  0.00     0.023 A 
ATOM     24  Cl  UNL A   1      38.520  27.457  32.268  1.00  0.00    -0.082 Cl
ATOM     25  C   UNL A   1      39.529  27.315  28.474  1.00  0.00     0.005 A 
ENDBRANCH  16  18
ENDBRANCH  15  16
ENDBRANCH   8   9
ENDBRANCH   6   8
ENDBRANCH   5   6
ENDBRANCH   4   5
ENDBRANCH   3   4
ENDBRANCH   2   3
ENDBRANCH   1   2
BRANCH   1  26
ATOM     26  C   UNL A   1      42.171  28.677  34.055  1.00  0.00     0.188 C 
BRANCH  26  27
ATOM     27  O   UNL A   1      42.548  27.918  35.186  1.00  0.00    -0.376 OA
BRANCH  27  28
ATOM     28  C   UNL A   1      41.720  26.779  35.425  1.00  0.00     0.202 C 
BRANCH  28  29
ATOM     29  C   UNL A   1      41.849  25.980  36.800  1.00  0.00     0.261 C 
BRANCH  29  30
ATOM     30  O   UNL A   1      43.156  26.076  37.522  1.00  0.00    -0.460 OA
BRANCH  30  31
ATOM     31  C   UNL A   1      44.266  25.223  37.319  1.00  0.00     0.338 C 
ATOM     32  O   UNL A   1      44.257  24.121  37.836  1.00  0.00    -0.246 OA
BRANCH  31  33
ATOM     33  C   UNL A   1      45.423  25.914  36.338  1.00  0.00     0.060 A 
ATOM     34  C   UNL A   1      46.106  27.668  35.802  1.00  0.00     0.016 A 
ATOM     35  C   UNL A   1      44.853  24.897  34.959  1.00  0.00     0.016 A 
ATOM     36  C   UNL A   1      45.912  28.190  33.989  1.00  0.00     0.010 A 
ATOM     37  C   UNL A   1      44.649  25.545  33.352  1.00  0.00     0.010 A 
ATOM     38  C   UNL A   1      45.126  27.141  32.704  1.00  0.00    -0.014 A 
BRANCH  38  39
ATOM     39  C   UNL A   1      44.948  27.215  30.827  1.00  0.00     0.031 A 
ATOM     40  C   UNL A   1      44.846  25.779  29.573  1.00  0.00     0.074 A 
ATOM     41  C   UNL A   1      44.527  28.326  30.179  1.00  0.00     0.049 A 
ATOM     42  N   UNL A   1      45.683  25.491  28.590  1.00  0.00    -0.248 NA
ATOM     43  C   UNL A   1      44.058  24.337  29.731  1.00  0.00     0.031 C 
ATOM     44  C   UNL A   1      43.923  28.379  28.833  1.00  0.00     0.029 A 
ATOM     45  N   UNL A   1      44.458  29.648  30.600  1.00  0.00    -0.354 N 
ATOM     46  C   UNL A   1      45.392  24.153  28.146  1.00  0.00     0.074 A 
ATOM     47  C   UNL A   1      44.867  23.434  29.230  1.00  0.00     0.031 C 
ATOM     48  C   UNL A   1      43.825  29.662  28.438  1.00  0.00     0.029 A 
ATOM     49  C   UNL A   1      44.495  30.458  29.446  1.00  0.00     0.049 A 
ATOM     50  H   UNL A   1      44.393  29.960  31.532  1.00  0.00     0.167 HD
ATOM     51  C   UNL A   1      44.952  23.841  26.885  1.00  0.00     0.034 A 
ATOM     52  C   UNL A   1      45.603  31.223  29.265  1.00  0.00     0.034 A 
ATOM     53  C   UNL A   1      44.872  25.085  26.164  1.00  0.00     0.049 A 
ATOM     54  C   UNL A   1      46.454  30.589  28.169  1.00  0.00     0.074 A 
ATOM     55  C   UNL A   1      43.847  25.947  25.821  1.00  0.00     0.029 A 
ATOM     56  N   UNL A   1      46.030  25.829  26.157  1.00  0.00    -0.354 N 
ATOM     57  N   UNL A   1      46.260  29.373  27.708  1.00  0.00    -0.248 NA
ATOM     58  C   UNL A   1      47.457  31.302  27.390  1.00  0.00     0.031 C 
ATOM     59  C   UNL A   1      44.431  27.249  25.667  1.00  0.00     0.029 A 
ATOM     60  C   UNL A   1      45.792  27.155  25.910  1.00  0.00     0.049 A 
ATOM     61  H   UNL A   1      46.925  25.451  26.312  1.00  0.00     0.167 HD
ATOM     62  C   UNL A   1      47.010  29.154  26.592  1.00  0.00     0.074 A 
ATOM     63  C   UNL A   1      47.757  30.392  26.442  1.00  0.00     0.031 C 
ATOM     64  C   UNL A   1      46.966  28.005  25.844  1.00  0.00     0.034 A 
BRANCH  51  65
ATOM     65  C   UNL A   1      44.247  22.527  26.483  1.00  0.00     0.023 A 
ATOM     66  C   UNL A   1      44.983  21.566  25.768  1.00  0.00     0.031 A 
ATOM     67  C   UNL A   1      42.912  22.129  26.780  1.00  0.00     0.131 A 
ATOM     68  C   UNL A   1      44.410  20.345  25.348  1.00  0.00     0.055 A 
ATOM     69  C   UNL A   1      42.311  20.959  26.279  1.00  0.00     0.041 A 
ATOM     70  F   UNL A   1      42.129  22.820  27.625  1.00  0.00    -0.206 F 
ATOM     71  C   UNL A   1      43.067  20.048  25.565  1.00  0.00     0.022 A 
BRANCH  68  72
ATOM     72  S   UNL A   1      45.486  19.095  24.598  1.00  0.00     0.124 S 
ATOM     73  O   UNL A   1      44.853  18.891  23.300  1.00  0.00    -0.237 OA
ATOM     74  O   UNL A   1      46.780  19.769  24.591  1.00  0.00    -0.237 OA
ATOM     75  O   UNL A   1      45.390  17.964  25.520  1.00  0.00    -0.744 OA
ENDBRANCH  68  72
ENDBRANCH  51  65
BRANCH  52  76
ATOM     76  C   UNL A   1      45.931  31.899  30.574  1.00  0.00     0.023 A 
ATOM     77  C   UNL A   1      45.141  33.047  30.896  1.00  0.00     0.031 A 
ATOM     78  C   UNL A   1      46.518  31.218  31.653  1.00  0.00     0.131 A 
ATOM     79  C   UNL A   1      44.892  33.419  32.232  1.00  0.00     0.055 A 
ATOM     80  C   UNL A   1      46.302  31.624  32.986  1.00  0.00     0.041 A 
ATOM     81  F   UNL A   1      47.183  30.071  31.457  1.00  0.00    -0.206 F 
ATOM     82  C   UNL A   1      45.503  32.734  33.277  1.00  0.00     0.022 A 
BRANCH  79  83
ATOM     83  S   UNL A   1      43.560  34.631  32.583  1.00  0.00     0.124 S 
ATOM     84  O   UNL A   1      43.237  34.345  33.977  1.00  0.00    -0.237 OA
ATOM     85  O   UNL A   1      44.224  35.910  32.336  1.00  0.00    -0.237 OA
ATOM     86  O   UNL A   1      42.505  34.295  31.628  1.00  0.00    -0.744 OA
ENDBRANCH  79  83
ENDBRANCH  52  76
BRANCH  64  87
ATOM     87  C   UNL A   1      48.113  27.530  24.971  1.00  0.00     0.023 A 
ATOM     88  C   UNL A   1      48.183  27.885  23.629  1.00  0.00     0.031 A 
ATOM     89  C   UNL A   1      49.240  26.819  25.472  1.00  0.00     0.131 A 
ATOM     90  C   UNL A   1      49.202  27.394  22.812  1.00  0.00     0.055 A 
ATOM     91  C   UNL A   1      50.355  26.509  24.695  1.00  0.00     0.041 A 
ATOM     92  F   UNL A   1      49.324  26.388  26.739  1.00  0.00    -0.206 F 
ATOM     93  C   UNL A   1      50.318  26.750  23.336  1.00  0.00     0.022 A 
BRANCH  90  94
ATOM     94  S   UNL A   1      48.889  27.433  21.039  1.00  0.00     0.124 S 
ATOM     95  O   UNL A   1      47.441  27.633  21.003  1.00  0.00    -0.237 OA
ATOM     96  O   UNL A   1      49.692  28.568  20.599  1.00  0.00    -0.237 OA
ATOM     97  O   UNL A   1      49.346  26.123  20.583  1.00  0.00    -0.744 OA
ENDBRANCH  90  94
ENDBRANCH  64  87
ENDBRANCH  38  39
ENDBRANCH  31  33
ENDBRANCH  30  31
ENDBRANCH  29  30
ENDBRANCH  28  29
ENDBRANCH  27  28
ENDBRANCH  26  27
ENDBRANCH   1  26
TORSDOF 23
ENDMDL
