MODEL 1
REMARK VINA RESULT:     -11.1      0.000      0.000
REMARK SMILES O=C(OCCOCCOCCOC(=O)[C@H]1CCCC[C@H]1C(=O)Nc1ccc(Cl)cc1F)c1ccc(-c2c3nc(c(-c4cc(S(=O)(=O)[O-])ccc4F)c4ccc([nH]4)c(-c4cc(S(=O)(=O)[O-])ccc4F)c4nc(c(-c5cc(S(=O)(=O)[O-])ccc5F)c5ccc2[nH]5)C=C4)C=C3)cc1
REMARK SMILES IDX 7 1 6 2 5 3 4 4 3 5 2 6 1 7 32 8 33 9 94 10 34 11 93 12
REMARK SMILES IDX 35 13 36 14 37 15 87 16 38 17 92 18 86 19 88 20 39 21 91 22
REMARK SMILES IDX 85 23 84 24 40 26 72 27 52 28 71 29 53 30 56 31 70 32 89 33
REMARK SMILES IDX 54 34 55 35 69 37 90 38 57 39 41 40 42 41 50 42 43 43 49 44
REMARK SMILES IDX 51 45 48 46 44 47 45 48 46 49 47 50 73 51 74 52 82 53 75 54
REMARK SMILES IDX 81 55 83 56 80 57 76 58 77 59 78 60 79 61 58 62 59 63 67 64
REMARK SMILES IDX 60 65 66 66 68 67 65 68 61 69 62 70 63 71 64 72 8 73 9 74
REMARK SMILES IDX 10 75 11 76 12 77 13 78 14 79 15 80 16 81 20 82 17 83 19 84
REMARK SMILES IDX 18 85 21 86 22 87 23 88 24 90 25 91 30 92 26 93 29 94 31 95
REMARK SMILES IDX 27 96 28 97
REMARK H PARENT 88 25 56 36 23 89
REMARK Flexibility Score: inf
ROOT
ATOM      1  C   UNL A   1      34.827  34.721  27.999  1.00  0.00     0.188 C 
ENDROOT
BRANCH   1   2
ATOM      2  O   UNL A   1      33.600  35.376  28.288  1.00  0.00    -0.376 OA
BRANCH   2   3
ATOM      3  C   UNL A   1      33.681  36.735  28.674  1.00  0.00     0.202 C 
BRANCH   3   4
ATOM      4  C   UNL A   1      33.299  37.035  30.129  1.00  0.00     0.261 C 
BRANCH   4   5
ATOM      5  O   UNL A   1      32.562  35.969  30.749  1.00  0.00    -0.460 OA
BRANCH   5   6
ATOM      6  C   UNL A   1      32.710  35.404  31.971  1.00  0.00     0.338 C 
ATOM      7  O   UNL A   1      31.717  35.353  32.699  1.00  0.00    -0.246 OA
BRANCH   6   8
ATOM      8  C   UNL A   1      33.979  34.803  32.495  1.00  0.00     0.060 A 
ATOM      9  C   UNL A   1      35.219  35.438  32.537  1.00  0.00     0.016 A 
ATOM     10  C   UNL A   1      33.873  33.528  33.091  1.00  0.00     0.016 A 
ATOM     11  C   UNL A   1      36.336  34.795  33.104  1.00  0.00     0.010 A 
ATOM     12  C   UNL A   1      34.979  32.891  33.673  1.00  0.00     0.010 A 
ATOM     13  C   UNL A   1      36.229  33.513  33.664  1.00  0.00    -0.014 A 
BRANCH  13  14
ATOM     14  C   UNL A   1      37.455  32.804  34.122  1.00  0.00     0.031 A 
ATOM     15  C   UNL A   1      38.147  31.887  33.164  1.00  0.00     0.074 A 
ATOM     16  C   UNL A   1      37.954  32.992  35.358  1.00  0.00     0.049 A 
ATOM     17  N   UNL A   1      39.246  31.204  33.332  1.00  0.00    -0.248 NA
ATOM     18  C   UNL A   1      37.483  31.664  31.871  1.00  0.00     0.031 C 
ATOM     19  C   UNL A   1      37.271  33.736  36.401  1.00  0.00     0.029 A 
ATOM     20  N   UNL A   1      39.148  32.632  35.944  1.00  0.00    -0.354 N 
ATOM     21  C   UNL A   1      39.354  30.392  32.212  1.00  0.00     0.074 A 
ATOM     22  C   UNL A   1      38.248  30.721  31.339  1.00  0.00     0.031 C 
ATOM     23  C   UNL A   1      38.111  33.905  37.437  1.00  0.00     0.029 A 
ATOM     24  C   UNL A   1      39.380  33.257  37.159  1.00  0.00     0.049 A 
ATOM     25  H   UNL A   1      39.777  31.992  35.538  1.00  0.00     0.167 HD
ATOM     26  C   UNL A   1      40.261  29.412  31.987  1.00  0.00     0.034 A 
ATOM     27  C   UNL A   1      40.494  33.315  37.928  1.00  0.00     0.034 A 
ATOM     28  C   UNL A   1      41.333  29.106  32.903  1.00  0.00     0.049 A 
ATOM     29  C   UNL A   1      41.601  32.359  37.543  1.00  0.00     0.074 A 
ATOM     30  C   UNL A   1      42.283  28.105  32.819  1.00  0.00     0.029 A 
ATOM     31  N   UNL A   1      41.590  29.801  34.080  1.00  0.00    -0.354 N 
ATOM     32  N   UNL A   1      41.687  31.589  36.481  1.00  0.00    -0.248 NA
ATOM     33  C   UNL A   1      42.708  32.199  38.495  1.00  0.00     0.031 C 
ATOM     34  C   UNL A   1      43.074  28.159  33.972  1.00  0.00     0.029 A 
ATOM     35  C   UNL A   1      42.671  29.241  34.739  1.00  0.00     0.049 A 
ATOM     36  H   UNL A   1      41.076  30.578  34.400  1.00  0.00     0.167 HD
ATOM     37  C   UNL A   1      42.811  30.799  36.681  1.00  0.00     0.074 A 
ATOM     38  C   UNL A   1      43.439  31.271  37.898  1.00  0.00     0.031 C 
ATOM     39  C   UNL A   1      43.248  29.729  35.969  1.00  0.00     0.034 A 
BRANCH  26  40
ATOM     40  C   UNL A   1      40.032  28.529  30.788  1.00  0.00     0.023 A 
ATOM     41  C   UNL A   1      40.648  28.769  29.549  1.00  0.00     0.031 A 
ATOM     42  C   UNL A   1      39.116  27.465  30.876  1.00  0.00     0.131 A 
ATOM     43  C   UNL A   1      40.291  27.996  28.432  1.00  0.00     0.055 A 
ATOM     44  C   UNL A   1      38.823  26.650  29.781  1.00  0.00     0.041 A 
ATOM     45  F   UNL A   1      38.469  27.214  32.025  1.00  0.00    -0.206 F 
ATOM     46  C   UNL A   1      39.403  26.922  28.546  1.00  0.00     0.022 A 
BRANCH  43  47
ATOM     47  S   UNL A   1      40.900  28.495  26.799  1.00  0.00     0.124 S 
ATOM     48  O   UNL A   1      39.810  29.347  26.328  1.00  0.00    -0.237 OA
ATOM     49  O   UNL A   1      42.148  29.177  27.120  1.00  0.00    -0.237 OA
ATOM     50  O   UNL A   1      41.046  27.228  26.085  1.00  0.00    -0.744 OA
ENDBRANCH  43  47
ENDBRANCH  26  40
BRANCH  27  51
ATOM     51  C   UNL A   1      40.637  34.205  39.140  1.00  0.00     0.023 A 
ATOM     52  C   UNL A   1      41.214  35.491  39.034  1.00  0.00     0.031 A 
ATOM     53  C   UNL A   1      40.293  33.782  40.436  1.00  0.00     0.131 A 
ATOM     54  C   UNL A   1      41.470  36.264  40.186  1.00  0.00     0.055 A 
ATOM     55  C   UNL A   1      40.444  34.599  41.563  1.00  0.00     0.041 A 
ATOM     56  F   UNL A   1      39.823  32.543  40.651  1.00  0.00    -0.206 F 
ATOM     57  C   UNL A   1      41.052  35.841  41.446  1.00  0.00     0.022 A 
BRANCH  54  58
ATOM     58  S   UNL A   1      42.524  37.741  40.048  1.00  0.00     0.124 S 
ATOM     59  O   UNL A   1      41.535  38.811  40.019  1.00  0.00    -0.237 OA
ATOM     60  O   UNL A   1      43.335  37.650  41.257  1.00  0.00    -0.237 OA
ATOM     61  O   UNL A   1      43.247  37.528  38.795  1.00  0.00    -0.744 OA
ENDBRANCH  54  58
ENDBRANCH  27  51
BRANCH  39  62
ATOM     62  C   UNL A   1      44.436  28.997  36.533  1.00  0.00     0.023 A 
ATOM     63  C   UNL A   1      44.267  27.875  37.364  1.00  0.00     0.031 A 
ATOM     64  C   UNL A   1      45.740  29.427  36.248  1.00  0.00     0.131 A 
ATOM     65  C   UNL A   1      45.387  27.253  37.930  1.00  0.00     0.055 A 
ATOM     66  C   UNL A   1      46.854  28.765  36.763  1.00  0.00     0.041 A 
ATOM     67  F   UNL A   1      45.952  30.495  35.462  1.00  0.00    -0.206 F 
ATOM     68  C   UNL A   1      46.680  27.680  37.620  1.00  0.00     0.022 A 
BRANCH  65  69
ATOM     69  S   UNL A   1      45.128  25.937  39.150  1.00  0.00     0.124 S 
ATOM     70  O   UNL A   1      44.463  24.911  38.355  1.00  0.00    -0.237 OA
ATOM     71  O   UNL A   1      46.492  25.631  39.574  1.00  0.00    -0.237 OA
ATOM     72  O   UNL A   1      44.293  26.574  40.168  1.00  0.00    -0.744 OA
ENDBRANCH  65  69
ENDBRANCH  39  62
ENDBRANCH  13  14
ENDBRANCH   6   8
ENDBRANCH   5   6
ENDBRANCH   4   5
ENDBRANCH   3   4
ENDBRANCH   2   3
ENDBRANCH   1   2
BRANCH   1  73
ATOM     73  C   UNL A   1      35.158  33.478  28.872  1.00  0.00     0.188 C 
BRANCH  73  74
ATOM     74  O   UNL A   1      35.584  32.203  28.376  1.00  0.00    -0.376 OA
BRANCH  74  75
ATOM     75  C   UNL A   1      34.687  31.166  27.970  1.00  0.00     0.202 C 
BRANCH  75  76
ATOM     76  C   UNL A   1      35.289  29.615  27.528  1.00  0.00     0.261 C 
BRANCH  76  77
ATOM     77  O   UNL A   1      34.488  28.260  26.278  1.00  0.00    -0.463 OA
BRANCH  77  78
ATOM     78  C   UNL A   1      33.540  27.133  26.043  1.00  0.00     0.309 C 
ATOM     79  O   UNL A   1      32.400  26.998  26.506  1.00  0.00    -0.252 OA
BRANCH  78  80
ATOM     80  C   UNL A   1      34.013  26.080  25.159  1.00  0.00     0.111 C 
ATOM     81  C   UNL A   1      33.811  24.826  25.983  1.00  0.00     0.016 C 
ATOM     82  C   UNL A   1      33.622  26.168  23.700  1.00  0.00     0.093 C 
ATOM     83  C   UNL A   1      32.663  23.949  25.579  1.00  0.00     0.001 C 
ATOM     84  C   UNL A   1      32.566  25.115  23.305  1.00  0.00     0.014 C 
ATOM     85  C   UNL A   1      32.676  23.779  24.073  1.00  0.00     0.001 C 
BRANCH  82  86
ATOM     86  C   UNL A   1      33.609  27.634  23.047  1.00  0.00     0.228 C 
ATOM     87  O   UNL A   1      34.358  27.863  22.087  1.00  0.00    -0.274 OA
ATOM     88  N   UNL A   1      32.892  28.726  23.537  1.00  0.00    -0.323 N 
ATOM     89  H   UNL A   1      33.362  29.590  23.591  1.00  0.00     0.170 HD
BRANCH  88  90
ATOM     90  C   UNL A   1      31.525  28.688  23.968  1.00  0.00     0.077 A 
ATOM     91  C   UNL A   1      31.240  30.095  25.021  1.00  0.00     0.031 A 
ATOM     92  C   UNL A   1      30.303  28.276  22.689  1.00  0.00     0.148 A 
ATOM     93  C   UNL A   1      29.942  31.253  24.692  1.00  0.00     0.023 A 
ATOM     94  C   UNL A   1      28.973  29.492  22.320  1.00  0.00     0.062 A 
ATOM     95  F   UNL A   1      30.606  27.340  21.771  1.00  0.00    -0.205 F 
ATOM     96  C   UNL A   1      28.811  30.971  23.352  1.00  0.00     0.044 A 
ATOM     97  Cl  UNL A   1      27.645  32.192  23.044  1.00  0.00    -0.084 Cl
ENDBRANCH  88  90
ENDBRANCH  82  86
ENDBRANCH  78  80
ENDBRANCH  77  78
ENDBRANCH  76  77
ENDBRANCH  75  76
ENDBRANCH  74  75
ENDBRANCH  73  74
ENDBRANCH   1  73
TORSDOF 22
ENDMDL
MODEL 2
REMARK VINA RESULT:     -11.0      3.625      8.825
REMARK SMILES O=C(OCCOCCOCCOC(=O)[C@H]1CCCC[C@H]1C(=O)Nc1ccc(Cl)cc1F)c1ccc(-c2c3nc(c(-c4cc(S(=O)(=O)[O-])ccc4F)c4ccc([nH]4)c(-c4cc(S(=O)(=O)[O-])ccc4F)c4nc(c(-c5cc(S(=O)(=O)[O-])ccc5F)c5ccc2[nH]5)C=C4)C=C3)cc1
REMARK SMILES IDX 7 1 6 2 5 3 4 4 3 5 2 6 1 7 32 8 33 9 94 10 34 11 93 12
REMARK SMILES IDX 35 13 36 14 37 15 87 16 38 17 92 18 86 19 88 20 39 21 91 22
REMARK SMILES IDX 85 23 84 24 40 26 72 27 52 28 71 29 53 30 56 31 70 32 89 33
REMARK SMILES IDX 54 34 55 35 69 37 90 38 57 39 41 40 42 41 50 42 43 43 49 44
REMARK SMILES IDX 51 45 48 46 44 47 45 48 46 49 47 50 73 51 74 52 82 53 75 54
REMARK SMILES IDX 81 55 83 56 80 57 76 58 77 59 78 60 79 61 58 62 59 63 67 64
REMARK SMILES IDX 60 65 66 66 68 67 65 68 61 69 62 70 63 71 64 72 8 73 9 74
REMARK SMILES IDX 10 75 11 76 12 77 13 78 14 79 15 80 16 81 20 82 17 83 19 84
REMARK SMILES IDX 18 85 21 86 22 87 23 88 24 90 25 91 30 92 26 93 29 94 31 95
REMARK SMILES IDX 27 96 28 97
REMARK H PARENT 88 25 56 36 23 89
REMARK Flexibility Score: inf
ROOT
ATOM      1  C   UNL A   1      30.347  30.632  23.832  1.00  0.00     0.188 C 
ENDROOT
BRANCH   1   2
ATOM      2  O   UNL A   1      30.596  30.013  25.087  1.00  0.00    -0.376 OA
BRANCH   2   3
ATOM      3  C   UNL A   1      31.697  30.501  25.828  1.00  0.00     0.202 C 
BRANCH   3   4
ATOM      4  C   UNL A   1      31.425  31.752  26.674  1.00  0.00     0.261 C 
BRANCH   4   5
ATOM      5  O   UNL A   1      32.540  32.657  26.716  1.00  0.00    -0.460 OA
BRANCH   5   6
ATOM      6  C   UNL A   1      33.226  33.145  27.777  1.00  0.00     0.338 C 
ATOM      7  O   UNL A   1      32.824  34.193  28.282  1.00  0.00    -0.246 OA
BRANCH   6   8
ATOM      8  C   UNL A   1      34.418  32.490  28.408  1.00  0.00     0.060 A 
ATOM      9  C   UNL A   1      34.573  31.120  28.618  1.00  0.00     0.016 A 
ATOM     10  C   UNL A   1      35.510  33.329  28.713  1.00  0.00     0.016 A 
ATOM     11  C   UNL A   1      35.762  30.609  29.170  1.00  0.00     0.010 A 
ATOM     12  C   UNL A   1      36.704  32.823  29.247  1.00  0.00     0.010 A 
ATOM     13  C   UNL A   1      36.831  31.456  29.502  1.00  0.00    -0.014 A 
BRANCH  13  14
ATOM     14  C   UNL A   1      38.014  30.904  30.218  1.00  0.00     0.031 A 
ATOM     15  C   UNL A   1      38.090  31.072  31.702  1.00  0.00     0.074 A 
ATOM     16  C   UNL A   1      38.988  30.247  29.561  1.00  0.00     0.049 A 
ATOM     17  N   UNL A   1      39.000  30.638  32.530  1.00  0.00    -0.248 NA
ATOM     18  C   UNL A   1      37.037  31.885  32.327  1.00  0.00     0.031 C 
ATOM     19  C   UNL A   1      39.078  30.169  28.113  1.00  0.00     0.029 A 
ATOM     20  N   UNL A   1      40.051  29.483  29.994  1.00  0.00    -0.354 N 
ATOM     21  C   UNL A   1      38.689  31.208  33.757  1.00  0.00     0.074 A 
ATOM     22  C   UNL A   1      37.466  31.960  33.579  1.00  0.00     0.031 C 
ATOM     23  C   UNL A   1      40.037  29.288  27.783  1.00  0.00     0.029 A 
ATOM     24  C   UNL A   1      40.660  28.757  28.983  1.00  0.00     0.049 A 
ATOM     25  H   UNL A   1      40.348  29.455  30.932  1.00  0.00     0.167 HD
ATOM     26  C   UNL A   1      39.415  31.158  34.898  1.00  0.00     0.034 A 
ATOM     27  C   UNL A   1      41.586  27.770  29.034  1.00  0.00     0.034 A 
ATOM     28  C   UNL A   1      40.645  30.413  35.017  1.00  0.00     0.049 A 
ATOM     29  C   UNL A   1      42.252  27.571  30.378  1.00  0.00     0.074 A 
ATOM     30  C   UNL A   1      41.502  30.325  36.099  1.00  0.00     0.029 A 
ATOM     31  N   UNL A   1      41.195  29.629  34.008  1.00  0.00    -0.354 N 
ATOM     32  N   UNL A   1      41.951  28.125  31.531  1.00  0.00    -0.248 NA
ATOM     33  C   UNL A   1      43.436  26.703  30.416  1.00  0.00     0.031 C 
ATOM     34  C   UNL A   1      42.597  29.538  35.723  1.00  0.00     0.029 A 
ATOM     35  C   UNL A   1      42.388  29.070  34.436  1.00  0.00     0.049 A 
ATOM     36  H   UNL A   1      40.796  29.493  33.118  1.00  0.00     0.167 HD
ATOM     37  C   UNL A   1      42.956  27.735  32.407  1.00  0.00     0.074 A 
ATOM     38  C   UNL A   1      43.797  26.802  31.685  1.00  0.00     0.031 C 
ATOM     39  C   UNL A   1      43.210  28.164  33.669  1.00  0.00     0.034 A 
BRANCH  26  40
ATOM     40  C   UNL A   1      38.967  32.042  36.034  1.00  0.00     0.023 A 
ATOM     41  C   UNL A   1      38.188  31.561  37.098  1.00  0.00     0.031 A 
ATOM     42  C   UNL A   1      39.273  33.415  36.005  1.00  0.00     0.131 A 
ATOM     43  C   UNL A   1      37.686  32.459  38.054  1.00  0.00     0.055 A 
ATOM     44  C   UNL A   1      38.836  34.289  37.001  1.00  0.00     0.041 A 
ATOM     45  F   UNL A   1      39.983  33.936  34.992  1.00  0.00    -0.206 F 
ATOM     46  C   UNL A   1      38.026  33.814  38.028  1.00  0.00     0.022 A 
BRANCH  43  47
ATOM     47  S   UNL A   1      36.472  31.856  39.259  1.00  0.00     0.124 S 
ATOM     48  O   UNL A   1      37.155  32.124  40.523  1.00  0.00    -0.237 OA
ATOM     49  O   UNL A   1      35.306  32.685  38.977  1.00  0.00    -0.237 OA
ATOM     50  O   UNL A   1      36.328  30.441  38.923  1.00  0.00    -0.744 OA
ENDBRANCH  43  47
ENDBRANCH  26  40
BRANCH  27  51
ATOM     51  C   UNL A   1      42.008  26.946  27.840  1.00  0.00     0.023 A 
ATOM     52  C   UNL A   1      43.339  26.984  27.366  1.00  0.00     0.031 A 
ATOM     53  C   UNL A   1      41.101  26.177  27.090  1.00  0.00     0.131 A 
ATOM     54  C   UNL A   1      43.698  26.322  26.173  1.00  0.00     0.055 A 
ATOM     55  C   UNL A   1      41.488  25.430  25.971  1.00  0.00     0.041 A 
ATOM     56  F   UNL A   1      39.797  26.152  27.407  1.00  0.00    -0.206 F 
ATOM     57  C   UNL A   1      42.789  25.514  25.495  1.00  0.00     0.022 A 
BRANCH  54  58
ATOM     58  S   UNL A   1      45.312  26.680  25.410  1.00  0.00     0.124 S 
ATOM     59  O   UNL A   1      46.166  26.839  26.581  1.00  0.00    -0.237 OA
ATOM     60  O   UNL A   1      45.541  25.484  24.607  1.00  0.00    -0.237 OA
ATOM     61  O   UNL A   1      45.065  27.904  24.650  1.00  0.00    -0.744 OA
ENDBRANCH  54  58
ENDBRANCH  27  51
BRANCH  39  62
ATOM     62  C   UNL A   1      44.470  27.642  34.306  1.00  0.00     0.023 A 
ATOM     63  C   UNL A   1      44.490  26.396  34.959  1.00  0.00     0.031 A 
ATOM     64  C   UNL A   1      45.653  28.396  34.269  1.00  0.00     0.131 A 
ATOM     65  C   UNL A   1      45.657  25.966  35.601  1.00  0.00     0.055 A 
ATOM     66  C   UNL A   1      46.830  27.933  34.856  1.00  0.00     0.041 A 
ATOM     67  F   UNL A   1      45.683  29.592  33.660  1.00  0.00    -0.206 F 
ATOM     68  C   UNL A   1      46.833  26.718  35.538  1.00  0.00     0.022 A 
BRANCH  65  69
ATOM     69  S   UNL A   1      45.594  24.454  36.600  1.00  0.00     0.124 S 
ATOM     70  O   UNL A   1      44.163  24.177  36.642  1.00  0.00    -0.237 OA
ATOM     71  O   UNL A   1      46.401  23.525  35.813  1.00  0.00    -0.237 OA
ATOM     72  O   UNL A   1      46.186  24.861  37.874  1.00  0.00    -0.744 OA
ENDBRANCH  65  69
ENDBRANCH  39  62
ENDBRANCH  13  14
ENDBRANCH   6   8
ENDBRANCH   5   6
ENDBRANCH   4   5
ENDBRANCH   3   4
ENDBRANCH   2   3
ENDBRANCH   1   2
BRANCH   1  73
ATOM     73  C   UNL A   1      28.856  30.918  23.497  1.00  0.00     0.188 C 
BRANCH  73  74
ATOM     74  O   UNL A   1      27.831  29.927  23.354  1.00  0.00    -0.376 OA
BRANCH  74  75
ATOM     75  C   UNL A   1      28.030  28.661  22.721  1.00  0.00     0.202 C 
BRANCH  75  76
ATOM     76  C   UNL A   1      28.670  27.332  23.609  1.00  0.00     0.261 C 
BRANCH  76  77
ATOM     77  O   UNL A   1      30.566  26.675  23.706  1.00  0.00    -0.463 OA
BRANCH  77  78
ATOM     78  C   UNL A   1      31.566  25.596  23.457  1.00  0.00     0.309 C 
ATOM     79  O   UNL A   1      31.502  24.689  22.617  1.00  0.00    -0.252 OA
BRANCH  78  80
ATOM     80  C   UNL A   1      32.754  25.626  24.295  1.00  0.00     0.111 C 
ATOM     81  C   UNL A   1      33.606  26.693  23.641  1.00  0.00     0.016 C 
ATOM     82  C   UNL A   1      32.553  25.548  25.792  1.00  0.00     0.093 C 
ATOM     83  C   UNL A   1      33.687  28.005  24.362  1.00  0.00     0.001 C 
ATOM     84  C   UNL A   1      32.829  26.892  26.498  1.00  0.00     0.014 C 
ATOM     85  C   UNL A   1      33.931  27.747  25.835  1.00  0.00     0.001 C 
BRANCH  82  86
ATOM     86  C   UNL A   1      31.392  24.567  26.310  1.00  0.00     0.228 C 
ATOM     87  O   UNL A   1      30.216  24.946  26.230  1.00  0.00    -0.274 OA
ATOM     88  N   UNL A   1      31.598  23.344  26.950  1.00  0.00    -0.323 N 
ATOM     89  H   UNL A   1      31.060  23.156  27.753  1.00  0.00     0.170 HD
BRANCH  88  90
ATOM     90  C   UNL A   1      32.532  22.342  26.530  1.00  0.00     0.077 A 
ATOM     91  C   UNL A   1      32.289  22.055  24.790  1.00  0.00     0.031 A 
ATOM     92  C   UNL A   1      34.223  22.518  27.171  1.00  0.00     0.148 A 
ATOM     93  C   UNL A   1      33.619  22.196  23.631  1.00  0.00     0.023 A 
ATOM     94  C   UNL A   1      35.604  22.700  25.970  1.00  0.00     0.062 A 
ATOM     95  F   UNL A   1      34.404  22.926  28.440  1.00  0.00    -0.205 F 
ATOM     96  C   UNL A   1      35.270  22.521  24.199  1.00  0.00     0.044 A 
ATOM     97  Cl  UNL A   1      36.480  22.739  23.002  1.00  0.00    -0.084 Cl
ENDBRANCH  88  90
ENDBRANCH  82  86
ENDBRANCH  78  80
ENDBRANCH  77  78
ENDBRANCH  76  77
ENDBRANCH  75  76
ENDBRANCH  74  75
ENDBRANCH  73  74
ENDBRANCH   1  73
TORSDOF 22
ENDMDL
MODEL 3
REMARK VINA RESULT:     -11.0      4.448      9.713
REMARK SMILES O=C(OCCOCCOCCOC(=O)[C@H]1CCCC[C@H]1C(=O)Nc1ccc(Cl)cc1F)c1ccc(-c2c3nc(c(-c4cc(S(=O)(=O)[O-])ccc4F)c4ccc([nH]4)c(-c4cc(S(=O)(=O)[O-])ccc4F)c4nc(c(-c5cc(S(=O)(=O)[O-])ccc5F)c5ccc2[nH]5)C=C4)C=C3)cc1
REMARK SMILES IDX 7 1 6 2 5 3 4 4 3 5 2 6 1 7 32 8 33 9 94 10 34 11 93 12
REMARK SMILES IDX 35 13 36 14 37 15 87 16 38 17 92 18 86 19 88 20 39 21 91 22
REMARK SMILES IDX 85 23 84 24 40 26 72 27 52 28 71 29 53 30 56 31 70 32 89 33
REMARK SMILES IDX 54 34 55 35 69 37 90 38 57 39 41 40 42 41 50 42 43 43 49 44
REMARK SMILES IDX 51 45 48 46 44 47 45 48 46 49 47 50 73 51 74 52 82 53 75 54
REMARK SMILES IDX 81 55 83 56 80 57 76 58 77 59 78 60 79 61 58 62 59 63 67 64
REMARK SMILES IDX 60 65 66 66 68 67 65 68 61 69 62 70 63 71 64 72 8 73 9 74
REMARK SMILES IDX 10 75 11 76 12 77 13 78 14 79 15 80 16 81 20 82 17 83 19 84
REMARK SMILES IDX 18 85 21 86 22 87 23 88 24 90 25 91 30 92 26 93 29 94 31 95
REMARK SMILES IDX 27 96 28 97
REMARK H PARENT 88 25 56 36 23 89
REMARK Flexibility Score: inf
ROOT
ATOM      1  C   UNL A   1      31.218  29.320  24.067  1.00  0.00     0.188 C 
ENDROOT
BRANCH   1   2
ATOM      2  O   UNL A   1      31.071  28.801  25.382  1.00  0.00    -0.376 OA
BRANCH   2   3
ATOM      3  C   UNL A   1      32.015  29.231  26.344  1.00  0.00     0.202 C 
BRANCH   3   4
ATOM      4  C   UNL A   1      31.828  30.663  26.863  1.00  0.00     0.261 C 
BRANCH   4   5
ATOM      5  O   UNL A   1      32.978  31.496  26.646  1.00  0.00    -0.460 OA
BRANCH   5   6
ATOM      6  C   UNL A   1      33.803  32.093  27.539  1.00  0.00     0.338 C 
ATOM      7  O   UNL A   1      33.482  33.208  27.952  1.00  0.00    -0.246 OA
BRANCH   6   8
ATOM      8  C   UNL A   1      35.058  31.489  28.092  1.00  0.00     0.060 A 
ATOM      9  C   UNL A   1      35.257  30.135  28.356  1.00  0.00     0.016 A 
ATOM     10  C   UNL A   1      36.157  32.358  28.253  1.00  0.00     0.016 A 
ATOM     11  C   UNL A   1      36.501  29.670  28.824  1.00  0.00     0.010 A 
ATOM     12  C   UNL A   1      37.404  31.898  28.702  1.00  0.00     0.010 A 
ATOM     13  C   UNL A   1      37.579  30.548  29.013  1.00  0.00    -0.014 A 
BRANCH  13  14
ATOM     14  C   UNL A   1      38.832  30.051  29.646  1.00  0.00     0.031 A 
ATOM     15  C   UNL A   1      39.075  30.366  31.088  1.00  0.00     0.074 A 
ATOM     16  C   UNL A   1      39.722  29.314  28.956  1.00  0.00     0.049 A 
ATOM     17  N   UNL A   1      40.069  30.003  31.850  1.00  0.00    -0.248 NA
ATOM     18  C   UNL A   1      38.102  31.256  31.740  1.00  0.00     0.031 C 
ATOM     19  C   UNL A   1      39.649  29.090  27.523  1.00  0.00     0.029 A 
ATOM     20  N   UNL A   1      40.822  28.580  29.344  1.00  0.00    -0.354 N 
ATOM     21  C   UNL A   1      39.901  30.698  33.039  1.00  0.00     0.074 A 
ATOM     22  C   UNL A   1      38.669  31.449  32.922  1.00  0.00     0.031 C 
ATOM     23  C   UNL A   1      40.560  28.164  27.180  1.00  0.00     0.029 A 
ATOM     24  C   UNL A   1      41.311  27.747  28.351  1.00  0.00     0.049 A 
ATOM     25  H   UNL A   1      41.223  28.643  30.241  1.00  0.00     0.167 HD
ATOM     26  C   UNL A   1      40.750  30.751  34.092  1.00  0.00     0.034 A 
ATOM     27  C   UNL A   1      42.231  26.754  28.400  1.00  0.00     0.034 A 
ATOM     28  C   UNL A   1      41.981  30.001  34.149  1.00  0.00     0.049 A 
ATOM     29  C   UNL A   1      43.042  26.680  29.674  1.00  0.00     0.074 A 
ATOM     30  C   UNL A   1      42.953  30.008  35.132  1.00  0.00     0.029 A 
ATOM     31  N   UNL A   1      42.411  29.111  33.171  1.00  0.00    -0.354 N 
ATOM     32  N   UNL A   1      42.876  27.352  30.791  1.00  0.00    -0.248 NA
ATOM     33  C   UNL A   1      44.218  25.801  29.669  1.00  0.00     0.031 C 
ATOM     34  C   UNL A   1      43.995  29.169  34.720  1.00  0.00     0.029 A 
ATOM     35  C   UNL A   1      43.640  28.577  33.518  1.00  0.00     0.049 A 
ATOM     36  H   UNL A   1      41.913  28.893  32.349  1.00  0.00     0.167 HD
ATOM     37  C   UNL A   1      43.970  27.036  31.586  1.00  0.00     0.074 A 
ATOM     38  C   UNL A   1      44.720  26.021  30.874  1.00  0.00     0.031 C 
ATOM     39  C   UNL A   1      44.367  27.585  32.762  1.00  0.00     0.034 A 
BRANCH  26  40
ATOM     40  C   UNL A   1      40.437  31.752  35.174  1.00  0.00     0.023 A 
ATOM     41  C   UNL A   1      39.422  31.542  36.122  1.00  0.00     0.031 A 
ATOM     42  C   UNL A   1      41.129  32.976  35.207  1.00  0.00     0.131 A 
ATOM     43  C   UNL A   1      39.084  32.568  37.019  1.00  0.00     0.055 A 
ATOM     44  C   UNL A   1      40.842  33.962  36.153  1.00  0.00     0.041 A 
ATOM     45  F   UNL A   1      42.083  33.246  34.302  1.00  0.00    -0.206 F 
ATOM     46  C   UNL A   1      39.805  33.765  37.058  1.00  0.00     0.022 A 
BRANCH  43  47
ATOM     47  S   UNL A   1      37.604  32.371  38.048  1.00  0.00     0.124 S 
ATOM     48  O   UNL A   1      38.039  32.973  39.306  1.00  0.00    -0.237 OA
ATOM     49  O   UNL A   1      36.597  33.115  37.301  1.00  0.00    -0.237 OA
ATOM     50  O   UNL A   1      37.406  30.924  38.092  1.00  0.00    -0.744 OA
ENDBRANCH  43  47
ENDBRANCH  26  40
BRANCH  27  51
ATOM     51  C   UNL A   1      42.512  25.808  27.256  1.00  0.00     0.023 A 
ATOM     52  C   UNL A   1      41.952  24.510  27.232  1.00  0.00     0.031 A 
ATOM     53  C   UNL A   1      43.402  26.121  26.213  1.00  0.00     0.131 A 
ATOM     54  C   UNL A   1      42.324  23.583  26.235  1.00  0.00     0.055 A 
ATOM     55  C   UNL A   1      43.679  25.237  25.164  1.00  0.00     0.041 A 
ATOM     56  F   UNL A   1      44.055  27.294  26.199  1.00  0.00    -0.206 F 
ATOM     57  C   UNL A   1      43.154  23.953  25.180  1.00  0.00     0.022 A 
BRANCH  54  58
ATOM     58  S   UNL A   1      41.864  21.833  26.435  1.00  0.00     0.124 S 
ATOM     59  O   UNL A   1      42.440  21.521  27.738  1.00  0.00    -0.237 OA
ATOM     60  O   UNL A   1      40.408  21.891  26.374  1.00  0.00    -0.237 OA
ATOM     61  O   UNL A   1      42.511  21.179  25.299  1.00  0.00    -0.744 OA
ENDBRANCH  54  58
ENDBRANCH  27  51
BRANCH  39  62
ATOM     62  C   UNL A   1      45.687  27.109  33.304  1.00  0.00     0.023 A 
ATOM     63  C   UNL A   1      46.886  27.767  32.973  1.00  0.00     0.031 A 
ATOM     64  C   UNL A   1      45.751  25.989  34.147  1.00  0.00     0.131 A 
ATOM     65  C   UNL A   1      48.107  27.263  33.437  1.00  0.00     0.055 A 
ATOM     66  C   UNL A   1      46.964  25.530  34.658  1.00  0.00     0.041 A 
ATOM     67  F   UNL A   1      44.635  25.327  34.489  1.00  0.00    -0.206 F 
ATOM     68  C   UNL A   1      48.153  26.160  34.292  1.00  0.00     0.022 A 
BRANCH  65  69
ATOM     69  S   UNL A   1      49.644  28.013  32.832  1.00  0.00     0.124 S 
ATOM     70  O   UNL A   1      50.643  27.034  33.247  1.00  0.00    -0.237 OA
ATOM     71  O   UNL A   1      49.402  28.107  31.395  1.00  0.00    -0.237 OA
ATOM     72  O   UNL A   1      49.699  29.293  33.536  1.00  0.00    -0.744 OA
ENDBRANCH  65  69
ENDBRANCH  39  62
ENDBRANCH  13  14
ENDBRANCH   6   8
ENDBRANCH   5   6
ENDBRANCH   4   5
ENDBRANCH   3   4
ENDBRANCH   2   3
ENDBRANCH   1   2
BRANCH   1  73
ATOM     73  C   UNL A   1      30.036  30.177  23.536  1.00  0.00     0.188 C 
BRANCH  73  74
ATOM     74  O   UNL A   1      28.658  29.787  23.541  1.00  0.00    -0.376 OA
BRANCH  74  75
ATOM     75  C   UNL A   1      28.166  28.590  22.931  1.00  0.00     0.202 C 
BRANCH  75  76
ATOM     76  C   UNL A   1      28.354  27.069  23.716  1.00  0.00     0.261 C 
BRANCH  76  77
ATOM     77  O   UNL A   1      30.021  25.978  23.971  1.00  0.00    -0.463 OA
BRANCH  77  78
ATOM     78  C   UNL A   1      31.180  25.585  24.823  1.00  0.00     0.309 C 
ATOM     79  O   UNL A   1      31.209  25.483  26.057  1.00  0.00    -0.252 OA
BRANCH  78  80
ATOM     80  C   UNL A   1      32.413  25.278  24.115  1.00  0.00     0.111 C 
ATOM     81  C   UNL A   1      33.376  26.324  24.637  1.00  0.00     0.016 C 
ATOM     82  C   UNL A   1      32.792  23.820  23.975  1.00  0.00     0.093 C 
ATOM     83  C   UNL A   1      34.411  25.841  25.607  1.00  0.00     0.001 C 
ATOM     84  C   UNL A   1      33.986  23.430  24.870  1.00  0.00     0.014 C 
ATOM     85  C   UNL A   1      35.021  24.556  25.083  1.00  0.00     0.001 C 
BRANCH  82  86
ATOM     86  C   UNL A   1      31.591  22.790  23.706  1.00  0.00     0.228 C 
ATOM     87  O   UNL A   1      30.562  23.207  23.157  1.00  0.00    -0.274 OA
ATOM     88  N   UNL A   1      31.559  21.462  24.135  1.00  0.00    -0.323 N 
ATOM     89  H   UNL A   1      30.725  21.138  24.545  1.00  0.00     0.170 HD
BRANCH  88  90
ATOM     90  C   UNL A   1      32.646  20.534  24.025  1.00  0.00     0.077 A 
ATOM     91  C   UNL A   1      32.990  19.893  25.650  1.00  0.00     0.031 A 
ATOM     92  C   UNL A   1      32.568  19.387  22.618  1.00  0.00     0.148 A 
ATOM     93  C   UNL A   1      32.999  18.154  25.979  1.00  0.00     0.023 A 
ATOM     94  C   UNL A   1      32.542  17.579  22.958  1.00  0.00     0.062 A 
ATOM     95  F   UNL A   1      32.118  19.835  21.432  1.00  0.00    -0.205 F 
ATOM     96  C   UNL A   1      32.773  16.992  24.656  1.00  0.00     0.044 A 
ATOM     97  Cl  UNL A   1      32.698  15.330  25.078  1.00  0.00    -0.084 Cl
ENDBRANCH  88  90
ENDBRANCH  82  86
ENDBRANCH  78  80
ENDBRANCH  77  78
ENDBRANCH  76  77
ENDBRANCH  75  76
ENDBRANCH  74  75
ENDBRANCH  73  74
ENDBRANCH   1  73
TORSDOF 22
ENDMDL
