MODEL 1
REMARK VINA RESULT:     -11.2      0.000      0.000
REMARK SMILES O=C(OCCOCCOCCOC(=O)[C@@]1(Cc2cn3ccccc3n2)CCC[NH2+]C1)c1ccc(-c2c3nc(c(-c4cc(S(=O)(=O)[O-])ccc4F)c4ccc([nH]4)c(-c4cc(S(=O)(=O)[O-])ccc4F)c4nc(c(-c5cc(S(=O)(=O)[O-])ccc5F)c5ccc2[nH]5)C=C4)C=C3)cc1
REMARK SMILES IDX 7 1 6 2 5 3 4 4 3 5 2 6 1 7 31 8 32 9 93 10 33 11 92 12
REMARK SMILES IDX 34 13 35 14 36 15 86 16 37 17 91 18 85 19 87 20 38 21 90 22
REMARK SMILES IDX 84 23 83 24 39 26 71 27 51 28 70 29 52 30 55 31 69 32 88 33
REMARK SMILES IDX 53 34 54 35 68 37 89 38 56 39 40 40 41 41 49 42 42 43 48 44
REMARK SMILES IDX 50 45 47 46 43 47 44 48 45 49 46 50 72 51 73 52 81 53 74 54
REMARK SMILES IDX 80 55 82 56 79 57 75 58 76 59 77 60 78 61 57 62 58 63 66 64
REMARK SMILES IDX 59 65 65 66 67 67 64 68 60 69 61 70 62 71 63 72 8 73 9 74
REMARK SMILES IDX 10 75 11 76 12 77 13 78 14 79 15 80 26 81 30 82 27 83 29 84
REMARK SMILES IDX 28 85 16 88 17 89 18 90 25 91 19 92 24 93 20 94 23 95 21 96
REMARK SMILES IDX 22 97
REMARK H PARENT 87 25 55 36 29 86 29 87
REMARK Flexibility Score: inf
ROOT
ATOM      1  C   UNL A   1      32.351  28.793  27.206  1.00  0.00     0.188 C 
ENDROOT
BRANCH   1   2
ATOM      2  O   UNL A   1      32.810  29.981  26.553  1.00  0.00    -0.376 OA
BRANCH   2   3
ATOM      3  C   UNL A   1      31.744  30.795  26.046  1.00  0.00     0.202 C 
BRANCH   3   4
ATOM      4  C   UNL A   1      31.369  32.018  26.909  1.00  0.00     0.261 C 
BRANCH   4   5
ATOM      5  O   UNL A   1      32.326  33.091  26.850  1.00  0.00    -0.460 OA
BRANCH   5   6
ATOM      6  C   UNL A   1      33.145  33.560  27.829  1.00  0.00     0.338 C 
ATOM      7  O   UNL A   1      32.877  34.651  28.333  1.00  0.00    -0.246 OA
BRANCH   6   8
ATOM      8  C   UNL A   1      34.368  32.841  28.316  1.00  0.00     0.060 A 
ATOM      9  C   UNL A   1      34.356  31.611  28.965  1.00  0.00     0.016 A 
ATOM     10  C   UNL A   1      35.622  33.432  28.082  1.00  0.00     0.016 A 
ATOM     11  C   UNL A   1      35.503  31.031  29.473  1.00  0.00     0.010 A 
ATOM     12  C   UNL A   1      36.802  32.815  28.526  1.00  0.00     0.010 A 
ATOM     13  C   UNL A   1      36.737  31.616  29.251  1.00  0.00    -0.014 A 
BRANCH  13  14
ATOM     14  C   UNL A   1      37.901  31.003  29.920  1.00  0.00     0.031 A 
ATOM     15  C   UNL A   1      38.270  31.509  31.278  1.00  0.00     0.074 A 
ATOM     16  C   UNL A   1      38.479  29.891  29.424  1.00  0.00     0.049 A 
ATOM     17  N   UNL A   1      39.238  31.124  32.060  1.00  0.00    -0.248 NA
ATOM     18  C   UNL A   1      37.382  32.529  31.865  1.00  0.00     0.031 C 
ATOM     19  C   UNL A   1      38.014  29.138  28.258  1.00  0.00     0.029 A 
ATOM     20  N   UNL A   1      39.590  29.196  29.822  1.00  0.00    -0.354 N 
ATOM     21  C   UNL A   1      39.034  31.797  33.256  1.00  0.00     0.074 A 
ATOM     22  C   UNL A   1      37.911  32.685  33.068  1.00  0.00     0.031 C 
ATOM     23  C   UNL A   1      38.896  28.173  27.959  1.00  0.00     0.029 A 
ATOM     24  C   UNL A   1      39.995  28.257  28.899  1.00  0.00     0.049 A 
ATOM     25  H   UNL A   1      40.050  29.351  30.678  1.00  0.00     0.167 HD
ATOM     26  C   UNL A   1      39.700  31.635  34.421  1.00  0.00     0.034 A 
ATOM     27  C   UNL A   1      41.155  27.587  28.797  1.00  0.00     0.034 A 
ATOM     28  C   UNL A   1      40.842  30.769  34.553  1.00  0.00     0.049 A 
ATOM     29  C   UNL A   1      42.085  27.674  29.969  1.00  0.00     0.074 A 
ATOM     30  C   UNL A   1      41.664  30.579  35.647  1.00  0.00     0.029 A 
ATOM     31  N   UNL A   1      41.335  29.957  33.535  1.00  0.00    -0.354 N 
ATOM     32  N   UNL A   1      41.926  28.354  31.082  1.00  0.00    -0.248 NA
ATOM     33  C   UNL A   1      43.293  26.854  29.918  1.00  0.00     0.031 C 
ATOM     34  C   UNL A   1      42.695  29.712  35.266  1.00  0.00     0.029 A 
ATOM     35  C   UNL A   1      42.475  29.296  33.962  1.00  0.00     0.049 A 
ATOM     36  H   UNL A   1      40.931  29.864  32.642  1.00  0.00     0.167 HD
ATOM     37  C   UNL A   1      42.978  27.979  31.902  1.00  0.00     0.074 A 
ATOM     38  C   UNL A   1      43.767  27.024  31.143  1.00  0.00     0.031 C 
ATOM     39  C   UNL A   1      43.249  28.363  33.176  1.00  0.00     0.034 A 
BRANCH  26  40
ATOM     40  C   UNL A   1      39.231  32.461  35.588  1.00  0.00     0.023 A 
ATOM     41  C   UNL A   1      39.633  33.801  35.752  1.00  0.00     0.031 A 
ATOM     42  C   UNL A   1      38.438  31.881  36.590  1.00  0.00     0.131 A 
ATOM     43  C   UNL A   1      39.292  34.494  36.923  1.00  0.00     0.055 A 
ATOM     44  C   UNL A   1      38.042  32.599  37.719  1.00  0.00     0.041 A 
ATOM     45  F   UNL A   1      38.060  30.596  36.504  1.00  0.00    -0.206 F 
ATOM     46  C   UNL A   1      38.478  33.910  37.897  1.00  0.00     0.022 A 
BRANCH  43  47
ATOM     47  S   UNL A   1      40.037  36.122  37.221  1.00  0.00     0.124 S 
ATOM     48  O   UNL A   1      39.196  36.639  38.297  1.00  0.00    -0.237 OA
ATOM     49  O   UNL A   1      41.407  35.783  37.588  1.00  0.00    -0.237 OA
ATOM     50  O   UNL A   1      39.888  36.806  35.938  1.00  0.00    -0.744 OA
ENDBRANCH  43  47
ENDBRANCH  26  40
BRANCH  27  51
ATOM     51  C   UNL A   1      41.516  26.842  27.557  1.00  0.00     0.023 A 
ATOM     52  C   UNL A   1      41.380  25.452  27.461  1.00  0.00     0.031 A 
ATOM     53  C   UNL A   1      42.103  27.522  26.471  1.00  0.00     0.131 A 
ATOM     54  C   UNL A   1      41.884  24.776  26.337  1.00  0.00     0.055 A 
ATOM     55  C   UNL A   1      42.556  26.851  25.333  1.00  0.00     0.041 A 
ATOM     56  F   UNL A   1      42.265  28.854  26.509  1.00  0.00    -0.206 F 
ATOM     57  C   UNL A   1      42.464  25.465  25.270  1.00  0.00     0.022 A 
BRANCH  54  58
ATOM     58  S   UNL A   1      41.880  22.962  26.350  1.00  0.00     0.124 S 
ATOM     59  O   UNL A   1      42.520  22.653  25.079  1.00  0.00    -0.237 OA
ATOM     60  O   UNL A   1      42.655  22.671  27.551  1.00  0.00    -0.237 OA
ATOM     61  O   UNL A   1      40.458  22.628  26.432  1.00  0.00    -0.744 OA
ENDBRANCH  54  58
ENDBRANCH  27  51
BRANCH  39  62
ATOM     62  C   UNL A   1      44.424  27.691  33.828  1.00  0.00     0.023 A 
ATOM     63  C   UNL A   1      45.713  28.241  33.750  1.00  0.00     0.031 A 
ATOM     64  C   UNL A   1      44.261  26.457  34.480  1.00  0.00     0.131 A 
ATOM     65  C   UNL A   1      46.805  27.512  34.235  1.00  0.00     0.055 A 
ATOM     66  C   UNL A   1      45.340  25.779  35.040  1.00  0.00     0.041 A 
ATOM     67  F   UNL A   1      43.049  25.886  34.572  1.00  0.00    -0.206 F 
ATOM     68  C   UNL A   1      46.626  26.297  34.900  1.00  0.00     0.022 A 
BRANCH  65  69
ATOM     69  S   UNL A   1      48.470  28.110  33.846  1.00  0.00     0.124 S 
ATOM     70  O   UNL A   1      48.502  29.386  34.553  1.00  0.00    -0.237 OA
ATOM     71  O   UNL A   1      49.316  27.056  34.395  1.00  0.00    -0.237 OA
ATOM     72  O   UNL A   1      48.465  28.206  32.388  1.00  0.00    -0.744 OA
ENDBRANCH  65  69
ENDBRANCH  39  62
ENDBRANCH  13  14
ENDBRANCH   6   8
ENDBRANCH   5   6
ENDBRANCH   4   5
ENDBRANCH   3   4
ENDBRANCH   2   3
ENDBRANCH   1   2
BRANCH   1  73
ATOM     73  C   UNL A   1      32.225  27.592  26.269  1.00  0.00     0.188 C 
BRANCH  73  74
ATOM     74  O   UNL A   1      31.300  27.704  25.191  1.00  0.00    -0.376 OA
BRANCH  74  75
ATOM     75  C   UNL A   1      30.573  26.534  24.833  1.00  0.00     0.202 C 
BRANCH  75  76
ATOM     76  C   UNL A   1      30.388  25.435  25.893  1.00  0.00     0.261 C 
BRANCH  76  77
ATOM     77  O   UNL A   1      30.899  24.135  25.549  1.00  0.00    -0.463 OA
BRANCH  77  78
ATOM     78  C   UNL A   1      31.778  23.600  26.443  1.00  0.00     0.318 C 
ATOM     79  O   UNL A   1      31.515  23.438  27.632  1.00  0.00    -0.251 OA
BRANCH  78  80
ATOM     80  C   UNL A   1      33.160  23.259  25.851  1.00  0.00     0.122 C 
ATOM     81  C   UNL A   1      33.947  24.486  25.348  1.00  0.00     0.031 C 
ATOM     82  C   UNL A   1      33.923  22.682  27.065  1.00  0.00     0.279 C 
ATOM     83  C   UNL A   1      35.422  24.174  25.083  1.00  0.00     0.063 C 
ATOM     84  N   UNL A   1      35.315  22.322  26.821  1.00  0.00    -0.345 N 
ATOM     85  C   UNL A   1      36.108  23.364  26.182  1.00  0.00     0.260 C 
ATOM     86  H   UNL A   1      35.747  22.096  27.716  1.00  0.00     0.346 HD
ATOM     87  H   UNL A   1      35.299  21.534  26.173  1.00  0.00     0.346 HD
BRANCH  80  88
ATOM     88  C   UNL A   1      32.857  22.259  24.686  1.00  0.00     0.082 C 
BRANCH  88  89
ATOM     89  C   UNL A   1      33.193  20.814  24.868  1.00  0.00     0.061 A 
ATOM     90  C   UNL A   1      34.380  20.168  24.594  1.00  0.00     0.116 A 
ATOM     91  N   UNL A   1      32.281  19.918  25.400  1.00  0.00    -0.234 NA
ATOM     92  N   UNL A   1      34.110  18.835  24.710  1.00  0.00    -0.307 N 
ATOM     93  C   UNL A   1      32.857  18.734  25.299  1.00  0.00     0.136 A 
ATOM     94  C   UNL A   1      34.878  17.741  24.323  1.00  0.00     0.093 A 
ATOM     95  C   UNL A   1      32.413  17.422  25.635  1.00  0.00     0.048 A 
ATOM     96  C   UNL A   1      34.426  16.502  24.580  1.00  0.00     0.018 A 
ATOM     97  C   UNL A   1      33.166  16.354  25.297  1.00  0.00     0.005 A 
ENDBRANCH  88  89
ENDBRANCH  80  88
ENDBRANCH  78  80
ENDBRANCH  77  78
ENDBRANCH  76  77
ENDBRANCH  75  76
ENDBRANCH  74  75
ENDBRANCH  73  74
ENDBRANCH   1  73
TORSDOF 22
ENDMDL
MODEL 2
REMARK VINA RESULT:     -10.2      5.877      9.526
REMARK SMILES O=C(OCCOCCOCCOC(=O)[C@@]1(Cc2cn3ccccc3n2)CCC[NH2+]C1)c1ccc(-c2c3nc(c(-c4cc(S(=O)(=O)[O-])ccc4F)c4ccc([nH]4)c(-c4cc(S(=O)(=O)[O-])ccc4F)c4nc(c(-c5cc(S(=O)(=O)[O-])ccc5F)c5ccc2[nH]5)C=C4)C=C3)cc1
REMARK SMILES IDX 7 1 6 2 5 3 4 4 3 5 2 6 1 7 31 8 32 9 93 10 33 11 92 12
REMARK SMILES IDX 34 13 35 14 36 15 86 16 37 17 91 18 85 19 87 20 38 21 90 22
REMARK SMILES IDX 84 23 83 24 39 26 71 27 51 28 70 29 52 30 55 31 69 32 88 33
REMARK SMILES IDX 53 34 54 35 68 37 89 38 56 39 40 40 41 41 49 42 42 43 48 44
REMARK SMILES IDX 50 45 47 46 43 47 44 48 45 49 46 50 72 51 73 52 81 53 74 54
REMARK SMILES IDX 80 55 82 56 79 57 75 58 76 59 77 60 78 61 57 62 58 63 66 64
REMARK SMILES IDX 59 65 65 66 67 67 64 68 60 69 61 70 62 71 63 72 8 73 9 74
REMARK SMILES IDX 10 75 11 76 12 77 13 78 14 79 15 80 26 81 30 82 27 83 29 84
REMARK SMILES IDX 28 85 16 88 17 89 18 90 25 91 19 92 24 93 20 94 23 95 21 96
REMARK SMILES IDX 22 97
REMARK H PARENT 87 25 55 36 29 86 29 87
REMARK Flexibility Score: inf
ROOT
ATOM      1  C   UNL A   1      41.257  21.239  27.521  1.00  0.00     0.188 C 
ENDROOT
BRANCH   1   2
ATOM      2  O   UNL A   1      41.052  19.841  27.287  1.00  0.00    -0.376 OA
BRANCH   2   3
ATOM      3  C   UNL A   1      42.272  19.089  27.259  1.00  0.00     0.202 C 
BRANCH   3   4
ATOM      4  C   UNL A   1      42.602  18.401  25.917  1.00  0.00     0.261 C 
BRANCH   4   5
ATOM      5  O   UNL A   1      43.018  19.311  24.881  1.00  0.00    -0.460 OA
BRANCH   5   6
ATOM      6  C   UNL A   1      44.170  20.026  24.786  1.00  0.00     0.338 C 
ATOM      7  O   UNL A   1      45.167  19.459  24.337  1.00  0.00    -0.246 OA
BRANCH   6   8
ATOM      8  C   UNL A   1      44.308  21.456  25.215  1.00  0.00     0.060 A 
ATOM      9  C   UNL A   1      44.209  22.552  24.363  1.00  0.00     0.016 A 
ATOM     10  C   UNL A   1      44.528  21.721  26.579  1.00  0.00     0.016 A 
ATOM     11  C   UNL A   1      44.431  23.845  24.792  1.00  0.00     0.010 A 
ATOM     12  C   UNL A   1      44.680  23.038  27.040  1.00  0.00     0.010 A 
ATOM     13  C   UNL A   1      44.656  24.107  26.132  1.00  0.00    -0.014 A 
BRANCH  13  14
ATOM     14  C   UNL A   1      44.999  25.495  26.497  1.00  0.00     0.031 A 
ATOM     15  C   UNL A   1      43.881  26.408  26.890  1.00  0.00     0.074 A 
ATOM     16  C   UNL A   1      46.282  25.868  26.676  1.00  0.00     0.049 A 
ATOM     17  N   UNL A   1      43.935  27.657  27.258  1.00  0.00    -0.248 NA
ATOM     18  C   UNL A   1      42.535  25.812  26.955  1.00  0.00     0.031 C 
ATOM     19  C   UNL A   1      47.444  24.980  26.607  1.00  0.00     0.029 A 
ATOM     20  N   UNL A   1      46.838  27.091  26.942  1.00  0.00    -0.354 N 
ATOM     21  C   UNL A   1      42.648  27.975  27.666  1.00  0.00     0.074 A 
ATOM     22  C   UNL A   1      41.815  26.823  27.413  1.00  0.00     0.031 C 
ATOM     23  C   UNL A   1      48.572  25.701  26.693  1.00  0.00     0.029 A 
ATOM     24  C   UNL A   1      48.209  27.099  26.803  1.00  0.00     0.049 A 
ATOM     25  H   UNL A   1      46.314  27.881  27.206  1.00  0.00     0.167 HD
ATOM     26  C   UNL A   1      42.224  29.117  28.254  1.00  0.00     0.034 A 
ATOM     27  C   UNL A   1      49.064  28.131  26.712  1.00  0.00     0.034 A 
ATOM     28  C   UNL A   1      43.080  30.257  28.449  1.00  0.00     0.049 A 
ATOM     29  C   UNL A   1      48.515  29.487  27.036  1.00  0.00     0.074 A 
ATOM     30  C   UNL A   1      42.760  31.505  28.947  1.00  0.00     0.029 A 
ATOM     31  N   UNL A   1      44.435  30.288  28.130  1.00  0.00    -0.354 N 
ATOM     32  N   UNL A   1      47.285  29.806  27.369  1.00  0.00    -0.248 NA
ATOM     33  C   UNL A   1      49.465  30.598  27.057  1.00  0.00     0.031 C 
ATOM     34  C   UNL A   1      43.901  32.311  28.858  1.00  0.00     0.029 A 
ATOM     35  C   UNL A   1      44.955  31.547  28.381  1.00  0.00     0.049 A 
ATOM     36  H   UNL A   1      44.949  29.526  27.779  1.00  0.00     0.167 HD
ATOM     37  C   UNL A   1      47.329  31.145  27.720  1.00  0.00     0.074 A 
ATOM     38  C   UNL A   1      48.707  31.569  27.543  1.00  0.00     0.031 C 
ATOM     39  C   UNL A   1      46.330  31.943  28.178  1.00  0.00     0.034 A 
BRANCH  26  40
ATOM     40  C   UNL A   1      40.774  29.175  28.650  1.00  0.00     0.023 A 
ATOM     41  C   UNL A   1      40.372  29.041  29.993  1.00  0.00     0.031 A 
ATOM     42  C   UNL A   1      39.777  29.288  27.669  1.00  0.00     0.131 A 
ATOM     43  C   UNL A   1      39.007  28.957  30.308  1.00  0.00     0.055 A 
ATOM     44  C   UNL A   1      38.421  29.277  27.997  1.00  0.00     0.041 A 
ATOM     45  F   UNL A   1      40.104  29.379  26.371  1.00  0.00    -0.206 F 
ATOM     46  C   UNL A   1      38.028  29.100  29.322  1.00  0.00     0.022 A 
BRANCH  43  47
ATOM     47  S   UNL A   1      38.528  28.526  32.005  1.00  0.00     0.124 S 
ATOM     48  O   UNL A   1      38.570  27.067  31.962  1.00  0.00    -0.237 OA
ATOM     49  O   UNL A   1      39.565  29.170  32.802  1.00  0.00    -0.237 OA
ATOM     50  O   UNL A   1      37.192  29.102  32.140  1.00  0.00    -0.744 OA
ENDBRANCH  43  47
ENDBRANCH  26  40
BRANCH  27  51
ATOM     51  C   UNL A   1      50.471  27.937  26.260  1.00  0.00     0.023 A 
ATOM     52  C   UNL A   1      50.807  27.834  24.904  1.00  0.00     0.031 A 
ATOM     53  C   UNL A   1      51.498  27.752  27.207  1.00  0.00     0.131 A 
ATOM     54  C   UNL A   1      52.118  27.490  24.532  1.00  0.00     0.055 A 
ATOM     55  C   UNL A   1      52.811  27.460  26.831  1.00  0.00     0.041 A 
ATOM     56  F   UNL A   1      51.235  27.834  28.521  1.00  0.00    -0.206 F 
ATOM     57  C   UNL A   1      53.123  27.308  25.485  1.00  0.00     0.022 A 
BRANCH  54  58
ATOM     58  S   UNL A   1      52.457  27.158  22.781  1.00  0.00     0.124 S 
ATOM     59  O   UNL A   1      53.171  28.362  22.382  1.00  0.00    -0.237 OA
ATOM     60  O   UNL A   1      53.247  25.934  22.858  1.00  0.00    -0.237 OA
ATOM     61  O   UNL A   1      51.122  27.001  22.202  1.00  0.00    -0.744 OA
ENDBRANCH  54  58
ENDBRANCH  27  51
BRANCH  39  62
ATOM     62  C   UNL A   1      46.730  33.338  28.567  1.00  0.00     0.023 A 
ATOM     63  C   UNL A   1      46.788  34.370  27.619  1.00  0.00     0.031 A 
ATOM     64  C   UNL A   1      47.117  33.620  29.888  1.00  0.00     0.131 A 
ATOM     65  C   UNL A   1      47.311  35.615  27.984  1.00  0.00     0.055 A 
ATOM     66  C   UNL A   1      47.552  34.888  30.266  1.00  0.00     0.041 A 
ATOM     67  F   UNL A   1      47.088  32.663  30.830  1.00  0.00    -0.206 F 
ATOM     68  C   UNL A   1      47.672  35.889  29.305  1.00  0.00     0.022 A 
BRANCH  65  69
ATOM     69  S   UNL A   1      47.652  36.817  26.671  1.00  0.00     0.124 S 
ATOM     70  O   UNL A   1      46.406  37.574  26.628  1.00  0.00    -0.237 OA
ATOM     71  O   UNL A   1      48.812  37.529  27.194  1.00  0.00    -0.237 OA
ATOM     72  O   UNL A   1      47.911  35.978  25.502  1.00  0.00    -0.744 OA
ENDBRANCH  65  69
ENDBRANCH  39  62
ENDBRANCH  13  14
ENDBRANCH   6   8
ENDBRANCH   5   6
ENDBRANCH   4   5
ENDBRANCH   3   4
ENDBRANCH   2   3
ENDBRANCH   1   2
BRANCH   1  73
ATOM     73  C   UNL A   1      40.619  22.135  26.460  1.00  0.00     0.188 C 
BRANCH  73  74
ATOM     74  O   UNL A   1      39.322  21.768  25.994  1.00  0.00    -0.376 OA
BRANCH  74  75
ATOM     75  C   UNL A   1      38.344  22.798  25.917  1.00  0.00     0.202 C 
BRANCH  75  76
ATOM     76  C   UNL A   1      37.160  22.613  24.953  1.00  0.00     0.261 C 
BRANCH  76  77
ATOM     77  O   UNL A   1      35.978  23.374  25.253  1.00  0.00    -0.463 OA
BRANCH  77  78
ATOM     78  C   UNL A   1      35.002  23.333  24.301  1.00  0.00     0.318 C 
ATOM     79  O   UNL A   1      35.233  23.400  23.096  1.00  0.00    -0.251 OA
BRANCH  78  80
ATOM     80  C   UNL A   1      33.569  23.249  24.862  1.00  0.00     0.122 C 
ATOM     81  C   UNL A   1      33.504  23.014  26.384  1.00  0.00     0.031 C 
ATOM     82  C   UNL A   1      33.006  24.662  24.585  1.00  0.00     0.279 C 
ATOM     83  C   UNL A   1      32.110  23.267  26.962  1.00  0.00     0.063 C 
ATOM     84  N   UNL A   1      31.655  24.908  25.075  1.00  0.00    -0.345 N 
ATOM     85  C   UNL A   1      31.441  24.551  26.471  1.00  0.00     0.260 C 
ATOM     86  H   UNL A   1      31.453  25.901  24.966  1.00  0.00     0.346 HD
ATOM     87  H   UNL A   1      31.036  24.311  24.527  1.00  0.00     0.346 HD
BRANCH  80  88
ATOM     88  C   UNL A   1      32.903  22.073  24.073  1.00  0.00     0.082 C 
BRANCH  88  89
ATOM     89  C   UNL A   1      33.231  20.666  24.461  1.00  0.00     0.061 A 
ATOM     90  C   UNL A   1      34.452  20.029  24.423  1.00  0.00     0.116 A 
ATOM     91  N   UNL A   1      32.267  19.809  24.963  1.00  0.00    -0.234 NA
ATOM     92  N   UNL A   1      34.186  18.709  24.651  1.00  0.00    -0.307 N 
ATOM     93  C   UNL A   1      32.866  18.638  25.075  1.00  0.00     0.136 A 
ATOM     94  C   UNL A   1      35.015  17.602  24.497  1.00  0.00     0.093 A 
ATOM     95  C   UNL A   1      32.398  17.359  25.494  1.00  0.00     0.048 A 
ATOM     96  C   UNL A   1      34.548  16.386  24.830  1.00  0.00     0.018 A 
ATOM     97  C   UNL A   1      33.203  16.282  25.383  1.00  0.00     0.005 A 
ENDBRANCH  88  89
ENDBRANCH  80  88
ENDBRANCH  78  80
ENDBRANCH  77  78
ENDBRANCH  76  77
ENDBRANCH  75  76
ENDBRANCH  74  75
ENDBRANCH  73  74
ENDBRANCH   1  73
TORSDOF 22
ENDMDL
MODEL 3
REMARK VINA RESULT:     -10.0      1.618      7.810
REMARK SMILES O=C(OCCOCCOCCOC(=O)[C@@]1(Cc2cn3ccccc3n2)CCC[NH2+]C1)c1ccc(-c2c3nc(c(-c4cc(S(=O)(=O)[O-])ccc4F)c4ccc([nH]4)c(-c4cc(S(=O)(=O)[O-])ccc4F)c4nc(c(-c5cc(S(=O)(=O)[O-])ccc5F)c5ccc2[nH]5)C=C4)C=C3)cc1
REMARK SMILES IDX 7 1 6 2 5 3 4 4 3 5 2 6 1 7 31 8 32 9 93 10 33 11 92 12
REMARK SMILES IDX 34 13 35 14 36 15 86 16 37 17 91 18 85 19 87 20 38 21 90 22
REMARK SMILES IDX 84 23 83 24 39 26 71 27 51 28 70 29 52 30 55 31 69 32 88 33
REMARK SMILES IDX 53 34 54 35 68 37 89 38 56 39 40 40 41 41 49 42 42 43 48 44
REMARK SMILES IDX 50 45 47 46 43 47 44 48 45 49 46 50 72 51 73 52 81 53 74 54
REMARK SMILES IDX 80 55 82 56 79 57 75 58 76 59 77 60 78 61 57 62 58 63 66 64
REMARK SMILES IDX 59 65 65 66 67 67 64 68 60 69 61 70 62 71 63 72 8 73 9 74
REMARK SMILES IDX 10 75 11 76 12 77 13 78 14 79 15 80 26 81 30 82 27 83 29 84
REMARK SMILES IDX 28 85 16 88 17 89 18 90 25 91 19 92 24 93 20 94 23 95 21 96
REMARK SMILES IDX 22 97
REMARK H PARENT 87 25 55 36 29 86 29 87
REMARK Flexibility Score: inf
ROOT
ATOM      1  C   UNL A   1      33.279  29.707  27.172  1.00  0.00     0.188 C 
ENDROOT
BRANCH   1   2
ATOM      2  O   UNL A   1      32.753  30.598  26.183  1.00  0.00    -0.376 OA
BRANCH   2   3
ATOM      3  C   UNL A   1      31.466  31.128  26.527  1.00  0.00     0.202 C 
BRANCH   3   4
ATOM      4  C   UNL A   1      31.379  32.666  26.619  1.00  0.00     0.261 C 
BRANCH   4   5
ATOM      5  O   UNL A   1      32.651  33.312  26.815  1.00  0.00    -0.460 OA
BRANCH   5   6
ATOM      6  C   UNL A   1      33.234  33.714  27.976  1.00  0.00     0.338 C 
ATOM      7  O   UNL A   1      32.762  34.697  28.549  1.00  0.00    -0.246 OA
BRANCH   6   8
ATOM      8  C   UNL A   1      34.430  33.048  28.588  1.00  0.00     0.060 A 
ATOM      9  C   UNL A   1      34.371  32.034  29.539  1.00  0.00     0.016 A 
ATOM     10  C   UNL A   1      35.707  33.453  28.159  1.00  0.00     0.016 A 
ATOM     11  C   UNL A   1      35.502  31.515  30.138  1.00  0.00     0.010 A 
ATOM     12  C   UNL A   1      36.865  32.878  28.705  1.00  0.00     0.010 A 
ATOM     13  C   UNL A   1      36.759  31.918  29.723  1.00  0.00    -0.014 A 
BRANCH  13  14
ATOM     14  C   UNL A   1      37.914  31.407  30.485  1.00  0.00     0.031 A 
ATOM     15  C   UNL A   1      38.766  30.359  29.841  1.00  0.00     0.074 A 
ATOM     16  C   UNL A   1      38.313  32.006  31.625  1.00  0.00     0.049 A 
ATOM     17  N   UNL A   1      39.831  29.770  30.305  1.00  0.00    -0.248 NA
ATOM     18  C   UNL A   1      38.418  29.986  28.458  1.00  0.00     0.031 C 
ATOM     19  C   UNL A   1      37.732  33.223  32.194  1.00  0.00     0.029 A 
ATOM     20  N   UNL A   1      39.293  31.678  32.523  1.00  0.00    -0.354 N 
ATOM     21  C   UNL A   1      40.322  29.013  29.251  1.00  0.00     0.074 A 
ATOM     22  C   UNL A   1      39.390  29.142  28.155  1.00  0.00     0.031 C 
ATOM     23  C   UNL A   1      38.271  33.463  33.399  1.00  0.00     0.029 A 
ATOM     24  C   UNL A   1      39.217  32.407  33.690  1.00  0.00     0.049 A 
ATOM     25  H   UNL A   1      39.979  30.993  32.353  1.00  0.00     0.167 HD
ATOM     26  C   UNL A   1      41.482  28.322  29.198  1.00  0.00     0.034 A 
ATOM     27  C   UNL A   1      39.805  32.199  34.880  1.00  0.00     0.034 A 
ATOM     28  C   UNL A   1      42.361  28.186  30.329  1.00  0.00     0.049 A 
ATOM     29  C   UNL A   1      40.889  31.166  34.921  1.00  0.00     0.074 A 
ATOM     30  C   UNL A   1      43.520  27.442  30.441  1.00  0.00     0.029 A 
ATOM     31  N   UNL A   1      42.159  28.802  31.561  1.00  0.00    -0.354 N 
ATOM     32  N   UNL A   1      41.323  30.404  33.942  1.00  0.00    -0.248 NA
ATOM     33  C   UNL A   1      41.616  31.018  36.181  1.00  0.00     0.031 C 
ATOM     34  C   UNL A   1      43.975  27.549  31.761  1.00  0.00     0.029 A 
ATOM     35  C   UNL A   1      43.148  28.421  32.452  1.00  0.00     0.049 A 
ATOM     36  H   UNL A   1      41.421  29.420  31.768  1.00  0.00     0.167 HD
ATOM     37  C   UNL A   1      42.431  29.743  34.445  1.00  0.00     0.074 A 
ATOM     38  C   UNL A   1      42.584  30.190  35.819  1.00  0.00     0.031 C 
ATOM     39  C   UNL A   1      43.264  28.871  33.820  1.00  0.00     0.034 A 
BRANCH  26  40
ATOM     40  C   UNL A   1      41.798  27.631  27.899  1.00  0.00     0.023 A 
ATOM     41  C   UNL A   1      41.639  26.240  27.747  1.00  0.00     0.031 A 
ATOM     42  C   UNL A   1      42.338  28.356  26.826  1.00  0.00     0.131 A 
ATOM     43  C   UNL A   1      42.078  25.611  26.572  1.00  0.00     0.055 A 
ATOM     44  C   UNL A   1      42.705  27.735  25.632  1.00  0.00     0.041 A 
ATOM     45  F   UNL A   1      42.546  29.677  26.932  1.00  0.00    -0.206 F 
ATOM     46  C   UNL A   1      42.586  26.353  25.503  1.00  0.00     0.022 A 
BRANCH  43  47
ATOM     47  S   UNL A   1      42.099  23.797  26.509  1.00  0.00     0.124 S 
ATOM     48  O   UNL A   1      42.710  23.555  25.204  1.00  0.00    -0.237 OA
ATOM     49  O   UNL A   1      42.911  23.448  27.668  1.00  0.00    -0.237 OA
ATOM     50  O   UNL A   1      40.687  23.435  26.606  1.00  0.00    -0.744 OA
ENDBRANCH  43  47
ENDBRANCH  26  40
BRANCH  27  51
ATOM     51  C   UNL A   1      39.360  32.924  36.104  1.00  0.00     0.023 A 
ATOM     52  C   UNL A   1      39.926  34.146  36.489  1.00  0.00     0.031 A 
ATOM     53  C   UNL A   1      38.411  32.338  36.966  1.00  0.00     0.131 A 
ATOM     54  C   UNL A   1      39.591  34.710  37.732  1.00  0.00     0.055 A 
ATOM     55  C   UNL A   1      38.043  32.928  38.177  1.00  0.00     0.041 A 
ATOM     56  F   UNL A   1      37.839  31.165  36.651  1.00  0.00    -0.206 F 
ATOM     57  C   UNL A   1      38.650  34.114  38.575  1.00  0.00     0.022 A 
BRANCH  54  58
ATOM     58  S   UNL A   1      40.504  36.176  38.286  1.00  0.00     0.124 S 
ATOM     59  O   UNL A   1      39.465  37.196  38.275  1.00  0.00    -0.237 OA
ATOM     60  O   UNL A   1      40.980  35.753  39.598  1.00  0.00    -0.237 OA
ATOM     61  O   UNL A   1      41.544  36.331  37.268  1.00  0.00    -0.744 OA
ENDBRANCH  54  58
ENDBRANCH  27  51
BRANCH  39  62
ATOM     62  C   UNL A   1      44.444  28.401  34.623  1.00  0.00     0.023 A 
ATOM     63  C   UNL A   1      44.330  27.335  35.528  1.00  0.00     0.031 A 
ATOM     64  C   UNL A   1      45.677  29.068  34.526  1.00  0.00     0.131 A 
ATOM     65  C   UNL A   1      45.405  27.025  36.369  1.00  0.00     0.055 A 
ATOM     66  C   UNL A   1      46.771  28.695  35.303  1.00  0.00     0.041 A 
ATOM     67  F   UNL A   1      45.832  30.101  33.682  1.00  0.00    -0.206 F 
ATOM     68  C   UNL A   1      46.632  27.681  36.247  1.00  0.00     0.022 A 
BRANCH  65  69
ATOM     69  S   UNL A   1      45.120  25.855  37.722  1.00  0.00     0.124 S 
ATOM     70  O   UNL A   1      46.259  26.122  38.594  1.00  0.00    -0.237 OA
ATOM     71  O   UNL A   1      43.818  26.275  38.229  1.00  0.00    -0.237 OA
ATOM     72  O   UNL A   1      45.138  24.554  37.057  1.00  0.00    -0.744 OA
ENDBRANCH  65  69
ENDBRANCH  39  62
ENDBRANCH  13  14
ENDBRANCH   6   8
ENDBRANCH   5   6
ENDBRANCH   4   5
ENDBRANCH   3   4
ENDBRANCH   2   3
ENDBRANCH   1   2
BRANCH   1  73
ATOM     73  C   UNL A   1      33.450  28.273  26.671  1.00  0.00     0.188 C 
BRANCH  73  74
ATOM     74  O   UNL A   1      32.659  27.877  25.553  1.00  0.00    -0.376 OA
BRANCH  74  75
ATOM     75  C   UNL A   1      31.574  26.992  25.805  1.00  0.00     0.202 C 
BRANCH  75  76
ATOM     76  C   UNL A   1      31.888  25.568  26.292  1.00  0.00     0.261 C 
BRANCH  76  77
ATOM     77  O   UNL A   1      32.595  24.726  25.364  1.00  0.00    -0.463 OA
BRANCH  77  78
ATOM     78  C   UNL A   1      32.623  23.402  25.685  1.00  0.00     0.318 C 
ATOM     79  O   UNL A   1      31.747  22.851  26.349  1.00  0.00    -0.251 OA
BRANCH  78  80
ATOM     80  C   UNL A   1      33.874  22.652  25.188  1.00  0.00     0.122 C 
ATOM     81  C   UNL A   1      34.916  23.557  24.500  1.00  0.00     0.031 C 
ATOM     82  C   UNL A   1      34.506  22.128  26.498  1.00  0.00     0.279 C 
ATOM     83  C   UNL A   1      36.271  22.869  24.322  1.00  0.00     0.063 C 
ATOM     84  N   UNL A   1      35.770  21.417  26.347  1.00  0.00    -0.345 N 
ATOM     85  C   UNL A   1      36.772  22.121  25.557  1.00  0.00     0.260 C 
ATOM     86  H   UNL A   1      36.155  21.252  27.277  1.00  0.00     0.346 HD
ATOM     87  H   UNL A   1      35.558  20.556  25.843  1.00  0.00     0.346 HD
BRANCH  80  88
ATOM     88  C   UNL A   1      33.323  21.567  24.205  1.00  0.00     0.082 C 
BRANCH  88  89
ATOM     89  C   UNL A   1      33.436  20.125  24.581  1.00  0.00     0.061 A 
ATOM     90  C   UNL A   1      34.534  19.297  24.484  1.00  0.00     0.116 A 
ATOM     91  N   UNL A   1      32.373  19.434  25.137  1.00  0.00    -0.234 NA
ATOM     92  N   UNL A   1      34.069  18.037  24.732  1.00  0.00    -0.307 N 
ATOM     93  C   UNL A   1      32.778  18.181  25.224  1.00  0.00     0.136 A 
ATOM     94  C   UNL A   1      34.696  16.810  24.540  1.00  0.00     0.093 A 
ATOM     95  C   UNL A   1      32.130  16.993  25.672  1.00  0.00     0.048 A 
ATOM     96  C   UNL A   1      34.056  15.686  24.903  1.00  0.00     0.018 A 
ATOM     97  C   UNL A   1      32.743  15.800  25.525  1.00  0.00     0.005 A 
ENDBRANCH  88  89
ENDBRANCH  80  88
ENDBRANCH  78  80
ENDBRANCH  77  78
ENDBRANCH  76  77
ENDBRANCH  75  76
ENDBRANCH  74  75
ENDBRANCH  73  74
ENDBRANCH   1  73
TORSDOF 22
ENDMDL
