MODEL 1
REMARK VINA RESULT:     -10.3      0.000      0.000
REMARK SMILES O=C(OCCOCCOCCOC(=O)c1cc([C@@H]2C=NN=C2c2ccc(F)cc2)c2c(ccc3ccccc32)n1)c1ccc(-c2c3nc(c(-c4cc(S(=O)(=O)[O-])ccc4F)c4ccc([nH]4)c(-c4cc(S(=O)(=O)[O-])ccc4F)c4nc(c(-c5cc(S(=O)(=O)[O-])ccc5F)c5ccc2[nH]5)C=C4)C=C3)cc1
REMARK SMILES IDX 7 1 6 2 5 3 4 4 3 5 2 6 1 7 41 8 42 9 103 10 43 11 102 12
REMARK SMILES IDX 44 13 45 14 46 15 96 16 47 17 101 18 95 19 97 20 48 21
REMARK SMILES IDX 100 22 94 23 93 24 49 26 81 27 61 28 80 29 62 30 65 31 79 32
REMARK SMILES IDX 98 33 63 34 64 35 78 37 99 38 66 39 50 40 51 41 59 42 52 43
REMARK SMILES IDX 58 44 60 45 57 46 53 47 54 48 55 49 56 50 82 51 83 52 91 53
REMARK SMILES IDX 84 54 90 55 92 56 89 57 85 58 86 59 87 60 88 61 67 62 68 63
REMARK SMILES IDX 76 64 69 65 75 66 77 67 74 68 70 69 71 70 72 71 73 72 8 73
REMARK SMILES IDX 9 74 10 75 11 76 12 77 13 78 14 79 15 80 16 81 40 82 17 83
REMARK SMILES IDX 31 84 30 85 32 86 39 87 33 88 34 89 38 90 35 91 37 92 36 93
REMARK SMILES IDX 18 94 19 95 22 96 20 97 21 98 23 99 24 100 29 101 25 102
REMARK SMILES IDX 28 103 26 104 27 105
REMARK H PARENT 97 25 65 36
REMARK Flexibility Score: inf
ROOT
ATOM      1  C   UNL A   1      33.033  27.170  26.308  1.00  0.00     0.188 C 
ENDROOT
BRANCH   1   2
ATOM      2  O   UNL A   1      33.813  28.333  26.561  1.00  0.00    -0.376 OA
BRANCH   2   3
ATOM      3  C   UNL A   1      33.119  29.398  27.195  1.00  0.00     0.202 C 
BRANCH   3   4
ATOM      4  C   UNL A   1      33.828  30.738  26.999  1.00  0.00     0.261 C 
BRANCH   4   5
ATOM      5  O   UNL A   1      34.701  31.139  28.074  1.00  0.00    -0.460 OA
BRANCH   5   6
ATOM      6  C   UNL A   1      35.198  32.332  28.455  1.00  0.00     0.338 C 
ATOM      7  O   UNL A   1      35.012  33.302  27.720  1.00  0.00    -0.246 OA
BRANCH   6   8
ATOM      8  C   UNL A   1      36.079  32.518  29.639  1.00  0.00     0.060 A 
ATOM      9  C   UNL A   1      37.312  33.169  29.633  1.00  0.00     0.016 A 
ATOM     10  C   UNL A   1      35.641  31.912  30.835  1.00  0.00     0.016 A 
ATOM     11  C   UNL A   1      38.100  33.194  30.781  1.00  0.00     0.010 A 
ATOM     12  C   UNL A   1      36.438  31.912  31.978  1.00  0.00     0.010 A 
ATOM     13  C   UNL A   1      37.689  32.522  31.934  1.00  0.00    -0.014 A 
BRANCH  13  14
ATOM     14  C   UNL A   1      38.672  32.371  33.003  1.00  0.00     0.031 A 
ATOM     15  C   UNL A   1      38.439  33.068  34.296  1.00  0.00     0.074 A 
ATOM     16  C   UNL A   1      39.782  31.623  32.849  1.00  0.00     0.049 A 
ATOM     17  N   UNL A   1      39.141  34.016  34.827  1.00  0.00    -0.248 NA
ATOM     18  C   UNL A   1      37.269  32.676  35.090  1.00  0.00     0.031 C 
ATOM     19  C   UNL A   1      40.090  30.676  31.774  1.00  0.00     0.029 A 
ATOM     20  N   UNL A   1      40.847  31.504  33.692  1.00  0.00    -0.354 N 
ATOM     21  C   UNL A   1      38.620  34.231  36.103  1.00  0.00     0.074 A 
ATOM     22  C   UNL A   1      37.412  33.448  36.171  1.00  0.00     0.031 C 
ATOM     23  C   UNL A   1      41.160  29.934  32.132  1.00  0.00     0.029 A 
ATOM     24  C   UNL A   1      41.690  30.448  33.384  1.00  0.00     0.049 A 
ATOM     25  H   UNL A   1      41.004  32.113  34.449  1.00  0.00     0.167 HD
ATOM     26  C   UNL A   1      39.298  34.932  37.057  1.00  0.00     0.034 A 
ATOM     27  C   UNL A   1      42.726  29.992  34.127  1.00  0.00     0.034 A 
ATOM     28  C   UNL A   1      40.352  35.732  36.487  1.00  0.00     0.049 A 
ATOM     29  C   UNL A   1      43.208  31.125  34.951  1.00  0.00     0.074 A 
ATOM     30  C   UNL A   1      40.405  36.770  35.577  1.00  0.00     0.029 A 
ATOM     31  N   UNL A   1      41.651  35.310  36.637  1.00  0.00    -0.354 N 
ATOM     32  N   UNL A   1      43.742  32.208  34.453  1.00  0.00    -0.248 NA
ATOM     33  C   UNL A   1      42.761  31.236  36.330  1.00  0.00     0.031 C 
ATOM     34  C   UNL A   1      41.632  36.586  34.875  1.00  0.00     0.029 A 
ATOM     35  C   UNL A   1      42.257  35.460  35.415  1.00  0.00     0.049 A 
ATOM     36  H   UNL A   1      42.066  34.967  37.460  1.00  0.00     0.167 HD
ATOM     37  C   UNL A   1      43.338  33.230  35.296  1.00  0.00     0.074 A 
ATOM     38  C   UNL A   1      42.848  32.558  36.494  1.00  0.00     0.031 C 
ATOM     39  C   UNL A   1      43.185  34.508  34.841  1.00  0.00     0.034 A 
BRANCH  26  40
ATOM     40  C   UNL A   1      39.177  34.736  38.553  1.00  0.00     0.023 A 
ATOM     41  C   UNL A   1      38.826  33.457  39.035  1.00  0.00     0.031 A 
ATOM     42  C   UNL A   1      39.130  35.782  39.500  1.00  0.00     0.131 A 
ATOM     43  C   UNL A   1      38.404  33.269  40.365  1.00  0.00     0.055 A 
ATOM     44  C   UNL A   1      38.776  35.579  40.840  1.00  0.00     0.041 A 
ATOM     45  F   UNL A   1      39.328  37.061  39.160  1.00  0.00    -0.206 F 
ATOM     46  C   UNL A   1      38.387  34.322  41.274  1.00  0.00     0.022 A 
BRANCH  43  47
ATOM     47  S   UNL A   1      37.709  31.662  40.840  1.00  0.00     0.124 S 
ATOM     48  O   UNL A   1      38.829  31.046  41.544  1.00  0.00    -0.237 OA
ATOM     49  O   UNL A   1      36.571  32.057  41.662  1.00  0.00    -0.237 OA
ATOM     50  O   UNL A   1      37.369  31.047  39.559  1.00  0.00    -0.744 OA
ENDBRANCH  43  47
ENDBRANCH  26  40
BRANCH  27  51
ATOM     51  C   UNL A   1      43.098  28.571  34.344  1.00  0.00     0.023 A 
ATOM     52  C   UNL A   1      42.480  27.786  35.335  1.00  0.00     0.031 A 
ATOM     53  C   UNL A   1      43.915  27.889  33.412  1.00  0.00     0.131 A 
ATOM     54  C   UNL A   1      42.689  26.390  35.368  1.00  0.00     0.055 A 
ATOM     55  C   UNL A   1      44.135  26.513  33.461  1.00  0.00     0.041 A 
ATOM     56  F   UNL A   1      44.458  28.523  32.361  1.00  0.00    -0.206 F 
ATOM     57  C   UNL A   1      43.513  25.754  34.436  1.00  0.00     0.022 A 
BRANCH  54  58
ATOM     58  S   UNL A   1      41.769  25.353  36.545  1.00  0.00     0.124 S 
ATOM     59  O   UNL A   1      41.208  24.328  35.671  1.00  0.00    -0.237 OA
ATOM     60  O   UNL A   1      42.808  24.918  37.470  1.00  0.00    -0.237 OA
ATOM     61  O   UNL A   1      40.793  26.283  37.116  1.00  0.00    -0.744 OA
ENDBRANCH  54  58
ENDBRANCH  27  51
BRANCH  39  62
ATOM     62  C   UNL A   1      43.787  34.875  33.504  1.00  0.00     0.023 A 
ATOM     63  C   UNL A   1      43.111  34.734  32.273  1.00  0.00     0.031 A 
ATOM     64  C   UNL A   1      45.025  35.540  33.504  1.00  0.00     0.131 A 
ATOM     65  C   UNL A   1      43.685  35.248  31.095  1.00  0.00     0.055 A 
ATOM     66  C   UNL A   1      45.586  36.057  32.335  1.00  0.00     0.041 A 
ATOM     67  F   UNL A   1      45.688  35.743  34.654  1.00  0.00    -0.206 F 
ATOM     68  C   UNL A   1      44.917  35.909  31.125  1.00  0.00     0.022 A 
BRANCH  65  69
ATOM     69  S   UNL A   1      42.799  35.105  29.510  1.00  0.00     0.124 S 
ATOM     70  O   UNL A   1      41.497  34.581  29.904  1.00  0.00    -0.237 OA
ATOM     71  O   UNL A   1      42.817  36.476  29.007  1.00  0.00    -0.237 OA
ATOM     72  O   UNL A   1      43.624  34.170  28.741  1.00  0.00    -0.744 OA
ENDBRANCH  65  69
ENDBRANCH  39  62
ENDBRANCH  13  14
ENDBRANCH   6   8
ENDBRANCH   5   6
ENDBRANCH   4   5
ENDBRANCH   3   4
ENDBRANCH   2   3
ENDBRANCH   1   2
BRANCH   1  73
ATOM     73  C   UNL A   1      33.623  26.233  25.230  1.00  0.00     0.188 C 
BRANCH  73  74
ATOM     74  O   UNL A   1      33.962  24.867  25.473  1.00  0.00    -0.376 OA
BRANCH  74  75
ATOM     75  C   UNL A   1      35.114  24.303  24.878  1.00  0.00     0.202 C 
BRANCH  75  76
ATOM     76  C   UNL A   1      35.970  23.495  25.857  1.00  0.00     0.261 C 
BRANCH  76  77
ATOM     77  O   UNL A   1      37.342  23.920  25.918  1.00  0.00    -0.459 OA
BRANCH  77  78
ATOM     78  C   UNL A   1      38.256  22.942  26.117  1.00  0.00     0.357 C 
ATOM     79  O   UNL A   1      38.070  21.727  26.083  1.00  0.00    -0.244 OA
BRANCH  78  80
ATOM     80  C   UNL A   1      39.548  23.549  26.500  1.00  0.00     0.149 A 
ATOM     81  C   UNL A   1      39.772  24.875  26.218  1.00  0.00     0.041 A 
ATOM     82  N   UNL A   1      40.427  22.790  27.175  1.00  0.00    -0.241 NA
ATOM     83  C   UNL A   1      40.922  25.513  26.741  1.00  0.00    -0.021 A 
ATOM     84  C   UNL A   1      41.515  23.380  27.689  1.00  0.00     0.072 A 
ATOM     85  C   UNL A   1      41.798  24.776  27.630  1.00  0.00     0.012 A 
ATOM     86  C   UNL A   1      42.383  22.514  28.323  1.00  0.00     0.029 A 
ATOM     87  C   UNL A   1      42.902  25.252  28.477  1.00  0.00    -0.009 A 
ATOM     88  C   UNL A   1      43.520  22.957  28.983  1.00  0.00     0.011 A 
ATOM     89  C   UNL A   1      43.768  24.317  29.104  1.00  0.00    -0.018 A 
ATOM     90  C   UNL A   1      43.164  26.601  28.814  1.00  0.00     0.009 A 
ATOM     91  C   UNL A   1      44.860  24.727  29.893  1.00  0.00     0.009 A 
ATOM     92  C   UNL A   1      44.238  27.011  29.614  1.00  0.00     0.001 A 
ATOM     93  C   UNL A   1      45.101  26.071  30.140  1.00  0.00     0.001 A 
BRANCH  83  94
ATOM     94  C   UNL A   1      41.086  26.923  26.219  1.00  0.00     0.115 C 
ATOM     95  C   UNL A   1      42.368  27.312  25.576  1.00  0.00     0.123 C 
ATOM     96  C   UNL A   1      40.948  28.099  27.134  1.00  0.00     0.083 C 
ATOM     97  N   UNL A   1      42.750  28.505  25.906  1.00  0.00    -0.162 NA
ATOM     98  N   UNL A   1      41.839  29.017  26.890  1.00  0.00    -0.154 NA
BRANCH  96  99
ATOM     99  C   UNL A   1      39.866  28.271  28.117  1.00  0.00    -0.001 A 
ATOM    100  C   UNL A   1      38.952  29.311  27.917  1.00  0.00     0.013 A 
ATOM    101  C   UNL A   1      39.774  27.463  29.256  1.00  0.00     0.013 A 
ATOM    102  C   UNL A   1      37.924  29.516  28.837  1.00  0.00     0.040 A 
ATOM    103  C   UNL A   1      38.741  27.671  30.172  1.00  0.00     0.040 A 
ATOM    104  C   UNL A   1      37.825  28.692  29.953  1.00  0.00     0.123 A 
ATOM    105  F   UNL A   1      36.840  28.896  30.838  1.00  0.00    -0.207 F 
ENDBRANCH  96  99
ENDBRANCH  83  94
ENDBRANCH  78  80
ENDBRANCH  77  78
ENDBRANCH  76  77
ENDBRANCH  75  76
ENDBRANCH  74  75
ENDBRANCH  73  74
ENDBRANCH   1  73
TORSDOF 22
ENDMDL
MODEL 2
REMARK VINA RESULT:     -10.1      3.739     11.834
REMARK SMILES O=C(OCCOCCOCCOC(=O)c1cc([C@@H]2C=NN=C2c2ccc(F)cc2)c2c(ccc3ccccc32)n1)c1ccc(-c2c3nc(c(-c4cc(S(=O)(=O)[O-])ccc4F)c4ccc([nH]4)c(-c4cc(S(=O)(=O)[O-])ccc4F)c4nc(c(-c5cc(S(=O)(=O)[O-])ccc5F)c5ccc2[nH]5)C=C4)C=C3)cc1
REMARK SMILES IDX 7 1 6 2 5 3 4 4 3 5 2 6 1 7 41 8 42 9 103 10 43 11 102 12
REMARK SMILES IDX 44 13 45 14 46 15 96 16 47 17 101 18 95 19 97 20 48 21
REMARK SMILES IDX 100 22 94 23 93 24 49 26 81 27 61 28 80 29 62 30 65 31 79 32
REMARK SMILES IDX 98 33 63 34 64 35 78 37 99 38 66 39 50 40 51 41 59 42 52 43
REMARK SMILES IDX 58 44 60 45 57 46 53 47 54 48 55 49 56 50 82 51 83 52 91 53
REMARK SMILES IDX 84 54 90 55 92 56 89 57 85 58 86 59 87 60 88 61 67 62 68 63
REMARK SMILES IDX 76 64 69 65 75 66 77 67 74 68 70 69 71 70 72 71 73 72 8 73
REMARK SMILES IDX 9 74 10 75 11 76 12 77 13 78 14 79 15 80 16 81 40 82 17 83
REMARK SMILES IDX 31 84 30 85 32 86 39 87 33 88 34 89 38 90 35 91 37 92 36 93
REMARK SMILES IDX 18 94 19 95 22 96 20 97 21 98 23 99 24 100 29 101 25 102
REMARK SMILES IDX 28 103 26 104 27 105
REMARK H PARENT 97 25 65 36
REMARK Flexibility Score: inf
ROOT
ATOM      1  C   UNL A   1      33.719  33.774  28.438  1.00  0.00     0.188 C 
ENDROOT
BRANCH   1   2
ATOM      2  O   UNL A   1      33.582  32.409  28.058  1.00  0.00    -0.376 OA
BRANCH   2   3
ATOM      3  C   UNL A   1      34.785  31.772  27.652  1.00  0.00     0.202 C 
BRANCH   3   4
ATOM      4  C   UNL A   1      34.553  30.314  27.259  1.00  0.00     0.261 C 
BRANCH   4   5
ATOM      5  O   UNL A   1      35.424  29.357  27.894  1.00  0.00    -0.460 OA
BRANCH   5   6
ATOM      6  C   UNL A   1      36.266  29.437  28.943  1.00  0.00     0.338 C 
ATOM      7  O   UNL A   1      35.808  29.789  30.030  1.00  0.00    -0.246 OA
BRANCH   6   8
ATOM      8  C   UNL A   1      37.739  29.263  28.834  1.00  0.00     0.060 A 
ATOM      9  C   UNL A   1      38.516  29.623  27.733  1.00  0.00     0.016 A 
ATOM     10  C   UNL A   1      38.365  28.613  29.918  1.00  0.00     0.016 A 
ATOM     11  C   UNL A   1      39.873  29.318  27.700  1.00  0.00     0.010 A 
ATOM     12  C   UNL A   1      39.718  28.284  29.878  1.00  0.00     0.010 A 
ATOM     13  C   UNL A   1      40.462  28.604  28.745  1.00  0.00    -0.014 A 
BRANCH  13  14
ATOM     14  C   UNL A   1      41.814  28.097  28.527  1.00  0.00     0.031 A 
ATOM     15  C   UNL A   1      41.994  26.846  27.744  1.00  0.00     0.074 A 
ATOM     16  C   UNL A   1      42.899  28.729  29.017  1.00  0.00     0.049 A 
ATOM     17  N   UNL A   1      42.460  25.710  28.154  1.00  0.00    -0.248 NA
ATOM     18  C   UNL A   1      41.589  26.849  26.334  1.00  0.00     0.031 C 
ATOM     19  C   UNL A   1      42.976  30.073  29.596  1.00  0.00     0.029 A 
ATOM     20  N   UNL A   1      44.196  28.308  29.019  1.00  0.00    -0.354 N 
ATOM     21  C   UNL A   1      42.579  24.898  27.027  1.00  0.00     0.074 A 
ATOM     22  C   UNL A   1      41.938  25.617  25.955  1.00  0.00     0.031 C 
ATOM     23  C   UNL A   1      44.272  30.434  29.704  1.00  0.00     0.029 A 
ATOM     24  C   UNL A   1      45.107  29.302  29.338  1.00  0.00     0.049 A 
ATOM     25  H   UNL A   1      44.461  27.383  28.813  1.00  0.00     0.167 HD
ATOM     26  C   UNL A   1      43.320  23.752  27.030  1.00  0.00     0.034 A 
ATOM     27  C   UNL A   1      46.457  29.222  29.265  1.00  0.00     0.034 A 
ATOM     28  C   UNL A   1      43.591  23.294  28.369  1.00  0.00     0.049 A 
ATOM     29  C   UNL A   1      46.820  27.792  29.407  1.00  0.00     0.074 A 
ATOM     30  C   UNL A   1      42.814  22.886  29.437  1.00  0.00     0.029 A 
ATOM     31  N   UNL A   1      44.852  23.476  28.883  1.00  0.00    -0.354 N 
ATOM     32  N   UNL A   1      46.607  27.095  30.490  1.00  0.00    -0.248 NA
ATOM     33  C   UNL A   1      47.086  27.009  28.212  1.00  0.00     0.031 C 
ATOM     34  C   UNL A   1      43.521  23.318  30.597  1.00  0.00     0.029 A 
ATOM     35  C   UNL A   1      44.692  23.943  30.163  1.00  0.00     0.049 A 
ATOM     36  H   UNL A   1      45.704  23.303  28.423  1.00  0.00     0.167 HD
ATOM     37  C   UNL A   1      46.315  25.817  30.045  1.00  0.00     0.074 A 
ATOM     38  C   UNL A   1      46.748  25.795  28.653  1.00  0.00     0.031 C 
ATOM     39  C   UNL A   1      45.505  24.982  30.761  1.00  0.00     0.034 A 
BRANCH  26  40
ATOM     40  C   UNL A   1      44.015  23.143  25.833  1.00  0.00     0.023 A 
ATOM     41  C   UNL A   1      43.775  21.783  25.539  1.00  0.00     0.031 A 
ATOM     42  C   UNL A   1      45.086  23.741  25.133  1.00  0.00     0.131 A 
ATOM     43  C   UNL A   1      44.599  21.073  24.645  1.00  0.00     0.055 A 
ATOM     44  C   UNL A   1      45.859  23.050  24.192  1.00  0.00     0.041 A 
ATOM     45  F   UNL A   1      45.497  24.988  25.391  1.00  0.00    -0.206 F 
ATOM     46  C   UNL A   1      45.634  21.703  23.961  1.00  0.00     0.022 A 
BRANCH  43  47
ATOM     47  S   UNL A   1      44.407  19.273  24.524  1.00  0.00     0.124 S 
ATOM     48  O   UNL A   1      45.469  18.798  25.404  1.00  0.00    -0.237 OA
ATOM     49  O   UNL A   1      43.042  19.083  25.002  1.00  0.00    -0.237 OA
ATOM     50  O   UNL A   1      44.613  19.005  23.102  1.00  0.00    -0.744 OA
ENDBRANCH  43  47
ENDBRANCH  26  40
BRANCH  27  51
ATOM     51  C   UNL A   1      47.380  30.285  28.794  1.00  0.00     0.023 A 
ATOM     52  C   UNL A   1      46.951  31.309  27.929  1.00  0.00     0.031 A 
ATOM     53  C   UNL A   1      48.656  30.443  29.382  1.00  0.00     0.131 A 
ATOM     54  C   UNL A   1      47.782  32.423  27.681  1.00  0.00     0.055 A 
ATOM     55  C   UNL A   1      49.483  31.536  29.119  1.00  0.00     0.041 A 
ATOM     56  F   UNL A   1      49.112  29.585  30.308  1.00  0.00    -0.206 F 
ATOM     57  C   UNL A   1      49.043  32.539  28.273  1.00  0.00     0.022 A 
BRANCH  54  58
ATOM     58  S   UNL A   1      47.170  33.822  26.693  1.00  0.00     0.124 S 
ATOM     59  O   UNL A   1      48.411  34.409  26.199  1.00  0.00    -0.237 OA
ATOM     60  O   UNL A   1      46.324  33.168  25.702  1.00  0.00    -0.237 OA
ATOM     61  O   UNL A   1      46.448  34.632  27.675  1.00  0.00    -0.744 OA
ENDBRANCH  54  58
ENDBRANCH  27  51
BRANCH  39  62
ATOM     62  C   UNL A   1      45.206  25.327  32.202  1.00  0.00     0.023 A 
ATOM     63  C   UNL A   1      46.002  24.910  33.290  1.00  0.00     0.031 A 
ATOM     64  C   UNL A   1      44.173  26.245  32.454  1.00  0.00     0.131 A 
ATOM     65  C   UNL A   1      45.741  25.408  34.581  1.00  0.00     0.055 A 
ATOM     66  C   UNL A   1      43.924  26.744  33.733  1.00  0.00     0.041 A 
ATOM     67  F   UNL A   1      43.416  26.712  31.447  1.00  0.00    -0.206 F 
ATOM     68  C   UNL A   1      44.708  26.324  34.803  1.00  0.00     0.022 A 
BRANCH  65  69
ATOM     69  S   UNL A   1      46.789  24.904  35.983  1.00  0.00     0.124 S 
ATOM     70  O   UNL A   1      47.931  25.804  35.884  1.00  0.00    -0.237 OA
ATOM     71  O   UNL A   1      45.908  25.103  37.131  1.00  0.00    -0.237 OA
ATOM     72  O   UNL A   1      47.094  23.501  35.694  1.00  0.00    -0.744 OA
ENDBRANCH  65  69
ENDBRANCH  39  62
ENDBRANCH  13  14
ENDBRANCH   6   8
ENDBRANCH   5   6
ENDBRANCH   4   5
ENDBRANCH   3   4
ENDBRANCH   2   3
ENDBRANCH   1   2
BRANCH   1  73
ATOM     73  C   UNL A   1      34.919  34.057  29.369  1.00  0.00     0.188 C 
BRANCH  73  74
ATOM     74  O   UNL A   1      34.867  34.970  30.466  1.00  0.00    -0.376 OA
BRANCH  74  75
ATOM     75  C   UNL A   1      33.637  35.243  31.108  1.00  0.00     0.202 C 
BRANCH  75  76
ATOM     76  C   UNL A   1      33.800  35.841  32.507  1.00  0.00     0.261 C 
BRANCH  76  77
ATOM     77  O   UNL A   1      33.860  34.860  33.555  1.00  0.00    -0.459 OA
BRANCH  77  78
ATOM     78  C   UNL A   1      34.431  33.678  33.226  1.00  0.00     0.357 C 
ATOM     79  O   UNL A   1      33.895  32.712  32.685  1.00  0.00    -0.244 OA
BRANCH  78  80
ATOM     80  C   UNL A   1      35.827  33.656  33.713  1.00  0.00     0.149 A 
ATOM     81  C   UNL A   1      36.853  33.779  32.808  1.00  0.00     0.041 A 
ATOM     82  N   UNL A   1      36.032  33.588  35.039  1.00  0.00    -0.241 NA
ATOM     83  C   UNL A   1      38.177  33.945  33.275  1.00  0.00    -0.021 A 
ATOM     84  C   UNL A   1      37.277  33.758  35.501  1.00  0.00     0.072 A 
ATOM     85  C   UNL A   1      38.415  34.065  34.700  1.00  0.00     0.012 A 
ATOM     86  C   UNL A   1      37.398  33.623  36.870  1.00  0.00     0.029 A 
ATOM     87  C   UNL A   1      39.631  34.468  35.423  1.00  0.00    -0.009 A 
ATOM     88  C   UNL A   1      38.597  33.843  37.532  1.00  0.00     0.011 A 
ATOM     89  C   UNL A   1      39.703  34.305  36.833  1.00  0.00    -0.018 A 
ATOM     90  C   UNL A   1      40.762  35.101  34.855  1.00  0.00     0.009 A 
ATOM     91  C   UNL A   1      40.859  34.641  37.563  1.00  0.00     0.009 A 
ATOM     92  C   UNL A   1      41.905  35.454  35.582  1.00  0.00     0.001 A 
ATOM     93  C   UNL A   1      41.962  35.206  36.939  1.00  0.00     0.001 A 
BRANCH  83  94
ATOM     94  C   UNL A   1      39.192  33.921  32.154  1.00  0.00     0.115 C 
ATOM     95  C   UNL A   1      38.783  34.376  30.799  1.00  0.00     0.123 C 
ATOM     96  C   UNL A   1      39.859  32.644  31.751  1.00  0.00     0.083 C 
ATOM     97  N   UNL A   1      39.274  33.636  29.855  1.00  0.00    -0.162 NA
ATOM     98  N   UNL A   1      39.973  32.537  30.458  1.00  0.00    -0.154 NA
BRANCH  96  99
ATOM     99  C   UNL A   1      40.435  31.670  32.691  1.00  0.00    -0.001 A 
ATOM    100  C   UNL A   1      41.598  32.028  33.382  1.00  0.00     0.013 A 
ATOM    101  C   UNL A   1      39.883  30.395  32.859  1.00  0.00     0.013 A 
ATOM    102  C   UNL A   1      42.184  31.124  34.269  1.00  0.00     0.040 A 
ATOM    103  C   UNL A   1      40.471  29.495  33.749  1.00  0.00     0.040 A 
ATOM    104  C   UNL A   1      41.612  29.868  34.448  1.00  0.00     0.123 A 
ATOM    105  F   UNL A   1      42.181  29.000  35.294  1.00  0.00    -0.207 F 
ENDBRANCH  96  99
ENDBRANCH  83  94
ENDBRANCH  78  80
ENDBRANCH  77  78
ENDBRANCH  76  77
ENDBRANCH  75  76
ENDBRANCH  74  75
ENDBRANCH  73  74
ENDBRANCH   1  73
TORSDOF 22
ENDMDL
MODEL 3
REMARK VINA RESULT:      -9.9      3.634     12.214
REMARK SMILES O=C(OCCOCCOCCOC(=O)c1cc([C@@H]2C=NN=C2c2ccc(F)cc2)c2c(ccc3ccccc32)n1)c1ccc(-c2c3nc(c(-c4cc(S(=O)(=O)[O-])ccc4F)c4ccc([nH]4)c(-c4cc(S(=O)(=O)[O-])ccc4F)c4nc(c(-c5cc(S(=O)(=O)[O-])ccc5F)c5ccc2[nH]5)C=C4)C=C3)cc1
REMARK SMILES IDX 7 1 6 2 5 3 4 4 3 5 2 6 1 7 41 8 42 9 103 10 43 11 102 12
REMARK SMILES IDX 44 13 45 14 46 15 96 16 47 17 101 18 95 19 97 20 48 21
REMARK SMILES IDX 100 22 94 23 93 24 49 26 81 27 61 28 80 29 62 30 65 31 79 32
REMARK SMILES IDX 98 33 63 34 64 35 78 37 99 38 66 39 50 40 51 41 59 42 52 43
REMARK SMILES IDX 58 44 60 45 57 46 53 47 54 48 55 49 56 50 82 51 83 52 91 53
REMARK SMILES IDX 84 54 90 55 92 56 89 57 85 58 86 59 87 60 88 61 67 62 68 63
REMARK SMILES IDX 76 64 69 65 75 66 77 67 74 68 70 69 71 70 72 71 73 72 8 73
REMARK SMILES IDX 9 74 10 75 11 76 12 77 13 78 14 79 15 80 16 81 40 82 17 83
REMARK SMILES IDX 31 84 30 85 32 86 39 87 33 88 34 89 38 90 35 91 37 92 36 93
REMARK SMILES IDX 18 94 19 95 22 96 20 97 21 98 23 99 24 100 29 101 25 102
REMARK SMILES IDX 28 103 26 104 27 105
REMARK H PARENT 97 25 65 36
REMARK Flexibility Score: inf
ROOT
ATOM      1  C   UNL A   1      38.540  30.510  32.884  1.00  0.00     0.188 C 
ENDROOT
BRANCH   1   2
ATOM      2  O   UNL A   1      37.283  29.865  32.715  1.00  0.00    -0.376 OA
BRANCH   2   3
ATOM      3  C   UNL A   1      36.263  30.672  32.145  1.00  0.00     0.202 C 
BRANCH   3   4
ATOM      4  C   UNL A   1      36.758  31.437  30.918  1.00  0.00     0.261 C 
BRANCH   4   5
ATOM      5  O   UNL A   1      36.111  31.097  29.675  1.00  0.00    -0.460 OA
BRANCH   5   6
ATOM      6  C   UNL A   1      36.273  30.083  28.804  1.00  0.00     0.338 C 
ATOM      7  O   UNL A   1      35.277  29.644  28.229  1.00  0.00    -0.246 OA
BRANCH   6   8
ATOM      8  C   UNL A   1      37.562  29.367  28.601  1.00  0.00     0.060 A 
ATOM      9  C   UNL A   1      38.137  28.470  29.500  1.00  0.00     0.016 A 
ATOM     10  C   UNL A   1      38.273  29.698  27.429  1.00  0.00     0.016 A 
ATOM     11  C   UNL A   1      39.399  27.937  29.252  1.00  0.00     0.010 A 
ATOM     12  C   UNL A   1      39.546  29.187  27.189  1.00  0.00     0.010 A 
ATOM     13  C   UNL A   1      40.124  28.335  28.127  1.00  0.00    -0.014 A 
BRANCH  13  14
ATOM     14  C   UNL A   1      41.529  27.941  28.067  1.00  0.00     0.031 A 
ATOM     15  C   UNL A   1      41.891  26.675  27.374  1.00  0.00     0.074 A 
ATOM     16  C   UNL A   1      42.502  28.689  28.622  1.00  0.00     0.049 A 
ATOM     17  N   UNL A   1      42.406  25.606  27.889  1.00  0.00    -0.248 NA
ATOM     18  C   UNL A   1      41.629  26.577  25.934  1.00  0.00     0.031 C 
ATOM     19  C   UNL A   1      42.408  30.059  29.131  1.00  0.00     0.029 A 
ATOM     20  N   UNL A   1      43.824  28.385  28.771  1.00  0.00    -0.354 N 
ATOM     21  C   UNL A   1      42.705  24.756  26.825  1.00  0.00     0.074 A 
ATOM     22  C   UNL A   1      42.116  25.364  25.658  1.00  0.00     0.031 C 
ATOM     23  C   UNL A   1      43.653  30.539  29.342  1.00  0.00     0.029 A 
ATOM     24  C   UNL A   1      44.611  29.469  29.121  1.00  0.00     0.049 A 
ATOM     25  H   UNL A   1      44.184  27.478  28.642  1.00  0.00     0.167 HD
ATOM     26  C   UNL A   1      43.535  23.682  26.962  1.00  0.00     0.034 A 
ATOM     27  C   UNL A   1      45.964  29.506  29.181  1.00  0.00     0.034 A 
ATOM     28  C   UNL A   1      43.708  23.312  28.343  1.00  0.00     0.049 A 
ATOM     29  C   UNL A   1      46.429  28.122  29.435  1.00  0.00     0.074 A 
ATOM     30  C   UNL A   1      42.866  22.887  29.353  1.00  0.00     0.029 A 
ATOM     31  N   UNL A   1      44.892  23.628  28.965  1.00  0.00    -0.354 N 
ATOM     32  N   UNL A   1      46.169  27.460  30.530  1.00  0.00    -0.248 NA
ATOM     33  C   UNL A   1      46.879  27.311  28.316  1.00  0.00     0.031 C 
ATOM     34  C   UNL A   1      43.415  23.434  30.550  1.00  0.00     0.029 A 
ATOM     35  C   UNL A   1      44.566  24.139  30.196  1.00  0.00     0.049 A 
ATOM     36  H   UNL A   1      45.798  23.511  28.598  1.00  0.00     0.167 HD
ATOM     37  C   UNL A   1      46.031  26.142  30.130  1.00  0.00     0.074 A 
ATOM     38  C   UNL A   1      46.601  26.093  28.789  1.00  0.00     0.031 C 
ATOM     39  C   UNL A   1      45.226  25.273  30.810  1.00  0.00     0.034 A 
BRANCH  26  40
ATOM     40  C   UNL A   1      44.394  23.081  25.871  1.00  0.00     0.023 A 
ATOM     41  C   UNL A   1      44.356  21.683  25.681  1.00  0.00     0.031 A 
ATOM     42  C   UNL A   1      45.430  23.763  25.196  1.00  0.00     0.131 A 
ATOM     43  C   UNL A   1      45.332  21.024  24.910  1.00  0.00     0.055 A 
ATOM     44  C   UNL A   1      46.358  23.112  24.373  1.00  0.00     0.041 A 
ATOM     45  F   UNL A   1      45.656  25.070  25.371  1.00  0.00    -0.206 F 
ATOM     46  C   UNL A   1      46.328  21.733  24.245  1.00  0.00     0.022 A 
BRANCH  43  47
ATOM     47  S   UNL A   1      45.385  19.211  24.933  1.00  0.00     0.124 S 
ATOM     48  O   UNL A   1      45.614  18.898  23.527  1.00  0.00    -0.237 OA
ATOM     49  O   UNL A   1      46.498  18.953  25.839  1.00  0.00    -0.237 OA
ATOM     50  O   UNL A   1      44.067  18.839  25.443  1.00  0.00    -0.744 OA
ENDBRANCH  43  47
ENDBRANCH  26  40
BRANCH  27  51
ATOM     51  C   UNL A   1      46.838  30.623  28.742  1.00  0.00     0.023 A 
ATOM     52  C   UNL A   1      46.445  31.516  27.728  1.00  0.00     0.031 A 
ATOM     53  C   UNL A   1      47.988  30.974  29.487  1.00  0.00     0.131 A 
ATOM     54  C   UNL A   1      47.189  32.693  27.491  1.00  0.00     0.055 A 
ATOM     55  C   UNL A   1      48.731  32.127  29.236  1.00  0.00     0.041 A 
ATOM     56  F   UNL A   1      48.381  30.253  30.549  1.00  0.00    -0.206 F 
ATOM     57  C   UNL A   1      48.328  32.999  28.241  1.00  0.00     0.022 A 
BRANCH  54  58
ATOM     58  S   UNL A   1      46.597  33.926  26.292  1.00  0.00     0.124 S 
ATOM     59  O   UNL A   1      45.478  33.229  25.669  1.00  0.00    -0.237 OA
ATOM     60  O   UNL A   1      46.262  35.063  27.140  1.00  0.00    -0.237 OA
ATOM     61  O   UNL A   1      47.760  34.132  25.426  1.00  0.00    -0.744 OA
ENDBRANCH  54  58
ENDBRANCH  27  51
BRANCH  39  62
ATOM     62  C   UNL A   1      44.757  25.657  32.195  1.00  0.00     0.023 A 
ATOM     63  C   UNL A   1      43.769  26.632  32.447  1.00  0.00     0.031 A 
ATOM     64  C   UNL A   1      45.216  24.887  33.278  1.00  0.00     0.131 A 
ATOM     65  C   UNL A   1      43.280  26.813  33.755  1.00  0.00     0.055 A 
ATOM     66  C   UNL A   1      44.722  25.063  34.571  1.00  0.00     0.041 A 
ATOM     67  F   UNL A   1      46.121  23.913  33.085  1.00  0.00    -0.206 F 
ATOM     68  C   UNL A   1      43.752  26.030  34.814  1.00  0.00     0.022 A 
BRANCH  65  69
ATOM     69  S   UNL A   1      41.976  28.042  34.080  1.00  0.00     0.124 S 
ATOM     70  O   UNL A   1      41.940  28.822  32.849  1.00  0.00    -0.237 OA
ATOM     71  O   UNL A   1      40.808  27.207  34.350  1.00  0.00    -0.237 OA
ATOM     72  O   UNL A   1      42.477  28.771  35.248  1.00  0.00    -0.744 OA
ENDBRANCH  65  69
ENDBRANCH  39  62
ENDBRANCH  13  14
ENDBRANCH   6   8
ENDBRANCH   5   6
ENDBRANCH   4   5
ENDBRANCH   3   4
ENDBRANCH   2   3
ENDBRANCH   1   2
BRANCH   1  73
ATOM     73  C   UNL A   1      38.868  30.888  34.346  1.00  0.00     0.188 C 
BRANCH  73  74
ATOM     74  O   UNL A   1      37.892  31.354  35.279  1.00  0.00    -0.376 OA
BRANCH  74  75
ATOM     75  C   UNL A   1      38.294  31.863  36.535  1.00  0.00     0.202 C 
BRANCH  75  76
ATOM     76  C   UNL A   1      37.770  33.274  36.816  1.00  0.00     0.261 C 
BRANCH  76  77
ATOM     77  O   UNL A   1      38.607  34.319  36.294  1.00  0.00    -0.459 OA
BRANCH  77  78
ATOM     78  C   UNL A   1      38.438  34.613  34.984  1.00  0.00     0.357 C 
ATOM     79  O   UNL A   1      37.380  34.662  34.359  1.00  0.00    -0.244 OA
BRANCH  78  80
ATOM     80  C   UNL A   1      39.760  34.777  34.344  1.00  0.00     0.149 A 
ATOM     81  C   UNL A   1      40.841  35.114  35.121  1.00  0.00     0.041 A 
ATOM     82  N   UNL A   1      39.862  34.517  33.029  1.00  0.00    -0.241 NA
ATOM     83  C   UNL A   1      42.138  35.093  34.556  1.00  0.00    -0.021 A 
ATOM     84  C   UNL A   1      41.083  34.478  32.480  1.00  0.00     0.072 A 
ATOM     85  C   UNL A   1      42.309  34.636  33.192  1.00  0.00     0.012 A 
ATOM     86  C   UNL A   1      41.085  34.253  31.119  1.00  0.00     0.029 A 
ATOM     87  C   UNL A   1      43.536  34.300  32.455  1.00  0.00    -0.009 A 
ATOM     88  C   UNL A   1      42.261  34.102  30.396  1.00  0.00     0.011 A 
ATOM     89  C   UNL A   1      43.483  34.080  31.052  1.00  0.00    -0.018 A 
ATOM     90  C   UNL A   1      44.813  34.085  33.026  1.00  0.00     0.009 A 
ATOM     91  C   UNL A   1      44.638  33.793  30.299  1.00  0.00     0.009 A 
ATOM     92  C   UNL A   1      45.960  33.781  32.282  1.00  0.00     0.001 A 
ATOM     93  C   UNL A   1      45.875  33.653  30.910  1.00  0.00     0.001 A 
BRANCH  83  94
ATOM     94  C   UNL A   1      43.189  35.625  35.505  1.00  0.00     0.115 C 
ATOM     95  C   UNL A   1      42.858  35.763  36.948  1.00  0.00     0.123 C 
ATOM     96  C   UNL A   1      43.791  36.980  35.301  1.00  0.00     0.083 C 
ATOM     97  N   UNL A   1      43.335  36.850  37.468  1.00  0.00    -0.162 NA
ATOM     98  N   UNL A   1      43.944  37.622  36.423  1.00  0.00    -0.154 NA
BRANCH  96  99
ATOM     99  C   UNL A   1      44.272  37.493  34.008  1.00  0.00    -0.001 A 
ATOM    100  C   UNL A   1      45.630  37.344  33.703  1.00  0.00     0.013 A 
ATOM    101  C   UNL A   1      43.422  38.166  33.123  1.00  0.00     0.013 A 
ATOM    102  C   UNL A   1      46.126  37.834  32.495  1.00  0.00     0.040 A 
ATOM    103  C   UNL A   1      43.924  38.652  31.914  1.00  0.00     0.040 A 
ATOM    104  C   UNL A   1      45.269  38.479  31.610  1.00  0.00     0.123 A 
ATOM    105  F   UNL A   1      45.750  38.955  30.454  1.00  0.00    -0.207 F 
ENDBRANCH  96  99
ENDBRANCH  83  94
ENDBRANCH  78  80
ENDBRANCH  77  78
ENDBRANCH  76  77
ENDBRANCH  75  76
ENDBRANCH  74  75
ENDBRANCH  73  74
ENDBRANCH   1  73
TORSDOF 22
ENDMDL
