MODEL 1
REMARK VINA RESULT:      -9.6      0.000      0.000
REMARK SMILES C[C@@H](C(=O)OCCOCCOCCOC(=O)c1ccc(-c2c3nc(c(-c4cc(S(=O)(=O)[O-])ccc4F)c4ccc([nH]4)c(-c4cc(S(=O)(=O)[O-])ccc4F)c4nc(c(-c5cc(S(=O)(=O)[O-])ccc5F)c5ccc2[nH]5)C=C4)C=C3)cc1)c1ccc(C[C@H]2CCCC2=O)c(-c2ccccc2)c1
REMARK SMILES IDX 9 1 8 2 7 3 6 4 5 5 3 6 4 7 2 8 1 9 80 10 81 11 98 12 82 13
REMARK SMILES IDX 91 14 83 15 92 16 93 17 97 18 94 19 96 20 95 21 84 22 85 23
REMARK SMILES IDX 86 24 89 25 87 26 88 27 90 28 10 29 11 30 12 31 13 32 14 33
REMARK SMILES IDX 15 34 16 35 17 36 18 37 79 38 19 39 78 40 20 41 21 42 22 43
REMARK SMILES IDX 72 44 23 45 77 46 71 47 73 48 24 49 76 50 70 51 69 52 25 54
REMARK SMILES IDX 57 55 37 56 56 57 38 58 41 59 55 60 74 61 39 62 40 63 54 65
REMARK SMILES IDX 75 66 42 67 26 68 27 69 35 70 28 71 34 72 36 73 33 74 29 75
REMARK SMILES IDX 30 76 31 77 32 78 58 79 59 80 67 81 60 82 66 83 68 84 65 85
REMARK SMILES IDX 61 86 62 87 63 88 64 89 43 90 44 91 52 92 45 93 51 94 53 95
REMARK SMILES IDX 50 96 46 97 47 98 48 99 49 100
REMARK H PARENT 73 53 41 64
REMARK Flexibility Score: inf
ROOT
ATOM      1  C   UNL A   1      36.535  21.623  25.665  1.00  0.00     0.188 C 
ENDROOT
BRANCH   1   2
ATOM      2  O   UNL A   1      35.736  21.889  24.531  1.00  0.00    -0.376 OA
BRANCH   2   3
ATOM      3  C   UNL A   1      34.347  21.598  24.603  1.00  0.00     0.202 C 
BRANCH   3   4
ATOM      4  C   UNL A   1      33.503  22.028  25.817  1.00  0.00     0.261 C 
BRANCH   4   5
ATOM      5  O   UNL A   1      32.071  21.911  25.655  1.00  0.00    -0.463 OA
BRANCH   5   6
ATOM      6  C   UNL A   1      31.379  23.081  25.530  1.00  0.00     0.313 C 
ATOM      7  O   UNL A   1      31.033  23.760  26.494  1.00  0.00    -0.252 OA
BRANCH   6   8
ATOM      8  C   UNL A   1      31.040  23.489  24.077  1.00  0.00     0.126 C 
ATOM      9  C   UNL A   1      31.416  22.532  22.943  1.00  0.00     0.025 C 
BRANCH   8  10
ATOM     10  C   UNL A   1      31.507  24.906  23.766  1.00  0.00    -0.033 A 
ATOM     11  C   UNL A   1      32.850  25.259  23.850  1.00  0.00     0.005 A 
ATOM     12  C   UNL A   1      30.600  25.912  23.410  1.00  0.00     0.013 A 
ATOM     13  C   UNL A   1      33.254  26.579  23.739  1.00  0.00     0.004 A 
ATOM     14  C   UNL A   1      30.987  27.270  23.298  1.00  0.00    -0.015 A 
ATOM     15  C   UNL A   1      32.325  27.608  23.579  1.00  0.00    -0.039 A 
BRANCH  14  16
ATOM     16  C   UNL A   1      29.980  28.268  22.899  1.00  0.00    -0.018 A 
ATOM     17  C   UNL A   1      28.640  28.146  23.307  1.00  0.00     0.009 A 
ATOM     18  C   UNL A   1      30.332  29.368  22.106  1.00  0.00     0.009 A 
ATOM     19  C   UNL A   1      27.675  29.063  22.888  1.00  0.00     0.001 A 
ATOM     20  C   UNL A   1      29.372  30.295  21.696  1.00  0.00     0.001 A 
ATOM     21  C   UNL A   1      28.041  30.134  22.078  1.00  0.00     0.000 A 
ENDBRANCH  14  16
BRANCH  15  22
ATOM     22  C   UNL A   1      32.844  29.009  23.834  1.00  0.00     0.047 C 
BRANCH  22  23
ATOM     23  C   UNL A   1      32.753  29.490  25.291  1.00  0.00     0.060 C 
ATOM     24  C   UNL A   1      31.417  29.199  26.001  1.00  0.00     0.012 C 
ATOM     25  C   UNL A   1      33.749  28.947  26.312  1.00  0.00     0.136 C 
ATOM     26  C   UNL A   1      31.744  28.373  27.245  1.00  0.00     0.009 C 
ATOM     27  C   UNL A   1      33.127  28.813  27.663  1.00  0.00     0.076 C 
ATOM     28  O   UNL A   1      34.932  28.688  26.132  1.00  0.00    -0.299 OA
ENDBRANCH  22  23
ENDBRANCH  15  22
ENDBRANCH   8  10
ENDBRANCH   6   8
ENDBRANCH   5   6
ENDBRANCH   4   5
ENDBRANCH   3   4
ENDBRANCH   2   3
ENDBRANCH   1   2
BRANCH   1  29
ATOM     29  C   UNL A   1      38.058  21.783  25.539  1.00  0.00     0.188 C 
BRANCH  29  30
ATOM     30  O   UNL A   1      38.750  22.787  26.238  1.00  0.00    -0.376 OA
BRANCH  30  31
ATOM     31  C   UNL A   1      39.985  22.506  26.856  1.00  0.00     0.202 C 
BRANCH  31  32
ATOM     32  C   UNL A   1      41.093  21.638  26.234  1.00  0.00     0.261 C 
BRANCH  32  33
ATOM     33  O   UNL A   1      42.033  22.250  25.346  1.00  0.00    -0.460 OA
BRANCH  33  34
ATOM     34  C   UNL A   1      43.211  22.622  25.906  1.00  0.00     0.338 C 
ATOM     35  O   UNL A   1      44.283  22.040  25.795  1.00  0.00    -0.246 OA
BRANCH  34  36
ATOM     36  C   UNL A   1      43.050  23.950  26.539  1.00  0.00     0.060 A 
ATOM     37  C   UNL A   1      42.773  25.059  25.731  1.00  0.00     0.016 A 
ATOM     38  C   UNL A   1      43.208  24.110  27.918  1.00  0.00     0.016 A 
ATOM     39  C   UNL A   1      42.672  26.333  26.302  1.00  0.00     0.010 A 
ATOM     40  C   UNL A   1      43.127  25.391  28.484  1.00  0.00     0.010 A 
ATOM     41  C   UNL A   1      42.874  26.514  27.680  1.00  0.00    -0.014 A 
BRANCH  41  42
ATOM     42  C   UNL A   1      42.971  27.893  28.237  1.00  0.00     0.031 A 
ATOM     43  C   UNL A   1      44.280  28.613  28.153  1.00  0.00     0.074 A 
ATOM     44  C   UNL A   1      41.929  28.500  28.835  1.00  0.00     0.049 A 
ATOM     45  N   UNL A   1      44.597  29.800  28.596  1.00  0.00    -0.248 NA
ATOM     46  C   UNL A   1      45.392  27.868  27.547  1.00  0.00     0.031 C 
ATOM     47  C   UNL A   1      40.657  27.856  29.087  1.00  0.00     0.029 A 
ATOM     48  N   UNL A   1      41.756  29.775  29.323  1.00  0.00    -0.354 N 
ATOM     49  C   UNL A   1      45.962  29.924  28.388  1.00  0.00     0.074 A 
ATOM     50  C   UNL A   1      46.403  28.694  27.759  1.00  0.00     0.031 C 
ATOM     51  C   UNL A   1      39.799  28.758  29.588  1.00  0.00     0.029 A 
ATOM     52  C   UNL A   1      40.466  30.043  29.737  1.00  0.00     0.049 A 
ATOM     53  H   UNL A   1      42.485  30.437  29.374  1.00  0.00     0.167 HD
ATOM     54  C   UNL A   1      46.773  30.954  28.731  1.00  0.00     0.034 A 
ATOM     55  C   UNL A   1      39.891  31.185  30.177  1.00  0.00     0.034 A 
ATOM     56  C   UNL A   1      46.315  32.155  29.389  1.00  0.00     0.049 A 
ATOM     57  C   UNL A   1      40.800  32.366  30.442  1.00  0.00     0.074 A 
ATOM     58  C   UNL A   1      47.058  33.248  29.797  1.00  0.00     0.029 A 
ATOM     59  N   UNL A   1      44.997  32.418  29.749  1.00  0.00    -0.354 N 
ATOM     60  N   UNL A   1      42.092  32.470  30.238  1.00  0.00    -0.248 NA
ATOM     61  C   UNL A   1      40.191  33.556  31.052  1.00  0.00     0.031 C 
ATOM     62  C   UNL A   1      46.206  34.139  30.459  1.00  0.00     0.029 A 
ATOM     63  C   UNL A   1      44.912  33.649  30.385  1.00  0.00     0.049 A 
ATOM     64  H   UNL A   1      44.235  31.819  29.577  1.00  0.00     0.167 HD
ATOM     65  C   UNL A   1      42.455  33.720  30.728  1.00  0.00     0.074 A 
ATOM     66  C   UNL A   1      41.234  34.364  31.166  1.00  0.00     0.031 C 
ATOM     67  C   UNL A   1      43.691  34.271  30.841  1.00  0.00     0.034 A 
BRANCH  54  68
ATOM     68  C   UNL A   1      48.247  30.768  28.478  1.00  0.00     0.023 A 
ATOM     69  C   UNL A   1      49.079  30.126  29.409  1.00  0.00     0.031 A 
ATOM     70  C   UNL A   1      48.839  31.303  27.320  1.00  0.00     0.131 A 
ATOM     71  C   UNL A   1      50.468  30.116  29.212  1.00  0.00     0.055 A 
ATOM     72  C   UNL A   1      50.212  31.205  27.085  1.00  0.00     0.041 A 
ATOM     73  F   UNL A   1      48.099  31.954  26.410  1.00  0.00    -0.206 F 
ATOM     74  C   UNL A   1      51.037  30.625  28.042  1.00  0.00     0.022 A 
BRANCH  71  75
ATOM     75  S   UNL A   1      51.527  29.587  30.584  1.00  0.00     0.124 S 
ATOM     76  O   UNL A   1      50.975  30.358  31.696  1.00  0.00    -0.237 OA
ATOM     77  O   UNL A   1      51.293  28.148  30.628  1.00  0.00    -0.237 OA
ATOM     78  O   UNL A   1      52.866  29.989  30.160  1.00  0.00    -0.744 OA
ENDBRANCH  71  75
ENDBRANCH  54  68
BRANCH  55  79
ATOM     79  C   UNL A   1      38.416  31.292  30.440  1.00  0.00     0.023 A 
ATOM     80  C   UNL A   1      37.552  31.876  29.490  1.00  0.00     0.031 A 
ATOM     81  C   UNL A   1      37.841  30.877  31.654  1.00  0.00     0.131 A 
ATOM     82  C   UNL A   1      36.190  32.065  29.787  1.00  0.00     0.055 A 
ATOM     83  C   UNL A   1      36.471  30.980  31.907  1.00  0.00     0.041 A 
ATOM     84  F   UNL A   1      38.606  30.360  32.628  1.00  0.00    -0.206 F 
ATOM     85  C   UNL A   1      35.638  31.591  30.977  1.00  0.00     0.022 A 
BRANCH  82  86
ATOM     86  S   UNL A   1      35.172  33.065  28.663  1.00  0.00     0.124 S 
ATOM     87  O   UNL A   1      36.030  33.153  27.487  1.00  0.00    -0.237 OA
ATOM     88  O   UNL A   1      33.975  32.242  28.528  1.00  0.00    -0.237 OA
ATOM     89  O   UNL A   1      34.985  34.317  29.394  1.00  0.00    -0.744 OA
ENDBRANCH  82  86
ENDBRANCH  55  79
BRANCH  67  90
ATOM     90  C   UNL A   1      43.772  35.647  31.459  1.00  0.00     0.023 A 
ATOM     91  C   UNL A   1      43.797  35.833  32.854  1.00  0.00     0.031 A 
ATOM     92  C   UNL A   1      43.817  36.789  30.641  1.00  0.00     0.131 A 
ATOM     93  C   UNL A   1      43.804  37.131  33.387  1.00  0.00     0.055 A 
ATOM     94  C   UNL A   1      43.892  38.075  31.177  1.00  0.00     0.041 A 
ATOM     95  F   UNL A   1      43.790  36.673  29.304  1.00  0.00    -0.206 F 
ATOM     96  C   UNL A   1      43.872  38.253  32.557  1.00  0.00     0.022 A 
BRANCH  93  97
ATOM     97  S   UNL A   1      43.618  37.341  35.181  1.00  0.00     0.124 S 
ATOM     98  O   UNL A   1      42.226  36.957  35.388  1.00  0.00    -0.237 OA
ATOM     99  O   UNL A   1      44.619  36.421  35.709  1.00  0.00    -0.237 OA
ATOM    100  O   UNL A   1      43.908  38.758  35.391  1.00  0.00    -0.744 OA
ENDBRANCH  93  97
ENDBRANCH  67  90
ENDBRANCH  41  42
ENDBRANCH  34  36
ENDBRANCH  33  34
ENDBRANCH  32  33
ENDBRANCH  31  32
ENDBRANCH  30  31
ENDBRANCH  29  30
ENDBRANCH   1  29
TORSDOF 24
ENDMDL
MODEL 2
REMARK VINA RESULT:      -9.5      4.938     10.206
REMARK SMILES C[C@@H](C(=O)OCCOCCOCCOC(=O)c1ccc(-c2c3nc(c(-c4cc(S(=O)(=O)[O-])ccc4F)c4ccc([nH]4)c(-c4cc(S(=O)(=O)[O-])ccc4F)c4nc(c(-c5cc(S(=O)(=O)[O-])ccc5F)c5ccc2[nH]5)C=C4)C=C3)cc1)c1ccc(C[C@H]2CCCC2=O)c(-c2ccccc2)c1
REMARK SMILES IDX 9 1 8 2 7 3 6 4 5 5 3 6 4 7 2 8 1 9 80 10 81 11 98 12 82 13
REMARK SMILES IDX 91 14 83 15 92 16 93 17 97 18 94 19 96 20 95 21 84 22 85 23
REMARK SMILES IDX 86 24 89 25 87 26 88 27 90 28 10 29 11 30 12 31 13 32 14 33
REMARK SMILES IDX 15 34 16 35 17 36 18 37 79 38 19 39 78 40 20 41 21 42 22 43
REMARK SMILES IDX 72 44 23 45 77 46 71 47 73 48 24 49 76 50 70 51 69 52 25 54
REMARK SMILES IDX 57 55 37 56 56 57 38 58 41 59 55 60 74 61 39 62 40 63 54 65
REMARK SMILES IDX 75 66 42 67 26 68 27 69 35 70 28 71 34 72 36 73 33 74 29 75
REMARK SMILES IDX 30 76 31 77 32 78 58 79 59 80 67 81 60 82 66 83 68 84 65 85
REMARK SMILES IDX 61 86 62 87 63 88 64 89 43 90 44 91 52 92 45 93 51 94 53 95
REMARK SMILES IDX 50 96 46 97 47 98 48 99 49 100
REMARK H PARENT 73 53 41 64
REMARK Flexibility Score: inf
ROOT
ATOM      1  C   UNL A   1      44.421  23.142  31.575  1.00  0.00     0.188 C 
ENDROOT
BRANCH   1   2
ATOM      2  O   UNL A   1      44.197  23.468  30.219  1.00  0.00    -0.376 OA
BRANCH   2   3
ATOM      3  C   UNL A   1      42.907  23.229  29.673  1.00  0.00     0.202 C 
BRANCH   3   4
ATOM      4  C   UNL A   1      42.734  22.603  28.277  1.00  0.00     0.261 C 
BRANCH   4   5
ATOM      5  O   UNL A   1      41.403  22.134  27.964  1.00  0.00    -0.463 OA
BRANCH   5   6
ATOM      6  C   UNL A   1      40.906  22.494  26.744  1.00  0.00     0.313 C 
ATOM      7  O   UNL A   1      41.367  22.076  25.685  1.00  0.00    -0.252 OA
BRANCH   6   8
ATOM      8  C   UNL A   1      39.724  23.491  26.788  1.00  0.00     0.126 C 
ATOM      9  C   UNL A   1      39.497  24.300  28.067  1.00  0.00     0.025 C 
BRANCH   8  10
ATOM     10  C   UNL A   1      38.426  22.845  26.318  1.00  0.00    -0.033 A 
ATOM     11  C   UNL A   1      38.401  21.540  25.836  1.00  0.00     0.005 A 
ATOM     12  C   UNL A   1      37.215  23.548  26.328  1.00  0.00     0.013 A 
ATOM     13  C   UNL A   1      37.263  21.012  25.250  1.00  0.00     0.004 A 
ATOM     14  C   UNL A   1      36.040  23.033  25.728  1.00  0.00    -0.015 A 
ATOM     15  C   UNL A   1      36.112  21.783  25.083  1.00  0.00    -0.039 A 
BRANCH  14  16
ATOM     16  C   UNL A   1      34.799  23.823  25.798  1.00  0.00    -0.018 A 
ATOM     17  C   UNL A   1      33.742  23.437  26.640  1.00  0.00     0.009 A 
ATOM     18  C   UNL A   1      34.642  24.986  25.030  1.00  0.00     0.009 A 
ATOM     19  C   UNL A   1      32.547  24.157  26.669  1.00  0.00     0.001 A 
ATOM     20  C   UNL A   1      33.453  25.716  25.067  1.00  0.00     0.001 A 
ATOM     21  C   UNL A   1      32.402  25.294  25.878  1.00  0.00     0.000 A 
ENDBRANCH  14  16
BRANCH  15  22
ATOM     22  C   UNL A   1      35.081  21.228  24.121  1.00  0.00     0.047 C 
BRANCH  22  23
ATOM     23  C   UNL A   1      34.092  20.219  24.726  1.00  0.00     0.060 C 
ATOM     24  C   UNL A   1      32.639  20.336  24.226  1.00  0.00     0.012 C 
ATOM     25  C   UNL A   1      34.348  18.726  24.531  1.00  0.00     0.136 C 
ATOM     26  C   UNL A   1      32.262  18.978  23.633  1.00  0.00     0.009 C 
ATOM     27  C   UNL A   1      33.068  17.965  24.412  1.00  0.00     0.076 C 
ATOM     28  O   UNL A   1      35.428  18.152  24.522  1.00  0.00    -0.299 OA
ENDBRANCH  22  23
ENDBRANCH  15  22
ENDBRANCH   8  10
ENDBRANCH   6   8
ENDBRANCH   5   6
ENDBRANCH   4   5
ENDBRANCH   3   4
ENDBRANCH   2   3
ENDBRANCH   1   2
BRANCH   1  29
ATOM     29  C   UNL A   1      44.838  24.265  32.537  1.00  0.00     0.188 C 
BRANCH  29  30
ATOM     30  O   UNL A   1      45.551  23.992  33.717  1.00  0.00    -0.376 OA
BRANCH  30  31
ATOM     31  C   UNL A   1      46.957  23.898  33.697  1.00  0.00     0.202 C 
BRANCH  31  32
ATOM     32  C   UNL A   1      47.895  24.662  34.648  1.00  0.00     0.261 C 
BRANCH  32  33
ATOM     33  O   UNL A   1      47.441  24.961  35.971  1.00  0.00    -0.460 OA
BRANCH  33  34
ATOM     34  C   UNL A   1      47.460  26.273  36.315  1.00  0.00     0.338 C 
ATOM     35  O   UNL A   1      48.343  26.847  36.942  1.00  0.00    -0.246 OA
BRANCH  34  36
ATOM     36  C   UNL A   1      46.323  26.962  35.665  1.00  0.00     0.060 A 
ATOM     37  C   UNL A   1      45.021  26.521  35.928  1.00  0.00     0.016 A 
ATOM     38  C   UNL A   1      46.538  28.014  34.770  1.00  0.00     0.016 A 
ATOM     39  C   UNL A   1      43.934  27.121  35.282  1.00  0.00     0.010 A 
ATOM     40  C   UNL A   1      45.449  28.600  34.109  1.00  0.00     0.010 A 
ATOM     41  C   UNL A   1      44.140  28.149  34.348  1.00  0.00    -0.014 A 
BRANCH  41  42
ATOM     42  C   UNL A   1      43.000  28.631  33.518  1.00  0.00     0.031 A 
ATOM     43  C   UNL A   1      42.039  29.610  34.114  1.00  0.00     0.074 A 
ATOM     44  C   UNL A   1      42.792  28.194  32.261  1.00  0.00     0.049 A 
ATOM     45  N   UNL A   1      40.966  30.136  33.587  1.00  0.00    -0.248 NA
ATOM     46  C   UNL A   1      42.286  29.993  35.510  1.00  0.00     0.031 C 
ATOM     47  C   UNL A   1      43.580  27.156  31.628  1.00  0.00     0.029 A 
ATOM     48  N   UNL A   1      41.888  28.562  31.291  1.00  0.00    -0.354 N 
ATOM     49  C   UNL A   1      40.366  30.861  34.605  1.00  0.00     0.074 A 
ATOM     50  C   UNL A   1      41.212  30.719  35.774  1.00  0.00     0.031 C 
ATOM     51  C   UNL A   1      43.198  27.035  30.347  1.00  0.00     0.029 A 
ATOM     52  C   UNL A   1      42.107  27.957  30.068  1.00  0.00     0.049 A 
ATOM     53  H   UNL A   1      41.152  29.197  31.453  1.00  0.00     0.167 HD
ATOM     54  C   UNL A   1      39.197  31.545  34.572  1.00  0.00     0.034 A 
ATOM     55  C   UNL A   1      41.505  28.130  28.870  1.00  0.00     0.034 A 
ATOM     56  C   UNL A   1      38.354  31.642  33.404  1.00  0.00     0.049 A 
ATOM     57  C   UNL A   1      40.264  28.995  28.831  1.00  0.00     0.074 A 
ATOM     58  C   UNL A   1      37.140  32.294  33.271  1.00  0.00     0.029 A 
ATOM     59  N   UNL A   1      38.626  31.063  32.168  1.00  0.00    -0.354 N 
ATOM     60  N   UNL A   1      39.709  29.679  29.804  1.00  0.00    -0.248 NA
ATOM     61  C   UNL A   1      39.536  29.064  27.557  1.00  0.00     0.031 C 
ATOM     62  C   UNL A   1      36.649  32.055  31.983  1.00  0.00     0.029 A 
ATOM     63  C   UNL A   1      37.596  31.332  31.277  1.00  0.00     0.049 A 
ATOM     64  H   UNL A   1      39.432  30.539  31.957  1.00  0.00     0.167 HD
ATOM     65  C   UNL A   1      38.548  30.228  29.268  1.00  0.00     0.074 A 
ATOM     66  C   UNL A   1      38.524  29.861  27.868  1.00  0.00     0.031 C 
ATOM     67  C   UNL A   1      37.571  30.938  29.887  1.00  0.00     0.034 A 
BRANCH  54  68
ATOM     68  C   UNL A   1      38.732  32.154  35.870  1.00  0.00     0.023 A 
ATOM     69  C   UNL A   1      38.209  31.365  36.908  1.00  0.00     0.031 A 
ATOM     70  C   UNL A   1      38.748  33.549  36.043  1.00  0.00     0.131 A 
ATOM     71  C   UNL A   1      37.639  31.982  38.031  1.00  0.00     0.055 A 
ATOM     72  C   UNL A   1      38.265  34.151  37.207  1.00  0.00     0.041 A 
ATOM     73  F   UNL A   1      39.207  34.355  35.073  1.00  0.00    -0.206 F 
ATOM     74  C   UNL A   1      37.691  33.367  38.202  1.00  0.00     0.022 A 
BRANCH  71  75
ATOM     75  S   UNL A   1      36.679  30.959  39.179  1.00  0.00     0.124 S 
ATOM     76  O   UNL A   1      35.433  31.717  39.277  1.00  0.00    -0.237 OA
ATOM     77  O   UNL A   1      36.596  29.685  38.474  1.00  0.00    -0.237 OA
ATOM     78  O   UNL A   1      37.492  30.949  40.393  1.00  0.00    -0.744 OA
ENDBRANCH  71  75
ENDBRANCH  54  68
BRANCH  55  79
ATOM     79  C   UNL A   1      42.004  27.465  27.618  1.00  0.00     0.023 A 
ATOM     80  C   UNL A   1      43.379  27.452  27.305  1.00  0.00     0.031 A 
ATOM     81  C   UNL A   1      41.131  26.887  26.680  1.00  0.00     0.131 A 
ATOM     82  C   UNL A   1      43.826  26.920  26.082  1.00  0.00     0.055 A 
ATOM     83  C   UNL A   1      41.589  26.275  25.511  1.00  0.00     0.041 A 
ATOM     84  F   UNL A   1      39.805  26.907  26.881  1.00  0.00    -0.206 F 
ATOM     85  C   UNL A   1      42.943  26.301  25.198  1.00  0.00     0.022 A 
BRANCH  82  86
ATOM     86  S   UNL A   1      45.557  27.169  25.591  1.00  0.00     0.124 S 
ATOM     87  O   UNL A   1      45.496  28.474  24.943  1.00  0.00    -0.237 OA
ATOM     88  O   UNL A   1      46.245  27.120  26.877  1.00  0.00    -0.237 OA
ATOM     89  O   UNL A   1      45.825  26.042  24.701  1.00  0.00    -0.744 OA
ENDBRANCH  82  86
ENDBRANCH  55  79
BRANCH  67  90
ATOM     90  C   UNL A   1      36.397  31.370  29.040  1.00  0.00     0.023 A 
ATOM     91  C   UNL A   1      35.498  30.437  28.490  1.00  0.00     0.031 A 
ATOM     92  C   UNL A   1      36.180  32.732  28.772  1.00  0.00     0.131 A 
ATOM     93  C   UNL A   1      34.461  30.875  27.652  1.00  0.00     0.055 A 
ATOM     94  C   UNL A   1      35.107  33.166  27.993  1.00  0.00     0.041 A 
ATOM     95  F   UNL A   1      37.010  33.666  29.265  1.00  0.00    -0.206 F 
ATOM     96  C   UNL A   1      34.248  32.236  27.417  1.00  0.00     0.022 A 
BRANCH  93  97
ATOM     97  S   UNL A   1      33.453  29.638  26.787  1.00  0.00     0.124 S 
ATOM     98  O   UNL A   1      32.727  29.015  27.888  1.00  0.00    -0.237 OA
ATOM     99  O   UNL A   1      32.658  30.459  25.881  1.00  0.00    -0.237 OA
ATOM    100  O   UNL A   1      34.445  28.782  26.137  1.00  0.00    -0.744 OA
ENDBRANCH  93  97
ENDBRANCH  67  90
ENDBRANCH  41  42
ENDBRANCH  34  36
ENDBRANCH  33  34
ENDBRANCH  32  33
ENDBRANCH  31  32
ENDBRANCH  30  31
ENDBRANCH  29  30
ENDBRANCH   1  29
TORSDOF 24
ENDMDL
MODEL 3
REMARK VINA RESULT:      -9.5      1.875      7.568
REMARK SMILES C[C@@H](C(=O)OCCOCCOCCOC(=O)c1ccc(-c2c3nc(c(-c4cc(S(=O)(=O)[O-])ccc4F)c4ccc([nH]4)c(-c4cc(S(=O)(=O)[O-])ccc4F)c4nc(c(-c5cc(S(=O)(=O)[O-])ccc5F)c5ccc2[nH]5)C=C4)C=C3)cc1)c1ccc(C[C@H]2CCCC2=O)c(-c2ccccc2)c1
REMARK SMILES IDX 9 1 8 2 7 3 6 4 5 5 3 6 4 7 2 8 1 9 80 10 81 11 98 12 82 13
REMARK SMILES IDX 91 14 83 15 92 16 93 17 97 18 94 19 96 20 95 21 84 22 85 23
REMARK SMILES IDX 86 24 89 25 87 26 88 27 90 28 10 29 11 30 12 31 13 32 14 33
REMARK SMILES IDX 15 34 16 35 17 36 18 37 79 38 19 39 78 40 20 41 21 42 22 43
REMARK SMILES IDX 72 44 23 45 77 46 71 47 73 48 24 49 76 50 70 51 69 52 25 54
REMARK SMILES IDX 57 55 37 56 56 57 38 58 41 59 55 60 74 61 39 62 40 63 54 65
REMARK SMILES IDX 75 66 42 67 26 68 27 69 35 70 28 71 34 72 36 73 33 74 29 75
REMARK SMILES IDX 30 76 31 77 32 78 58 79 59 80 67 81 60 82 66 83 68 84 65 85
REMARK SMILES IDX 61 86 62 87 63 88 64 89 43 90 44 91 52 92 45 93 51 94 53 95
REMARK SMILES IDX 50 96 46 97 47 98 48 99 49 100
REMARK H PARENT 73 53 41 64
REMARK Flexibility Score: inf
ROOT
ATOM      1  C   UNL A   1      36.969  21.482  25.562  1.00  0.00     0.188 C 
ENDROOT
BRANCH   1   2
ATOM      2  O   UNL A   1      36.194  22.056  24.530  1.00  0.00    -0.376 OA
BRANCH   2   3
ATOM      3  C   UNL A   1      34.823  21.696  24.438  1.00  0.00     0.202 C 
BRANCH   3   4
ATOM      4  C   UNL A   1      33.835  22.017  25.575  1.00  0.00     0.261 C 
BRANCH   4   5
ATOM      5  O   UNL A   1      32.440  21.798  25.269  1.00  0.00    -0.463 OA
BRANCH   5   6
ATOM      6  C   UNL A   1      31.690  22.915  25.035  1.00  0.00     0.313 C 
ATOM      7  O   UNL A   1      31.182  23.580  25.934  1.00  0.00    -0.252 OA
BRANCH   6   8
ATOM      8  C   UNL A   1      31.504  23.277  23.543  1.00  0.00     0.126 C 
ATOM      9  C   UNL A   1      32.116  22.355  22.485  1.00  0.00     0.025 C 
BRANCH   8  10
ATOM     10  C   UNL A   1      31.865  24.731  23.268  1.00  0.00    -0.033 A 
ATOM     11  C   UNL A   1      33.191  25.152  23.227  1.00  0.00     0.005 A 
ATOM     12  C   UNL A   1      30.877  25.705  23.072  1.00  0.00     0.013 A 
ATOM     13  C   UNL A   1      33.516  26.496  23.150  1.00  0.00     0.004 A 
ATOM     14  C   UNL A   1      31.184  27.086  22.999  1.00  0.00    -0.015 A 
ATOM     15  C   UNL A   1      32.527  27.480  23.153  1.00  0.00    -0.039 A 
BRANCH  14  16
ATOM     16  C   UNL A   1      30.092  28.048  22.771  1.00  0.00    -0.018 A 
ATOM     17  C   UNL A   1      30.297  29.207  22.003  1.00  0.00     0.009 A 
ATOM     18  C   UNL A   1      28.816  27.828  23.310  1.00  0.00     0.009 A 
ATOM     19  C   UNL A   1      29.277  30.143  21.828  1.00  0.00     0.001 A 
ATOM     20  C   UNL A   1      27.790  28.756  23.126  1.00  0.00     0.001 A 
ATOM     21  C   UNL A   1      28.025  29.919  22.395  1.00  0.00     0.000 A 
ENDBRANCH  14  16
BRANCH  15  22
ATOM     22  C   UNL A   1      33.003  28.892  23.432  1.00  0.00     0.047 C 
BRANCH  22  23
ATOM     23  C   UNL A   1      32.893  29.346  24.897  1.00  0.00     0.060 C 
ATOM     24  C   UNL A   1      31.459  29.433  25.455  1.00  0.00     0.012 C 
ATOM     25  C   UNL A   1      33.578  28.518  25.981  1.00  0.00     0.136 C 
ATOM     26  C   UNL A   1      31.402  28.521  26.681  1.00  0.00     0.009 C 
ATOM     27  C   UNL A   1      32.800  28.538  27.256  1.00  0.00     0.076 C 
ATOM     28  O   UNL A   1      34.652  27.936  25.905  1.00  0.00    -0.299 OA
ENDBRANCH  22  23
ENDBRANCH  15  22
ENDBRANCH   8  10
ENDBRANCH   6   8
ENDBRANCH   5   6
ENDBRANCH   4   5
ENDBRANCH   3   4
ENDBRANCH   2   3
ENDBRANCH   1   2
BRANCH   1  29
ATOM     29  C   UNL A   1      38.458  21.850  25.649  1.00  0.00     0.188 C 
BRANCH  29  30
ATOM     30  O   UNL A   1      38.918  22.839  26.535  1.00  0.00    -0.376 OA
BRANCH  30  31
ATOM     31  C   UNL A   1      40.206  22.747  27.102  1.00  0.00     0.202 C 
BRANCH  31  32
ATOM     32  C   UNL A   1      41.435  22.162  26.384  1.00  0.00     0.261 C 
BRANCH  32  33
ATOM     33  O   UNL A   1      42.086  22.947  25.380  1.00  0.00    -0.460 OA
BRANCH  33  34
ATOM     34  C   UNL A   1      43.415  23.146  25.563  1.00  0.00     0.338 C 
ATOM     35  O   UNL A   1      44.310  22.352  25.303  1.00  0.00    -0.246 OA
BRANCH  34  36
ATOM     36  C   UNL A   1      43.644  24.551  25.968  1.00  0.00     0.060 A 
ATOM     37  C   UNL A   1      44.279  24.811  27.189  1.00  0.00     0.016 A 
ATOM     38  C   UNL A   1      43.203  25.609  25.169  1.00  0.00     0.016 A 
ATOM     39  C   UNL A   1      44.457  26.131  27.618  1.00  0.00     0.010 A 
ATOM     40  C   UNL A   1      43.365  26.930  25.612  1.00  0.00     0.010 A 
ATOM     41  C   UNL A   1      43.978  27.202  26.846  1.00  0.00    -0.014 A 
BRANCH  41  42
ATOM     42  C   UNL A   1      43.986  28.581  27.411  1.00  0.00     0.031 A 
ATOM     43  C   UNL A   1      42.823  29.026  28.241  1.00  0.00     0.074 A 
ATOM     44  C   UNL A   1      44.991  29.445  27.178  1.00  0.00     0.049 A 
ATOM     45  N   UNL A   1      42.609  30.185  28.802  1.00  0.00    -0.248 NA
ATOM     46  C   UNL A   1      41.732  28.056  28.400  1.00  0.00     0.031 C 
ATOM     47  C   UNL A   1      46.102  29.170  26.290  1.00  0.00     0.029 A 
ATOM     48  N   UNL A   1      45.260  30.705  27.663  1.00  0.00    -0.354 N 
ATOM     49  C   UNL A   1      41.327  30.114  29.327  1.00  0.00     0.074 A 
ATOM     50  C   UNL A   1      40.826  28.787  29.030  1.00  0.00     0.031 C 
ATOM     51  C   UNL A   1      46.985  30.178  26.365  1.00  0.00     0.029 A 
ATOM     52  C   UNL A   1      46.490  31.200  27.275  1.00  0.00     0.049 A 
ATOM     53  H   UNL A   1      44.633  31.208  28.233  1.00  0.00     0.167 HD
ATOM     54  C   UNL A   1      40.624  31.085  29.959  1.00  0.00     0.034 A 
ATOM     55  C   UNL A   1      47.140  32.336  27.617  1.00  0.00     0.034 A 
ATOM     56  C   UNL A   1      41.133  32.413  30.212  1.00  0.00     0.049 A 
ATOM     57  C   UNL A   1      46.376  33.360  28.427  1.00  0.00     0.074 A 
ATOM     58  C   UNL A   1      40.495  33.475  30.828  1.00  0.00     0.029 A 
ATOM     59  N   UNL A   1      42.398  32.867  29.855  1.00  0.00    -0.354 N 
ATOM     60  N   UNL A   1      45.162  33.278  28.920  1.00  0.00    -0.248 NA
ATOM     61  C   UNL A   1      47.038  34.648  28.675  1.00  0.00     0.031 C 
ATOM     62  C   UNL A   1      41.344  34.586  30.783  1.00  0.00     0.029 A 
ATOM     63  C   UNL A   1      42.551  34.197  30.224  1.00  0.00     0.049 A 
ATOM     64  H   UNL A   1      43.086  32.325  29.405  1.00  0.00     0.167 HD
ATOM     65  C   UNL A   1      44.904  34.515  29.502  1.00  0.00     0.074 A 
ATOM     66  C   UNL A   1      46.115  35.297  29.368  1.00  0.00     0.031 C 
ATOM     67  C   UNL A   1      43.756  34.976  30.062  1.00  0.00     0.034 A 
BRANCH  54  68
ATOM     68  C   UNL A   1      39.200  30.758  30.329  1.00  0.00     0.023 A 
ATOM     69  C   UNL A   1      38.115  31.248  29.584  1.00  0.00     0.031 A 
ATOM     70  C   UNL A   1      38.924  30.004  31.482  1.00  0.00     0.131 A 
ATOM     71  C   UNL A   1      36.807  31.057  30.052  1.00  0.00     0.055 A 
ATOM     72  C   UNL A   1      37.615  29.736  31.890  1.00  0.00     0.041 A 
ATOM     73  F   UNL A   1      39.920  29.535  32.250  1.00  0.00    -0.206 F 
ATOM     74  C   UNL A   1      36.548  30.279  31.183  1.00  0.00     0.022 A 
BRANCH  71  75
ATOM     75  S   UNL A   1      35.466  31.984  29.259  1.00  0.00     0.124 S 
ATOM     76  O   UNL A   1      34.643  32.353  30.409  1.00  0.00    -0.237 OA
ATOM     77  O   UNL A   1      36.179  33.078  28.609  1.00  0.00    -0.237 OA
ATOM     78  O   UNL A   1      34.861  31.008  28.355  1.00  0.00    -0.744 OA
ENDBRANCH  71  75
ENDBRANCH  54  68
BRANCH  55  79
ATOM     79  C   UNL A   1      48.553  32.612  27.187  1.00  0.00     0.023 A 
ATOM     80  C   UNL A   1      49.642  32.014  27.854  1.00  0.00     0.031 A 
ATOM     81  C   UNL A   1      48.856  33.515  26.153  1.00  0.00     0.131 A 
ATOM     82  C   UNL A   1      50.963  32.359  27.512  1.00  0.00     0.055 A 
ATOM     83  C   UNL A   1      50.168  33.782  25.754  1.00  0.00     0.041 A 
ATOM     84  F   UNL A   1      47.876  34.164  25.506  1.00  0.00    -0.206 F 
ATOM     85  C   UNL A   1      51.233  33.214  26.444  1.00  0.00     0.022 A 
BRANCH  82  86
ATOM     86  S   UNL A   1      52.326  31.788  28.568  1.00  0.00     0.124 S 
ATOM     87  O   UNL A   1      53.193  31.125  27.600  1.00  0.00    -0.237 OA
ATOM     88  O   UNL A   1      52.822  33.042  29.125  1.00  0.00    -0.237 OA
ATOM     89  O   UNL A   1      51.668  30.901  29.525  1.00  0.00    -0.744 OA
ENDBRANCH  82  86
ENDBRANCH  55  79
BRANCH  67  90
ATOM     90  C   UNL A   1      43.770  36.396  30.579  1.00  0.00     0.023 A 
ATOM     91  C   UNL A   1      43.510  37.493  29.737  1.00  0.00     0.031 A 
ATOM     92  C   UNL A   1      44.054  36.654  31.931  1.00  0.00     0.131 A 
ATOM     93  C   UNL A   1      43.599  38.799  30.242  1.00  0.00     0.055 A 
ATOM     94  C   UNL A   1      44.076  37.952  32.442  1.00  0.00     0.041 A 
ATOM     95  F   UNL A   1      44.317  35.647  32.778  1.00  0.00    -0.206 F 
ATOM     96  C   UNL A   1      43.861  39.035  31.594  1.00  0.00     0.022 A 
BRANCH  93  97
ATOM     97  S   UNL A   1      43.472  40.194  29.088  1.00  0.00     0.124 S 
ATOM     98  O   UNL A   1      43.637  41.339  29.977  1.00  0.00    -0.237 OA
ATOM     99  O   UNL A   1      44.573  39.939  28.165  1.00  0.00    -0.237 OA
ATOM    100  O   UNL A   1      42.137  40.043  28.513  1.00  0.00    -0.744 OA
ENDBRANCH  93  97
ENDBRANCH  67  90
ENDBRANCH  41  42
ENDBRANCH  34  36
ENDBRANCH  33  34
ENDBRANCH  32  33
ENDBRANCH  31  32
ENDBRANCH  30  31
ENDBRANCH  29  30
ENDBRANCH   1  29
TORSDOF 24
ENDMDL
