MODEL 1
REMARK VINA RESULT:      -9.3      0.000      0.000
REMARK SMILES CCN1C(=O)/C(=C/c2cc([N+](=O)[O-])ccc2O)S/C1=[NH+]\c1ccc(C(=O)OCCOCCOCCOC(=O)c2ccc(-c3c4nc(c(-c5cc(S(=O)(=O)[O-])ccc5F)c5ccc([nH]5)c(-c5cc(S(=O)(=O)[O-])ccc5F)c5nc(c(-c6cc(S(=O)(=O)[O-])ccc6F)c6ccc3[nH]6)C=C5)C=C4)cc2)cc1
REMARK SMILES IDX 31 1 30 2 29 3 28 4 27 5 25 6 26 7 24 8 21 9 22 10 103 11
REMARK SMILES IDX 23 12 102 13 20 14 3 15 4 16 19 17 5 18 6 19 18 20 7 21 2 23
REMARK SMILES IDX 1 24 8 25 9 26 16 27 10 28 15 29 14 30 17 31 11 33 12 34
REMARK SMILES IDX 13 35 32 36 33 37 34 38 35 39 36 40 37 41 38 42 39 43 40 44
REMARK SMILES IDX 101 45 41 46 100 47 42 48 43 49 44 50 94 51 45 52 99 53
REMARK SMILES IDX 93 54 95 55 46 56 98 57 92 58 91 59 47 61 79 62 59 63 78 64
REMARK SMILES IDX 60 65 63 66 77 67 96 68 61 69 62 70 76 72 97 73 64 74 48 75
REMARK SMILES IDX 49 76 57 77 50 78 56 79 58 80 55 81 51 82 52 83 53 84 54 85
REMARK SMILES IDX 80 86 81 87 89 88 82 89 88 90 90 91 87 92 83 93 84 94 85 95
REMARK SMILES IDX 86 96 65 97 66 98 74 99 67 100 73 101 75 102 72 103 68 104
REMARK SMILES IDX 69 105 70 106 71 107
REMARK H PARENT 20 22 17 32 95 60 63 71
REMARK Flexibility Score: inf
ROOT
ATOM      1  C   UNL A   1      32.625  28.521  25.517  1.00  0.00     0.188 C 
ENDROOT
BRANCH   1   2
ATOM      2  O   UNL A   1      31.706  27.471  25.245  1.00  0.00    -0.376 OA
BRANCH   2   3
ATOM      3  C   UNL A   1      31.775  26.249  25.967  1.00  0.00     0.202 C 
BRANCH   3   4
ATOM      4  C   UNL A   1      33.089  25.460  26.073  1.00  0.00     0.261 C 
BRANCH   4   5
ATOM      5  O   UNL A   1      33.088  24.200  25.394  1.00  0.00    -0.460 OA
BRANCH   5   6
ATOM      6  C   UNL A   1      33.841  24.158  24.263  1.00  0.00     0.338 C 
ATOM      7  O   UNL A   1      33.685  24.812  23.258  1.00  0.00    -0.246 OA
BRANCH   6   8
ATOM      8  C   UNL A   1      35.013  23.273  24.474  1.00  0.00     0.060 A 
ATOM      9  C   UNL A   1      37.256  21.738  25.109  1.00  0.00     0.125 A 
ATOM     10  C   UNL A   1      36.107  21.648  25.893  1.00  0.00     0.052 A 
ATOM     11  C   UNL A   1      37.224  22.482  23.919  1.00  0.00     0.052 A 
ATOM     12  C   UNL A   1      34.987  22.419  25.583  1.00  0.00     0.020 A 
ATOM     13  C   UNL A   1      36.116  23.275  23.614  1.00  0.00     0.020 A 
BRANCH   9  14
ATOM     14  N   UNL A   1      38.447  21.172  25.594  1.00  0.00    -0.234 N 
ATOM     15  N   UNL A   1      40.445  21.487  26.813  1.00  0.00    -0.186 N 
ATOM     16  C   UNL A   1      41.234  22.456  27.418  1.00  0.00     0.348 C 
ATOM     17  C   UNL A   1      39.273  21.929  26.245  1.00  0.00     0.324 C 
ATOM     18  O   UNL A   1      42.318  22.281  27.959  1.00  0.00    -0.240 OA
ATOM     19  C   UNL A   1      40.576  23.789  27.344  1.00  0.00     0.110 C 
ATOM     20  S   UNL A   1      39.082  23.651  26.528  1.00  0.00     0.007 SA
ATOM     21  C   UNL A   1      41.098  24.909  27.868  1.00  0.00     0.036 C 
ATOM     22  H   UNL A   1      38.651  20.222  25.441  1.00  0.00     0.313 HD
BRANCH  15  23
ATOM     23  C   UNL A   1      40.797  20.078  26.971  1.00  0.00     0.244 C 
ATOM     24  C   UNL A   1      41.819  19.520  25.993  1.00  0.00     0.055 C 
ENDBRANCH  15  23
BRANCH  21  25
ATOM     25  C   UNL A   1      40.427  26.222  27.867  1.00  0.00     0.024 A 
ATOM     26  C   UNL A   1      39.634  26.587  28.964  1.00  0.00     0.097 A 
ATOM     27  C   UNL A   1      40.576  27.132  26.804  1.00  0.00     0.123 A 
ATOM     28  C   UNL A   1      39.018  27.848  28.986  1.00  0.00     0.270 A 
ATOM     29  C   UNL A   1      39.975  28.391  26.835  1.00  0.00     0.054 A 
ATOM     30  C   UNL A   1      39.191  28.755  27.931  1.00  0.00     0.089 A 
BRANCH  27  31
ATOM     31  O   UNL A   1      41.319  26.769  25.714  1.00  0.00    -0.507 OA
ATOM     32  H   UNL A   1      41.099  27.101  24.866  1.00  0.00     0.293 HD
ENDBRANCH  27  31
BRANCH  28  33
ATOM     33  N   UNL A   1      38.173  28.226  30.128  1.00  0.00     0.062 N 
ATOM     34  O   UNL A   1      37.239  29.014  29.920  1.00  0.00    -0.258 OA
ATOM     35  O   UNL A   1      38.448  27.741  31.235  1.00  0.00    -0.258 OA
ENDBRANCH  28  33
ENDBRANCH  21  25
ENDBRANCH   9  14
ENDBRANCH   6   8
ENDBRANCH   5   6
ENDBRANCH   4   5
ENDBRANCH   3   4
ENDBRANCH   2   3
ENDBRANCH   1   2
BRANCH   1  36
ATOM     36  C   UNL A   1      32.129  29.980  25.599  1.00  0.00     0.188 C 
BRANCH  36  37
ATOM     37  O   UNL A   1      32.264  30.592  26.858  1.00  0.00    -0.376 OA
BRANCH  37  38
ATOM     38  C   UNL A   1      33.550  30.928  27.349  1.00  0.00     0.202 C 
BRANCH  38  39
ATOM     39  C   UNL A   1      34.000  32.322  27.839  1.00  0.00     0.261 C 
BRANCH  39  40
ATOM     40  O   UNL A   1      33.387  32.878  29.001  1.00  0.00    -0.460 OA
BRANCH  40  41
ATOM     41  C   UNL A   1      33.982  33.980  29.523  1.00  0.00     0.338 C 
ATOM     42  O   UNL A   1      33.517  35.104  29.578  1.00  0.00    -0.246 OA
BRANCH  41  43
ATOM     43  C   UNL A   1      35.234  33.560  30.182  1.00  0.00     0.060 A 
ATOM     44  C   UNL A   1      35.192  32.509  31.107  1.00  0.00     0.016 A 
ATOM     45  C   UNL A   1      36.437  34.211  29.900  1.00  0.00     0.016 A 
ATOM     46  C   UNL A   1      36.357  32.118  31.771  1.00  0.00     0.010 A 
ATOM     47  C   UNL A   1      37.598  33.830  30.582  1.00  0.00     0.010 A 
ATOM     48  C   UNL A   1      37.559  32.799  31.539  1.00  0.00    -0.014 A 
BRANCH  48  49
ATOM     49  C   UNL A   1      38.734  32.555  32.415  1.00  0.00     0.031 A 
ATOM     50  C   UNL A   1      39.892  31.771  31.859  1.00  0.00     0.074 A 
ATOM     51  C   UNL A   1      38.778  33.025  33.674  1.00  0.00     0.049 A 
ATOM     52  N   UNL A   1      40.988  31.373  32.449  1.00  0.00    -0.248 NA
ATOM     53  C   UNL A   1      39.791  31.380  30.444  1.00  0.00     0.031 C 
ATOM     54  C   UNL A   1      37.741  33.837  34.308  1.00  0.00     0.029 A 
ATOM     55  N   UNL A   1      39.733  32.878  34.649  1.00  0.00    -0.354 N 
ATOM     56  C   UNL A   1      41.707  30.679  31.481  1.00  0.00     0.074 A 
ATOM     57  C   UNL A   1      40.903  30.682  30.278  1.00  0.00     0.031 C 
ATOM     58  C   UNL A   1      38.110  34.103  35.574  1.00  0.00     0.029 A 
ATOM     59  C   UNL A   1      39.387  33.448  35.852  1.00  0.00     0.049 A 
ATOM     60  H   UNL A   1      40.585  32.408  34.501  1.00  0.00     0.167 HD
ATOM     61  C   UNL A   1      42.929  30.099  31.587  1.00  0.00     0.034 A 
ATOM     62  C   UNL A   1      40.015  33.415  37.047  1.00  0.00     0.034 A 
ATOM     63  C   UNL A   1      43.711  30.089  32.798  1.00  0.00     0.049 A 
ATOM     64  C   UNL A   1      41.329  32.678  37.167  1.00  0.00     0.074 A 
ATOM     65  C   UNL A   1      44.964  29.542  33.010  1.00  0.00     0.029 A 
ATOM     66  N   UNL A   1      43.308  30.636  34.011  1.00  0.00    -0.354 N 
ATOM     67  N   UNL A   1      42.006  32.033  36.243  1.00  0.00    -0.248 NA
ATOM     68  C   UNL A   1      41.966  32.669  38.491  1.00  0.00     0.031 C 
ATOM     69  C   UNL A   1      45.284  29.688  34.365  1.00  0.00     0.029 A 
ATOM     70  C   UNL A   1      44.271  30.405  34.981  1.00  0.00     0.049 A 
ATOM     71  H   UNL A   1      42.462  31.117  34.159  1.00  0.00     0.167 HD
ATOM     72  C   UNL A   1      43.164  31.575  36.869  1.00  0.00     0.074 A 
ATOM     73  C   UNL A   1      43.098  32.027  38.243  1.00  0.00     0.031 C 
ATOM     74  C   UNL A   1      44.192  30.853  36.353  1.00  0.00     0.034 A 
BRANCH  61  75
ATOM     75  C   UNL A   1      43.460  29.380  30.369  1.00  0.00     0.023 A 
ATOM     76  C   UNL A   1      44.213  30.043  29.385  1.00  0.00     0.031 A 
ATOM     77  C   UNL A   1      43.182  28.015  30.177  1.00  0.00     0.131 A 
ATOM     78  C   UNL A   1      44.599  29.361  28.221  1.00  0.00     0.055 A 
ATOM     79  C   UNL A   1      43.641  27.320  29.056  1.00  0.00     0.041 A 
ATOM     80  F   UNL A   1      42.448  27.334  31.071  1.00  0.00    -0.206 F 
ATOM     81  C   UNL A   1      44.341  27.997  28.062  1.00  0.00     0.022 A 
BRANCH  78  82
ATOM     82  S   UNL A   1      45.315  30.313  26.853  1.00  0.00     0.124 S 
ATOM     83  O   UNL A   1      46.517  30.864  27.475  1.00  0.00    -0.237 OA
ATOM     84  O   UNL A   1      45.533  29.290  25.837  1.00  0.00    -0.237 OA
ATOM     85  O   UNL A   1      44.279  31.294  26.538  1.00  0.00    -0.744 OA
ENDBRANCH  78  82
ENDBRANCH  61  75
BRANCH  62  86
ATOM     86  C   UNL A   1      39.397  34.054  38.246  1.00  0.00     0.023 A 
ATOM     87  C   UNL A   1      39.609  35.411  38.539  1.00  0.00     0.031 A 
ATOM     88  C   UNL A   1      38.635  33.297  39.154  1.00  0.00     0.131 A 
ATOM     89  C   UNL A   1      39.109  35.956  39.733  1.00  0.00     0.055 A 
ATOM     90  C   UNL A   1      38.091  33.857  40.311  1.00  0.00     0.041 A 
ATOM     91  F   UNL A   1      38.405  31.993  38.926  1.00  0.00    -0.206 F 
ATOM     92  C   UNL A   1      38.339  35.192  40.613  1.00  0.00     0.022 A 
BRANCH  89  93
ATOM     93  S   UNL A   1      39.558  37.660  40.165  1.00  0.00     0.124 S 
ATOM     94  O   UNL A   1      38.474  38.417  39.551  1.00  0.00    -0.237 OA
ATOM     95  O   UNL A   1      39.562  37.612  41.623  1.00  0.00    -0.237 OA
ATOM     96  O   UNL A   1      40.871  37.833  39.547  1.00  0.00    -0.744 OA
ENDBRANCH  89  93
ENDBRANCH  62  86
BRANCH  74  97
ATOM     97  C   UNL A   1      45.356  30.552  37.269  1.00  0.00     0.023 A 
ATOM     98  C   UNL A   1      46.399  31.471  37.477  1.00  0.00     0.031 A 
ATOM     99  C   UNL A   1      45.421  29.319  37.944  1.00  0.00     0.131 A 
ATOM    100  C   UNL A   1      47.488  31.122  38.291  1.00  0.00     0.055 A 
ATOM    101  C   UNL A   1      46.474  29.002  38.804  1.00  0.00     0.041 A 
ATOM    102  F   UNL A   1      44.455  28.400  37.783  1.00  0.00    -0.206 F 
ATOM    103  C   UNL A   1      47.523  29.901  38.971  1.00  0.00     0.022 A 
BRANCH 100 104
ATOM    104  S   UNL A   1      48.910  32.246  38.378  1.00  0.00     0.124 S 
ATOM    105  O   UNL A   1      48.433  33.267  39.304  1.00  0.00    -0.237 OA
ATOM    106  O   UNL A   1      49.968  31.374  38.877  1.00  0.00    -0.237 OA
ATOM    107  O   UNL A   1      49.078  32.693  36.995  1.00  0.00    -0.744 OA
ENDBRANCH 100 104
ENDBRANCH  74  97
ENDBRANCH  48  49
ENDBRANCH  41  43
ENDBRANCH  40  41
ENDBRANCH  39  40
ENDBRANCH  38  39
ENDBRANCH  37  38
ENDBRANCH  36  37
ENDBRANCH   1  36
TORSDOF 25
ENDMDL
MODEL 2
REMARK VINA RESULT:      -9.2      1.898      2.147
REMARK SMILES CCN1C(=O)/C(=C/c2cc([N+](=O)[O-])ccc2O)S/C1=[NH+]\c1ccc(C(=O)OCCOCCOCCOC(=O)c2ccc(-c3c4nc(c(-c5cc(S(=O)(=O)[O-])ccc5F)c5ccc([nH]5)c(-c5cc(S(=O)(=O)[O-])ccc5F)c5nc(c(-c6cc(S(=O)(=O)[O-])ccc6F)c6ccc3[nH]6)C=C5)C=C4)cc2)cc1
REMARK SMILES IDX 31 1 30 2 29 3 28 4 27 5 25 6 26 7 24 8 21 9 22 10 103 11
REMARK SMILES IDX 23 12 102 13 20 14 3 15 4 16 19 17 5 18 6 19 18 20 7 21 2 23
REMARK SMILES IDX 1 24 8 25 9 26 16 27 10 28 15 29 14 30 17 31 11 33 12 34
REMARK SMILES IDX 13 35 32 36 33 37 34 38 35 39 36 40 37 41 38 42 39 43 40 44
REMARK SMILES IDX 101 45 41 46 100 47 42 48 43 49 44 50 94 51 45 52 99 53
REMARK SMILES IDX 93 54 95 55 46 56 98 57 92 58 91 59 47 61 79 62 59 63 78 64
REMARK SMILES IDX 60 65 63 66 77 67 96 68 61 69 62 70 76 72 97 73 64 74 48 75
REMARK SMILES IDX 49 76 57 77 50 78 56 79 58 80 55 81 51 82 52 83 53 84 54 85
REMARK SMILES IDX 80 86 81 87 89 88 82 89 88 90 90 91 87 92 83 93 84 94 85 95
REMARK SMILES IDX 86 96 65 97 66 98 74 99 67 100 73 101 75 102 72 103 68 104
REMARK SMILES IDX 69 105 70 106 71 107
REMARK H PARENT 20 22 17 32 95 60 63 71
REMARK Flexibility Score: inf
ROOT
ATOM      1  C   UNL A   1      33.941  28.259  26.613  1.00  0.00     0.188 C 
ENDROOT
BRANCH   1   2
ATOM      2  O   UNL A   1      33.867  26.894  26.222  1.00  0.00    -0.376 OA
BRANCH   2   3
ATOM      3  C   UNL A   1      32.619  26.312  25.874  1.00  0.00     0.202 C 
BRANCH   3   4
ATOM      4  C   UNL A   1      32.464  24.792  25.723  1.00  0.00     0.261 C 
BRANCH   4   5
ATOM      5  O   UNL A   1      32.754  24.287  24.415  1.00  0.00    -0.460 OA
BRANCH   5   6
ATOM      6  C   UNL A   1      33.943  24.692  23.895  1.00  0.00     0.338 C 
ATOM      7  O   UNL A   1      34.161  25.707  23.277  1.00  0.00    -0.246 OA
BRANCH   6   8
ATOM      8  C   UNL A   1      35.018  23.760  24.318  1.00  0.00     0.060 A 
ATOM      9  C   UNL A   1      37.149  22.219  25.254  1.00  0.00     0.125 A 
ATOM     10  C   UNL A   1      36.206  22.721  26.150  1.00  0.00     0.052 A 
ATOM     11  C   UNL A   1      36.935  22.363  23.874  1.00  0.00     0.052 A 
ATOM     12  C   UNL A   1      35.145  23.497  25.687  1.00  0.00     0.020 A 
ATOM     13  C   UNL A   1      35.888  23.159  23.403  1.00  0.00     0.020 A 
BRANCH   9  14
ATOM     14  N   UNL A   1      38.343  21.683  25.763  1.00  0.00    -0.234 N 
ATOM     15  N   UNL A   1      40.328  22.058  26.986  1.00  0.00    -0.186 N 
ATOM     16  C   UNL A   1      41.100  23.054  27.568  1.00  0.00     0.348 C 
ATOM     17  C   UNL A   1      39.154  22.468  26.398  1.00  0.00     0.324 C 
ATOM     18  O   UNL A   1      42.183  22.909  28.122  1.00  0.00    -0.240 OA
ATOM     19  C   UNL A   1      40.427  24.376  27.450  1.00  0.00     0.110 C 
ATOM     20  S   UNL A   1      38.941  24.196  26.628  1.00  0.00     0.007 SA
ATOM     21  C   UNL A   1      40.931  25.517  27.945  1.00  0.00     0.036 C 
ATOM     22  H   UNL A   1      38.559  20.731  25.640  1.00  0.00     0.313 HD
BRANCH  15  23
ATOM     23  C   UNL A   1      40.696  20.659  27.188  1.00  0.00     0.244 C 
ATOM     24  C   UNL A   1      41.581  20.030  26.124  1.00  0.00     0.055 C 
ENDBRANCH  15  23
BRANCH  21  25
ATOM     25  C   UNL A   1      40.245  26.821  27.901  1.00  0.00     0.024 A 
ATOM     26  C   UNL A   1      39.305  27.134  28.892  1.00  0.00     0.097 A 
ATOM     27  C   UNL A   1      40.519  27.773  26.901  1.00  0.00     0.123 A 
ATOM     28  C   UNL A   1      38.670  28.387  28.877  1.00  0.00     0.270 A 
ATOM     29  C   UNL A   1      39.898  29.022  26.896  1.00  0.00     0.054 A 
ATOM     30  C   UNL A   1      38.968  29.334  27.888  1.00  0.00     0.089 A 
BRANCH  27  31
ATOM     31  O   UNL A   1      41.409  27.461  25.909  1.00  0.00    -0.507 OA
ATOM     32  H   UNL A   1      42.263  27.146  26.130  1.00  0.00     0.293 HD
ENDBRANCH  27  31
BRANCH  28  33
ATOM     33  N   UNL A   1      37.673  28.710  29.906  1.00  0.00     0.062 N 
ATOM     34  O   UNL A   1      37.867  28.285  31.054  1.00  0.00    -0.258 OA
ATOM     35  O   UNL A   1      36.689  29.383  29.567  1.00  0.00    -0.258 OA
ENDBRANCH  28  33
ENDBRANCH  21  25
ENDBRANCH   9  14
ENDBRANCH   6   8
ENDBRANCH   5   6
ENDBRANCH   4   5
ENDBRANCH   3   4
ENDBRANCH   2   3
ENDBRANCH   1   2
BRANCH   1  36
ATOM     36  C   UNL A   1      32.918  29.276  26.067  1.00  0.00     0.188 C 
BRANCH  36  37
ATOM     37  O   UNL A   1      33.027  30.578  26.588  1.00  0.00    -0.376 OA
BRANCH  37  38
ATOM     38  C   UNL A   1      34.104  30.910  27.446  1.00  0.00     0.202 C 
BRANCH  38  39
ATOM     39  C   UNL A   1      34.366  32.292  28.084  1.00  0.00     0.261 C 
BRANCH  39  40
ATOM     40  O   UNL A   1      33.788  32.589  29.355  1.00  0.00    -0.460 OA
BRANCH  40  41
ATOM     41  C   UNL A   1      34.296  33.664  30.007  1.00  0.00     0.338 C 
ATOM     42  O   UNL A   1      33.761  34.748  30.155  1.00  0.00    -0.246 OA
BRANCH  41  43
ATOM     43  C   UNL A   1      35.549  33.253  30.670  1.00  0.00     0.060 A 
ATOM     44  C   UNL A   1      35.528  32.149  31.532  1.00  0.00     0.016 A 
ATOM     45  C   UNL A   1      36.732  33.963  30.455  1.00  0.00     0.016 A 
ATOM     46  C   UNL A   1      36.692  31.764  32.200  1.00  0.00     0.010 A 
ATOM     47  C   UNL A   1      37.892  33.587  31.141  1.00  0.00     0.010 A 
ATOM     48  C   UNL A   1      37.872  32.501  32.035  1.00  0.00    -0.014 A 
BRANCH  48  49
ATOM     49  C   UNL A   1      39.036  32.250  32.923  1.00  0.00     0.031 A 
ATOM     50  C   UNL A   1      40.165  31.402  32.402  1.00  0.00     0.074 A 
ATOM     51  C   UNL A   1      39.097  32.769  34.162  1.00  0.00     0.049 A 
ATOM     52  N   UNL A   1      41.245  30.988  33.011  1.00  0.00    -0.248 NA
ATOM     53  C   UNL A   1      40.052  30.958  31.004  1.00  0.00     0.031 C 
ATOM     54  C   UNL A   1      38.089  33.643  34.761  1.00  0.00     0.029 A 
ATOM     55  N   UNL A   1      40.045  32.627  35.145  1.00  0.00    -0.354 N 
ATOM     56  C   UNL A   1      41.940  30.230  32.073  1.00  0.00     0.074 A 
ATOM     57  C   UNL A   1      41.137  30.213  30.869  1.00  0.00     0.031 C 
ATOM     58  C   UNL A   1      38.467  33.947  36.015  1.00  0.00     0.029 A 
ATOM     59  C   UNL A   1      39.719  33.257  36.323  1.00  0.00     0.049 A 
ATOM     60  H   UNL A   1      40.879  32.120  35.018  1.00  0.00     0.167 HD
ATOM     61  C   UNL A   1      43.139  29.610  32.205  1.00  0.00     0.034 A 
ATOM     62  C   UNL A   1      40.344  33.250  37.520  1.00  0.00     0.034 A 
ATOM     63  C   UNL A   1      43.919  29.621  33.418  1.00  0.00     0.049 A 
ATOM     64  C   UNL A   1      41.630  32.470  37.673  1.00  0.00     0.074 A 
ATOM     65  C   UNL A   1      45.151  29.038  33.655  1.00  0.00     0.029 A 
ATOM     66  N   UNL A   1      43.535  30.231  34.606  1.00  0.00    -0.354 N 
ATOM     67  N   UNL A   1      42.284  31.765  36.777  1.00  0.00    -0.248 NA
ATOM     68  C   UNL A   1      42.266  32.492  38.997  1.00  0.00     0.031 C 
ATOM     69  C   UNL A   1      45.475  29.226  35.003  1.00  0.00     0.029 A 
ATOM     70  C   UNL A   1      44.489  30.005  35.587  1.00  0.00     0.049 A 
ATOM     71  H   UNL A   1      42.707  30.748  34.733  1.00  0.00     0.167 HD
ATOM     72  C   UNL A   1      43.424  31.290  37.424  1.00  0.00     0.074 A 
ATOM     73  C   UNL A   1      43.373  31.799  38.778  1.00  0.00     0.031 C 
ATOM     74  C   UNL A   1      44.425  30.510  36.940  1.00  0.00     0.034 A 
BRANCH  61  75
ATOM     75  C   UNL A   1      43.645  28.823  31.019  1.00  0.00     0.023 A 
ATOM     76  C   UNL A   1      44.189  29.454  29.887  1.00  0.00     0.031 A 
ATOM     77  C   UNL A   1      43.552  27.420  31.010  1.00  0.00     0.131 A 
ATOM     78  C   UNL A   1      44.551  28.690  28.767  1.00  0.00     0.055 A 
ATOM     79  C   UNL A   1      43.992  26.660  29.925  1.00  0.00     0.041 A 
ATOM     80  F   UNL A   1      43.019  26.764  32.053  1.00  0.00    -0.206 F 
ATOM     81  C   UNL A   1      44.482  27.295  28.789  1.00  0.00     0.022 A 
BRANCH  78  82
ATOM     82  S   UNL A   1      44.978  29.553  27.229  1.00  0.00     0.124 S 
ATOM     83  O   UNL A   1      46.351  29.103  27.010  1.00  0.00    -0.237 OA
ATOM     84  O   UNL A   1      43.982  29.042  26.294  1.00  0.00    -0.237 OA
ATOM     85  O   UNL A   1      44.841  30.965  27.577  1.00  0.00    -0.744 OA
ENDBRANCH  78  82
ENDBRANCH  61  75
BRANCH  62  86
ATOM     86  C   UNL A   1      39.749  33.959  38.690  1.00  0.00     0.023 A 
ATOM     87  C   UNL A   1      38.880  33.301  39.576  1.00  0.00     0.031 A 
ATOM     88  C   UNL A   1      39.991  35.328  38.903  1.00  0.00     0.131 A 
ATOM     89  C   UNL A   1      38.247  34.022  40.601  1.00  0.00     0.055 A 
ATOM     90  C   UNL A   1      39.404  36.028  39.959  1.00  0.00     0.041 A 
ATOM     91  F   UNL A   1      40.808  36.008  38.083  1.00  0.00    -0.206 F 
ATOM     92  C   UNL A   1      38.515  35.377  40.807  1.00  0.00     0.022 A 
BRANCH  89  93
ATOM     93  S   UNL A   1      36.994  33.182  41.609  1.00  0.00     0.124 S 
ATOM     94  O   UNL A   1      37.783  32.737  42.752  1.00  0.00    -0.237 OA
ATOM     95  O   UNL A   1      36.041  34.255  41.865  1.00  0.00    -0.237 OA
ATOM     96  O   UNL A   1      36.509  32.118  40.733  1.00  0.00    -0.744 OA
ENDBRANCH  89  93
ENDBRANCH  62  86
BRANCH  74  97
ATOM     97  C   UNL A   1      45.576  30.204  37.870  1.00  0.00     0.023 A 
ATOM     98  C   UNL A   1      45.586  29.069  38.698  1.00  0.00     0.031 A 
ATOM     99  C   UNL A   1      46.683  31.071  37.929  1.00  0.00     0.131 A 
ATOM    100  C   UNL A   1      46.651  28.860  39.588  1.00  0.00     0.055 A 
ATOM    101  C   UNL A   1      47.771  30.824  38.768  1.00  0.00     0.041 A 
ATOM    102  F   UNL A   1      46.729  32.174  37.163  1.00  0.00    -0.206 F 
ATOM    103  C   UNL A   1      47.752  29.720  39.615  1.00  0.00     0.022 A 
BRANCH 100 104
ATOM    104  S   UNL A   1      46.538  27.498  40.782  1.00  0.00     0.124 S 
ATOM    105  O   UNL A   1      45.504  27.978  41.692  1.00  0.00    -0.237 OA
ATOM    106  O   UNL A   1      46.170  26.369  39.934  1.00  0.00    -0.237 OA
ATOM    107  O   UNL A   1      47.883  27.430  41.353  1.00  0.00    -0.744 OA
ENDBRANCH 100 104
ENDBRANCH  74  97
ENDBRANCH  48  49
ENDBRANCH  41  43
ENDBRANCH  40  41
ENDBRANCH  39  40
ENDBRANCH  38  39
ENDBRANCH  37  38
ENDBRANCH  36  37
ENDBRANCH   1  36
TORSDOF 25
ENDMDL
MODEL 3
REMARK VINA RESULT:      -9.0      1.476      7.153
REMARK SMILES CCN1C(=O)/C(=C/c2cc([N+](=O)[O-])ccc2O)S/C1=[NH+]\c1ccc(C(=O)OCCOCCOCCOC(=O)c2ccc(-c3c4nc(c(-c5cc(S(=O)(=O)[O-])ccc5F)c5ccc([nH]5)c(-c5cc(S(=O)(=O)[O-])ccc5F)c5nc(c(-c6cc(S(=O)(=O)[O-])ccc6F)c6ccc3[nH]6)C=C5)C=C4)cc2)cc1
REMARK SMILES IDX 31 1 30 2 29 3 28 4 27 5 25 6 26 7 24 8 21 9 22 10 103 11
REMARK SMILES IDX 23 12 102 13 20 14 3 15 4 16 19 17 5 18 6 19 18 20 7 21 2 23
REMARK SMILES IDX 1 24 8 25 9 26 16 27 10 28 15 29 14 30 17 31 11 33 12 34
REMARK SMILES IDX 13 35 32 36 33 37 34 38 35 39 36 40 37 41 38 42 39 43 40 44
REMARK SMILES IDX 101 45 41 46 100 47 42 48 43 49 44 50 94 51 45 52 99 53
REMARK SMILES IDX 93 54 95 55 46 56 98 57 92 58 91 59 47 61 79 62 59 63 78 64
REMARK SMILES IDX 60 65 63 66 77 67 96 68 61 69 62 70 76 72 97 73 64 74 48 75
REMARK SMILES IDX 49 76 57 77 50 78 56 79 58 80 55 81 51 82 52 83 53 84 54 85
REMARK SMILES IDX 80 86 81 87 89 88 82 89 88 90 90 91 87 92 83 93 84 94 85 95
REMARK SMILES IDX 86 96 65 97 66 98 74 99 67 100 73 101 75 102 72 103 68 104
REMARK SMILES IDX 69 105 70 106 71 107
REMARK H PARENT 20 22 17 32 95 60 63 71
REMARK Flexibility Score: inf
ROOT
ATOM      1  C   UNL A   1      32.202  29.125  25.533  1.00  0.00     0.188 C 
ENDROOT
BRANCH   1   2
ATOM      2  O   UNL A   1      32.904  28.147  26.290  1.00  0.00    -0.376 OA
BRANCH   2   3
ATOM      3  C   UNL A   1      33.593  27.090  25.637  1.00  0.00     0.202 C 
BRANCH   3   4
ATOM      4  C   UNL A   1      32.849  25.843  25.137  1.00  0.00     0.261 C 
BRANCH   4   5
ATOM      5  O   UNL A   1      33.667  24.895  24.443  1.00  0.00    -0.460 OA
BRANCH   5   6
ATOM      6  C   UNL A   1      33.500  23.603  24.830  1.00  0.00     0.338 C 
ATOM      7  O   UNL A   1      32.454  23.036  25.049  1.00  0.00    -0.246 OA
BRANCH   6   8
ATOM      8  C   UNL A   1      34.807  22.901  24.817  1.00  0.00     0.060 A 
ATOM      9  C   UNL A   1      37.251  21.576  25.067  1.00  0.00     0.125 A 
ATOM     10  C   UNL A   1      36.073  20.943  25.459  1.00  0.00     0.052 A 
ATOM     11  C   UNL A   1      37.184  22.813  24.407  1.00  0.00     0.052 A 
ATOM     12  C   UNL A   1      34.851  21.605  25.343  1.00  0.00     0.020 A 
ATOM     13  C   UNL A   1      35.968  23.493  24.308  1.00  0.00     0.020 A 
BRANCH   9  14
ATOM     14  N   UNL A   1      38.478  21.008  25.445  1.00  0.00    -0.234 N 
ATOM     15  N   UNL A   1      40.546  21.298  26.548  1.00  0.00    -0.186 N 
ATOM     16  C   UNL A   1      41.359  22.249  27.149  1.00  0.00     0.348 C 
ATOM     17  C   UNL A   1      39.334  21.746  26.080  1.00  0.00     0.324 C 
ATOM     18  O   UNL A   1      42.478  22.067  27.611  1.00  0.00    -0.240 OA
ATOM     19  C   UNL A   1      40.680  23.573  27.184  1.00  0.00     0.110 C 
ATOM     20  S   UNL A   1      39.138  23.449  26.459  1.00  0.00     0.007 SA
ATOM     21  C   UNL A   1      41.218  24.675  27.728  1.00  0.00     0.036 C 
ATOM     22  H   UNL A   1      38.685  20.069  25.232  1.00  0.00     0.313 HD
BRANCH  15  23
ATOM     23  C   UNL A   1      40.927  19.889  26.613  1.00  0.00     0.244 C 
ATOM     24  C   UNL A   1      42.293  19.528  26.049  1.00  0.00     0.055 C 
ENDBRANCH  15  23
BRANCH  21  25
ATOM     25  C   UNL A   1      40.531  25.974  27.835  1.00  0.00     0.024 A 
ATOM     26  C   UNL A   1      39.789  26.264  28.989  1.00  0.00     0.097 A 
ATOM     27  C   UNL A   1      40.613  26.945  26.820  1.00  0.00     0.123 A 
ATOM     28  C   UNL A   1      39.157  27.512  29.114  1.00  0.00     0.270 A 
ATOM     29  C   UNL A   1      39.997  28.190  26.952  1.00  0.00     0.054 A 
ATOM     30  C   UNL A   1      39.265  28.479  28.104  1.00  0.00     0.089 A 
BRANCH  27  31
ATOM     31  O   UNL A   1      41.306  26.656  25.676  1.00  0.00    -0.507 OA
ATOM     32  H   UNL A   1      42.200  26.383  25.727  1.00  0.00     0.293 HD
ENDBRANCH  27  31
BRANCH  28  33
ATOM     33  N   UNL A   1      38.366  27.811  30.315  1.00  0.00     0.062 N 
ATOM     34  O   UNL A   1      37.493  28.686  30.230  1.00  0.00    -0.258 OA
ATOM     35  O   UNL A   1      38.623  27.176  31.348  1.00  0.00    -0.258 OA
ENDBRANCH  28  33
ENDBRANCH  21  25
ENDBRANCH   9  14
ENDBRANCH   6   8
ENDBRANCH   5   6
ENDBRANCH   4   5
ENDBRANCH   3   4
ENDBRANCH   2   3
ENDBRANCH   1   2
BRANCH   1  36
ATOM     36  C   UNL A   1      31.891  30.504  26.152  1.00  0.00     0.188 C 
BRANCH  36  37
ATOM     37  O   UNL A   1      32.560  30.788  27.356  1.00  0.00    -0.376 OA
BRANCH  37  38
ATOM     38  C   UNL A   1      33.652  31.691  27.365  1.00  0.00     0.202 C 
BRANCH  38  39
ATOM     39  C   UNL A   1      34.259  32.372  28.611  1.00  0.00     0.261 C 
BRANCH  39  40
ATOM     40  O   UNL A   1      34.209  33.796  28.714  1.00  0.00    -0.460 OA
BRANCH  40  41
ATOM     41  C   UNL A   1      33.918  34.296  29.941  1.00  0.00     0.338 C 
ATOM     42  O   UNL A   1      32.871  34.810  30.290  1.00  0.00    -0.246 OA
BRANCH  41  43
ATOM     43  C   UNL A   1      35.028  33.958  30.853  1.00  0.00     0.060 A 
ATOM     44  C   UNL A   1      36.285  34.535  30.633  1.00  0.00     0.016 A 
ATOM     45  C   UNL A   1      34.832  33.064  31.908  1.00  0.00     0.016 A 
ATOM     46  C   UNL A   1      37.360  34.202  31.461  1.00  0.00     0.010 A 
ATOM     47  C   UNL A   1      35.915  32.716  32.723  1.00  0.00     0.010 A 
ATOM     48  C   UNL A   1      37.190  33.264  32.488  1.00  0.00    -0.014 A 
BRANCH  48  49
ATOM     49  C   UNL A   1      38.373  32.724  33.206  1.00  0.00     0.031 A 
ATOM     50  C   UNL A   1      38.551  33.075  34.658  1.00  0.00     0.074 A 
ATOM     51  C   UNL A   1      39.266  31.932  32.587  1.00  0.00     0.049 A 
ATOM     52  N   UNL A   1      39.533  32.784  35.471  1.00  0.00    -0.248 NA
ATOM     53  C   UNL A   1      37.474  33.868  35.272  1.00  0.00     0.031 C 
ATOM     54  C   UNL A   1      39.176  31.484  31.198  1.00  0.00     0.029 A 
ATOM     55  N   UNL A   1      40.432  31.372  33.046  1.00  0.00    -0.354 N 
ATOM     56  C   UNL A   1      39.197  33.362  36.691  1.00  0.00     0.074 A 
ATOM     57  C   UNL A   1      37.938  34.050  36.498  1.00  0.00     0.031 C 
ATOM     58  C   UNL A   1      40.253  30.729  30.915  1.00  0.00     0.029 A 
ATOM     59  C   UNL A   1      41.127  30.675  32.086  1.00  0.00     0.049 A 
ATOM     60  H   UNL A   1      40.742  31.462  33.976  1.00  0.00     0.167 HD
ATOM     61  C   UNL A   1      39.875  33.317  37.865  1.00  0.00     0.034 A 
ATOM     62  C   UNL A   1      42.342  30.089  32.138  1.00  0.00     0.034 A 
ATOM     63  C   UNL A   1      41.138  32.642  38.038  1.00  0.00     0.049 A 
ATOM     64  C   UNL A   1      43.125  30.136  33.430  1.00  0.00     0.074 A 
ATOM     65  C   UNL A   1      41.901  32.524  39.186  1.00  0.00     0.029 A 
ATOM     66  N   UNL A   1      41.834  31.986  37.030  1.00  0.00    -0.354 N 
ATOM     67  N   UNL A   1      42.794  30.677  34.582  1.00  0.00    -0.248 NA
ATOM     68  C   UNL A   1      44.443  29.488  33.431  1.00  0.00     0.031 C 
ATOM     69  C   UNL A   1      43.092  31.867  38.856  1.00  0.00     0.029 A 
ATOM     70  C   UNL A   1      43.034  31.495  37.522  1.00  0.00     0.049 A 
ATOM     71  H   UNL A   1      41.521  31.884  36.102  1.00  0.00     0.167 HD
ATOM     72  C   UNL A   1      43.850  30.401  35.450  1.00  0.00     0.074 A 
ATOM     73  C   UNL A   1      44.819  29.638  34.692  1.00  0.00     0.031 C 
ATOM     74  C   UNL A   1      44.000  30.742  36.755  1.00  0.00     0.034 A 
BRANCH  61  75
ATOM     75  C   UNL A   1      39.284  34.069  39.034  1.00  0.00     0.023 A 
ATOM     76  C   UNL A   1      39.468  35.454  39.196  1.00  0.00     0.031 A 
ATOM     77  C   UNL A   1      38.549  33.383  40.018  1.00  0.00     0.131 A 
ATOM     78  C   UNL A   1      38.989  36.093  40.350  1.00  0.00     0.055 A 
ATOM     79  C   UNL A   1      38.003  34.041  41.122  1.00  0.00     0.041 A 
ATOM     80  F   UNL A   1      38.361  32.058  39.930  1.00  0.00    -0.206 F 
ATOM     81  C   UNL A   1      38.234  35.402  41.300  1.00  0.00     0.022 A 
BRANCH  78  82
ATOM     82  S   UNL A   1      39.489  37.809  40.662  1.00  0.00     0.124 S 
ATOM     83  O   UNL A   1      38.412  38.552  40.012  1.00  0.00    -0.237 OA
ATOM     84  O   UNL A   1      39.517  37.868  42.119  1.00  0.00    -0.237 OA
ATOM     85  O   UNL A   1      40.791  37.912  40.008  1.00  0.00    -0.744 OA
ENDBRANCH  78  82
ENDBRANCH  61  75
BRANCH  62  86
ATOM     86  C   UNL A   1      42.928  29.448  30.924  1.00  0.00     0.023 A 
ATOM     87  C   UNL A   1      43.557  30.212  29.928  1.00  0.00     0.031 A 
ATOM     88  C   UNL A   1      42.810  28.062  30.713  1.00  0.00     0.131 A 
ATOM     89  C   UNL A   1      43.997  29.596  28.746  1.00  0.00     0.055 A 
ATOM     90  C   UNL A   1      43.301  27.445  29.561  1.00  0.00     0.041 A 
ATOM     91  F   UNL A   1      42.212  27.284  31.630  1.00  0.00    -0.206 F 
ATOM     92  C   UNL A   1      43.887  28.215  28.563  1.00  0.00     0.022 A 
BRANCH  89  93
ATOM     93  S   UNL A   1      44.636  30.640  27.407  1.00  0.00     0.124 S 
ATOM     94  O   UNL A   1      43.549  30.579  26.438  1.00  0.00    -0.237 OA
ATOM     95  O   UNL A   1      44.824  31.918  28.083  1.00  0.00    -0.237 OA
ATOM     96  O   UNL A   1      45.869  29.963  27.007  1.00  0.00    -0.744 OA
ENDBRANCH  89  93
ENDBRANCH  62  86
BRANCH  74  97
ATOM     97  C   UNL A   1      45.239  30.243  37.463  1.00  0.00     0.023 A 
ATOM     98  C   UNL A   1      45.259  29.025  38.164  1.00  0.00     0.031 A 
ATOM     99  C   UNL A   1      46.421  31.006  37.436  1.00  0.00     0.131 A 
ATOM    100  C   UNL A   1      46.416  28.633  38.855  1.00  0.00     0.055 A 
ATOM    101  C   UNL A   1      47.589  30.580  38.070  1.00  0.00     0.041 A 
ATOM    102  F   UNL A   1      46.462  32.180  36.784  1.00  0.00    -0.206 F 
ATOM    103  C   UNL A   1      47.587  29.394  38.797  1.00  0.00     0.022 A 
BRANCH 100 104
ATOM    104  S   UNL A   1      46.346  27.160  39.913  1.00  0.00     0.124 S 
ATOM    105  O   UNL A   1      47.292  27.501  40.970  1.00  0.00    -0.237 OA
ATOM    106  O   UNL A   1      44.940  27.122  40.302  1.00  0.00    -0.237 OA
ATOM    107  O   UNL A   1      46.772  26.079  39.025  1.00  0.00    -0.744 OA
ENDBRANCH 100 104
ENDBRANCH  74  97
ENDBRANCH  48  49
ENDBRANCH  41  43
ENDBRANCH  40  41
ENDBRANCH  39  40
ENDBRANCH  38  39
ENDBRANCH  37  38
ENDBRANCH  36  37
ENDBRANCH   1  36
TORSDOF 25
ENDMDL
