MODEL 1
REMARK VINA RESULT:      -8.4      0.000      0.000
REMARK SMILES CC(C)C[C@@H](C)NS(=O)(=O)c1ccsc1C(=O)OCCOCCOCCOC(=O)c1ccc(-c2c3nc(c(-c4cc(S(=O)(=O)[O-])ccc4F)c4ccc([nH]4)c(-c4cc(S(=O)(=O)[O-])ccc4F)c4nc(c(-c5cc(S(=O)(=O)[O-])ccc5F)c5ccc2[nH]5)C=C4)C=C3)cc1
REMARK SMILES IDX 22 1 21 2 20 3 19 4 18 5 16 6 17 7 15 8 11 9 12 10 13 11
REMARK SMILES IDX 14 12 8 13 9 14 10 15 7 16 5 18 6 19 4 20 2 21 1 22 3 23
REMARK SMILES IDX 23 24 24 25 25 26 26 27 27 28 28 29 29 30 30 31 31 32 92 33
REMARK SMILES IDX 32 34 91 35 33 36 34 37 35 38 85 39 36 40 90 41 84 42 86 43
REMARK SMILES IDX 37 44 89 45 83 46 82 47 38 49 70 50 50 51 69 52 51 53 54 54
REMARK SMILES IDX 68 55 87 56 52 57 53 58 67 60 88 61 55 62 39 63 40 64 48 65
REMARK SMILES IDX 41 66 47 67 49 68 46 69 42 70 43 71 44 72 45 73 71 74 72 75
REMARK SMILES IDX 80 76 73 77 79 78 81 79 78 80 74 81 75 82 76 83 77 84 56 85
REMARK SMILES IDX 57 86 65 87 58 88 64 89 66 90 63 91 59 92 60 93 61 94 62 95
REMARK H PARENT 7 17 86 48 54 59
REMARK Flexibility Score: inf
ROOT
ATOM      1  C   UNL A   1      40.114  22.025  26.512  1.00  0.00     0.188 C 
ENDROOT
BRANCH   1   2
ATOM      2  O   UNL A   1      38.974  21.376  25.949  1.00  0.00    -0.376 OA
BRANCH   2   3
ATOM      3  C   UNL A   1      37.877  22.173  25.504  1.00  0.00     0.202 C 
BRANCH   3   4
ATOM      4  C   UNL A   1      37.144  21.724  24.232  1.00  0.00     0.261 C 
BRANCH   4   5
ATOM      5  O   UNL A   1      35.722  21.690  24.420  1.00  0.00    -0.459 OA
BRANCH   5   6
ATOM      6  C   UNL A   1      35.027  22.812  24.117  1.00  0.00     0.349 C 
ATOM      7  O   UNL A   1      35.300  23.564  23.188  1.00  0.00    -0.245 OA
BRANCH   6   8
ATOM      8  C   UNL A   1      33.872  22.935  24.983  1.00  0.00     0.132 A 
ATOM      9  C   UNL A   1      32.516  23.079  24.722  1.00  0.00     0.107 A 
ATOM     10  C   UNL A   1      31.743  23.157  25.929  1.00  0.00     0.034 A 
ATOM     11  C   UNL A   1      32.521  23.071  27.058  1.00  0.00     0.067 A 
ATOM     12  S   UNL A   1      34.172  22.874  26.678  1.00  0.00    -0.136 S 
BRANCH   9  13
ATOM     13  S   UNL A   1      31.753  23.037  23.164  1.00  0.00     0.242 S 
ATOM     14  O   UNL A   1      30.450  23.629  23.303  1.00  0.00    -0.207 OA
ATOM     15  O   UNL A   1      31.907  21.675  22.699  1.00  0.00    -0.207 OA
BRANCH  13  16
ATOM     16  N   UNL A   1      32.647  23.998  22.107  1.00  0.00    -0.208 NA
ATOM     17  H   UNL A   1      33.595  24.048  22.479  1.00  0.00     0.141 HD
BRANCH  16  18
ATOM     18  C   UNL A   1      32.214  25.389  21.845  1.00  0.00     0.067 C 
ATOM     19  C   UNL A   1      32.482  25.794  20.401  1.00  0.00     0.025 C 
BRANCH  18  20
ATOM     20  C   UNL A   1      32.963  26.291  22.841  1.00  0.00     0.022 C 
BRANCH  20  21
ATOM     21  C   UNL A   1      32.785  27.802  22.597  1.00  0.00    -0.016 C 
ATOM     22  C   UNL A   1      32.046  28.492  23.746  1.00  0.00     0.007 C 
ATOM     23  C   UNL A   1      34.151  28.455  22.390  1.00  0.00     0.007 C 
ENDBRANCH  20  21
ENDBRANCH  18  20
ENDBRANCH  16  18
ENDBRANCH  13  16
ENDBRANCH   9  13
ENDBRANCH   6   8
ENDBRANCH   5   6
ENDBRANCH   4   5
ENDBRANCH   3   4
ENDBRANCH   2   3
ENDBRANCH   1   2
BRANCH   1  24
ATOM     24  C   UNL A   1      41.407  21.212  26.733  1.00  0.00     0.188 C 
BRANCH  24  25
ATOM     25  O   UNL A   1      41.768  20.407  25.628  1.00  0.00    -0.376 OA
BRANCH  25  26
ATOM     26  C   UNL A   1      42.938  19.621  25.773  1.00  0.00     0.202 C 
BRANCH  26  27
ATOM     27  C   UNL A   1      44.248  20.220  25.232  1.00  0.00     0.261 C 
BRANCH  27  28
ATOM     28  O   UNL A   1      44.673  21.459  25.825  1.00  0.00    -0.460 OA
BRANCH  28  29
ATOM     29  C   UNL A   1      45.840  21.980  25.378  1.00  0.00     0.338 C 
ATOM     30  O   UNL A   1      46.609  21.461  24.591  1.00  0.00    -0.246 OA
BRANCH  29  31
ATOM     31  C   UNL A   1      45.926  23.384  25.844  1.00  0.00     0.060 A 
ATOM     32  C   UNL A   1      46.155  23.631  27.204  1.00  0.00     0.016 A 
ATOM     33  C   UNL A   1      45.772  24.448  24.952  1.00  0.00     0.016 A 
ATOM     34  C   UNL A   1      46.186  24.944  27.681  1.00  0.00     0.010 A 
ATOM     35  C   UNL A   1      45.784  25.762  25.435  1.00  0.00     0.010 A 
ATOM     36  C   UNL A   1      45.953  26.016  26.808  1.00  0.00    -0.014 A 
BRANCH  36  37
ATOM     37  C   UNL A   1      45.679  27.366  27.368  1.00  0.00     0.031 A 
ATOM     38  C   UNL A   1      46.799  28.374  27.375  1.00  0.00     0.074 A 
ATOM     39  C   UNL A   1      44.458  27.711  27.815  1.00  0.00     0.049 A 
ATOM     40  N   UNL A   1      46.807  29.610  27.804  1.00  0.00    -0.248 NA
ATOM     41  C   UNL A   1      48.084  27.920  26.823  1.00  0.00     0.031 C 
ATOM     42  C   UNL A   1      43.284  26.840  27.822  1.00  0.00     0.029 A 
ATOM     43  N   UNL A   1      44.004  28.891  28.352  1.00  0.00    -0.354 N 
ATOM     44  C   UNL A   1      48.095  30.083  27.572  1.00  0.00     0.074 A 
ATOM     45  C   UNL A   1      48.849  28.984  27.006  1.00  0.00     0.031 C 
ATOM     46  C   UNL A   1      42.243  27.517  28.340  1.00  0.00     0.029 A 
ATOM     47  C   UNL A   1      42.682  28.856  28.733  1.00  0.00     0.049 A 
ATOM     48  H   UNL A   1      44.572  29.689  28.454  1.00  0.00     0.167 HD
ATOM     49  C   UNL A   1      48.600  31.321  27.797  1.00  0.00     0.034 A 
ATOM     50  C   UNL A   1      41.923  29.789  29.343  1.00  0.00     0.034 A 
ATOM     51  C   UNL A   1      47.843  32.402  28.379  1.00  0.00     0.049 A 
ATOM     52  C   UNL A   1      42.530  31.137  29.663  1.00  0.00     0.074 A 
ATOM     53  C   UNL A   1      48.255  33.695  28.652  1.00  0.00     0.029 A 
ATOM     54  N   UNL A   1      46.520  32.314  28.794  1.00  0.00    -0.354 N 
ATOM     55  N   UNL A   1      43.746  31.575  29.429  1.00  0.00    -0.248 NA
ATOM     56  C   UNL A   1      41.654  32.121  30.316  1.00  0.00     0.031 C 
ATOM     57  C   UNL A   1      47.209  34.364  29.296  1.00  0.00     0.029 A 
ATOM     58  C   UNL A   1      46.111  33.519  29.346  1.00  0.00     0.049 A 
ATOM     59  H   UNL A   1      45.954  31.512  28.709  1.00  0.00     0.167 HD
ATOM     60  C   UNL A   1      43.766  32.898  29.869  1.00  0.00     0.074 A 
ATOM     61  C   UNL A   1      42.439  33.187  30.372  1.00  0.00     0.031 C 
ATOM     62  C   UNL A   1      44.785  33.797  29.849  1.00  0.00     0.034 A 
BRANCH  49  63
ATOM     63  C   UNL A   1      50.056  31.545  27.460  1.00  0.00     0.023 A 
ATOM     64  C   UNL A   1      50.460  32.045  26.208  1.00  0.00     0.031 A 
ATOM     65  C   UNL A   1      51.057  31.221  28.393  1.00  0.00     0.131 A 
ATOM     66  C   UNL A   1      51.825  32.134  25.899  1.00  0.00     0.055 A 
ATOM     67  C   UNL A   1      52.413  31.392  28.107  1.00  0.00     0.041 A 
ATOM     68  F   UNL A   1      50.735  30.717  29.594  1.00  0.00    -0.206 F 
ATOM     69  C   UNL A   1      52.805  31.837  26.849  1.00  0.00     0.022 A 
BRANCH  66  70
ATOM     70  S   UNL A   1      52.304  32.506  24.188  1.00  0.00     0.124 S 
ATOM     71  O   UNL A   1      51.733  31.370  23.469  1.00  0.00    -0.237 OA
ATOM     72  O   UNL A   1      51.668  33.797  23.955  1.00  0.00    -0.237 OA
ATOM     73  O   UNL A   1      53.765  32.529  24.239  1.00  0.00    -0.744 OA
ENDBRANCH  66  70
ENDBRANCH  49  63
BRANCH  50  74
ATOM     74  C   UNL A   1      40.511  29.487  29.725  1.00  0.00     0.023 A 
ATOM     75  C   UNL A   1      39.436  29.843  28.894  1.00  0.00     0.031 A 
ATOM     76  C   UNL A   1      40.215  28.894  30.965  1.00  0.00     0.131 A 
ATOM     77  C   UNL A   1      38.116  29.648  29.334  1.00  0.00     0.055 A 
ATOM     78  C   UNL A   1      38.902  28.651  31.373  1.00  0.00     0.041 A 
ATOM     79  F   UNL A   1      41.203  28.539  31.802  1.00  0.00    -0.206 F 
ATOM     80  C   UNL A   1      37.842  29.041  30.561  1.00  0.00     0.022 A 
BRANCH  77  81
ATOM     81  S   UNL A   1      36.756  30.282  28.314  1.00  0.00     0.124 S 
ATOM     82  O   UNL A   1      35.629  29.495  28.801  1.00  0.00    -0.237 OA
ATOM     83  O   UNL A   1      36.749  31.698  28.664  1.00  0.00    -0.237 OA
ATOM     84  O   UNL A   1      37.185  29.981  26.949  1.00  0.00    -0.744 OA
ENDBRANCH  77  81
ENDBRANCH  50  74
BRANCH  62  85
ATOM     85  C   UNL A   1      44.482  35.198  30.327  1.00  0.00     0.023 A 
ATOM     86  C   UNL A   1      44.170  36.241  29.438  1.00  0.00     0.031 A 
ATOM     87  C   UNL A   1      44.518  35.493  31.702  1.00  0.00     0.131 A 
ATOM     88  C   UNL A   1      43.969  37.542  29.927  1.00  0.00     0.055 A 
ATOM     89  C   UNL A   1      44.251  36.774  32.189  1.00  0.00     0.041 A 
ATOM     90  F   UNL A   1      44.811  34.538  32.600  1.00  0.00    -0.206 F 
ATOM     91  C   UNL A   1      43.990  37.810  31.299  1.00  0.00     0.022 A 
BRANCH  88  92
ATOM     92  S   UNL A   1      43.784  38.903  28.741  1.00  0.00     0.124 S 
ATOM     93  O   UNL A   1      42.441  39.388  29.044  1.00  0.00    -0.237 OA
ATOM     94  O   UNL A   1      44.881  39.790  29.111  1.00  0.00    -0.237 OA
ATOM     95  O   UNL A   1      43.928  38.247  27.442  1.00  0.00    -0.744 OA
ENDBRANCH  88  92
ENDBRANCH  62  85
ENDBRANCH  36  37
ENDBRANCH  29  31
ENDBRANCH  28  29
ENDBRANCH  27  28
ENDBRANCH  26  27
ENDBRANCH  25  26
ENDBRANCH  24  25
ENDBRANCH   1  24
TORSDOF 25
ENDMDL
MODEL 2
REMARK VINA RESULT:      -8.4      5.712      9.851
REMARK SMILES CC(C)C[C@@H](C)NS(=O)(=O)c1ccsc1C(=O)OCCOCCOCCOC(=O)c1ccc(-c2c3nc(c(-c4cc(S(=O)(=O)[O-])ccc4F)c4ccc([nH]4)c(-c4cc(S(=O)(=O)[O-])ccc4F)c4nc(c(-c5cc(S(=O)(=O)[O-])ccc5F)c5ccc2[nH]5)C=C4)C=C3)cc1
REMARK SMILES IDX 22 1 21 2 20 3 19 4 18 5 16 6 17 7 15 8 11 9 12 10 13 11
REMARK SMILES IDX 14 12 8 13 9 14 10 15 7 16 5 18 6 19 4 20 2 21 1 22 3 23
REMARK SMILES IDX 23 24 24 25 25 26 26 27 27 28 28 29 29 30 30 31 31 32 92 33
REMARK SMILES IDX 32 34 91 35 33 36 34 37 35 38 85 39 36 40 90 41 84 42 86 43
REMARK SMILES IDX 37 44 89 45 83 46 82 47 38 49 70 50 50 51 69 52 51 53 54 54
REMARK SMILES IDX 68 55 87 56 52 57 53 58 67 60 88 61 55 62 39 63 40 64 48 65
REMARK SMILES IDX 41 66 47 67 49 68 46 69 42 70 43 71 44 72 45 73 71 74 72 75
REMARK SMILES IDX 80 76 73 77 79 78 81 79 78 80 74 81 75 82 76 83 77 84 56 85
REMARK SMILES IDX 57 86 65 87 58 88 64 89 66 90 63 91 59 92 60 93 61 94 62 95
REMARK H PARENT 7 17 86 48 54 59
REMARK Flexibility Score: inf
ROOT
ATOM      1  C   UNL A   1      39.025  34.791  35.023  1.00  0.00     0.188 C 
ENDROOT
BRANCH   1   2
ATOM      2  O   UNL A   1      38.174  34.913  33.883  1.00  0.00    -0.376 OA
BRANCH   2   3
ATOM      3  C   UNL A   1      38.606  34.361  32.640  1.00  0.00     0.202 C 
BRANCH   3   4
ATOM      4  C   UNL A   1      37.752  33.242  32.026  1.00  0.00     0.261 C 
BRANCH   4   5
ATOM      5  O   UNL A   1      36.612  33.762  31.328  1.00  0.00    -0.459 OA
BRANCH   5   6
ATOM      6  C   UNL A   1      35.388  33.442  31.811  1.00  0.00     0.349 C 
ATOM      7  O   UNL A   1      35.164  32.491  32.550  1.00  0.00    -0.245 OA
BRANCH   6   8
ATOM      8  C   UNL A   1      34.414  34.437  31.406  1.00  0.00     0.132 A 
ATOM      9  C   UNL A   1      33.812  34.717  30.188  1.00  0.00     0.107 A 
ATOM     10  C   UNL A   1      32.892  35.815  30.284  1.00  0.00     0.034 A 
ATOM     11  C   UNL A   1      32.821  36.331  31.555  1.00  0.00     0.067 A 
ATOM     12  S   UNL A   1      33.834  35.491  32.639  1.00  0.00    -0.136 S 
BRANCH   9  13
ATOM     13  S   UNL A   1      33.986  33.813  28.717  1.00  0.00     0.242 S 
ATOM     14  O   UNL A   1      35.236  34.196  28.118  1.00  0.00    -0.207 OA
ATOM     15  O   UNL A   1      32.736  33.989  28.009  1.00  0.00    -0.207 OA
BRANCH  13  16
ATOM     16  N   UNL A   1      34.079  32.176  29.104  1.00  0.00    -0.208 NA
ATOM     17  H   UNL A   1      34.302  32.118  30.098  1.00  0.00     0.141 HD
BRANCH  16  18
ATOM     18  C   UNL A   1      35.050  31.314  28.395  1.00  0.00     0.067 C 
ATOM     19  C   UNL A   1      34.359  30.419  27.373  1.00  0.00     0.025 C 
BRANCH  18  20
ATOM     20  C   UNL A   1      35.793  30.494  29.464  1.00  0.00     0.022 C 
BRANCH  20  21
ATOM     21  C   UNL A   1      37.324  30.453  29.290  1.00  0.00    -0.016 C 
ATOM     22  C   UNL A   1      37.772  29.314  28.370  1.00  0.00     0.007 C 
ATOM     23  C   UNL A   1      37.816  31.791  28.740  1.00  0.00     0.007 C 
ENDBRANCH  20  21
ENDBRANCH  18  20
ENDBRANCH  16  18
ENDBRANCH  13  16
ENDBRANCH   9  13
ENDBRANCH   6   8
ENDBRANCH   5   6
ENDBRANCH   4   5
ENDBRANCH   3   4
ENDBRANCH   2   3
ENDBRANCH   1   2
BRANCH   1  24
ATOM     24  C   UNL A   1      40.095  33.679  35.044  1.00  0.00     0.188 C 
BRANCH  24  25
ATOM     25  O   UNL A   1      39.741  32.566  35.842  1.00  0.00    -0.376 OA
BRANCH  25  26
ATOM     26  C   UNL A   1      38.378  32.178  35.815  1.00  0.00     0.202 C 
BRANCH  26  27
ATOM     27  C   UNL A   1      38.058  30.813  35.182  1.00  0.00     0.261 C 
BRANCH  27  28
ATOM     28  O   UNL A   1      39.148  30.148  34.519  1.00  0.00    -0.460 OA
BRANCH  28  29
ATOM     29  C   UNL A   1      38.975  29.853  33.210  1.00  0.00     0.338 C 
ATOM     30  O   UNL A   1      37.944  29.479  32.682  1.00  0.00    -0.246 OA
BRANCH  29  31
ATOM     31  C   UNL A   1      40.199  30.261  32.480  1.00  0.00     0.060 A 
ATOM     32  C   UNL A   1      41.295  30.734  33.212  1.00  0.00     0.016 A 
ATOM     33  C   UNL A   1      40.261  30.189  31.086  1.00  0.00     0.016 A 
ATOM     34  C   UNL A   1      42.441  31.179  32.548  1.00  0.00     0.010 A 
ATOM     35  C   UNL A   1      41.403  30.653  30.421  1.00  0.00     0.010 A 
ATOM     36  C   UNL A   1      42.484  31.186  31.146  1.00  0.00    -0.014 A 
BRANCH  36  37
ATOM     37  C   UNL A   1      43.562  31.940  30.454  1.00  0.00     0.031 A 
ATOM     38  C   UNL A   1      44.856  31.225  30.161  1.00  0.00     0.074 A 
ATOM     39  C   UNL A   1      43.388  33.211  30.049  1.00  0.00     0.049 A 
ATOM     40  N   UNL A   1      45.938  31.663  29.569  1.00  0.00    -0.248 NA
ATOM     41  C   UNL A   1      44.936  29.823  30.601  1.00  0.00     0.031 C 
ATOM     42  C   UNL A   1      42.170  33.997  30.234  1.00  0.00     0.029 A 
ATOM     43  N   UNL A   1      44.242  34.065  29.395  1.00  0.00    -0.354 N 
ATOM     44  C   UNL A   1      46.826  30.592  29.562  1.00  0.00     0.074 A 
ATOM     45  C   UNL A   1      46.170  29.499  30.250  1.00  0.00     0.031 C 
ATOM     46  C   UNL A   1      42.356  35.220  29.707  1.00  0.00     0.029 A 
ATOM     47  C   UNL A   1      43.716  35.318  29.177  1.00  0.00     0.049 A 
ATOM     48  H   UNL A   1      45.147  33.805  29.108  1.00  0.00     0.167 HD
ATOM     49  C   UNL A   1      48.067  30.520  29.022  1.00  0.00     0.034 A 
ATOM     50  C   UNL A   1      44.274  36.417  28.630  1.00  0.00     0.034 A 
ATOM     51  C   UNL A   1      48.717  31.622  28.356  1.00  0.00     0.049 A 
ATOM     52  C   UNL A   1      45.692  36.342  28.109  1.00  0.00     0.074 A 
ATOM     53  C   UNL A   1      49.972  31.661  27.773  1.00  0.00     0.029 A 
ATOM     54  N   UNL A   1      48.169  32.890  28.196  1.00  0.00    -0.354 N 
ATOM     55  N   UNL A   1      46.517  35.320  28.100  1.00  0.00    -0.248 NA
ATOM     56  C   UNL A   1      46.246  37.565  27.512  1.00  0.00     0.031 C 
ATOM     57  C   UNL A   1      50.211  32.965  27.328  1.00  0.00     0.029 A 
ATOM     58  C   UNL A   1      49.072  33.722  27.550  1.00  0.00     0.049 A 
ATOM     59  H   UNL A   1      47.271  33.158  28.497  1.00  0.00     0.167 HD
ATOM     60  C   UNL A   1      47.671  35.769  27.458  1.00  0.00     0.074 A 
ATOM     61  C   UNL A   1      47.429  37.148  27.088  1.00  0.00     0.031 C 
ATOM     62  C   UNL A   1      48.823  35.098  27.189  1.00  0.00     0.034 A 
BRANCH  49  63
ATOM     63  C   UNL A   1      48.817  29.218  29.184  1.00  0.00     0.023 A 
ATOM     64  C   UNL A   1      48.783  28.214  28.200  1.00  0.00     0.031 A 
ATOM     65  C   UNL A   1      49.549  28.964  30.358  1.00  0.00     0.131 A 
ATOM     66  C   UNL A   1      49.403  26.979  28.438  1.00  0.00     0.055 A 
ATOM     67  C   UNL A   1      50.235  27.763  30.552  1.00  0.00     0.041 A 
ATOM     68  F   UNL A   1      49.600  29.874  31.343  1.00  0.00    -0.206 F 
ATOM     69  C   UNL A   1      50.152  26.756  29.596  1.00  0.00     0.022 A 
BRANCH  66  70
ATOM     70  S   UNL A   1      49.097  25.616  27.280  1.00  0.00     0.124 S 
ATOM     71  O   UNL A   1      49.695  26.133  26.052  1.00  0.00    -0.237 OA
ATOM     72  O   UNL A   1      49.794  24.502  27.911  1.00  0.00    -0.237 OA
ATOM     73  O   UNL A   1      47.640  25.508  27.256  1.00  0.00    -0.744 OA
ENDBRANCH  66  70
ENDBRANCH  49  63
BRANCH  50  74
ATOM     74  C   UNL A   1      43.514  37.702  28.566  1.00  0.00     0.023 A 
ATOM     75  C   UNL A   1      43.573  38.639  29.612  1.00  0.00     0.031 A 
ATOM     76  C   UNL A   1      42.664  37.980  27.482  1.00  0.00     0.131 A 
ATOM     77  C   UNL A   1      42.761  39.783  29.573  1.00  0.00     0.055 A 
ATOM     78  C   UNL A   1      41.900  39.147  27.422  1.00  0.00     0.041 A 
ATOM     79  F   UNL A   1      42.564  37.117  26.459  1.00  0.00    -0.206 F 
ATOM     80  C   UNL A   1      41.935  40.051  28.479  1.00  0.00     0.022 A 
BRANCH  77  81
ATOM     81  S   UNL A   1      42.730  40.878  31.020  1.00  0.00     0.124 S 
ATOM     82  O   UNL A   1      43.608  41.961  30.591  1.00  0.00    -0.237 OA
ATOM     83  O   UNL A   1      41.312  41.206  31.122  1.00  0.00    -0.237 OA
ATOM     84  O   UNL A   1      43.252  40.038  32.095  1.00  0.00    -0.744 OA
ENDBRANCH  77  81
ENDBRANCH  50  74
BRANCH  62  85
ATOM     85  C   UNL A   1      49.882  35.832  26.399  1.00  0.00     0.023 A 
ATOM     86  C   UNL A   1      50.874  36.612  27.020  1.00  0.00     0.031 A 
ATOM     87  C   UNL A   1      49.889  35.754  24.994  1.00  0.00     0.131 A 
ATOM     88  C   UNL A   1      51.790  37.333  26.238  1.00  0.00     0.055 A 
ATOM     89  C   UNL A   1      50.845  36.420  24.223  1.00  0.00     0.041 A 
ATOM     90  F   UNL A   1      48.967  35.026  24.344  1.00  0.00    -0.206 F 
ATOM     91  C   UNL A   1      51.792  37.227  24.844  1.00  0.00     0.022 A 
BRANCH  88  92
ATOM     92  S   UNL A   1      52.914  38.496  27.059  1.00  0.00     0.124 S 
ATOM     93  O   UNL A   1      53.795  37.596  27.797  1.00  0.00    -0.237 OA
ATOM     94  O   UNL A   1      53.518  39.195  25.930  1.00  0.00    -0.237 OA
ATOM     95  O   UNL A   1      52.024  39.308  27.886  1.00  0.00    -0.744 OA
ENDBRANCH  88  92
ENDBRANCH  62  85
ENDBRANCH  36  37
ENDBRANCH  29  31
ENDBRANCH  28  29
ENDBRANCH  27  28
ENDBRANCH  26  27
ENDBRANCH  25  26
ENDBRANCH  24  25
ENDBRANCH   1  24
TORSDOF 25
ENDMDL
MODEL 3
REMARK VINA RESULT:      -8.4      5.385      7.144
REMARK SMILES CC(C)C[C@@H](C)NS(=O)(=O)c1ccsc1C(=O)OCCOCCOCCOC(=O)c1ccc(-c2c3nc(c(-c4cc(S(=O)(=O)[O-])ccc4F)c4ccc([nH]4)c(-c4cc(S(=O)(=O)[O-])ccc4F)c4nc(c(-c5cc(S(=O)(=O)[O-])ccc5F)c5ccc2[nH]5)C=C4)C=C3)cc1
REMARK SMILES IDX 22 1 21 2 20 3 19 4 18 5 16 6 17 7 15 8 11 9 12 10 13 11
REMARK SMILES IDX 14 12 8 13 9 14 10 15 7 16 5 18 6 19 4 20 2 21 1 22 3 23
REMARK SMILES IDX 23 24 24 25 25 26 26 27 27 28 28 29 29 30 30 31 31 32 92 33
REMARK SMILES IDX 32 34 91 35 33 36 34 37 35 38 85 39 36 40 90 41 84 42 86 43
REMARK SMILES IDX 37 44 89 45 83 46 82 47 38 49 70 50 50 51 69 52 51 53 54 54
REMARK SMILES IDX 68 55 87 56 52 57 53 58 67 60 88 61 55 62 39 63 40 64 48 65
REMARK SMILES IDX 41 66 47 67 49 68 46 69 42 70 43 71 44 72 45 73 71 74 72 75
REMARK SMILES IDX 80 76 73 77 79 78 81 79 78 80 74 81 75 82 76 83 77 84 56 85
REMARK SMILES IDX 57 86 65 87 58 88 64 89 66 90 63 91 59 92 60 93 61 94 62 95
REMARK H PARENT 7 17 86 48 54 59
REMARK Flexibility Score: inf
ROOT
ATOM      1  C   UNL A   1      40.133  21.601  26.378  1.00  0.00     0.188 C 
ENDROOT
BRANCH   1   2
ATOM      2  O   UNL A   1      38.707  21.568  26.324  1.00  0.00    -0.376 OA
BRANCH   2   3
ATOM      3  C   UNL A   1      38.074  20.947  25.206  1.00  0.00     0.202 C 
BRANCH   3   4
ATOM      4  C   UNL A   1      36.617  21.329  24.914  1.00  0.00     0.261 C 
BRANCH   4   5
ATOM      5  O   UNL A   1      35.860  21.509  26.119  1.00  0.00    -0.459 OA
BRANCH   5   6
ATOM      6  C   UNL A   1      34.801  22.351  26.068  1.00  0.00     0.349 C 
ATOM      7  O   UNL A   1      34.697  23.371  26.739  1.00  0.00    -0.245 OA
BRANCH   6   8
ATOM      8  C   UNL A   1      33.869  21.923  25.044  1.00  0.00     0.132 A 
ATOM      9  C   UNL A   1      33.476  22.487  23.838  1.00  0.00     0.107 A 
ATOM     10  C   UNL A   1      32.512  21.674  23.153  1.00  0.00     0.034 A 
ATOM     11  C   UNL A   1      32.203  20.529  23.847  1.00  0.00     0.067 A 
ATOM     12  S   UNL A   1      33.081  20.414  25.305  1.00  0.00    -0.136 S 
BRANCH   9  13
ATOM     13  S   UNL A   1      34.125  23.922  23.109  1.00  0.00     0.242 S 
ATOM     14  O   UNL A   1      33.184  24.369  22.118  1.00  0.00    -0.207 OA
ATOM     15  O   UNL A   1      35.486  23.587  22.747  1.00  0.00    -0.207 OA
BRANCH  13  16
ATOM     16  N   UNL A   1      34.235  25.118  24.292  1.00  0.00    -0.208 NA
ATOM     17  H   UNL A   1      34.187  24.648  25.196  1.00  0.00     0.141 HD
BRANCH  16  18
ATOM     18  C   UNL A   1      33.235  26.208  24.321  1.00  0.00     0.067 C 
ATOM     19  C   UNL A   1      33.752  27.458  23.618  1.00  0.00     0.025 C 
BRANCH  18  20
ATOM     20  C   UNL A   1      32.903  26.479  25.798  1.00  0.00     0.022 C 
BRANCH  20  21
ATOM     21  C   UNL A   1      31.528  27.133  26.036  1.00  0.00    -0.016 C 
ATOM     22  C   UNL A   1      30.404  26.099  26.145  1.00  0.00     0.007 C 
ATOM     23  C   UNL A   1      31.575  27.986  27.304  1.00  0.00     0.007 C 
ENDBRANCH  20  21
ENDBRANCH  18  20
ENDBRANCH  16  18
ENDBRANCH  13  16
ENDBRANCH   9  13
ENDBRANCH   6   8
ENDBRANCH   5   6
ENDBRANCH   4   5
ENDBRANCH   3   4
ENDBRANCH   2   3
ENDBRANCH   1   2
BRANCH   1  24
ATOM     24  C   UNL A   1      40.908  20.278  26.558  1.00  0.00     0.188 C 
BRANCH  24  25
ATOM     25  O   UNL A   1      42.088  20.201  25.783  1.00  0.00    -0.376 OA
BRANCH  25  26
ATOM     26  C   UNL A   1      43.115  21.125  26.102  1.00  0.00     0.202 C 
BRANCH  26  27
ATOM     27  C   UNL A   1      43.513  22.126  25.004  1.00  0.00     0.261 C 
BRANCH  27  28
ATOM     28  O   UNL A   1      43.024  23.470  25.162  1.00  0.00    -0.460 OA
BRANCH  28  29
ATOM     29  C   UNL A   1      43.952  24.438  25.345  1.00  0.00     0.338 C 
ATOM     30  O   UNL A   1      44.925  24.650  24.644  1.00  0.00    -0.246 OA
BRANCH  29  31
ATOM     31  C   UNL A   1      43.476  25.335  26.424  1.00  0.00     0.060 A 
ATOM     32  C   UNL A   1      43.944  26.655  26.462  1.00  0.00     0.016 A 
ATOM     33  C   UNL A   1      42.584  24.877  27.398  1.00  0.00     0.016 A 
ATOM     34  C   UNL A   1      43.556  27.506  27.499  1.00  0.00     0.010 A 
ATOM     35  C   UNL A   1      42.211  25.726  28.447  1.00  0.00     0.010 A 
ATOM     36  C   UNL A   1      42.725  27.032  28.524  1.00  0.00    -0.014 A 
BRANCH  36  37
ATOM     37  C   UNL A   1      42.574  27.833  29.768  1.00  0.00     0.031 A 
ATOM     38  C   UNL A   1      43.414  27.459  30.962  1.00  0.00     0.074 A 
ATOM     39  C   UNL A   1      41.751  28.896  29.829  1.00  0.00     0.049 A 
ATOM     40  N   UNL A   1      43.464  28.003  32.151  1.00  0.00    -0.248 NA
ATOM     41  C   UNL A   1      44.318  26.312  30.786  1.00  0.00     0.031 C 
ATOM     42  C   UNL A   1      40.920  29.383  28.730  1.00  0.00     0.029 A 
ATOM     43  N   UNL A   1      41.481  29.759  30.863  1.00  0.00    -0.354 N 
ATOM     44  C   UNL A   1      44.405  27.268  32.865  1.00  0.00     0.074 A 
ATOM     45  C   UNL A   1      44.865  26.212  31.987  1.00  0.00     0.031 C 
ATOM     46  C   UNL A   1      40.230  30.459  29.150  1.00  0.00     0.029 A 
ATOM     47  C   UNL A   1      40.543  30.718  30.556  1.00  0.00     0.049 A 
ATOM     48  H   UNL A   1      41.918  29.697  31.743  1.00  0.00     0.167 HD
ATOM     49  C   UNL A   1      44.855  27.461  34.129  1.00  0.00     0.034 A 
ATOM     50  C   UNL A   1      39.991  31.678  31.324  1.00  0.00     0.034 A 
ATOM     51  C   UNL A   1      44.375  28.505  35.000  1.00  0.00     0.049 A 
ATOM     52  C   UNL A   1      40.445  31.824  32.760  1.00  0.00     0.074 A 
ATOM     53  C   UNL A   1      44.759  28.791  36.299  1.00  0.00     0.029 A 
ATOM     54  N   UNL A   1      43.390  29.428  34.669  1.00  0.00    -0.354 N 
ATOM     55  N   UNL A   1      41.343  31.128  33.419  1.00  0.00    -0.248 NA
ATOM     56  C   UNL A   1      39.819  32.895  33.549  1.00  0.00     0.031 C 
ATOM     57  C   UNL A   1      43.960  29.835  36.775  1.00  0.00     0.029 A 
ATOM     58  C   UNL A   1      43.137  30.264  35.746  1.00  0.00     0.049 A 
ATOM     59  H   UNL A   1      42.939  29.482  33.795  1.00  0.00     0.167 HD
ATOM     60  C   UNL A   1      41.418  31.706  34.686  1.00  0.00     0.074 A 
ATOM     61  C   UNL A   1      40.482  32.811  34.692  1.00  0.00     0.031 C 
ATOM     62  C   UNL A   1      42.198  31.362  35.744  1.00  0.00     0.034 A 
BRANCH  49  63
ATOM     63  C   UNL A   1      45.880  26.482  34.654  1.00  0.00     0.023 A 
ATOM     64  C   UNL A   1      45.510  25.232  35.183  1.00  0.00     0.031 A 
ATOM     65  C   UNL A   1      47.245  26.820  34.657  1.00  0.00     0.131 A 
ATOM     66  C   UNL A   1      46.483  24.401  35.759  1.00  0.00     0.055 A 
ATOM     67  C   UNL A   1      48.218  25.951  35.157  1.00  0.00     0.041 A 
ATOM     68  F   UNL A   1      47.658  28.008  34.189  1.00  0.00    -0.206 F 
ATOM     69  C   UNL A   1      47.837  24.740  35.726  1.00  0.00     0.022 A 
BRANCH  66  70
ATOM     70  S   UNL A   1      45.936  22.938  36.683  1.00  0.00     0.124 S 
ATOM     71  O   UNL A   1      47.133  22.102  36.646  1.00  0.00    -0.237 OA
ATOM     72  O   UNL A   1      45.586  23.498  37.982  1.00  0.00    -0.237 OA
ATOM     73  O   UNL A   1      44.812  22.436  35.895  1.00  0.00    -0.744 OA
ENDBRANCH  66  70
ENDBRANCH  49  63
BRANCH  50  74
ATOM     74  C   UNL A   1      38.923  32.568  30.777  1.00  0.00     0.023 A 
ATOM     75  C   UNL A   1      37.564  32.319  31.027  1.00  0.00     0.031 A 
ATOM     76  C   UNL A   1      39.249  33.648  29.937  1.00  0.00     0.131 A 
ATOM     77  C   UNL A   1      36.581  33.106  30.406  1.00  0.00     0.055 A 
ATOM     78  C   UNL A   1      38.269  34.462  29.367  1.00  0.00     0.041 A 
ATOM     79  F   UNL A   1      40.532  33.928  29.658  1.00  0.00    -0.206 F 
ATOM     80  C   UNL A   1      36.924  34.185  29.589  1.00  0.00     0.022 A 
BRANCH  77  81
ATOM     81  S   UNL A   1      34.838  32.644  30.610  1.00  0.00     0.124 S 
ATOM     82  O   UNL A   1      34.193  33.950  30.691  1.00  0.00    -0.237 OA
ATOM     83  O   UNL A   1      34.583  31.878  29.395  1.00  0.00    -0.237 OA
ATOM     84  O   UNL A   1      34.834  31.867  31.848  1.00  0.00    -0.744 OA
ENDBRANCH  77  81
ENDBRANCH  50  74
BRANCH  62  85
ATOM     85  C   UNL A   1      42.117  32.234  36.976  1.00  0.00     0.023 A 
ATOM     86  C   UNL A   1      41.100  32.084  37.935  1.00  0.00     0.031 A 
ATOM     87  C   UNL A   1      43.076  33.243  37.185  1.00  0.00     0.131 A 
ATOM     88  C   UNL A   1      41.028  32.968  39.023  1.00  0.00     0.055 A 
ATOM     89  C   UNL A   1      43.038  34.076  38.304  1.00  0.00     0.041 A 
ATOM     90  F   UNL A   1      44.071  33.435  36.303  1.00  0.00    -0.206 F 
ATOM     91  C   UNL A   1      42.001  33.952  39.223  1.00  0.00     0.022 A 
BRANCH  88  92
ATOM     92  S   UNL A   1      39.585  32.887  40.120  1.00  0.00     0.124 S 
ATOM     93  O   UNL A   1      39.283  34.299  40.329  1.00  0.00    -0.237 OA
ATOM     94  O   UNL A   1      38.623  32.141  39.316  1.00  0.00    -0.237 OA
ATOM     95  O   UNL A   1      40.089  32.179  41.297  1.00  0.00    -0.744 OA
ENDBRANCH  88  92
ENDBRANCH  62  85
ENDBRANCH  36  37
ENDBRANCH  29  31
ENDBRANCH  28  29
ENDBRANCH  27  28
ENDBRANCH  26  27
ENDBRANCH  25  26
ENDBRANCH  24  25
ENDBRANCH   1  24
TORSDOF 25
ENDMDL
