MODEL 1
REMARK VINA RESULT:     -13.1      0.000      0.000
REMARK SMILES Cc1ccc(Nc2c(Cl)cc(Cl)cc2Cl)c(CC(=O)OCCOCCOCCOC(=O)c2ccc(-c3c4nc(c(-c5cc(S(=O)(=O)[O-])ccc5F)c5ccc([nH]5)c(-c5cc(S(=O)(=O)[O-])ccc5F)c5nc(c(-c6cc(S(=O)(=O)[O-])ccc6F)c6ccc3[nH]6)C=C5)C=C4)cc2)c1
REMARK SMILES IDX 24 1 23 2 22 3 21 4 20 5 18 6 19 7 17 8 16 9 1 10 2 11 3 12
REMARK SMILES IDX 95 13 4 14 5 15 6 16 7 18 8 19 14 20 9 21 10 22 13 23 15 24
REMARK SMILES IDX 11 25 12 26 25 27 26 28 27 29 28 30 29 31 30 32 31 33 32 34
REMARK SMILES IDX 33 35 94 36 34 37 93 38 35 39 36 40 37 41 87 42 38 43 92 44
REMARK SMILES IDX 86 45 88 46 39 47 91 48 85 49 84 50 40 52 72 53 52 54 71 55
REMARK SMILES IDX 53 56 56 57 70 58 89 59 54 60 55 61 69 63 90 64 57 65 41 66
REMARK SMILES IDX 42 67 50 68 43 69 49 70 51 71 48 72 44 73 45 74 46 75 47 76
REMARK SMILES IDX 73 77 74 78 82 79 75 80 81 81 83 82 80 83 76 84 77 85 78 86
REMARK SMILES IDX 79 87 58 88 59 89 67 90 60 91 66 92 68 93 65 94 61 95 62 96
REMARK SMILES IDX 63 97 64 98
REMARK H PARENT 6 17 88 51 56 62
REMARK Flexibility Score: inf
ROOT
ATOM      1  C   UNL A   1      34.767  31.165  27.720  1.00  0.00     0.188 C 
ENDROOT
BRANCH   1   2
ATOM      2  O   UNL A   1      33.926  30.085  28.010  1.00  0.00    -0.376 OA
BRANCH   2   3
ATOM      3  C   UNL A   1      33.440  29.274  26.969  1.00  0.00     0.202 C 
BRANCH   3   4
ATOM      4  C   UNL A   1      32.147  28.304  26.788  1.00  0.00     0.261 C 
BRANCH   4   5
ATOM      5  O   UNL A   1      31.683  26.610  26.245  1.00  0.00    -0.463 OA
BRANCH   5   6
ATOM      6  C   UNL A   1      30.630  25.729  25.296  1.00  0.00     0.310 C 
ATOM      7  O   UNL A   1      30.481  24.519  25.055  1.00  0.00    -0.252 OA
BRANCH   6   8
ATOM      8  C   UNL A   1      29.475  26.462  24.918  1.00  0.00     0.160 C 
BRANCH   8   9
ATOM      9  C   UNL A   1      29.713  26.689  23.476  1.00  0.00    -0.013 A 
ATOM     10  C   UNL A   1      27.917  29.976  22.540  1.00  0.00     0.044 C 
ATOM     11  C   UNL A   1      28.986  28.945  22.674  1.00  0.00    -0.051 A 
ATOM     12  C   UNL A   1      30.303  29.178  22.389  1.00  0.00     0.005 A 
ATOM     13  C   UNL A   1      28.700  27.714  23.210  1.00  0.00     0.009 A 
ATOM     14  C   UNL A   1      31.261  28.153  22.604  1.00  0.00     0.026 A 
ATOM     15  C   UNL A   1      31.036  26.593  22.964  1.00  0.00     0.042 A 
BRANCH  15  16
ATOM     16  N   UNL A   1      32.284  25.116  22.324  1.00  0.00    -0.353 N 
ATOM     17  H   UNL A   1      32.490  25.159  21.361  1.00  0.00     0.167 HD
BRANCH  16  18
ATOM     18  C   UNL A   1      33.106  23.713  23.195  1.00  0.00     0.076 A 
ATOM     19  C   UNL A   1      32.764  22.188  23.069  1.00  0.00     0.067 A 
ATOM     20  C   UNL A   1      33.826  23.962  24.391  1.00  0.00     0.067 A 
ATOM     21  Cl  UNL A   1      31.871  21.175  21.883  1.00  0.00    -0.082 Cl
ATOM     22  C   UNL A   1      33.058  21.240  24.080  1.00  0.00     0.043 A 
ATOM     23  C   UNL A   1      34.085  22.938  25.367  1.00  0.00     0.043 A 
ATOM     24  Cl  UNL A   1      34.491  25.407  24.908  1.00  0.00    -0.082 Cl
ATOM     25  C   UNL A   1      33.660  21.628  25.241  1.00  0.00     0.044 A 
ATOM     26  Cl  UNL A   1      33.777  20.505  26.540  1.00  0.00    -0.084 Cl
ENDBRANCH  16  18
ENDBRANCH  15  16
ENDBRANCH   8   9
ENDBRANCH   6   8
ENDBRANCH   5   6
ENDBRANCH   4   5
ENDBRANCH   3   4
ENDBRANCH   2   3
ENDBRANCH   1   2
BRANCH   1  27
ATOM     27  C   UNL A   1      34.185  32.546  27.836  1.00  0.00     0.188 C 
BRANCH  27  28
ATOM     28  O   UNL A   1      35.095  33.604  27.645  1.00  0.00    -0.376 OA
BRANCH  28  29
ATOM     29  C   UNL A   1      34.676  34.805  28.269  1.00  0.00     0.202 C 
BRANCH  29  30
ATOM     30  C   UNL A   1      33.249  34.844  28.962  1.00  0.00     0.261 C 
BRANCH  30  31
ATOM     31  O   UNL A   1      33.205  34.466  30.401  1.00  0.00    -0.460 OA
BRANCH  31  32
ATOM     32  C   UNL A   1      33.711  35.243  31.476  1.00  0.00     0.338 C 
ATOM     33  O   UNL A   1      33.778  36.448  31.317  1.00  0.00    -0.246 OA
BRANCH  32  34
ATOM     34  C   UNL A   1      34.105  34.323  32.905  1.00  0.00     0.060 A 
ATOM     35  C   UNL A   1      35.096  34.547  34.600  1.00  0.00     0.016 A 
ATOM     36  C   UNL A   1      34.980  33.279  31.723  1.00  0.00     0.016 A 
ATOM     37  C   UNL A   1      36.893  33.928  34.685  1.00  0.00     0.010 A 
ATOM     38  C   UNL A   1      36.652  32.866  31.913  1.00  0.00     0.010 A 
ATOM     39  C   UNL A   1      37.763  33.115  33.291  1.00  0.00    -0.014 A 
BRANCH  39  40
ATOM     40  C   UNL A   1      39.407  32.164  33.055  1.00  0.00     0.031 A 
ATOM     41  C   UNL A   1      39.691  30.648  31.883  1.00  0.00     0.074 A 
ATOM     42  C   UNL A   1      40.615  32.642  33.442  1.00  0.00     0.049 A 
ATOM     43  N   UNL A   1      39.828  29.365  32.204  1.00  0.00    -0.248 NA
ATOM     44  C   UNL A   1      39.145  30.464  30.279  1.00  0.00     0.031 C 
ATOM     45  C   UNL A   1      41.954  32.241  32.961  1.00  0.00     0.029 A 
ATOM     46  N   UNL A   1      40.928  33.702  34.281  1.00  0.00    -0.354 N 
ATOM     47  C   UNL A   1      39.645  28.577  31.017  1.00  0.00     0.074 A 
ATOM     48  C   UNL A   1      38.696  29.228  30.213  1.00  0.00     0.031 C 
ATOM     49  C   UNL A   1      42.901  32.771  33.764  1.00  0.00     0.029 A 
ATOM     50  C   UNL A   1      42.202  33.466  34.830  1.00  0.00     0.049 A 
ATOM     51  H   UNL A   1      40.357  34.483  34.461  1.00  0.00     0.167 HD
ATOM     52  C   UNL A   1      40.686  27.960  30.365  1.00  0.00     0.034 A 
ATOM     53  C   UNL A   1      42.206  33.185  36.157  1.00  0.00     0.034 A 
ATOM     54  C   UNL A   1      41.889  28.319  31.083  1.00  0.00     0.049 A 
ATOM     55  C   UNL A   1      42.344  31.662  36.249  1.00  0.00     0.074 A 
ATOM     56  C   UNL A   1      42.927  29.206  30.879  1.00  0.00     0.029 A 
ATOM     57  N   UNL A   1      41.850  28.075  32.436  1.00  0.00    -0.354 N 
ATOM     58  N   UNL A   1      42.057  30.827  35.272  1.00  0.00    -0.248 NA
ATOM     59  C   UNL A   1      43.077  31.006  37.323  1.00  0.00     0.031 C 
ATOM     60  C   UNL A   1      43.481  29.504  32.173  1.00  0.00     0.029 A 
ATOM     61  C   UNL A   1      42.743  28.834  33.141  1.00  0.00     0.049 A 
ATOM     62  H   UNL A   1      41.244  27.422  32.853  1.00  0.00     0.167 HD
ATOM     63  C   UNL A   1      42.678  29.628  35.474  1.00  0.00     0.074 A 
ATOM     64  C   UNL A   1      43.271  29.782  36.798  1.00  0.00     0.031 C 
ATOM     65  C   UNL A   1      42.773  28.595  34.574  1.00  0.00     0.034 A 
BRANCH  52  66
ATOM     66  C   UNL A   1      40.651  27.395  28.931  1.00  0.00     0.023 A 
ATOM     67  C   UNL A   1      41.540  27.951  27.995  1.00  0.00     0.031 A 
ATOM     68  C   UNL A   1      39.873  26.315  28.426  1.00  0.00     0.131 A 
ATOM     69  C   UNL A   1      41.635  27.471  26.671  1.00  0.00     0.055 A 
ATOM     70  C   UNL A   1      39.917  25.881  27.084  1.00  0.00     0.041 A 
ATOM     71  F   UNL A   1      39.070  25.578  29.206  1.00  0.00    -0.206 F 
ATOM     72  C   UNL A   1      40.816  26.450  26.200  1.00  0.00     0.022 A 
BRANCH  69  73
ATOM     73  S   UNL A   1      42.930  28.156  25.607  1.00  0.00     0.124 S 
ATOM     74  O   UNL A   1      42.572  27.605  24.305  1.00  0.00    -0.237 OA
ATOM     75  O   UNL A   1      42.737  29.592  25.780  1.00  0.00    -0.237 OA
ATOM     76  O   UNL A   1      44.163  27.628  26.188  1.00  0.00    -0.744 OA
ENDBRANCH  69  73
ENDBRANCH  52  66
BRANCH  53  77
ATOM     77  C   UNL A   1      41.291  34.203  36.822  1.00  0.00     0.023 A 
ATOM     78  C   UNL A   1      40.154  33.675  37.532  1.00  0.00     0.031 A 
ATOM     79  C   UNL A   1      41.738  35.472  37.223  1.00  0.00     0.131 A 
ATOM     80  C   UNL A   1      39.559  34.372  38.603  1.00  0.00     0.055 A 
ATOM     81  C   UNL A   1      41.110  36.180  38.267  1.00  0.00     0.041 A 
ATOM     82  F   UNL A   1      42.869  35.989  36.722  1.00  0.00    -0.206 F 
ATOM     83  C   UNL A   1      40.000  35.651  38.931  1.00  0.00     0.022 A 
BRANCH  80  84
ATOM     84  S   UNL A   1      38.390  33.494  39.724  1.00  0.00     0.124 S 
ATOM     85  O   UNL A   1      37.952  34.559  40.620  1.00  0.00    -0.237 OA
ATOM     86  O   UNL A   1      37.377  32.990  38.799  1.00  0.00    -0.237 OA
ATOM     87  O   UNL A   1      39.206  32.460  40.360  1.00  0.00    -0.744 OA
ENDBRANCH  80  84
ENDBRANCH  53  77
BRANCH  65  88
ATOM     88  C   UNL A   1      42.851  27.145  35.027  1.00  0.00     0.023 A 
ATOM     89  C   UNL A   1      43.786  26.287  34.464  1.00  0.00     0.031 A 
ATOM     90  C   UNL A   1      42.098  26.592  36.100  1.00  0.00     0.131 A 
ATOM     91  C   UNL A   1      43.794  24.930  34.776  1.00  0.00     0.055 A 
ATOM     92  C   UNL A   1      42.263  25.286  36.557  1.00  0.00     0.041 A 
ATOM     93  F   UNL A   1      41.165  27.277  36.776  1.00  0.00    -0.206 F 
ATOM     94  C   UNL A   1      43.072  24.422  35.847  1.00  0.00     0.022 A 
BRANCH  91  95
ATOM     95  S   UNL A   1      44.615  23.856  33.590  1.00  0.00     0.124 S 
ATOM     96  O   UNL A   1      45.718  23.327  34.390  1.00  0.00    -0.237 OA
ATOM     97  O   UNL A   1      43.568  22.900  33.250  1.00  0.00    -0.237 OA
ATOM     98  O   UNL A   1      45.005  24.770  32.520  1.00  0.00    -0.744 OA
ENDBRANCH  91  95
ENDBRANCH  65  88
ENDBRANCH  39  40
ENDBRANCH  32  34
ENDBRANCH  31  32
ENDBRANCH  30  31
ENDBRANCH  29  30
ENDBRANCH  28  29
ENDBRANCH  27  28
ENDBRANCH   1  27
TORSDOF 23
ENDMDL
MODEL 2
REMARK VINA RESULT:     -12.1      1.651      2.008
REMARK SMILES Cc1ccc(Nc2c(Cl)cc(Cl)cc2Cl)c(CC(=O)OCCOCCOCCOC(=O)c2ccc(-c3c4nc(c(-c5cc(S(=O)(=O)[O-])ccc5F)c5ccc([nH]5)c(-c5cc(S(=O)(=O)[O-])ccc5F)c5nc(c(-c6cc(S(=O)(=O)[O-])ccc6F)c6ccc3[nH]6)C=C5)C=C4)cc2)c1
REMARK SMILES IDX 24 1 23 2 22 3 21 4 20 5 18 6 19 7 17 8 16 9 1 10 2 11 3 12
REMARK SMILES IDX 95 13 4 14 5 15 6 16 7 18 8 19 14 20 9 21 10 22 13 23 15 24
REMARK SMILES IDX 11 25 12 26 25 27 26 28 27 29 28 30 29 31 30 32 31 33 32 34
REMARK SMILES IDX 33 35 94 36 34 37 93 38 35 39 36 40 37 41 87 42 38 43 92 44
REMARK SMILES IDX 86 45 88 46 39 47 91 48 85 49 84 50 40 52 72 53 52 54 71 55
REMARK SMILES IDX 53 56 56 57 70 58 89 59 54 60 55 61 69 63 90 64 57 65 41 66
REMARK SMILES IDX 42 67 50 68 43 69 49 70 51 71 48 72 44 73 45 74 46 75 47 76
REMARK SMILES IDX 73 77 74 78 82 79 75 80 81 81 83 82 80 83 76 84 77 85 78 86
REMARK SMILES IDX 79 87 58 88 59 89 67 90 60 91 66 92 68 93 65 94 61 95 62 96
REMARK SMILES IDX 63 97 64 98
REMARK H PARENT 6 17 88 51 56 62
REMARK Flexibility Score: inf
ROOT
ATOM      1  C   UNL A   1      34.886  32.687  28.011  1.00  0.00     0.188 C 
ENDROOT
BRANCH   1   2
ATOM      2  O   UNL A   1      34.370  31.419  28.298  1.00  0.00    -0.376 OA
BRANCH   2   3
ATOM      3  C   UNL A   1      33.950  30.579  27.252  1.00  0.00     0.202 C 
BRANCH   3   4
ATOM      4  C   UNL A   1      32.727  29.523  27.058  1.00  0.00     0.261 C 
BRANCH   4   5
ATOM      5  O   UNL A   1      32.323  27.739  27.243  1.00  0.00    -0.463 OA
BRANCH   5   6
ATOM      6  C   UNL A   1      31.631  26.419  26.493  1.00  0.00     0.310 C 
ATOM      7  O   UNL A   1      31.594  25.200  26.736  1.00  0.00    -0.252 OA
BRANCH   6   8
ATOM      8  C   UNL A   1      30.626  26.774  25.556  1.00  0.00     0.160 C 
BRANCH   8   9
ATOM      9  C   UNL A   1      31.343  26.644  24.270  1.00  0.00    -0.013 A 
ATOM     10  C   UNL A   1      30.215  29.590  22.044  1.00  0.00     0.044 C 
ATOM     11  C   UNL A   1      31.098  28.631  22.768  1.00  0.00    -0.051 A 
ATOM     12  C   UNL A   1      32.448  28.796  22.901  1.00  0.00     0.005 A 
ATOM     13  C   UNL A   1      30.557  27.566  23.445  1.00  0.00     0.009 A 
ATOM     14  C   UNL A   1      33.200  27.861  23.660  1.00  0.00     0.026 A 
ATOM     15  C   UNL A   1      32.750  26.435  24.274  1.00  0.00     0.042 A 
BRANCH  15  16
ATOM     16  N   UNL A   1      34.022  24.854  24.456  1.00  0.00    -0.353 N 
ATOM     17  H   UNL A   1      34.968  25.087  24.307  1.00  0.00     0.167 HD
BRANCH  16  18
ATOM     18  C   UNL A   1      33.750  23.073  24.848  1.00  0.00     0.076 A 
ATOM     19  C   UNL A   1      34.839  22.002  25.201  1.00  0.00     0.067 A 
ATOM     20  C   UNL A   1      32.555  22.441  24.418  1.00  0.00     0.067 A 
ATOM     21  Cl  UNL A   1      36.548  22.056  25.755  1.00  0.00    -0.082 Cl
ATOM     22  C   UNL A   1      34.654  20.611  25.004  1.00  0.00     0.043 A 
ATOM     23  C   UNL A   1      32.450  21.016  24.248  1.00  0.00     0.043 A 
ATOM     24  Cl  UNL A   1      31.093  23.158  24.033  1.00  0.00    -0.082 Cl
ATOM     25  C   UNL A   1      33.489  20.134  24.477  1.00  0.00     0.044 A 
ATOM     26  Cl  UNL A   1      33.392  18.476  24.025  1.00  0.00    -0.084 Cl
ENDBRANCH  16  18
ENDBRANCH  15  16
ENDBRANCH   8   9
ENDBRANCH   6   8
ENDBRANCH   5   6
ENDBRANCH   4   5
ENDBRANCH   3   4
ENDBRANCH   2   3
ENDBRANCH   1   2
BRANCH   1  27
ATOM     27  C   UNL A   1      33.913  33.832  27.945  1.00  0.00     0.188 C 
BRANCH  27  28
ATOM     28  O   UNL A   1      34.477  35.088  27.649  1.00  0.00    -0.376 OA
BRANCH  28  29
ATOM     29  C   UNL A   1      34.042  36.104  28.537  1.00  0.00     0.202 C 
BRANCH  29  30
ATOM     30  C   UNL A   1      32.904  35.760  29.587  1.00  0.00     0.261 C 
BRANCH  30  31
ATOM     31  O   UNL A   1      33.334  35.026  30.808  1.00  0.00    -0.460 OA
BRANCH  31  32
ATOM     32  C   UNL A   1      33.926  35.608  31.959  1.00  0.00     0.338 C 
ATOM     33  O   UNL A   1      34.104  36.813  31.952  1.00  0.00    -0.246 OA
BRANCH  32  34
ATOM     34  C   UNL A   1      34.252  34.480  33.249  1.00  0.00     0.060 A 
ATOM     35  C   UNL A   1      35.145  34.444  35.012  1.00  0.00     0.016 A 
ATOM     36  C   UNL A   1      35.202  33.634  31.973  1.00  0.00     0.016 A 
ATOM     37  C   UNL A   1      36.942  33.825  35.102  1.00  0.00     0.010 A 
ATOM     38  C   UNL A   1      36.866  33.202  32.191  1.00  0.00     0.010 A 
ATOM     39  C   UNL A   1      37.896  33.239  33.651  1.00  0.00    -0.014 A 
BRANCH  39  40
ATOM     40  C   UNL A   1      39.562  32.341  33.364  1.00  0.00     0.031 A 
ATOM     41  C   UNL A   1      39.885  30.912  32.098  1.00  0.00     0.074 A 
ATOM     42  C   UNL A   1      40.758  32.820  33.790  1.00  0.00     0.049 A 
ATOM     43  N   UNL A   1      40.049  29.613  32.336  1.00  0.00    -0.248 NA
ATOM     44  C   UNL A   1      39.352  30.821  30.481  1.00  0.00     0.031 C 
ATOM     45  C   UNL A   1      42.107  32.480  33.292  1.00  0.00     0.029 A 
ATOM     46  N   UNL A   1      41.043  33.828  34.698  1.00  0.00    -0.354 N 
ATOM     47  C   UNL A   1      39.889  28.901  31.099  1.00  0.00     0.074 A 
ATOM     48  C   UNL A   1      38.931  29.583  30.332  1.00  0.00     0.031 C 
ATOM     49  C   UNL A   1      43.039  32.976  34.134  1.00  0.00     0.029 A 
ATOM     50  C   UNL A   1      42.319  33.585  35.239  1.00  0.00     0.049 A 
ATOM     51  H   UNL A   1      40.454  34.584  34.924  1.00  0.00     0.167 HD
ATOM     52  C   UNL A   1      40.947  28.350  30.415  1.00  0.00     0.034 A 
ATOM     53  C   UNL A   1      42.322  33.218  36.545  1.00  0.00     0.034 A 
ATOM     54  C   UNL A   1      42.138  28.688  31.163  1.00  0.00     0.049 A 
ATOM     55  C   UNL A   1      42.493  31.696  36.538  1.00  0.00     0.074 A 
ATOM     56  C   UNL A   1      43.158  29.609  31.024  1.00  0.00     0.029 A 
ATOM     57  N   UNL A   1      42.097  28.355  32.496  1.00  0.00    -0.354 N 
ATOM     58  N   UNL A   1      42.230  30.920  35.507  1.00  0.00    -0.248 NA
ATOM     59  C   UNL A   1      43.235  30.987  37.571  1.00  0.00     0.031 C 
ATOM     60  C   UNL A   1      43.698  29.833  32.338  1.00  0.00     0.029 A 
ATOM     61  C   UNL A   1      42.970  29.086  33.255  1.00  0.00     0.049 A 
ATOM     62  H   UNL A   1      41.504  27.664  32.866  1.00  0.00     0.167 HD
ATOM     63  C   UNL A   1      42.876  29.725  35.635  1.00  0.00     0.074 A 
ATOM     64  C   UNL A   1      43.458  29.805  36.970  1.00  0.00     0.031 C 
ATOM     65  C   UNL A   1      42.998  28.755  34.670  1.00  0.00     0.034 A 
BRANCH  52  66
ATOM     66  C   UNL A   1      40.932  27.880  28.946  1.00  0.00     0.023 A 
ATOM     67  C   UNL A   1      40.519  26.561  28.693  1.00  0.00     0.031 A 
ATOM     68  C   UNL A   1      41.218  28.636  27.775  1.00  0.00     0.131 A 
ATOM     69  C   UNL A   1      40.410  26.045  27.384  1.00  0.00     0.055 A 
ATOM     70  C   UNL A   1      41.176  28.101  26.470  1.00  0.00     0.041 A 
ATOM     71  F   UNL A   1      41.496  29.948  27.812  1.00  0.00    -0.206 F 
ATOM     72  C   UNL A   1      40.754  26.800  26.268  1.00  0.00     0.022 A 
BRANCH  69  73
ATOM     73  S   UNL A   1      39.713  24.387  27.177  1.00  0.00     0.124 S 
ATOM     74  O   UNL A   1      40.914  23.562  27.111  1.00  0.00    -0.237 OA
ATOM     75  O   UNL A   1      38.896  24.249  28.378  1.00  0.00    -0.237 OA
ATOM     76  O   UNL A   1      38.959  24.488  25.929  1.00  0.00    -0.744 OA
ENDBRANCH  69  73
ENDBRANCH  52  66
BRANCH  53  77
ATOM     77  C   UNL A   1      41.381  34.170  37.268  1.00  0.00     0.023 A 
ATOM     78  C   UNL A   1      40.414  33.569  38.150  1.00  0.00     0.031 A 
ATOM     79  C   UNL A   1      41.718  35.507  37.536  1.00  0.00     0.131 A 
ATOM     80  C   UNL A   1      39.878  34.268  39.251  1.00  0.00     0.055 A 
ATOM     81  C   UNL A   1      41.146  36.211  38.615  1.00  0.00     0.041 A 
ATOM     82  F   UNL A   1      42.708  36.111  36.863  1.00  0.00    -0.206 F 
ATOM     83  C   UNL A   1      40.200  35.608  39.447  1.00  0.00     0.022 A 
BRANCH  80  84
ATOM     84  S   UNL A   1      38.973  33.345  40.563  1.00  0.00     0.124 S 
ATOM     85  O   UNL A   1      37.619  33.873  40.444  1.00  0.00    -0.237 OA
ATOM     86  O   UNL A   1      39.147  31.953  40.153  1.00  0.00    -0.237 OA
ATOM     87  O   UNL A   1      39.662  33.707  41.802  1.00  0.00    -0.744 OA
ENDBRANCH  80  84
ENDBRANCH  53  77
BRANCH  65  88
ATOM     88  C   UNL A   1      43.105  27.280  35.028  1.00  0.00     0.023 A 
ATOM     89  C   UNL A   1      44.158  26.518  34.539  1.00  0.00     0.031 A 
ATOM     90  C   UNL A   1      42.253  26.608  35.949  1.00  0.00     0.131 A 
ATOM     91  C   UNL A   1      44.208  25.143  34.755  1.00  0.00     0.055 A 
ATOM     92  C   UNL A   1      42.438  25.282  36.332  1.00  0.00     0.041 A 
ATOM     93  F   UNL A   1      41.200  27.190  36.538  1.00  0.00    -0.206 F 
ATOM     94  C   UNL A   1      43.384  24.517  35.681  1.00  0.00     0.022 A 
BRANCH  91  95
ATOM     95  S   UNL A   1      45.243  24.207  33.619  1.00  0.00     0.124 S 
ATOM     96  O   UNL A   1      45.232  22.883  34.239  1.00  0.00    -0.237 OA
ATOM     97  O   UNL A   1      44.514  24.319  32.361  1.00  0.00    -0.237 OA
ATOM     98  O   UNL A   1      46.522  24.909  33.671  1.00  0.00    -0.744 OA
ENDBRANCH  91  95
ENDBRANCH  65  88
ENDBRANCH  39  40
ENDBRANCH  32  34
ENDBRANCH  31  32
ENDBRANCH  30  31
ENDBRANCH  29  30
ENDBRANCH  28  29
ENDBRANCH  27  28
ENDBRANCH   1  27
TORSDOF 23
ENDMDL
MODEL 3
REMARK VINA RESULT:     -11.5      6.377     10.809
REMARK SMILES Cc1ccc(Nc2c(Cl)cc(Cl)cc2Cl)c(CC(=O)OCCOCCOCCOC(=O)c2ccc(-c3c4nc(c(-c5cc(S(=O)(=O)[O-])ccc5F)c5ccc([nH]5)c(-c5cc(S(=O)(=O)[O-])ccc5F)c5nc(c(-c6cc(S(=O)(=O)[O-])ccc6F)c6ccc3[nH]6)C=C5)C=C4)cc2)c1
REMARK SMILES IDX 24 1 23 2 22 3 21 4 20 5 18 6 19 7 17 8 16 9 1 10 2 11 3 12
REMARK SMILES IDX 95 13 4 14 5 15 6 16 7 18 8 19 14 20 9 21 10 22 13 23 15 24
REMARK SMILES IDX 11 25 12 26 25 27 26 28 27 29 28 30 29 31 30 32 31 33 32 34
REMARK SMILES IDX 33 35 94 36 34 37 93 38 35 39 36 40 37 41 87 42 38 43 92 44
REMARK SMILES IDX 86 45 88 46 39 47 91 48 85 49 84 50 40 52 72 53 52 54 71 55
REMARK SMILES IDX 53 56 56 57 70 58 89 59 54 60 55 61 69 63 90 64 57 65 41 66
REMARK SMILES IDX 42 67 50 68 43 69 49 70 51 71 48 72 44 73 45 74 46 75 47 76
REMARK SMILES IDX 73 77 74 78 82 79 75 80 81 81 83 82 80 83 76 84 77 85 78 86
REMARK SMILES IDX 79 87 58 88 59 89 67 90 60 91 66 92 68 93 65 94 61 95 62 96
REMARK SMILES IDX 63 97 64 98
REMARK H PARENT 6 17 88 51 56 62
REMARK Flexibility Score: inf
ROOT
ATOM      1  C   UNL A   1      34.243  33.837  30.464  1.00  0.00     0.188 C 
ENDROOT
BRANCH   1   2
ATOM      2  O   UNL A   1      34.710  34.056  29.163  1.00  0.00    -0.376 OA
BRANCH   2   3
ATOM      3  C   UNL A   1      34.129  33.369  28.083  1.00  0.00     0.202 C 
BRANCH   3   4
ATOM      4  C   UNL A   1      33.833  31.804  27.755  1.00  0.00     0.261 C 
BRANCH   4   5
ATOM      5  O   UNL A   1      33.094  30.717  26.468  1.00  0.00    -0.463 OA
BRANCH   5   6
ATOM      6  C   UNL A   1      32.571  29.168  26.136  1.00  0.00     0.310 C 
ATOM      7  O   UNL A   1      32.060  28.258  26.812  1.00  0.00    -0.252 OA
BRANCH   6   8
ATOM      8  C   UNL A   1      32.382  28.929  24.750  1.00  0.00     0.160 C 
BRANCH   8   9
ATOM      9  C   UNL A   1      30.947  28.578  24.690  1.00  0.00    -0.013 A 
ATOM     10  C   UNL A   1      29.148  31.478  22.884  1.00  0.00     0.044 C 
ATOM     11  C   UNL A   1      29.592  30.098  23.235  1.00  0.00    -0.051 A 
ATOM     12  C   UNL A   1      29.352  29.003  22.454  1.00  0.00     0.005 A 
ATOM     13  C   UNL A   1      30.380  29.882  24.340  1.00  0.00     0.009 A 
ATOM     14  C   UNL A   1      29.866  27.737  22.839  1.00  0.00     0.026 A 
ATOM     15  C   UNL A   1      30.564  27.289  24.227  1.00  0.00     0.042 A 
BRANCH  15  16
ATOM     16  N   UNL A   1      30.373  25.418  25.011  1.00  0.00    -0.353 N 
ATOM     17  H   UNL A   1      29.527  25.275  25.494  1.00  0.00     0.167 HD
BRANCH  16  18
ATOM     18  C   UNL A   1      31.476  23.940  24.991  1.00  0.00     0.076 A 
ATOM     19  C   UNL A   1      32.583  23.596  23.935  1.00  0.00     0.067 A 
ATOM     20  C   UNL A   1      31.089  22.774  25.700  1.00  0.00     0.067 A 
ATOM     21  Cl  UNL A   1      33.491  24.524  22.693  1.00  0.00    -0.082 Cl
ATOM     22  C   UNL A   1      33.033  22.278  23.682  1.00  0.00     0.043 A 
ATOM     23  C   UNL A   1      31.599  21.468  25.380  1.00  0.00     0.043 A 
ATOM     24  Cl  UNL A   1      30.022  22.657  26.983  1.00  0.00    -0.082 Cl
ATOM     25  C   UNL A   1      32.500  21.220  24.360  1.00  0.00     0.044 A 
ATOM     26  Cl  UNL A   1      32.888  19.621  23.857  1.00  0.00    -0.084 Cl
ENDBRANCH  16  18
ENDBRANCH  15  16
ENDBRANCH   8   9
ENDBRANCH   6   8
ENDBRANCH   5   6
ENDBRANCH   4   5
ENDBRANCH   3   4
ENDBRANCH   2   3
ENDBRANCH   1   2
BRANCH   1  27
ATOM     27  C   UNL A   1      34.996  32.850  31.312  1.00  0.00     0.188 C 
BRANCH  27  28
ATOM     28  O   UNL A   1      35.516  33.362  32.517  1.00  0.00    -0.376 OA
BRANCH  28  29
ATOM     29  C   UNL A   1      36.930  33.456  32.505  1.00  0.00     0.202 C 
BRANCH  29  30
ATOM     30  C   UNL A   1      37.712  33.334  33.880  1.00  0.00     0.261 C 
BRANCH  30  31
ATOM     31  O   UNL A   1      37.575  32.040  34.603  1.00  0.00    -0.460 OA
BRANCH  31  32
ATOM     32  C   UNL A   1      38.578  31.041  34.710  1.00  0.00     0.338 C 
ATOM     33  O   UNL A   1      38.356  29.962  34.190  1.00  0.00    -0.246 OA
BRANCH  32  34
ATOM     34  C   UNL A   1      40.024  31.558  35.537  1.00  0.00     0.060 A 
ATOM     35  C   UNL A   1      40.681  33.111  36.569  1.00  0.00     0.016 A 
ATOM     36  C   UNL A   1      40.735  31.474  33.883  1.00  0.00     0.016 A 
ATOM     37  C   UNL A   1      41.694  34.439  35.658  1.00  0.00     0.010 A 
ATOM     38  C   UNL A   1      41.572  32.812  33.166  1.00  0.00     0.010 A 
ATOM     39  C   UNL A   1      42.119  34.358  33.876  1.00  0.00    -0.014 A 
BRANCH  39  40
ATOM     40  C   UNL A   1      43.277  35.312  32.688  1.00  0.00     0.031 A 
ATOM     41  C   UNL A   1      43.690  37.203  32.768  1.00  0.00     0.074 A 
ATOM     42  C   UNL A   1      44.170  34.710  31.863  1.00  0.00     0.049 A 
ATOM     43  N   UNL A   1      43.256  38.181  31.978  1.00  0.00    -0.248 NA
ATOM     44  C   UNL A   1      44.057  38.124  34.155  1.00  0.00     0.031 C 
ATOM     45  C   UNL A   1      45.374  35.295  31.238  1.00  0.00     0.029 A 
ATOM     46  N   UNL A   1      44.277  33.381  31.482  1.00  0.00    -0.354 N 
ATOM     47  C   UNL A   1      43.516  39.436  32.626  1.00  0.00     0.074 A 
ATOM     48  C   UNL A   1      43.379  39.242  34.009  1.00  0.00     0.031 C 
ATOM     49  C   UNL A   1      45.853  34.450  30.299  1.00  0.00     0.029 A 
ATOM     50  C   UNL A   1      44.930  33.331  30.237  1.00  0.00     0.049 A 
ATOM     51  H   UNL A   1      43.954  32.606  31.996  1.00  0.00     0.167 HD
ATOM     52  C   UNL A   1      44.513  40.292  32.220  1.00  0.00     0.034 A 
ATOM     53  C   UNL A   1      44.143  32.951  29.198  1.00  0.00     0.034 A 
ATOM     54  C   UNL A   1      45.190  39.638  31.121  1.00  0.00     0.049 A 
ATOM     55  C   UNL A   1      43.764  34.248  28.479  1.00  0.00     0.074 A 
ATOM     56  C   UNL A   1      46.381  38.956  30.968  1.00  0.00     0.029 A 
ATOM     57  N   UNL A   1      44.368  39.212  30.106  1.00  0.00    -0.354 N 
ATOM     58  N   UNL A   1      43.816  35.446  29.024  1.00  0.00    -0.248 NA
ATOM     59  C   UNL A   1      43.585  34.320  27.035  1.00  0.00     0.031 C 
ATOM     60  C   UNL A   1      46.218  38.083  29.836  1.00  0.00     0.029 A 
ATOM     61  C   UNL A   1      44.921  38.212  29.354  1.00  0.00     0.049 A 
ATOM     62  H   UNL A   1      43.474  39.588  29.936  1.00  0.00     0.167 HD
ATOM     63  C   UNL A   1      43.855  36.407  28.056  1.00  0.00     0.074 A 
ATOM     64  C   UNL A   1      43.665  35.646  26.827  1.00  0.00     0.031 C 
ATOM     65  C   UNL A   1      44.112  37.744  28.242  1.00  0.00     0.034 A 
BRANCH  52  66
ATOM     66  C   UNL A   1      45.087  41.468  33.035  1.00  0.00     0.023 A 
ATOM     67  C   UNL A   1      44.423  42.703  32.943  1.00  0.00     0.031 A 
ATOM     68  C   UNL A   1      46.181  41.460  33.945  1.00  0.00     0.131 A 
ATOM     69  C   UNL A   1      44.826  43.830  33.692  1.00  0.00     0.055 A 
ATOM     70  C   UNL A   1      46.628  42.604  34.640  1.00  0.00     0.041 A 
ATOM     71  F   UNL A   1      46.848  40.341  34.263  1.00  0.00    -0.206 F 
ATOM     72  C   UNL A   1      45.937  43.797  34.528  1.00  0.00     0.022 A 
BRANCH  69  73
ATOM     73  S   UNL A   1      43.796  45.317  33.613  1.00  0.00     0.124 S 
ATOM     74  O   UNL A   1      44.637  46.302  34.283  1.00  0.00    -0.237 OA
ATOM     75  O   UNL A   1      43.617  45.488  32.176  1.00  0.00    -0.237 OA
ATOM     76  O   UNL A   1      42.588  44.933  34.343  1.00  0.00    -0.744 OA
ENDBRANCH  69  73
ENDBRANCH  52  66
BRANCH  53  77
ATOM     77  C   UNL A   1      43.356  31.737  29.670  1.00  0.00     0.023 A 
ATOM     78  C   UNL A   1      41.970  31.959  29.994  1.00  0.00     0.031 A 
ATOM     79  C   UNL A   1      43.707  30.424  29.316  1.00  0.00     0.131 A 
ATOM     80  C   UNL A   1      41.013  30.927  29.909  1.00  0.00     0.055 A 
ATOM     81  C   UNL A   1      42.751  29.390  29.274  1.00  0.00     0.041 A 
ATOM     82  F   UNL A   1      44.937  30.144  28.863  1.00  0.00    -0.206 F 
ATOM     83  C   UNL A   1      41.415  29.629  29.607  1.00  0.00     0.022 A 
BRANCH  80  84
ATOM     84  S   UNL A   1      39.219  31.343  29.938  1.00  0.00     0.124 S 
ATOM     85  O   UNL A   1      38.714  30.646  28.760  1.00  0.00    -0.237 OA
ATOM     86  O   UNL A   1      38.786  30.804  31.225  1.00  0.00    -0.237 OA
ATOM     87  O   UNL A   1      39.185  32.803  29.843  1.00  0.00    -0.744 OA
ENDBRANCH  80  84
ENDBRANCH  53  77
BRANCH  65  88
ATOM     88  C   UNL A   1      43.513  38.807  27.333  1.00  0.00     0.023 A 
ATOM     89  C   UNL A   1      44.340  39.613  26.563  1.00  0.00     0.031 A 
ATOM     90  C   UNL A   1      42.119  38.982  27.104  1.00  0.00     0.131 A 
ATOM     91  C   UNL A   1      43.820  40.670  25.819  1.00  0.00     0.055 A 
ATOM     92  C   UNL A   1      41.605  39.899  26.190  1.00  0.00     0.041 A 
ATOM     93  F   UNL A   1      41.173  38.278  27.740  1.00  0.00    -0.206 F 
ATOM     94  C   UNL A   1      42.458  40.800  25.587  1.00  0.00     0.022 A 
BRANCH  91  95
ATOM     95  S   UNL A   1      44.990  41.959  25.364  1.00  0.00     0.124 S 
ATOM     96  O   UNL A   1      45.252  41.633  23.963  1.00  0.00    -0.237 OA
ATOM     97  O   UNL A   1      44.223  43.178  25.593  1.00  0.00    -0.237 OA
ATOM     98  O   UNL A   1      46.109  41.737  26.274  1.00  0.00    -0.744 OA
ENDBRANCH  91  95
ENDBRANCH  65  88
ENDBRANCH  39  40
ENDBRANCH  32  34
ENDBRANCH  31  32
ENDBRANCH  30  31
ENDBRANCH  29  30
ENDBRANCH  28  29
ENDBRANCH  27  28
ENDBRANCH   1  27
TORSDOF 23
ENDMDL
