MODEL 1
REMARK VINA RESULT:      -9.8      0.000      0.000
REMARK SMILES CCN1C[C@@H](C(=O)OCCOCCOCCOC(=O)c2ccc(-c3c4nc(c(-c5cc(S(=O)(=O)[O-])ccc5F)c5ccc([nH]5)c(-c5cc(S(=O)(=O)[O-])ccc5F)c5nc(c(-c6cc(S(=O)(=O)[O-])ccc6F)c6ccc3[nH]6)C=C5)C=C4)cc2)CC1=O
REMARK SMILES IDX 13 1 12 2 11 3 10 4 9 5 8 6 6 7 7 8 5 9 3 10 4 11 84 12
REMARK SMILES IDX 83 13 85 14 2 15 1 16 14 17 15 18 16 19 17 20 18 21 19 22
REMARK SMILES IDX 20 23 21 24 82 25 22 26 81 27 23 28 24 29 25 30 75 31 26 32
REMARK SMILES IDX 80 33 74 34 76 35 27 36 79 37 73 38 72 39 28 41 60 42 40 43
REMARK SMILES IDX 59 44 41 45 44 46 58 47 77 48 42 49 43 50 57 52 78 53 45 54
REMARK SMILES IDX 29 55 30 56 38 57 31 58 37 59 39 60 36 61 32 62 33 63 34 64
REMARK SMILES IDX 35 65 61 66 62 67 70 68 63 69 69 70 71 71 68 72 64 73 65 74
REMARK SMILES IDX 66 75 67 76 46 77 47 78 55 79 48 80 54 81 56 82 53 83 49 84
REMARK SMILES IDX 50 85 51 86 52 87
REMARK H PARENT 76 40 44 51
REMARK Flexibility Score: inf
ROOT
ATOM      1  C   UNL A   1      37.093  21.915  24.364  1.00  0.00     0.188 C 
ENDROOT
BRANCH   1   2
ATOM      2  C   UNL A   1      35.759  22.038  25.120  1.00  0.00     0.188 C 
BRANCH   2   3
ATOM      3  O   UNL A   1      34.583  21.477  24.546  1.00  0.00    -0.376 OA
BRANCH   3   4
ATOM      4  C   UNL A   1      33.522  22.340  24.153  1.00  0.00     0.202 C 
BRANCH   4   5
ATOM      5  C   UNL A   1      33.823  23.471  23.154  1.00  0.00     0.261 C 
BRANCH   5   6
ATOM      6  O   UNL A   1      32.695  23.904  22.363  1.00  0.00    -0.463 OA
BRANCH   6   7
ATOM      7  C   UNL A   1      32.711  25.192  21.940  1.00  0.00     0.311 C 
ATOM      8  O   UNL A   1      33.152  25.552  20.852  1.00  0.00    -0.252 OA
BRANCH   7   9
ATOM      9  C   UNL A   1      32.088  26.186  22.901  1.00  0.00     0.128 C 
ATOM     10  N   UNL A   1      31.241  28.379  22.830  1.00  0.00    -0.342 N 
ATOM     11  C   UNL A   1      31.273  27.157  22.068  1.00  0.00     0.135 C 
ATOM     12  C   UNL A   1      32.191  28.393  23.832  1.00  0.00     0.223 C 
ATOM     13  C   UNL A   1      32.955  27.101  23.762  1.00  0.00     0.117 C 
ATOM     14  O   UNL A   1      32.422  29.279  24.637  1.00  0.00    -0.275 OA
BRANCH  10  15
ATOM     15  C   UNL A   1      30.246  29.397  22.541  1.00  0.00     0.116 C 
ATOM     16  C   UNL A   1      28.799  28.978  22.716  1.00  0.00     0.027 C 
ENDBRANCH  10  15
ENDBRANCH   7   9
ENDBRANCH   6   7
ENDBRANCH   5   6
ENDBRANCH   4   5
ENDBRANCH   3   4
ENDBRANCH   2   3
ENDBRANCH   1   2
BRANCH   1  17
ATOM     17  O   UNL A   1      38.144  21.349  25.110  1.00  0.00    -0.376 OA
BRANCH  17  18
ATOM     18  C   UNL A   1      38.238  19.940  25.138  1.00  0.00     0.202 C 
BRANCH  18  19
ATOM     19  C   UNL A   1      39.463  19.309  25.823  1.00  0.00     0.261 C 
BRANCH  19  20
ATOM     20  O   UNL A   1      40.649  20.118  25.912  1.00  0.00    -0.460 OA
BRANCH  20  21
ATOM     21  C   UNL A   1      41.225  20.242  27.133  1.00  0.00     0.338 C 
ATOM     22  O   UNL A   1      41.762  19.351  27.771  1.00  0.00    -0.246 OA
BRANCH  21  23
ATOM     23  C   UNL A   1      41.303  21.688  27.457  1.00  0.00     0.060 A 
ATOM     24  C   UNL A   1      40.596  22.611  26.672  1.00  0.00     0.016 A 
ATOM     25  C   UNL A   1      42.062  22.132  28.541  1.00  0.00     0.016 A 
ATOM     26  C   UNL A   1      40.662  23.979  26.957  1.00  0.00     0.010 A 
ATOM     27  C   UNL A   1      42.149  23.504  28.809  1.00  0.00     0.010 A 
ATOM     28  C   UNL A   1      41.470  24.440  28.006  1.00  0.00    -0.014 A 
BRANCH  28  29
ATOM     29  C   UNL A   1      41.772  25.891  28.149  1.00  0.00     0.031 A 
ATOM     30  C   UNL A   1      43.127  26.382  27.708  1.00  0.00     0.074 A 
ATOM     31  C   UNL A   1      40.876  26.762  28.650  1.00  0.00     0.049 A 
ATOM     32  N   UNL A   1      43.674  27.561  27.849  1.00  0.00    -0.248 NA
ATOM     33  C   UNL A   1      43.979  25.401  27.016  1.00  0.00     0.031 C 
ATOM     34  C   UNL A   1      39.509  26.436  29.052  1.00  0.00     0.029 A 
ATOM     35  N   UNL A   1      40.991  28.106  28.922  1.00  0.00    -0.354 N 
ATOM     36  C   UNL A   1      44.932  27.467  27.262  1.00  0.00     0.074 A 
ATOM     37  C   UNL A   1      45.082  26.102  26.806  1.00  0.00     0.031 C 
ATOM     38  C   UNL A   1      38.918  27.545  29.533  1.00  0.00     0.029 A 
ATOM     39  C   UNL A   1      39.878  28.649  29.525  1.00  0.00     0.049 A 
ATOM     40  H   UNL A   1      41.795  28.631  28.704  1.00  0.00     0.167 HD
ATOM     41  C   UNL A   1      45.871  28.432  27.103  1.00  0.00     0.034 A 
ATOM     42  C   UNL A   1      39.674  29.880  30.043  1.00  0.00     0.034 A 
ATOM     43  C   UNL A   1      45.722  29.786  27.577  1.00  0.00     0.049 A 
ATOM     44  C   UNL A   1      40.792  30.904  29.975  1.00  0.00     0.074 A 
ATOM     45  C   UNL A   1      46.626  30.832  27.490  1.00  0.00     0.029 A 
ATOM     46  N   UNL A   1      44.600  30.283  28.224  1.00  0.00    -0.354 N 
ATOM     47  N   UNL A   1      41.985  30.795  29.434  1.00  0.00    -0.248 NA
ATOM     48  C   UNL A   1      40.533  32.217  30.583  1.00  0.00     0.031 C 
ATOM     49  C   UNL A   1      46.079  31.939  28.146  1.00  0.00     0.029 A 
ATOM     50  C   UNL A   1      44.800  31.613  28.564  1.00  0.00     0.049 A 
ATOM     51  H   UNL A   1      43.784  29.769  28.415  1.00  0.00     0.167 HD
ATOM     52  C   UNL A   1      42.590  32.042  29.595  1.00  0.00     0.074 A 
ATOM     53  C   UNL A   1      41.629  32.888  30.266  1.00  0.00     0.031 C 
ATOM     54  C   UNL A   1      43.827  32.454  29.219  1.00  0.00     0.034 A 
BRANCH  41  55
ATOM     55  C   UNL A   1      47.155  28.046  26.415  1.00  0.00     0.023 A 
ATOM     56  C   UNL A   1      47.274  28.071  25.015  1.00  0.00     0.031 A 
ATOM     57  C   UNL A   1      48.277  27.651  27.166  1.00  0.00     0.131 A 
ATOM     58  C   UNL A   1      48.468  27.659  24.407  1.00  0.00     0.055 A 
ATOM     59  C   UNL A   1      49.487  27.316  26.557  1.00  0.00     0.041 A 
ATOM     60  F   UNL A   1      48.214  27.583  28.505  1.00  0.00    -0.206 F 
ATOM     61  C   UNL A   1      49.585  27.309  25.169  1.00  0.00     0.022 A 
BRANCH  58  62
ATOM     62  S   UNL A   1      48.501  27.470  22.604  1.00  0.00     0.124 S 
ATOM     63  O   UNL A   1      49.818  28.012  22.276  1.00  0.00    -0.237 OA
ATOM     64  O   UNL A   1      48.343  26.030  22.434  1.00  0.00    -0.237 OA
ATOM     65  O   UNL A   1      47.371  28.280  22.155  1.00  0.00    -0.744 OA
ENDBRANCH  58  62
ENDBRANCH  41  55
BRANCH  42  66
ATOM     66  C   UNL A   1      38.393  30.230  30.734  1.00  0.00     0.023 A 
ATOM     67  C   UNL A   1      37.370  30.916  30.058  1.00  0.00     0.031 A 
ATOM     68  C   UNL A   1      38.224  29.999  32.111  1.00  0.00     0.131 A 
ATOM     69  C   UNL A   1      36.273  31.422  30.773  1.00  0.00     0.055 A 
ATOM     70  C   UNL A   1      37.092  30.435  32.802  1.00  0.00     0.041 A 
ATOM     71  F   UNL A   1      39.172  29.360  32.815  1.00  0.00    -0.206 F 
ATOM     72  C   UNL A   1      36.118  31.173  32.136  1.00  0.00     0.022 A 
BRANCH  69  73
ATOM     73  S   UNL A   1      35.135  32.555  29.923  1.00  0.00     0.124 S 
ATOM     74  O   UNL A   1      34.206  32.894  30.994  1.00  0.00    -0.237 OA
ATOM     75  O   UNL A   1      36.036  33.619  29.492  1.00  0.00    -0.237 OA
ATOM     76  O   UNL A   1      34.581  31.735  28.849  1.00  0.00    -0.744 OA
ENDBRANCH  69  73
ENDBRANCH  42  66
BRANCH  54  77
ATOM     77  C   UNL A   1      44.183  33.905  29.453  1.00  0.00     0.023 A 
ATOM     78  C   UNL A   1      43.784  34.925  28.572  1.00  0.00     0.031 A 
ATOM     79  C   UNL A   1      44.941  34.269  30.582  1.00  0.00     0.131 A 
ATOM     80  C   UNL A   1      44.193  36.248  28.802  1.00  0.00     0.055 A 
ATOM     81  C   UNL A   1      45.287  35.596  30.841  1.00  0.00     0.041 A 
ATOM     82  F   UNL A   1      45.353  33.338  31.458  1.00  0.00    -0.206 F 
ATOM     83  C   UNL A   1      44.926  36.593  29.941  1.00  0.00     0.022 A 
BRANCH  80  84
ATOM     84  S   UNL A   1      43.840  37.502  27.539  1.00  0.00     0.124 S 
ATOM     85  O   UNL A   1      43.014  36.757  26.594  1.00  0.00    -0.237 OA
ATOM     86  O   UNL A   1      43.156  38.536  28.308  1.00  0.00    -0.237 OA
ATOM     87  O   UNL A   1      45.166  37.874  27.044  1.00  0.00    -0.744 OA
ENDBRANCH  80  84
ENDBRANCH  54  77
ENDBRANCH  28  29
ENDBRANCH  21  23
ENDBRANCH  20  21
ENDBRANCH  19  20
ENDBRANCH  18  19
ENDBRANCH  17  18
ENDBRANCH   1  17
TORSDOF 21
ENDMDL
MODEL 2
REMARK VINA RESULT:      -9.4      1.837      2.209
REMARK SMILES CCN1C[C@@H](C(=O)OCCOCCOCCOC(=O)c2ccc(-c3c4nc(c(-c5cc(S(=O)(=O)[O-])ccc5F)c5ccc([nH]5)c(-c5cc(S(=O)(=O)[O-])ccc5F)c5nc(c(-c6cc(S(=O)(=O)[O-])ccc6F)c6ccc3[nH]6)C=C5)C=C4)cc2)CC1=O
REMARK SMILES IDX 13 1 12 2 11 3 10 4 9 5 8 6 6 7 7 8 5 9 3 10 4 11 84 12
REMARK SMILES IDX 83 13 85 14 2 15 1 16 14 17 15 18 16 19 17 20 18 21 19 22
REMARK SMILES IDX 20 23 21 24 82 25 22 26 81 27 23 28 24 29 25 30 75 31 26 32
REMARK SMILES IDX 80 33 74 34 76 35 27 36 79 37 73 38 72 39 28 41 60 42 40 43
REMARK SMILES IDX 59 44 41 45 44 46 58 47 77 48 42 49 43 50 57 52 78 53 45 54
REMARK SMILES IDX 29 55 30 56 38 57 31 58 37 59 39 60 36 61 32 62 33 63 34 64
REMARK SMILES IDX 35 65 61 66 62 67 70 68 63 69 69 70 71 71 68 72 64 73 65 74
REMARK SMILES IDX 66 75 67 76 46 77 47 78 55 79 48 80 54 81 56 82 53 83 49 84
REMARK SMILES IDX 50 85 51 86 52 87
REMARK H PARENT 76 40 44 51
REMARK Flexibility Score: inf
ROOT
ATOM      1  C   UNL A   1      35.564  22.162  25.044  1.00  0.00     0.188 C 
ENDROOT
BRANCH   1   2
ATOM      2  C   UNL A   1      34.329  21.248  25.117  1.00  0.00     0.188 C 
BRANCH   2   3
ATOM      3  O   UNL A   1      33.146  21.625  24.421  1.00  0.00    -0.376 OA
BRANCH   3   4
ATOM      4  C   UNL A   1      31.930  21.772  25.146  1.00  0.00     0.202 C 
BRANCH   4   5
ATOM      5  C   UNL A   1      31.119  23.067  24.968  1.00  0.00     0.261 C 
BRANCH   5   6
ATOM      6  O   UNL A   1      31.150  23.969  26.097  1.00  0.00    -0.463 OA
BRANCH   6   7
ATOM      7  C   UNL A   1      30.694  25.226  25.880  1.00  0.00     0.311 C 
ATOM      8  O   UNL A   1      30.081  25.888  26.713  1.00  0.00    -0.252 OA
BRANCH   7   9
ATOM      9  C   UNL A   1      31.038  25.803  24.520  1.00  0.00     0.128 C 
ATOM     10  N   UNL A   1      31.817  27.840  23.640  1.00  0.00    -0.342 N 
ATOM     11  C   UNL A   1      32.004  26.948  24.756  1.00  0.00     0.135 C 
ATOM     12  C   UNL A   1      30.653  27.572  22.949  1.00  0.00     0.223 C 
ATOM     13  C   UNL A   1      29.964  26.425  23.632  1.00  0.00     0.117 C 
ATOM     14  O   UNL A   1      30.210  28.149  21.970  1.00  0.00    -0.275 OA
BRANCH  10  15
ATOM     15  C   UNL A   1      32.824  28.837  23.322  1.00  0.00     0.116 C 
ATOM     16  C   UNL A   1      33.936  28.384  22.394  1.00  0.00     0.027 C 
ENDBRANCH  10  15
ENDBRANCH   7   9
ENDBRANCH   6   7
ENDBRANCH   5   6
ENDBRANCH   4   5
ENDBRANCH   3   4
ENDBRANCH   2   3
ENDBRANCH   1   2
BRANCH   1  17
ATOM     17  O   UNL A   1      36.727  21.631  25.633  1.00  0.00    -0.376 OA
BRANCH  17  18
ATOM     18  C   UNL A   1      37.562  20.832  24.820  1.00  0.00     0.202 C 
BRANCH  18  19
ATOM     19  C   UNL A   1      38.543  19.870  25.513  1.00  0.00     0.261 C 
BRANCH  19  20
ATOM     20  O   UNL A   1      39.909  20.308  25.635  1.00  0.00    -0.460 OA
BRANCH  20  21
ATOM     21  C   UNL A   1      40.443  20.333  26.880  1.00  0.00     0.338 C 
ATOM     22  O   UNL A   1      40.824  19.365  27.521  1.00  0.00    -0.246 OA
BRANCH  21  23
ATOM     23  C   UNL A   1      40.706  21.748  27.237  1.00  0.00     0.060 A 
ATOM     24  C   UNL A   1      40.030  22.771  26.553  1.00  0.00     0.016 A 
ATOM     25  C   UNL A   1      41.610  22.068  28.252  1.00  0.00     0.016 A 
ATOM     26  C   UNL A   1      40.270  24.112  26.870  1.00  0.00     0.010 A 
ATOM     27  C   UNL A   1      41.868  23.412  28.550  1.00  0.00     0.010 A 
ATOM     28  C   UNL A   1      41.220  24.444  27.846  1.00  0.00    -0.014 A 
BRANCH  28  29
ATOM     29  C   UNL A   1      41.688  25.849  28.001  1.00  0.00     0.031 A 
ATOM     30  C   UNL A   1      43.082  26.188  27.539  1.00  0.00     0.074 A 
ATOM     31  C   UNL A   1      40.907  26.810  28.529  1.00  0.00     0.049 A 
ATOM     32  N   UNL A   1      43.763  27.295  27.683  1.00  0.00    -0.248 NA
ATOM     33  C   UNL A   1      43.804  25.126  26.819  1.00  0.00     0.031 C 
ATOM     34  C   UNL A   1      39.519  26.636  28.954  1.00  0.00     0.029 A 
ATOM     35  N   UNL A   1      41.180  28.128  28.814  1.00  0.00    -0.354 N 
ATOM     36  C   UNL A   1      44.991  27.067  27.071  1.00  0.00     0.074 A 
ATOM     37  C   UNL A   1      44.976  25.700  26.595  1.00  0.00     0.031 C 
ATOM     38  C   UNL A   1      39.068  27.799  29.460  1.00  0.00     0.029 A 
ATOM     39  C   UNL A   1      40.148  28.786  29.446  1.00  0.00     0.049 A 
ATOM     40  H   UNL A   1      42.034  28.561  28.587  1.00  0.00     0.167 HD
ATOM     41  C   UNL A   1      46.031  27.920  26.905  1.00  0.00     0.034 A 
ATOM     42  C   UNL A   1      40.095  30.025  29.982  1.00  0.00     0.034 A 
ATOM     43  C   UNL A   1      46.047  29.276  27.397  1.00  0.00     0.049 A 
ATOM     44  C   UNL A   1      41.321  30.915  29.904  1.00  0.00     0.074 A 
ATOM     45  C   UNL A   1      47.062  30.213  27.305  1.00  0.00     0.029 A 
ATOM     46  N   UNL A   1      45.001  29.889  28.072  1.00  0.00    -0.354 N 
ATOM     47  N   UNL A   1      42.484  30.679  29.339  1.00  0.00    -0.248 NA
ATOM     48  C   UNL A   1      41.225  32.241  30.532  1.00  0.00     0.031 C 
ATOM     49  C   UNL A   1      46.658  31.365  27.984  1.00  0.00     0.029 A 
ATOM     50  C   UNL A   1      45.358  31.182  28.423  1.00  0.00     0.049 A 
ATOM     51  H   UNL A   1      44.135  29.468  28.273  1.00  0.00     0.167 HD
ATOM     52  C   UNL A   1      43.230  31.846  29.502  1.00  0.00     0.074 A 
ATOM     53  C   UNL A   1      42.385  32.786  30.202  1.00  0.00     0.031 C 
ATOM     54  C   UNL A   1      44.500  32.119  29.107  1.00  0.00     0.034 A 
BRANCH  41  55
ATOM     55  C   UNL A   1      47.251  27.400  26.187  1.00  0.00     0.023 A 
ATOM     56  C   UNL A   1      48.208  26.610  26.846  1.00  0.00     0.031 A 
ATOM     57  C   UNL A   1      47.459  27.694  24.828  1.00  0.00     0.131 A 
ATOM     58  C   UNL A   1      49.355  26.185  26.160  1.00  0.00     0.055 A 
ATOM     59  C   UNL A   1      48.564  27.202  24.131  1.00  0.00     0.041 A 
ATOM     60  F   UNL A   1      46.592  28.465  24.154  1.00  0.00    -0.206 F 
ATOM     61  C   UNL A   1      49.526  26.451  24.800  1.00  0.00     0.022 A 
BRANCH  58  62
ATOM     62  S   UNL A   1      50.680  25.382  27.104  1.00  0.00     0.124 S 
ATOM     63  O   UNL A   1      51.133  26.474  27.961  1.00  0.00    -0.237 OA
ATOM     64  O   UNL A   1      49.975  24.294  27.773  1.00  0.00    -0.237 OA
ATOM     65  O   UNL A   1      51.631  24.970  26.075  1.00  0.00    -0.744 OA
ENDBRANCH  58  62
ENDBRANCH  41  55
BRANCH  42  66
ATOM     66  C   UNL A   1      38.875  30.509  30.701  1.00  0.00     0.023 A 
ATOM     67  C   UNL A   1      37.851  31.183  30.017  1.00  0.00     0.031 A 
ATOM     68  C   UNL A   1      38.774  30.420  32.102  1.00  0.00     0.131 A 
ATOM     69  C   UNL A   1      36.823  31.815  30.736  1.00  0.00     0.055 A 
ATOM     70  C   UNL A   1      37.707  30.981  32.806  1.00  0.00     0.041 A 
ATOM     71  F   UNL A   1      39.728  29.798  32.814  1.00  0.00    -0.206 F 
ATOM     72  C   UNL A   1      36.735  31.705  32.123  1.00  0.00     0.022 A 
BRANCH  69  73
ATOM     73  S   UNL A   1      35.696  32.923  29.840  1.00  0.00     0.124 S 
ATOM     74  O   UNL A   1      34.394  32.410  30.249  1.00  0.00    -0.237 OA
ATOM     75  O   UNL A   1      36.070  34.229  30.376  1.00  0.00    -0.237 OA
ATOM     76  O   UNL A   1      36.046  32.703  28.440  1.00  0.00    -0.744 OA
ENDBRANCH  69  73
ENDBRANCH  42  66
BRANCH  54  77
ATOM     77  C   UNL A   1      45.023  33.517  29.351  1.00  0.00     0.023 A 
ATOM     78  C   UNL A   1      44.835  34.559  28.427  1.00  0.00     0.031 A 
ATOM     79  C   UNL A   1      45.727  33.806  30.535  1.00  0.00     0.131 A 
ATOM     80  C   UNL A   1      45.395  35.822  28.673  1.00  0.00     0.055 A 
ATOM     81  C   UNL A   1      46.223  35.083  30.805  1.00  0.00     0.041 A 
ATOM     82  F   UNL A   1      45.940  32.851  31.455  1.00  0.00    -0.206 F 
ATOM     83  C   UNL A   1      46.071  36.096  29.865  1.00  0.00     0.022 A 
BRANCH  80  84
ATOM     84  S   UNL A   1      45.315  37.081  27.368  1.00  0.00     0.124 S 
ATOM     85  O   UNL A   1      43.926  36.978  26.932  1.00  0.00    -0.237 OA
ATOM     86  O   UNL A   1      45.669  38.300  28.088  1.00  0.00    -0.237 OA
ATOM     87  O   UNL A   1      46.306  36.628  26.393  1.00  0.00    -0.744 OA
ENDBRANCH  80  84
ENDBRANCH  54  77
ENDBRANCH  28  29
ENDBRANCH  21  23
ENDBRANCH  20  21
ENDBRANCH  19  20
ENDBRANCH  18  19
ENDBRANCH  17  18
ENDBRANCH   1  17
TORSDOF 21
ENDMDL
MODEL 3
REMARK VINA RESULT:      -9.3      2.339      3.982
REMARK SMILES CCN1C[C@@H](C(=O)OCCOCCOCCOC(=O)c2ccc(-c3c4nc(c(-c5cc(S(=O)(=O)[O-])ccc5F)c5ccc([nH]5)c(-c5cc(S(=O)(=O)[O-])ccc5F)c5nc(c(-c6cc(S(=O)(=O)[O-])ccc6F)c6ccc3[nH]6)C=C5)C=C4)cc2)CC1=O
REMARK SMILES IDX 13 1 12 2 11 3 10 4 9 5 8 6 6 7 7 8 5 9 3 10 4 11 84 12
REMARK SMILES IDX 83 13 85 14 2 15 1 16 14 17 15 18 16 19 17 20 18 21 19 22
REMARK SMILES IDX 20 23 21 24 82 25 22 26 81 27 23 28 24 29 25 30 75 31 26 32
REMARK SMILES IDX 80 33 74 34 76 35 27 36 79 37 73 38 72 39 28 41 60 42 40 43
REMARK SMILES IDX 59 44 41 45 44 46 58 47 77 48 42 49 43 50 57 52 78 53 45 54
REMARK SMILES IDX 29 55 30 56 38 57 31 58 37 59 39 60 36 61 32 62 33 63 34 64
REMARK SMILES IDX 35 65 61 66 62 67 70 68 63 69 69 70 71 71 68 72 64 73 65 74
REMARK SMILES IDX 66 75 67 76 46 77 47 78 55 79 48 80 54 81 56 82 53 83 49 84
REMARK SMILES IDX 50 85 51 86 52 87
REMARK H PARENT 76 40 44 51
REMARK Flexibility Score: inf
ROOT
ATOM      1  C   UNL A   1      36.703  22.350  25.781  1.00  0.00     0.188 C 
ENDROOT
BRANCH   1   2
ATOM      2  C   UNL A   1      35.419  22.081  24.978  1.00  0.00     0.188 C 
BRANCH   2   3
ATOM      3  O   UNL A   1      34.355  23.025  25.038  1.00  0.00    -0.376 OA
BRANCH   3   4
ATOM      4  C   UNL A   1      33.373  23.030  24.008  1.00  0.00     0.202 C 
BRANCH   4   5
ATOM      5  C   UNL A   1      32.719  21.695  23.608  1.00  0.00     0.261 C 
BRANCH   5   6
ATOM      6  O   UNL A   1      31.990  21.030  24.664  1.00  0.00    -0.463 OA
BRANCH   6   7
ATOM      7  C   UNL A   1      32.595  19.962  25.236  1.00  0.00     0.311 C 
ATOM      8  O   UNL A   1      33.152  19.991  26.329  1.00  0.00    -0.252 OA
BRANCH   7   9
ATOM      9  C   UNL A   1      32.499  18.674  24.440  1.00  0.00     0.128 C 
ATOM     10  N   UNL A   1      33.103  16.416  24.703  1.00  0.00    -0.342 N 
ATOM     11  C   UNL A   1      32.561  17.531  25.436  1.00  0.00     0.135 C 
ATOM     12  C   UNL A   1      33.687  16.807  23.515  1.00  0.00     0.223 C 
ATOM     13  C   UNL A   1      33.563  18.301  23.410  1.00  0.00     0.117 C 
ATOM     14  O   UNL A   1      34.237  16.109  22.681  1.00  0.00    -0.275 OA
BRANCH  10  15
ATOM     15  C   UNL A   1      32.951  15.063  25.209  1.00  0.00     0.116 C 
ATOM     16  C   UNL A   1      31.994  14.895  26.374  1.00  0.00     0.027 C 
ENDBRANCH  10  15
ENDBRANCH   7   9
ENDBRANCH   6   7
ENDBRANCH   5   6
ENDBRANCH   4   5
ENDBRANCH   3   4
ENDBRANCH   2   3
ENDBRANCH   1   2
BRANCH   1  17
ATOM     17  O   UNL A   1      37.899  22.053  25.100  1.00  0.00    -0.376 OA
BRANCH  17  18
ATOM     18  C   UNL A   1      38.324  20.706  25.087  1.00  0.00     0.202 C 
BRANCH  18  19
ATOM     19  C   UNL A   1      39.219  20.217  26.239  1.00  0.00     0.261 C 
BRANCH  19  20
ATOM     20  O   UNL A   1      40.361  19.416  25.882  1.00  0.00    -0.460 OA
BRANCH  20  21
ATOM     21  C   UNL A   1      41.528  19.682  26.518  1.00  0.00     0.338 C 
ATOM     22  O   UNL A   1      42.464  18.910  26.661  1.00  0.00    -0.246 OA
BRANCH  21  23
ATOM     23  C   UNL A   1      41.572  21.137  26.803  1.00  0.00     0.060 A 
ATOM     24  C   UNL A   1      41.433  22.053  25.749  1.00  0.00     0.016 A 
ATOM     25  C   UNL A   1      41.740  21.599  28.110  1.00  0.00     0.016 A 
ATOM     26  C   UNL A   1      41.479  23.429  25.996  1.00  0.00     0.010 A 
ATOM     27  C   UNL A   1      41.812  22.977  28.352  1.00  0.00     0.010 A 
ATOM     28  C   UNL A   1      41.708  23.901  27.296  1.00  0.00    -0.014 A 
BRANCH  28  29
ATOM     29  C   UNL A   1      42.035  25.334  27.536  1.00  0.00     0.031 A 
ATOM     30  C   UNL A   1      43.406  25.824  27.144  1.00  0.00     0.074 A 
ATOM     31  C   UNL A   1      41.149  26.190  28.079  1.00  0.00     0.049 A 
ATOM     32  N   UNL A   1      43.974  26.980  27.367  1.00  0.00    -0.248 NA
ATOM     33  C   UNL A   1      44.249  24.871  26.403  1.00  0.00     0.031 C 
ATOM     34  C   UNL A   1      39.770  25.866  28.441  1.00  0.00     0.029 A 
ATOM     35  N   UNL A   1      41.286  27.512  28.436  1.00  0.00    -0.354 N 
ATOM     36  C   UNL A   1      45.238  26.899  26.792  1.00  0.00     0.074 A 
ATOM     37  C   UNL A   1      45.368  25.562  26.252  1.00  0.00     0.031 C 
ATOM     38  C   UNL A   1      39.195  26.955  28.983  1.00  0.00     0.029 A 
ATOM     39  C   UNL A   1      40.176  28.038  29.058  1.00  0.00     0.049 A 
ATOM     40  H   UNL A   1      42.103  28.033  28.263  1.00  0.00     0.167 HD
ATOM     41  C   UNL A   1      46.197  27.852  26.707  1.00  0.00     0.034 A 
ATOM     42  C   UNL A   1      39.989  29.238  29.650  1.00  0.00     0.034 A 
ATOM     43  C   UNL A   1      46.068  29.176  27.263  1.00  0.00     0.049 A 
ATOM     44  C   UNL A   1      41.126  30.240  29.662  1.00  0.00     0.074 A 
ATOM     45  C   UNL A   1      46.993  30.207  27.255  1.00  0.00     0.029 A 
ATOM     46  N   UNL A   1      44.947  29.654  27.926  1.00  0.00    -0.354 N 
ATOM     47  N   UNL A   1      42.325  30.142  29.131  1.00  0.00    -0.248 NA
ATOM     48  C   UNL A   1      40.884  31.518  30.347  1.00  0.00     0.031 C 
ATOM     49  C   UNL A   1      46.459  31.281  27.972  1.00  0.00     0.029 A 
ATOM     50  C   UNL A   1      45.168  30.956  28.351  1.00  0.00     0.049 A 
ATOM     51  H   UNL A   1      44.118  29.146  28.073  1.00  0.00     0.167 HD
ATOM     52  C   UNL A   1      42.952  31.364  29.378  1.00  0.00     0.074 A 
ATOM     53  C   UNL A   1      41.998  32.185  30.089  1.00  0.00     0.031 C 
ATOM     54  C   UNL A   1      44.202  31.773  29.045  1.00  0.00     0.034 A 
BRANCH  41  55
ATOM     55  C   UNL A   1      47.484  27.484  26.013  1.00  0.00     0.023 A 
ATOM     56  C   UNL A   1      47.672  27.722  24.640  1.00  0.00     0.031 A 
ATOM     57  C   UNL A   1      48.539  26.891  26.730  1.00  0.00     0.131 A 
ATOM     58  C   UNL A   1      48.863  27.323  24.018  1.00  0.00     0.055 A 
ATOM     59  C   UNL A   1      49.751  26.567  26.120  1.00  0.00     0.041 A 
ATOM     60  F   UNL A   1      48.407  26.617  28.037  1.00  0.00    -0.206 F 
ATOM     61  C   UNL A   1      49.915  26.773  24.753  1.00  0.00     0.022 A 
BRANCH  58  62
ATOM     62  S   UNL A   1      48.969  27.420  22.210  1.00  0.00     0.124 S 
ATOM     63  O   UNL A   1      50.362  27.819  22.019  1.00  0.00    -0.237 OA
ATOM     64  O   UNL A   1      48.631  26.062  21.800  1.00  0.00    -0.237 OA
ATOM     65  O   UNL A   1      47.983  28.440  21.864  1.00  0.00    -0.744 OA
ENDBRANCH  58  62
ENDBRANCH  41  55
BRANCH  42  66
ATOM     66  C   UNL A   1      38.704  29.569  30.344  1.00  0.00     0.023 A 
ATOM     67  C   UNL A   1      37.725  30.358  29.718  1.00  0.00     0.031 A 
ATOM     68  C   UNL A   1      38.492  29.212  31.689  1.00  0.00     0.131 A 
ATOM     69  C   UNL A   1      36.631  30.836  30.456  1.00  0.00     0.055 A 
ATOM     70  C   UNL A   1      37.360  29.623  32.395  1.00  0.00     0.041 A 
ATOM     71  F   UNL A   1      39.397  28.469  32.346  1.00  0.00    -0.206 F 
ATOM     72  C   UNL A   1      36.432  30.461  31.784  1.00  0.00     0.022 A 
BRANCH  69  73
ATOM     73  S   UNL A   1      35.558  32.091  29.698  1.00  0.00     0.124 S 
ATOM     74  O   UNL A   1      34.833  31.299  28.712  1.00  0.00    -0.237 OA
ATOM     75  O   UNL A   1      34.783  32.556  30.845  1.00  0.00    -0.237 OA
ATOM     76  O   UNL A   1      36.504  33.060  29.151  1.00  0.00    -0.744 OA
ENDBRANCH  69  73
ENDBRANCH  42  66
BRANCH  54  77
ATOM     77  C   UNL A   1      44.583  33.199  29.376  1.00  0.00     0.023 A 
ATOM     78  C   UNL A   1      44.436  34.247  28.450  1.00  0.00     0.031 A 
ATOM     79  C   UNL A   1      45.106  33.511  30.645  1.00  0.00     0.131 A 
ATOM     80  C   UNL A   1      44.862  35.541  28.784  1.00  0.00     0.055 A 
ATOM     81  C   UNL A   1      45.464  34.813  30.995  1.00  0.00     0.041 A 
ATOM     82  F   UNL A   1      45.271  32.552  31.570  1.00  0.00    -0.206 F 
ATOM     83  C   UNL A   1      45.357  35.835  30.058  1.00  0.00     0.022 A 
BRANCH  80  84
ATOM     84  S   UNL A   1      44.854  36.822  27.499  1.00  0.00     0.124 S 
ATOM     85  O   UNL A   1      43.489  36.733  26.990  1.00  0.00    -0.237 OA
ATOM     86  O   UNL A   1      45.174  38.027  28.257  1.00  0.00    -0.237 OA
ATOM     87  O   UNL A   1      45.893  36.382  26.569  1.00  0.00    -0.744 OA
ENDBRANCH  80  84
ENDBRANCH  54  77
ENDBRANCH  28  29
ENDBRANCH  21  23
ENDBRANCH  20  21
ENDBRANCH  19  20
ENDBRANCH  18  19
ENDBRANCH  17  18
ENDBRANCH   1  17
TORSDOF 21
ENDMDL
