MODEL 1
REMARK VINA RESULT:      -9.6      0.000      0.000
REMARK SMILES C[C@H](C(=O)NC1CCCC1)[N@@H+]1CCn2nc(CCC(=O)OCCOCCOCCOC(=O)c3ccc(-c4c5nc(c(-c6cc(S(=O)(=O)[O-])ccc6F)c6ccc([nH]6)c(-c6cc(S(=O)(=O)[O-])ccc6F)c6nc(c(-c7cc(S(=O)(=O)[O-])ccc7F)c7ccc4[nH]7)C=C6)C=C5)cc3)cc2C1
REMARK SMILES IDX 25 1 24 2 23 3 22 4 21 5 19 6 20 7 18 8 17 9 16 10 11 11
REMARK SMILES IDX 12 12 98 13 13 15 97 16 14 17 96 18 15 19 2 20 1 21 3 22
REMARK SMILES IDX 4 23 5 24 6 26 7 27 10 28 8 29 9 30 26 31 27 32 28 33 29 34
REMARK SMILES IDX 30 35 31 36 32 37 33 38 34 39 95 40 35 41 94 42 36 43 37 44
REMARK SMILES IDX 38 45 88 46 39 47 93 48 87 49 89 50 40 51 92 52 86 53 85 54
REMARK SMILES IDX 41 56 73 57 53 58 72 59 54 60 57 61 71 62 90 63 55 64 56 65
REMARK SMILES IDX 70 67 91 68 58 69 42 70 43 71 51 72 44 73 50 74 52 75 49 76
REMARK SMILES IDX 45 77 46 78 47 79 48 80 74 81 75 82 83 83 76 84 82 85 84 86
REMARK SMILES IDX 81 87 77 88 78 89 79 90 80 91 59 92 60 93 68 94 61 95 67 96
REMARK SMILES IDX 69 97 66 98 62 99 63 100 64 101 65 102
REMARK H PARENT 11 14 5 25 89 55 57 66
REMARK Flexibility Score: inf
ROOT
ATOM      1  C   UNL A   1      34.044  31.107  27.480  1.00  0.00     0.188 C 
ENDROOT
BRANCH   1   2
ATOM      2  O   UNL A   1      33.161  30.002  27.685  1.00  0.00    -0.376 OA
BRANCH   2   3
ATOM      3  C   UNL A   1      31.988  29.961  26.869  1.00  0.00     0.202 C 
BRANCH   3   4
ATOM      4  C   UNL A   1      32.126  29.420  25.427  1.00  0.00     0.261 C 
BRANCH   4   5
ATOM      5  O   UNL A   1      30.992  29.691  24.568  1.00  0.00    -0.463 OA
BRANCH   5   6
ATOM      6  C   UNL A   1      30.962  29.088  23.358  1.00  0.00     0.306 C 
ATOM      7  O   UNL A   1      31.980  28.821  22.718  1.00  0.00    -0.252 OA
BRANCH   6   8
ATOM      8  C   UNL A   1      29.595  28.566  22.893  1.00  0.00     0.129 C 
BRANCH   8   9
ATOM      9  C   UNL A   1      28.841  27.379  23.515  1.00  0.00     0.070 C 
BRANCH   9  10
ATOM     10  C   UNL A   1      29.678  26.376  24.218  1.00  0.00     0.064 A 
ATOM     11  N   UNL A   1      32.210  22.859  25.841  1.00  0.00    -0.318 N 
ATOM     12  C   UNL A   1      31.717  22.448  24.552  1.00  0.00     0.287 C 
ATOM     13  C   UNL A   1      31.250  23.821  26.475  1.00  0.00     0.319 C 
ATOM     14  H   UNL A   1      32.223  22.039  26.449  1.00  0.00     0.349 HD
ATOM     15  C   UNL A   1      31.201  23.431  23.552  1.00  0.00     0.206 C 
ATOM     16  C   UNL A   1      30.654  24.825  25.521  1.00  0.00     0.093 A 
ATOM     17  N   UNL A   1      30.762  24.613  24.193  1.00  0.00    -0.258 N 
ATOM     18  C   UNL A   1      29.836  25.954  25.580  1.00  0.00     0.055 A 
ATOM     19  N   UNL A   1      30.387  25.600  23.421  1.00  0.00    -0.177 NA
BRANCH  11  20
ATOM     20  C   UNL A   1      33.663  23.201  25.900  1.00  0.00     0.271 C 
ATOM     21  C   UNL A   1      34.012  24.641  25.501  1.00  0.00     0.086 C 
BRANCH  20  22
ATOM     22  C   UNL A   1      34.822  22.227  25.352  1.00  0.00     0.278 C 
ATOM     23  O   UNL A   1      35.955  22.753  25.264  1.00  0.00    -0.268 OA
ATOM     24  N   UNL A   1      34.852  20.948  24.870  1.00  0.00    -0.348 N 
ATOM     25  H   UNL A   1      35.744  20.722  24.521  1.00  0.00     0.163 HD
BRANCH  24  26
ATOM     26  C   UNL A   1      33.933  19.828  24.729  1.00  0.00     0.082 C 
ATOM     27  C   UNL A   1      34.627  18.484  24.440  1.00  0.00     0.025 C 
ATOM     28  C   UNL A   1      33.081  19.386  25.918  1.00  0.00     0.025 C 
ATOM     29  C   UNL A   1      33.428  17.563  24.299  1.00  0.00     0.002 C 
ATOM     30  C   UNL A   1      32.489  18.045  25.413  1.00  0.00     0.002 C 
ENDBRANCH  24  26
ENDBRANCH  20  22
ENDBRANCH  11  20
ENDBRANCH   9  10
ENDBRANCH   8   9
ENDBRANCH   6   8
ENDBRANCH   5   6
ENDBRANCH   4   5
ENDBRANCH   3   4
ENDBRANCH   2   3
ENDBRANCH   1   2
BRANCH   1  31
ATOM     31  C   UNL A   1      33.492  32.517  27.782  1.00  0.00     0.188 C 
BRANCH  31  32
ATOM     32  O   UNL A   1      34.258  33.201  28.757  1.00  0.00    -0.376 OA
BRANCH  32  33
ATOM     33  C   UNL A   1      34.716  32.619  29.961  1.00  0.00     0.202 C 
BRANCH  33  34
ATOM     34  C   UNL A   1      36.194  32.612  30.321  1.00  0.00     0.261 C 
BRANCH  34  35
ATOM     35  O   UNL A   1      36.931  31.578  29.720  1.00  0.00    -0.460 OA
BRANCH  35  36
ATOM     36  C   UNL A   1      36.720  30.333  30.189  1.00  0.00     0.338 C 
ATOM     37  O   UNL A   1      35.712  29.654  30.076  1.00  0.00    -0.246 OA
BRANCH  36  38
ATOM     38  C   UNL A   1      37.980  29.923  30.809  1.00  0.00     0.060 A 
ATOM     39  C   UNL A   1      39.048  30.822  30.798  1.00  0.00     0.016 A 
ATOM     40  C   UNL A   1      38.123  28.586  31.213  1.00  0.00     0.016 A 
ATOM     41  C   UNL A   1      40.314  30.307  30.933  1.00  0.00     0.010 A 
ATOM     42  C   UNL A   1      39.379  28.069  31.311  1.00  0.00     0.010 A 
ATOM     43  C   UNL A   1      40.447  28.922  31.060  1.00  0.00    -0.014 A 
BRANCH  43  44
ATOM     44  C   UNL A   1      41.743  28.322  30.888  1.00  0.00     0.031 A 
ATOM     45  C   UNL A   1      42.451  28.112  32.158  1.00  0.00     0.074 A 
ATOM     46  C   UNL A   1      42.127  27.884  29.674  1.00  0.00     0.049 A 
ATOM     47  N   UNL A   1      43.480  28.758  32.586  1.00  0.00    -0.248 NA
ATOM     48  C   UNL A   1      41.820  27.250  33.173  1.00  0.00     0.031 C 
ATOM     49  C   UNL A   1      41.330  27.828  28.444  1.00  0.00     0.029 A 
ATOM     50  N   UNL A   1      43.282  27.273  29.314  1.00  0.00    -0.354 N 
ATOM     51  C   UNL A   1      43.790  28.168  33.801  1.00  0.00     0.074 A 
ATOM     52  C   UNL A   1      42.603  27.483  34.225  1.00  0.00     0.031 C 
ATOM     53  C   UNL A   1      41.939  27.007  27.558  1.00  0.00     0.029 A 
ATOM     54  C   UNL A   1      43.210  26.569  28.116  1.00  0.00     0.049 A 
ATOM     55  H   UNL A   1      44.103  27.322  29.855  1.00  0.00     0.167 HD
ATOM     56  C   UNL A   1      45.086  28.019  34.184  1.00  0.00     0.034 A 
ATOM     57  C   UNL A   1      44.089  25.628  27.675  1.00  0.00     0.034 A 
ATOM     58  C   UNL A   1      45.954  28.878  33.403  1.00  0.00     0.049 A 
ATOM     59  C   UNL A   1      45.358  25.844  28.423  1.00  0.00     0.074 A 
ATOM     60  C   UNL A   1      45.987  30.239  33.160  1.00  0.00     0.029 A 
ATOM     61  N   UNL A   1      46.710  28.304  32.402  1.00  0.00    -0.354 N 
ATOM     62  N   UNL A   1      46.095  26.913  28.283  1.00  0.00    -0.248 NA
ATOM     63  C   UNL A   1      45.538  25.144  29.690  1.00  0.00     0.031 C 
ATOM     64  C   UNL A   1      46.331  30.362  31.783  1.00  0.00     0.029 A 
ATOM     65  C   UNL A   1      46.586  29.085  31.276  1.00  0.00     0.049 A 
ATOM     66  H   UNL A   1      47.244  27.481  32.480  1.00  0.00     0.167 HD
ATOM     67  C   UNL A   1      46.465  27.271  29.572  1.00  0.00     0.074 A 
ATOM     68  C   UNL A   1      46.188  26.086  30.383  1.00  0.00     0.031 C 
ATOM     69  C   UNL A   1      46.666  28.580  29.915  1.00  0.00     0.034 A 
BRANCH  56  70
ATOM     70  C   UNL A   1      45.605  26.836  34.968  1.00  0.00     0.023 A 
ATOM     71  C   UNL A   1      45.226  25.564  34.510  1.00  0.00     0.031 A 
ATOM     72  C   UNL A   1      46.193  26.874  36.256  1.00  0.00     0.131 A 
ATOM     73  C   UNL A   1      45.332  24.437  35.342  1.00  0.00     0.055 A 
ATOM     74  C   UNL A   1      46.365  25.738  37.049  1.00  0.00     0.041 A 
ATOM     75  F   UNL A   1      46.550  28.008  36.868  1.00  0.00    -0.206 F 
ATOM     76  C   UNL A   1      45.901  24.513  36.609  1.00  0.00     0.022 A 
BRANCH  73  77
ATOM     77  S   UNL A   1      44.536  22.908  34.800  1.00  0.00     0.124 S 
ATOM     78  O   UNL A   1      43.132  23.303  34.776  1.00  0.00    -0.237 OA
ATOM     79  O   UNL A   1      45.167  22.687  33.503  1.00  0.00    -0.237 OA
ATOM     80  O   UNL A   1      44.899  21.952  35.844  1.00  0.00    -0.744 OA
ENDBRANCH  73  77
ENDBRANCH  56  70
BRANCH  57  81
ATOM     81  C   UNL A   1      43.771  24.384  26.913  1.00  0.00     0.023 A 
ATOM     82  C   UNL A   1      42.873  23.403  27.386  1.00  0.00     0.031 A 
ATOM     83  C   UNL A   1      44.192  24.252  25.569  1.00  0.00     0.131 A 
ATOM     84  C   UNL A   1      42.441  22.358  26.534  1.00  0.00     0.055 A 
ATOM     85  C   UNL A   1      43.771  23.213  24.735  1.00  0.00     0.041 A 
ATOM     86  F   UNL A   1      44.963  25.180  24.982  1.00  0.00    -0.206 F 
ATOM     87  C   UNL A   1      42.883  22.265  25.213  1.00  0.00     0.022 A 
BRANCH  84  88
ATOM     88  S   UNL A   1      41.203  21.144  27.101  1.00  0.00     0.124 S 
ATOM     89  O   UNL A   1      40.175  21.245  26.072  1.00  0.00    -0.237 OA
ATOM     90  O   UNL A   1      41.970  19.904  27.133  1.00  0.00    -0.237 OA
ATOM     91  O   UNL A   1      40.807  21.650  28.417  1.00  0.00    -0.744 OA
ENDBRANCH  84  88
ENDBRANCH  57  81
BRANCH  69  92
ATOM     92  C   UNL A   1      46.766  29.609  28.801  1.00  0.00     0.023 A 
ATOM     93  C   UNL A   1      45.706  30.436  28.360  1.00  0.00     0.031 A 
ATOM     94  C   UNL A   1      48.034  29.829  28.232  1.00  0.00     0.131 A 
ATOM     95  C   UNL A   1      45.934  31.417  27.373  1.00  0.00     0.055 A 
ATOM     96  C   UNL A   1      48.262  30.818  27.276  1.00  0.00     0.041 A 
ATOM     97  F   UNL A   1      49.093  29.100  28.625  1.00  0.00    -0.206 F 
ATOM     98  C   UNL A   1      47.210  31.610  26.835  1.00  0.00     0.022 A 
BRANCH  95  99
ATOM     99  S   UNL A   1      44.566  32.443  26.742  1.00  0.00     0.124 S 
ATOM    100  O   UNL A   1      43.865  32.866  27.949  1.00  0.00    -0.237 OA
ATOM    101  O   UNL A   1      45.273  33.494  26.012  1.00  0.00    -0.237 OA
ATOM    102  O   UNL A   1      43.813  31.517  25.893  1.00  0.00    -0.744 OA
ENDBRANCH  95  99
ENDBRANCH  69  92
ENDBRANCH  43  44
ENDBRANCH  36  38
ENDBRANCH  35  36
ENDBRANCH  34  35
ENDBRANCH  33  34
ENDBRANCH  32  33
ENDBRANCH  31  32
ENDBRANCH   1  31
TORSDOF 25
ENDMDL
MODEL 2
REMARK VINA RESULT:      -9.5      3.251      7.997
REMARK SMILES C[C@H](C(=O)NC1CCCC1)[N@@H+]1CCn2nc(CCC(=O)OCCOCCOCCOC(=O)c3ccc(-c4c5nc(c(-c6cc(S(=O)(=O)[O-])ccc6F)c6ccc([nH]6)c(-c6cc(S(=O)(=O)[O-])ccc6F)c6nc(c(-c7cc(S(=O)(=O)[O-])ccc7F)c7ccc4[nH]7)C=C6)C=C5)cc3)cc2C1
REMARK SMILES IDX 25 1 24 2 23 3 22 4 21 5 19 6 20 7 18 8 17 9 16 10 11 11
REMARK SMILES IDX 12 12 98 13 13 15 97 16 14 17 96 18 15 19 2 20 1 21 3 22
REMARK SMILES IDX 4 23 5 24 6 26 7 27 10 28 8 29 9 30 26 31 27 32 28 33 29 34
REMARK SMILES IDX 30 35 31 36 32 37 33 38 34 39 95 40 35 41 94 42 36 43 37 44
REMARK SMILES IDX 38 45 88 46 39 47 93 48 87 49 89 50 40 51 92 52 86 53 85 54
REMARK SMILES IDX 41 56 73 57 53 58 72 59 54 60 57 61 71 62 90 63 55 64 56 65
REMARK SMILES IDX 70 67 91 68 58 69 42 70 43 71 51 72 44 73 50 74 52 75 49 76
REMARK SMILES IDX 45 77 46 78 47 79 48 80 74 81 75 82 83 83 76 84 82 85 84 86
REMARK SMILES IDX 81 87 77 88 78 89 79 90 80 91 59 92 60 93 68 94 61 95 67 96
REMARK SMILES IDX 69 97 66 98 62 99 63 100 64 101 65 102
REMARK H PARENT 11 14 5 25 89 55 57 66
REMARK Flexibility Score: inf
ROOT
ATOM      1  C   UNL A   1      39.380  23.655  26.992  1.00  0.00     0.188 C 
ENDROOT
BRANCH   1   2
ATOM      2  O   UNL A   1      38.320  22.869  26.444  1.00  0.00    -0.376 OA
BRANCH   2   3
ATOM      3  C   UNL A   1      37.498  23.503  25.461  1.00  0.00     0.202 C 
BRANCH   3   4
ATOM      4  C   UNL A   1      36.127  22.863  25.140  1.00  0.00     0.261 C 
BRANCH   4   5
ATOM      5  O   UNL A   1      35.927  21.545  25.706  1.00  0.00    -0.463 OA
BRANCH   5   6
ATOM      6  C   UNL A   1      35.305  20.620  24.941  1.00  0.00     0.306 C 
ATOM      7  O   UNL A   1      35.648  19.437  24.910  1.00  0.00    -0.252 OA
BRANCH   6   8
ATOM      8  C   UNL A   1      34.011  21.069  24.249  1.00  0.00     0.129 C 
BRANCH   8   9
ATOM      9  C   UNL A   1      32.713  21.469  24.970  1.00  0.00     0.070 C 
BRANCH   9  10
ATOM     10  C   UNL A   1      32.259  22.865  24.761  1.00  0.00     0.064 A 
ATOM     11  N   UNL A   1      30.839  27.270  24.804  1.00  0.00    -0.318 N 
ATOM     12  C   UNL A   1      30.920  26.852  26.180  1.00  0.00     0.287 C 
ATOM     13  C   UNL A   1      30.532  26.093  23.928  1.00  0.00     0.319 C 
ATOM     14  H   UNL A   1      30.041  27.899  24.714  1.00  0.00     0.349 HD
ATOM     15  C   UNL A   1      31.704  25.650  26.597  1.00  0.00     0.206 C 
ATOM     16  C   UNL A   1      31.257  24.826  24.308  1.00  0.00     0.093 A 
ATOM     17  N   UNL A   1      31.848  24.747  25.519  1.00  0.00    -0.258 N 
ATOM     18  C   UNL A   1      31.423  23.535  23.807  1.00  0.00     0.055 A 
ATOM     19  N   UNL A   1      32.609  23.702  25.720  1.00  0.00    -0.177 NA
BRANCH  11  20
ATOM     20  C   UNL A   1      31.911  28.204  24.348  1.00  0.00     0.271 C 
ATOM     21  C   UNL A   1      32.348  29.253  25.380  1.00  0.00     0.086 C 
BRANCH  20  22
ATOM     22  C   UNL A   1      31.924  28.889  22.891  1.00  0.00     0.278 C 
ATOM     23  O   UNL A   1      33.025  28.845  22.296  1.00  0.00    -0.268 OA
ATOM     24  N   UNL A   1      31.014  29.599  22.157  1.00  0.00    -0.348 N 
ATOM     25  H   UNL A   1      31.424  29.958  21.337  1.00  0.00     0.163 HD
BRANCH  24  26
ATOM     26  C   UNL A   1      29.610  29.972  22.250  1.00  0.00     0.082 C 
ATOM     27  C   UNL A   1      29.237  30.674  23.569  1.00  0.00     0.025 C 
ATOM     28  C   UNL A   1      29.029  31.001  21.280  1.00  0.00     0.025 C 
ATOM     29  C   UNL A   1      27.744  30.876  23.377  1.00  0.00     0.002 C 
ATOM     30  C   UNL A   1      27.637  31.283  21.902  1.00  0.00     0.002 C 
ENDBRANCH  24  26
ENDBRANCH  20  22
ENDBRANCH  11  20
ENDBRANCH   9  10
ENDBRANCH   8   9
ENDBRANCH   6   8
ENDBRANCH   5   6
ENDBRANCH   4   5
ENDBRANCH   3   4
ENDBRANCH   2   3
ENDBRANCH   1   2
BRANCH   1  31
ATOM     31  C   UNL A   1      40.648  22.904  27.456  1.00  0.00     0.188 C 
BRANCH  31  32
ATOM     32  O   UNL A   1      40.466  21.501  27.487  1.00  0.00    -0.376 OA
BRANCH  32  33
ATOM     33  C   UNL A   1      41.116  20.596  26.616  1.00  0.00     0.202 C 
BRANCH  33  34
ATOM     34  C   UNL A   1      42.588  20.756  26.269  1.00  0.00     0.261 C 
BRANCH  34  35
ATOM     35  O   UNL A   1      42.849  21.739  25.299  1.00  0.00    -0.460 OA
BRANCH  35  36
ATOM     36  C   UNL A   1      44.092  21.763  24.780  1.00  0.00     0.338 C 
ATOM     37  O   UNL A   1      44.652  20.883  24.147  1.00  0.00    -0.246 OA
BRANCH  36  38
ATOM     38  C   UNL A   1      44.618  23.097  25.071  1.00  0.00     0.060 A 
ATOM     39  C   UNL A   1      45.977  23.225  25.361  1.00  0.00     0.016 A 
ATOM     40  C   UNL A   1      43.708  24.154  25.235  1.00  0.00     0.016 A 
ATOM     41  C   UNL A   1      46.373  24.331  26.073  1.00  0.00     0.010 A 
ATOM     42  C   UNL A   1      44.093  25.232  25.972  1.00  0.00     0.010 A 
ATOM     43  C   UNL A   1      45.391  25.242  26.467  1.00  0.00    -0.014 A 
BRANCH  43  44
ATOM     44  C   UNL A   1      45.707  26.229  27.465  1.00  0.00     0.031 A 
ATOM     45  C   UNL A   1      45.118  25.925  28.777  1.00  0.00     0.074 A 
ATOM     46  C   UNL A   1      46.584  27.211  27.189  1.00  0.00     0.049 A 
ATOM     47  N   UNL A   1      44.142  26.544  29.349  1.00  0.00    -0.248 NA
ATOM     48  C   UNL A   1      45.491  24.660  29.432  1.00  0.00     0.031 C 
ATOM     49  C   UNL A   1      47.399  27.377  25.980  1.00  0.00     0.029 A 
ATOM     50  N   UNL A   1      47.031  28.208  27.992  1.00  0.00    -0.354 N 
ATOM     51  C   UNL A   1      43.987  25.909  30.571  1.00  0.00     0.074 A 
ATOM     52  C   UNL A   1      44.617  24.627  30.436  1.00  0.00     0.031 C 
ATOM     53  C   UNL A   1      48.394  28.257  26.233  1.00  0.00     0.029 A 
ATOM     54  C   UNL A   1      48.223  28.790  27.576  1.00  0.00     0.049 A 
ATOM     55  H   UNL A   1      46.551  28.495  28.804  1.00  0.00     0.167 HD
ATOM     56  C   UNL A   1      43.651  26.621  31.679  1.00  0.00     0.034 A 
ATOM     57  C   UNL A   1      49.048  29.573  28.325  1.00  0.00     0.034 A 
ATOM     58  C   UNL A   1      43.116  27.918  31.314  1.00  0.00     0.049 A 
ATOM     59  C   UNL A   1      48.231  30.096  29.455  1.00  0.00     0.074 A 
ATOM     60  C   UNL A   1      42.072  28.328  30.505  1.00  0.00     0.029 A 
ATOM     61  N   UNL A   1      43.927  29.023  31.464  1.00  0.00    -0.354 N 
ATOM     62  N   UNL A   1      47.234  30.924  29.291  1.00  0.00    -0.248 NA
ATOM     63  C   UNL A   1      48.172  29.312  30.684  1.00  0.00     0.031 C 
ATOM     64  C   UNL A   1      42.562  29.480  29.823  1.00  0.00     0.029 A 
ATOM     65  C   UNL A   1      43.836  29.775  30.314  1.00  0.00     0.049 A 
ATOM     66  H   UNL A   1      44.473  29.238  32.254  1.00  0.00     0.167 HD
ATOM     67  C   UNL A   1      46.227  30.450  30.119  1.00  0.00     0.074 A 
ATOM     68  C   UNL A   1      46.898  29.525  31.033  1.00  0.00     0.031 C 
ATOM     69  C   UNL A   1      44.908  30.609  29.795  1.00  0.00     0.034 A 
BRANCH  56  70
ATOM     70  C   UNL A   1      44.164  26.315  33.068  1.00  0.00     0.023 A 
ATOM     71  C   UNL A   1      43.197  26.120  34.066  1.00  0.00     0.031 A 
ATOM     72  C   UNL A   1      45.495  26.472  33.526  1.00  0.00     0.131 A 
ATOM     73  C   UNL A   1      43.538  26.196  35.426  1.00  0.00     0.055 A 
ATOM     74  C   UNL A   1      45.840  26.471  34.879  1.00  0.00     0.041 A 
ATOM     75  F   UNL A   1      46.526  26.731  32.715  1.00  0.00    -0.206 F 
ATOM     76  C   UNL A   1      44.855  26.367  35.841  1.00  0.00     0.022 A 
BRANCH  73  77
ATOM     77  S   UNL A   1      42.195  26.252  36.634  1.00  0.00     0.124 S 
ATOM     78  O   UNL A   1      41.674  24.891  36.553  1.00  0.00    -0.237 OA
ATOM     79  O   UNL A   1      42.910  26.598  37.858  1.00  0.00    -0.237 OA
ATOM     80  O   UNL A   1      41.313  27.291  36.108  1.00  0.00    -0.744 OA
ENDBRANCH  73  77
ENDBRANCH  56  70
BRANCH  57  81
ATOM     81  C   UNL A   1      50.540  29.602  28.292  1.00  0.00     0.023 A 
ATOM     82  C   UNL A   1      51.325  28.441  28.120  1.00  0.00     0.031 A 
ATOM     83  C   UNL A   1      51.221  30.838  28.203  1.00  0.00     0.131 A 
ATOM     84  C   UNL A   1      52.717  28.549  27.876  1.00  0.00     0.055 A 
ATOM     85  C   UNL A   1      52.595  30.939  27.972  1.00  0.00     0.041 A 
ATOM     86  F   UNL A   1      50.561  32.005  28.248  1.00  0.00    -0.206 F 
ATOM     87  C   UNL A   1      53.349  29.791  27.798  1.00  0.00     0.022 A 
BRANCH  84  88
ATOM     88  S   UNL A   1      53.724  27.063  27.552  1.00  0.00     0.124 S 
ATOM     89  O   UNL A   1      52.732  25.996  27.608  1.00  0.00    -0.237 OA
ATOM     90  O   UNL A   1      54.296  27.350  26.241  1.00  0.00    -0.237 OA
ATOM     91  O   UNL A   1      54.692  27.060  28.651  1.00  0.00    -0.744 OA
ENDBRANCH  84  88
ENDBRANCH  57  81
BRANCH  69  92
ATOM     92  C   UNL A   1      44.553  31.565  28.667  1.00  0.00     0.023 A 
ATOM     93  C   UNL A   1      44.392  32.964  28.808  1.00  0.00     0.031 A 
ATOM     94  C   UNL A   1      44.479  31.035  27.366  1.00  0.00     0.131 A 
ATOM     95  C   UNL A   1      44.146  33.768  27.676  1.00  0.00     0.055 A 
ATOM     96  C   UNL A   1      44.262  31.837  26.245  1.00  0.00     0.041 A 
ATOM     97  F   UNL A   1      44.652  29.719  27.155  1.00  0.00    -0.206 F 
ATOM     98  C   UNL A   1      44.084  33.206  26.397  1.00  0.00     0.022 A 
BRANCH  95  99
ATOM     99  S   UNL A   1      43.865  35.561  27.846  1.00  0.00     0.124 S 
ATOM    100  O   UNL A   1      42.435  35.711  27.604  1.00  0.00    -0.237 OA
ATOM    101  O   UNL A   1      44.312  35.819  29.213  1.00  0.00    -0.237 OA
ATOM    102  O   UNL A   1      44.722  36.137  26.809  1.00  0.00    -0.744 OA
ENDBRANCH  95  99
ENDBRANCH  69  92
ENDBRANCH  43  44
ENDBRANCH  36  38
ENDBRANCH  35  36
ENDBRANCH  34  35
ENDBRANCH  33  34
ENDBRANCH  32  33
ENDBRANCH  31  32
ENDBRANCH   1  31
TORSDOF 25
ENDMDL
MODEL 3
REMARK VINA RESULT:      -9.3      2.538      6.799
REMARK SMILES C[C@H](C(=O)NC1CCCC1)[N@@H+]1CCn2nc(CCC(=O)OCCOCCOCCOC(=O)c3ccc(-c4c5nc(c(-c6cc(S(=O)(=O)[O-])ccc6F)c6ccc([nH]6)c(-c6cc(S(=O)(=O)[O-])ccc6F)c6nc(c(-c7cc(S(=O)(=O)[O-])ccc7F)c7ccc4[nH]7)C=C6)C=C5)cc3)cc2C1
REMARK SMILES IDX 25 1 24 2 23 3 22 4 21 5 19 6 20 7 18 8 17 9 16 10 11 11
REMARK SMILES IDX 12 12 98 13 13 15 97 16 14 17 96 18 15 19 2 20 1 21 3 22
REMARK SMILES IDX 4 23 5 24 6 26 7 27 10 28 8 29 9 30 26 31 27 32 28 33 29 34
REMARK SMILES IDX 30 35 31 36 32 37 33 38 34 39 95 40 35 41 94 42 36 43 37 44
REMARK SMILES IDX 38 45 88 46 39 47 93 48 87 49 89 50 40 51 92 52 86 53 85 54
REMARK SMILES IDX 41 56 73 57 53 58 72 59 54 60 57 61 71 62 90 63 55 64 56 65
REMARK SMILES IDX 70 67 91 68 58 69 42 70 43 71 51 72 44 73 50 74 52 75 49 76
REMARK SMILES IDX 45 77 46 78 47 79 48 80 74 81 75 82 83 83 76 84 82 85 84 86
REMARK SMILES IDX 81 87 77 88 78 89 79 90 80 91 59 92 60 93 68 94 61 95 67 96
REMARK SMILES IDX 69 97 66 98 62 99 63 100 64 101 65 102
REMARK H PARENT 11 14 5 25 89 55 57 66
REMARK Flexibility Score: inf
ROOT
ATOM      1  C   UNL A   1      33.117  31.077  27.254  1.00  0.00     0.188 C 
ENDROOT
BRANCH   1   2
ATOM      2  O   UNL A   1      32.871  29.670  27.227  1.00  0.00    -0.376 OA
BRANCH   2   3
ATOM      3  C   UNL A   1      31.780  29.227  26.417  1.00  0.00     0.202 C 
BRANCH   3   4
ATOM      4  C   UNL A   1      31.460  30.024  25.132  1.00  0.00     0.261 C 
BRANCH   4   5
ATOM      5  O   UNL A   1      30.565  29.354  24.211  1.00  0.00    -0.463 OA
BRANCH   5   6
ATOM      6  C   UNL A   1      31.070  28.952  23.023  1.00  0.00     0.306 C 
ATOM      7  O   UNL A   1      30.415  28.960  21.980  1.00  0.00    -0.252 OA
BRANCH   6   8
ATOM      8  C   UNL A   1      32.578  28.665  22.988  1.00  0.00     0.129 C 
BRANCH   8   9
ATOM      9  C   UNL A   1      33.259  27.608  22.102  1.00  0.00     0.070 C 
BRANCH   9  10
ATOM     10  C   UNL A   1      33.481  26.283  22.729  1.00  0.00     0.064 A 
ATOM     11  N   UNL A   1      34.639  22.472  25.086  1.00  0.00    -0.318 N 
ATOM     12  C   UNL A   1      35.486  23.530  25.575  1.00  0.00     0.287 C 
ATOM     13  C   UNL A   1      34.269  22.731  23.657  1.00  0.00     0.319 C 
ATOM     14  H   UNL A   1      35.185  21.610  25.079  1.00  0.00     0.349 HD
ATOM     15  C   UNL A   1      35.158  24.971  25.356  1.00  0.00     0.206 C 
ATOM     16  C   UNL A   1      33.960  24.174  23.344  1.00  0.00     0.093 A 
ATOM     17  N   UNL A   1      34.321  25.128  24.227  1.00  0.00    -0.258 N 
ATOM     18  C   UNL A   1      33.482  24.924  22.269  1.00  0.00     0.055 A 
ATOM     19  N   UNL A   1      33.869  26.332  23.989  1.00  0.00    -0.177 NA
BRANCH  11  20
ATOM     20  C   UNL A   1      33.549  22.037  26.009  1.00  0.00     0.271 C 
ATOM     21  C   UNL A   1      33.981  21.067  27.119  1.00  0.00     0.086 C 
BRANCH  20  22
ATOM     22  C   UNL A   1      32.082  21.610  25.504  1.00  0.00     0.278 C 
ATOM     23  O   UNL A   1      31.935  20.386  25.283  1.00  0.00    -0.268 OA
ATOM     24  N   UNL A   1      30.945  22.293  25.173  1.00  0.00    -0.348 N 
ATOM     25  H   UNL A   1      30.266  21.689  24.796  1.00  0.00     0.163 HD
BRANCH  24  26
ATOM     26  C   UNL A   1      30.459  23.664  25.222  1.00  0.00     0.082 C 
ATOM     27  C   UNL A   1      31.336  24.608  26.065  1.00  0.00     0.025 C 
ATOM     28  C   UNL A   1      30.402  24.499  23.943  1.00  0.00     0.025 C 
ATOM     29  C   UNL A   1      30.552  25.905  25.959  1.00  0.00     0.002 C 
ATOM     30  C   UNL A   1      30.100  25.917  24.493  1.00  0.00     0.002 C 
ENDBRANCH  24  26
ENDBRANCH  20  22
ENDBRANCH  11  20
ENDBRANCH   9  10
ENDBRANCH   8   9
ENDBRANCH   6   8
ENDBRANCH   5   6
ENDBRANCH   4   5
ENDBRANCH   3   4
ENDBRANCH   2   3
ENDBRANCH   1   2
BRANCH   1  31
ATOM     31  C   UNL A   1      34.318  31.568  28.091  1.00  0.00     0.188 C 
BRANCH  31  32
ATOM     32  O   UNL A   1      34.927  32.721  27.540  1.00  0.00    -0.376 OA
BRANCH  32  33
ATOM     33  C   UNL A   1      35.955  33.457  28.173  1.00  0.00     0.202 C 
BRANCH  33  34
ATOM     34  C   UNL A   1      35.781  33.999  29.584  1.00  0.00     0.261 C 
BRANCH  34  35
ATOM     35  O   UNL A   1      36.974  34.085  30.321  1.00  0.00    -0.460 OA
BRANCH  35  36
ATOM     36  C   UNL A   1      36.894  33.805  31.636  1.00  0.00     0.338 C 
ATOM     37  O   UNL A   1      36.214  34.368  32.479  1.00  0.00    -0.246 OA
BRANCH  36  38
ATOM     38  C   UNL A   1      37.744  32.632  31.845  1.00  0.00     0.060 A 
ATOM     39  C   UNL A   1      38.691  32.673  32.869  1.00  0.00     0.016 A 
ATOM     40  C   UNL A   1      37.705  31.600  30.893  1.00  0.00     0.016 A 
ATOM     41  C   UNL A   1      39.766  31.822  32.775  1.00  0.00     0.010 A 
ATOM     42  C   UNL A   1      38.787  30.783  30.779  1.00  0.00     0.010 A 
ATOM     43  C   UNL A   1      39.843  30.987  31.659  1.00  0.00    -0.014 A 
BRANCH  43  44
ATOM     44  C   UNL A   1      41.084  30.322  31.363  1.00  0.00     0.031 A 
ATOM     45  C   UNL A   1      42.012  31.159  30.590  1.00  0.00     0.074 A 
ATOM     46  C   UNL A   1      41.353  29.121  31.908  1.00  0.00     0.049 A 
ATOM     47  N   UNL A   1      42.340  31.009  29.353  1.00  0.00    -0.248 NA
ATOM     48  C   UNL A   1      42.452  32.436  31.177  1.00  0.00     0.031 C 
ATOM     49  C   UNL A   1      40.564  28.389  32.906  1.00  0.00     0.029 A 
ATOM     50  N   UNL A   1      42.463  28.354  31.779  1.00  0.00    -0.354 N 
ATOM     51  C   UNL A   1      43.260  32.017  29.105  1.00  0.00     0.074 A 
ATOM     52  C   UNL A   1      43.062  32.997  30.134  1.00  0.00     0.031 C 
ATOM     53  C   UNL A   1      41.333  27.421  33.454  1.00  0.00     0.029 A 
ATOM     54  C   UNL A   1      42.621  27.399  32.777  1.00  0.00     0.049 A 
ATOM     55  H   UNL A   1      43.104  28.464  31.039  1.00  0.00     0.167 HD
ATOM     56  C   UNL A   1      44.317  31.796  28.279  1.00  0.00     0.034 A 
ATOM     57  C   UNL A   1      43.762  26.719  33.074  1.00  0.00     0.034 A 
ATOM     58  C   UNL A   1      44.093  30.621  27.460  1.00  0.00     0.049 A 
ATOM     59  C   UNL A   1      44.633  26.795  31.868  1.00  0.00     0.074 A 
ATOM     60  C   UNL A   1      43.091  30.241  26.586  1.00  0.00     0.029 A 
ATOM     61  N   UNL A   1      44.756  29.458  27.794  1.00  0.00    -0.354 N 
ATOM     62  N   UNL A   1      44.329  26.225  30.733  1.00  0.00    -0.248 NA
ATOM     63  C   UNL A   1      45.557  27.917  31.757  1.00  0.00     0.031 C 
ATOM     64  C   UNL A   1      42.895  28.850  26.828  1.00  0.00     0.029 A 
ATOM     65  C   UNL A   1      43.845  28.427  27.761  1.00  0.00     0.049 A 
ATOM     66  H   UNL A   1      45.711  29.380  28.015  1.00  0.00     0.167 HD
ATOM     67  C   UNL A   1      44.635  27.167  29.761  1.00  0.00     0.074 A 
ATOM     68  C   UNL A   1      45.489  28.141  30.439  1.00  0.00     0.031 C 
ATOM     69  C   UNL A   1      43.924  27.238  28.594  1.00  0.00     0.034 A 
BRANCH  56  70
ATOM     70  C   UNL A   1      45.690  32.393  28.487  1.00  0.00     0.023 A 
ATOM     71  C   UNL A   1      46.441  31.883  29.558  1.00  0.00     0.031 A 
ATOM     72  C   UNL A   1      46.187  33.582  27.901  1.00  0.00     0.131 A 
ATOM     73  C   UNL A   1      47.543  32.590  30.067  1.00  0.00     0.055 A 
ATOM     74  C   UNL A   1      47.328  34.241  28.363  1.00  0.00     0.041 A 
ATOM     75  F   UNL A   1      45.560  34.235  26.917  1.00  0.00    -0.206 F 
ATOM     76  C   UNL A   1      47.995  33.765  29.476  1.00  0.00     0.022 A 
BRANCH  73  77
ATOM     77  S   UNL A   1      48.256  32.034  31.632  1.00  0.00     0.124 S 
ATOM     78  O   UNL A   1      49.600  32.596  31.556  1.00  0.00    -0.237 OA
ATOM     79  O   UNL A   1      47.354  32.643  32.603  1.00  0.00    -0.237 OA
ATOM     80  O   UNL A   1      48.181  30.577  31.536  1.00  0.00    -0.744 OA
ENDBRANCH  73  77
ENDBRANCH  56  70
BRANCH  57  81
ATOM     81  C   UNL A   1      44.247  26.320  34.429  1.00  0.00     0.023 A 
ATOM     82  C   UNL A   1      44.582  24.990  34.763  1.00  0.00     0.031 A 
ATOM     83  C   UNL A   1      44.608  27.312  35.371  1.00  0.00     0.131 A 
ATOM     84  C   UNL A   1      45.242  24.703  35.984  1.00  0.00     0.055 A 
ATOM     85  C   UNL A   1      45.248  27.023  36.577  1.00  0.00     0.041 A 
ATOM     86  F   UNL A   1      44.431  28.617  35.115  1.00  0.00    -0.206 F 
ATOM     87  C   UNL A   1      45.578  25.714  36.885  1.00  0.00     0.022 A 
BRANCH  84  88
ATOM     88  S   UNL A   1      45.771  23.003  36.380  1.00  0.00     0.124 S 
ATOM     89  O   UNL A   1      47.137  22.976  35.871  1.00  0.00    -0.237 OA
ATOM     90  O   UNL A   1      45.617  22.955  37.829  1.00  0.00    -0.237 OA
ATOM     91  O   UNL A   1      44.823  22.169  35.639  1.00  0.00    -0.744 OA
ENDBRANCH  84  88
ENDBRANCH  57  81
BRANCH  69  92
ATOM     92  C   UNL A   1      42.990  26.089  28.248  1.00  0.00     0.023 A 
ATOM     93  C   UNL A   1      43.393  24.853  27.689  1.00  0.00     0.031 A 
ATOM     94  C   UNL A   1      41.635  26.225  28.604  1.00  0.00     0.131 A 
ATOM     95  C   UNL A   1      42.450  23.824  27.487  1.00  0.00     0.055 A 
ATOM     96  C   UNL A   1      40.711  25.196  28.427  1.00  0.00     0.041 A 
ATOM     97  F   UNL A   1      41.189  27.361  29.167  1.00  0.00    -0.206 F 
ATOM     98  C   UNL A   1      41.113  23.994  27.858  1.00  0.00     0.022 A 
BRANCH  95  99
ATOM     99  S   UNL A   1      42.936  22.252  26.703  1.00  0.00     0.124 S 
ATOM    100  O   UNL A   1      42.414  21.237  27.611  1.00  0.00    -0.237 OA
ATOM    101  O   UNL A   1      42.284  22.338  25.398  1.00  0.00    -0.237 OA
ATOM    102  O   UNL A   1      44.397  22.335  26.658  1.00  0.00    -0.744 OA
ENDBRANCH  95  99
ENDBRANCH  69  92
ENDBRANCH  43  44
ENDBRANCH  36  38
ENDBRANCH  35  36
ENDBRANCH  34  35
ENDBRANCH  33  34
ENDBRANCH  32  33
ENDBRANCH  31  32
ENDBRANCH   1  31
TORSDOF 25
ENDMDL
