MODEL 1
REMARK VINA RESULT:     -10.4      0.000      0.000
REMARK SMILES C[NH2+][C@@]1(C(=O)OCCOCCOCCOC(=O)c2ccc(-c3c4nc(c(-c5cc(S(=O)(=O)[O-])ccc5F)c5ccc([nH]5)c(-c5cc(S(=O)(=O)[O-])ccc5F)c5nc(c(-c6cc(S(=O)(=O)[O-])ccc6F)c6ccc3[nH]6)C=C5)C=C4)cc2)CC[C@H](Sc2ccc(C)c(C)c2)C1
REMARK SMILES IDX 11 1 10 2 9 3 8 4 7 5 6 6 4 7 5 8 3 9 81 10 93 11 82 12
REMARK SMILES IDX 83 13 2 14 1 15 84 18 85 19 86 20 92 21 87 22 90 23 88 24
REMARK SMILES IDX 91 25 89 26 12 27 13 28 14 29 15 30 16 31 17 32 18 33 19 34
REMARK SMILES IDX 80 35 20 36 79 37 21 38 22 39 23 40 73 41 24 42 78 43 72 44
REMARK SMILES IDX 74 45 25 46 77 47 71 48 70 49 26 51 58 52 38 53 57 54 39 55
REMARK SMILES IDX 42 56 56 57 75 58 40 59 41 60 55 62 76 63 43 64 27 65 28 66
REMARK SMILES IDX 36 67 29 68 35 69 37 70 34 71 30 72 31 73 32 74 33 75 59 76
REMARK SMILES IDX 60 77 68 78 61 79 67 80 69 81 66 82 62 83 63 84 64 85 65 86
REMARK SMILES IDX 44 87 45 88 53 89 46 90 52 91 54 92 51 93 47 94 48 95 49 96
REMARK SMILES IDX 50 97
REMARK H PARENT 2 16 2 17 74 50 42 61
REMARK Flexibility Score: inf
ROOT
ATOM      1  C   UNL A   1      35.079  22.169  25.493  1.00  0.00     0.188 C 
ENDROOT
BRANCH   1   2
ATOM      2  C   UNL A   1      34.623  22.016  24.037  1.00  0.00     0.188 C 
BRANCH   2   3
ATOM      3  O   UNL A   1      33.215  22.008  23.813  1.00  0.00    -0.376 OA
BRANCH   3   4
ATOM      4  C   UNL A   1      32.738  22.809  22.729  1.00  0.00     0.202 C 
BRANCH   4   5
ATOM      5  C   UNL A   1      33.490  24.117  22.427  1.00  0.00     0.261 C 
BRANCH   5   6
ATOM      6  O   UNL A   1      32.877  25.309  22.973  1.00  0.00    -0.459 OA
BRANCH   6   7
ATOM      7  C   UNL A   1      32.904  26.406  22.172  1.00  0.00     0.368 C 
ATOM      8  O   UNL A   1      33.537  26.453  21.117  1.00  0.00    -0.245 OA
BRANCH   7   9
ATOM      9  C   UNL A   1      32.062  27.626  22.683  1.00  0.00     0.195 C 
ATOM     10  C   UNL A   1      32.958  28.855  22.468  1.00  0.00     0.082 C 
ATOM     11  C   UNL A   1      31.795  27.772  24.195  1.00  0.00     0.096 C 
ATOM     12  C   UNL A   1      33.947  28.744  23.641  1.00  0.00     0.022 C 
ATOM     13  C   UNL A   1      33.096  28.285  24.833  1.00  0.00     0.059 C 
BRANCH   9  14
ATOM     14  N   UNL A   1      30.724  27.682  22.039  1.00  0.00    -0.335 N 
ATOM     15  C   UNL A   1      29.818  28.719  22.509  1.00  0.00     0.331 C 
ATOM     16  H   UNL A   1      30.867  27.824  21.040  1.00  0.00     0.347 HD
ATOM     17  H   UNL A   1      30.273  26.800  22.283  1.00  0.00     0.347 HD
ENDBRANCH   9  14
BRANCH  13  18
ATOM     18  S   UNL A   1      33.695  26.905  25.866  1.00  0.00    -0.122 SA
BRANCH  18  19
ATOM     19  C   UNL A   1      32.352  25.783  26.108  1.00  0.00     0.008 A 
ATOM     20  C   UNL A   1      31.000  26.064  25.976  1.00  0.00     0.015 A 
ATOM     21  C   UNL A   1      32.738  24.493  26.501  1.00  0.00     0.018 A 
ATOM     22  C   UNL A   1      30.050  25.090  26.300  1.00  0.00     0.005 A 
ATOM     23  C   UNL A   1      31.803  23.498  26.812  1.00  0.00    -0.047 A 
ATOM     24  C   UNL A   1      30.436  23.807  26.730  1.00  0.00    -0.048 A 
ATOM     25  C   UNL A   1      32.310  22.149  27.236  1.00  0.00     0.044 C 
ATOM     26  C   UNL A   1      29.355  22.838  27.112  1.00  0.00     0.044 C 
ENDBRANCH  18  19
ENDBRANCH  13  18
ENDBRANCH   7   9
ENDBRANCH   6   7
ENDBRANCH   5   6
ENDBRANCH   4   5
ENDBRANCH   3   4
ENDBRANCH   2   3
ENDBRANCH   1   2
BRANCH   1  27
ATOM     27  O   UNL A   1      35.928  21.127  25.944  1.00  0.00    -0.376 OA
BRANCH  27  28
ATOM     28  C   UNL A   1      36.369  20.147  25.013  1.00  0.00     0.202 C 
BRANCH  28  29
ATOM     29  C   UNL A   1      37.862  19.760  25.075  1.00  0.00     0.261 C 
BRANCH  29  30
ATOM     30  O   UNL A   1      38.799  20.837  25.278  1.00  0.00    -0.460 OA
BRANCH  30  31
ATOM     31  C   UNL A   1      39.737  20.677  26.245  1.00  0.00     0.338 C 
ATOM     32  O   UNL A   1      40.325  19.641  26.511  1.00  0.00    -0.246 OA
BRANCH  31  33
ATOM     33  C   UNL A   1      40.137  22.026  26.731  1.00  0.00     0.060 A 
ATOM     34  C   UNL A   1      39.410  23.139  26.279  1.00  0.00     0.016 A 
ATOM     35  C   UNL A   1      41.142  22.200  27.689  1.00  0.00     0.016 A 
ATOM     36  C   UNL A   1      39.720  24.424  26.738  1.00  0.00     0.010 A 
ATOM     37  C   UNL A   1      41.460  23.488  28.138  1.00  0.00     0.010 A 
ATOM     38  C   UNL A   1      40.777  24.614  27.637  1.00  0.00    -0.014 A 
BRANCH  38  39
ATOM     39  C   UNL A   1      41.326  25.978  27.876  1.00  0.00     0.031 A 
ATOM     40  C   UNL A   1      42.727  26.262  27.396  1.00  0.00     0.074 A 
ATOM     41  C   UNL A   1      40.620  26.949  28.484  1.00  0.00     0.049 A 
ATOM     42  N   UNL A   1      43.466  27.329  27.553  1.00  0.00    -0.248 NA
ATOM     43  C   UNL A   1      43.380  25.182  26.639  1.00  0.00     0.031 C 
ATOM     44  C   UNL A   1      39.238  26.832  28.947  1.00  0.00     0.029 A 
ATOM     45  N   UNL A   1      40.980  28.232  28.827  1.00  0.00    -0.354 N 
ATOM     46  C   UNL A   1      44.675  27.046  26.924  1.00  0.00     0.074 A 
ATOM     47  C   UNL A   1      44.581  25.693  26.419  1.00  0.00     0.031 C 
ATOM     48  C   UNL A   1      38.874  27.990  29.526  1.00  0.00     0.029 A 
ATOM     49  C   UNL A   1      40.005  28.919  29.516  1.00  0.00     0.049 A 
ATOM     50  H   UNL A   1      41.854  28.624  28.601  1.00  0.00     0.167 HD
ATOM     51  C   UNL A   1      45.762  27.842  26.772  1.00  0.00     0.034 A 
ATOM     52  C   UNL A   1      40.034  30.140  30.095  1.00  0.00     0.034 A 
ATOM     53  C   UNL A   1      45.854  29.185  27.291  1.00  0.00     0.049 A 
ATOM     54  C   UNL A   1      41.296  30.971  30.007  1.00  0.00     0.074 A 
ATOM     55  C   UNL A   1      46.907  30.077  27.185  1.00  0.00     0.029 A 
ATOM     56  N   UNL A   1      44.865  29.824  28.026  1.00  0.00    -0.354 N 
ATOM     57  N   UNL A   1      42.433  30.694  29.408  1.00  0.00    -0.248 NA
ATOM     58  C   UNL A   1      41.276  32.284  30.670  1.00  0.00     0.031 C 
ATOM     59  C   UNL A   1      46.588  31.221  27.923  1.00  0.00     0.029 A 
ATOM     60  C   UNL A   1      45.299  31.084  28.412  1.00  0.00     0.049 A 
ATOM     61  H   UNL A   1      43.985  29.440  28.242  1.00  0.00     0.167 HD
ATOM     62  C   UNL A   1      43.245  31.814  29.592  1.00  0.00     0.074 A 
ATOM     63  C   UNL A   1      42.465  32.773  30.346  1.00  0.00     0.031 C 
ATOM     64  C   UNL A   1      44.517  32.034  29.170  1.00  0.00     0.034 A 
BRANCH  51  65
ATOM     65  C   UNL A   1      46.958  27.250  26.064  1.00  0.00     0.023 A 
ATOM     66  C   UNL A   1      47.966  26.559  26.759  1.00  0.00     0.031 A 
ATOM     67  C   UNL A   1      47.107  27.411  24.674  1.00  0.00     0.131 A 
ATOM     68  C   UNL A   1      49.111  26.121  26.077  1.00  0.00     0.055 A 
ATOM     69  C   UNL A   1      48.208  26.897  23.988  1.00  0.00     0.041 A 
ATOM     70  F   UNL A   1      46.191  28.085  23.962  1.00  0.00    -0.206 F 
ATOM     71  C   UNL A   1      49.226  26.260  24.692  1.00  0.00     0.022 A 
BRANCH  68  72
ATOM     72  S   UNL A   1      50.513  25.502  27.046  1.00  0.00     0.124 S 
ATOM     73  O   UNL A   1      51.486  25.200  25.999  1.00  0.00    -0.237 OA
ATOM     74  O   UNL A   1      50.829  26.638  27.905  1.00  0.00    -0.237 OA
ATOM     75  O   UNL A   1      49.966  24.334  27.733  1.00  0.00    -0.744 OA
ENDBRANCH  68  72
ENDBRANCH  51  65
BRANCH  52  76
ATOM     76  C   UNL A   1      38.856  30.648  30.863  1.00  0.00     0.023 A 
ATOM     77  C   UNL A   1      37.896  31.480  30.262  1.00  0.00     0.031 A 
ATOM     78  C   UNL A   1      38.717  30.372  32.235  1.00  0.00     0.131 A 
ATOM     79  C   UNL A   1      36.872  32.045  31.040  1.00  0.00     0.055 A 
ATOM     80  C   UNL A   1      37.663  30.888  32.991  1.00  0.00     0.041 A 
ATOM     81  F   UNL A   1      39.612  29.594  32.865  1.00  0.00    -0.206 F 
ATOM     82  C   UNL A   1      36.739  31.742  32.396  1.00  0.00     0.022 A 
BRANCH  79  83
ATOM     83  S   UNL A   1      35.767  33.264  30.273  1.00  0.00     0.124 S 
ATOM     84  O   UNL A   1      34.680  32.419  29.795  1.00  0.00    -0.237 OA
ATOM     85  O   UNL A   1      35.454  34.138  31.398  1.00  0.00    -0.237 OA
ATOM     86  O   UNL A   1      36.596  33.867  29.231  1.00  0.00    -0.744 OA
ENDBRANCH  79  83
ENDBRANCH  52  76
BRANCH  64  87
ATOM     87  C   UNL A   1      45.127  33.387  29.460  1.00  0.00     0.023 A 
ATOM     88  C   UNL A   1      45.002  34.470  28.571  1.00  0.00     0.031 A 
ATOM     89  C   UNL A   1      45.846  33.594  30.652  1.00  0.00     0.131 A 
ATOM     90  C   UNL A   1      45.632  35.691  28.862  1.00  0.00     0.055 A 
ATOM     91  C   UNL A   1      46.414  34.830  30.966  1.00  0.00     0.041 A 
ATOM     92  F   UNL A   1      46.002  32.597  31.538  1.00  0.00    -0.206 F 
ATOM     93  C   UNL A   1      46.321  35.883  30.063  1.00  0.00     0.022 A 
BRANCH  90  94
ATOM     94  S   UNL A   1      45.624  37.000  27.606  1.00  0.00     0.124 S 
ATOM     95  O   UNL A   1      45.847  38.196  28.412  1.00  0.00    -0.237 OA
ATOM     96  O   UNL A   1      46.725  36.604  26.734  1.00  0.00    -0.237 OA
ATOM     97  O   UNL A   1      44.294  36.895  27.009  1.00  0.00    -0.744 OA
ENDBRANCH  90  94
ENDBRANCH  64  87
ENDBRANCH  38  39
ENDBRANCH  31  33
ENDBRANCH  30  31
ENDBRANCH  29  30
ENDBRANCH  28  29
ENDBRANCH  27  28
ENDBRANCH   1  27
TORSDOF 23
ENDMDL
MODEL 2
REMARK VINA RESULT:     -10.2      5.345      9.090
REMARK SMILES C[NH2+][C@@]1(C(=O)OCCOCCOCCOC(=O)c2ccc(-c3c4nc(c(-c5cc(S(=O)(=O)[O-])ccc5F)c5ccc([nH]5)c(-c5cc(S(=O)(=O)[O-])ccc5F)c5nc(c(-c6cc(S(=O)(=O)[O-])ccc6F)c6ccc3[nH]6)C=C5)C=C4)cc2)CC[C@H](Sc2ccc(C)c(C)c2)C1
REMARK SMILES IDX 11 1 10 2 9 3 8 4 7 5 6 6 4 7 5 8 3 9 81 10 93 11 82 12
REMARK SMILES IDX 83 13 2 14 1 15 84 18 85 19 86 20 92 21 87 22 90 23 88 24
REMARK SMILES IDX 91 25 89 26 12 27 13 28 14 29 15 30 16 31 17 32 18 33 19 34
REMARK SMILES IDX 80 35 20 36 79 37 21 38 22 39 23 40 73 41 24 42 78 43 72 44
REMARK SMILES IDX 74 45 25 46 77 47 71 48 70 49 26 51 58 52 38 53 57 54 39 55
REMARK SMILES IDX 42 56 56 57 75 58 40 59 41 60 55 62 76 63 43 64 27 65 28 66
REMARK SMILES IDX 36 67 29 68 35 69 37 70 34 71 30 72 31 73 32 74 33 75 59 76
REMARK SMILES IDX 60 77 68 78 61 79 67 80 69 81 66 82 62 83 63 84 64 85 65 86
REMARK SMILES IDX 44 87 45 88 53 89 46 90 52 91 54 92 51 93 47 94 48 95 49 96
REMARK SMILES IDX 50 97
REMARK H PARENT 2 16 2 17 74 50 42 61
REMARK Flexibility Score: inf
ROOT
ATOM      1  C   UNL A   1      31.827  30.169  25.240  1.00  0.00     0.188 C 
ENDROOT
BRANCH   1   2
ATOM      2  C   UNL A   1      32.806  29.036  24.910  1.00  0.00     0.188 C 
BRANCH   2   3
ATOM      3  O   UNL A   1      32.721  27.869  25.724  1.00  0.00    -0.376 OA
BRANCH   3   4
ATOM      4  C   UNL A   1      33.927  27.121  25.893  1.00  0.00     0.202 C 
BRANCH   4   5
ATOM      5  C   UNL A   1      34.042  25.779  25.147  1.00  0.00     0.261 C 
BRANCH   5   6
ATOM      6  O   UNL A   1      33.552  24.633  25.882  1.00  0.00    -0.459 OA
BRANCH   6   7
ATOM      7  C   UNL A   1      32.951  23.668  25.139  1.00  0.00     0.368 C 
ATOM      8  O   UNL A   1      33.131  23.543  23.927  1.00  0.00    -0.245 OA
BRANCH   7   9
ATOM      9  C   UNL A   1      32.003  22.706  25.934  1.00  0.00     0.195 C 
ATOM     10  C   UNL A   1      32.638  22.570  27.326  1.00  0.00     0.082 C 
ATOM     11  C   UNL A   1      31.944  21.216  25.539  1.00  0.00     0.096 C 
ATOM     12  C   UNL A   1      33.796  21.593  27.060  1.00  0.00     0.022 C 
ATOM     13  C   UNL A   1      33.222  20.556  26.084  1.00  0.00     0.059 C 
BRANCH   9  14
ATOM     14  N   UNL A   1      30.593  23.175  25.910  1.00  0.00    -0.335 N 
ATOM     15  C   UNL A   1      29.700  22.607  26.909  1.00  0.00     0.331 C 
ATOM     16  H   UNL A   1      30.602  24.186  26.040  1.00  0.00     0.347 HD
ATOM     17  H   UNL A   1      30.223  22.865  25.011  1.00  0.00     0.347 HD
ENDBRANCH   9  14
BRANCH  13  18
ATOM     18  S   UNL A   1      34.191  20.105  24.605  1.00  0.00    -0.122 SA
BRANCH  18  19
ATOM     19  C   UNL A   1      35.882  20.512  24.917  1.00  0.00     0.008 A 
ATOM     20  C   UNL A   1      36.957  19.637  24.938  1.00  0.00     0.015 A 
ATOM     21  C   UNL A   1      36.110  21.868  25.194  1.00  0.00     0.018 A 
ATOM     22  C   UNL A   1      38.226  20.100  25.300  1.00  0.00     0.005 A 
ATOM     23  C   UNL A   1      37.376  22.356  25.541  1.00  0.00    -0.047 A 
ATOM     24  C   UNL A   1      38.449  21.453  25.615  1.00  0.00    -0.048 A 
ATOM     25  C   UNL A   1      37.522  23.822  25.834  1.00  0.00     0.044 C 
ATOM     26  C   UNL A   1      39.828  21.858  26.048  1.00  0.00     0.044 C 
ENDBRANCH  18  19
ENDBRANCH  13  18
ENDBRANCH   7   9
ENDBRANCH   6   7
ENDBRANCH   5   6
ENDBRANCH   4   5
ENDBRANCH   3   4
ENDBRANCH   2   3
ENDBRANCH   1   2
BRANCH   1  27
ATOM     27  O   UNL A   1      31.745  30.477  26.621  1.00  0.00    -0.376 OA
BRANCH  27  28
ATOM     28  C   UNL A   1      32.788  31.238  27.219  1.00  0.00     0.202 C 
BRANCH  28  29
ATOM     29  C   UNL A   1      32.536  32.753  27.370  1.00  0.00     0.261 C 
BRANCH  29  30
ATOM     30  O   UNL A   1      33.665  33.556  27.773  1.00  0.00    -0.460 OA
BRANCH  30  31
ATOM     31  C   UNL A   1      33.589  34.185  28.973  1.00  0.00     0.338 C 
ATOM     32  O   UNL A   1      32.632  34.811  29.396  1.00  0.00    -0.246 OA
BRANCH  31  33
ATOM     33  C   UNL A   1      34.747  33.747  29.800  1.00  0.00     0.060 A 
ATOM     34  C   UNL A   1      36.027  34.202  29.447  1.00  0.00     0.016 A 
ATOM     35  C   UNL A   1      34.581  32.984  30.961  1.00  0.00     0.016 A 
ATOM     36  C   UNL A   1      37.143  33.852  30.216  1.00  0.00     0.010 A 
ATOM     37  C   UNL A   1      35.700  32.625  31.723  1.00  0.00     0.010 A 
ATOM     38  C   UNL A   1      36.993  33.024  31.335  1.00  0.00    -0.014 A 
BRANCH  38  39
ATOM     39  C   UNL A   1      38.183  32.382  31.960  1.00  0.00     0.031 A 
ATOM     40  C   UNL A   1      38.835  31.243  31.217  1.00  0.00     0.074 A 
ATOM     41  C   UNL A   1      38.692  32.786  33.139  1.00  0.00     0.049 A 
ATOM     42  N   UNL A   1      39.821  30.463  31.576  1.00  0.00    -0.248 NA
ATOM     43  C   UNL A   1      38.287  30.946  29.884  1.00  0.00     0.031 C 
ATOM     44  C   UNL A   1      38.199  33.907  33.937  1.00  0.00     0.029 A 
ATOM     45  N   UNL A   1      39.739  32.284  33.878  1.00  0.00    -0.354 N 
ATOM     46  C   UNL A   1      40.004  29.576  30.520  1.00  0.00     0.074 A 
ATOM     47  C   UNL A   1      39.002  29.892  29.526  1.00  0.00     0.031 C 
ATOM     48  C   UNL A   1      38.934  33.998  35.060  1.00  0.00     0.029 A 
ATOM     49  C   UNL A   1      39.922  32.919  35.086  1.00  0.00     0.049 A 
ATOM     50  H   UNL A   1      40.305  31.540  33.571  1.00  0.00     0.167 HD
ATOM     51  C   UNL A   1      40.930  28.594  30.384  1.00  0.00     0.034 A 
ATOM     52  C   UNL A   1      40.767  32.641  36.104  1.00  0.00     0.034 A 
ATOM     53  C   UNL A   1      41.917  28.276  31.386  1.00  0.00     0.049 A 
ATOM     54  C   UNL A   1      41.720  31.472  35.978  1.00  0.00     0.074 A 
ATOM     55  C   UNL A   1      42.904  27.306  31.343  1.00  0.00     0.029 A 
ATOM     56  N   UNL A   1      42.037  28.908  32.616  1.00  0.00    -0.354 N 
ATOM     57  N   UNL A   1      41.886  30.640  34.973  1.00  0.00    -0.248 NA
ATOM     58  C   UNL A   1      42.603  31.206  37.123  1.00  0.00     0.031 C 
ATOM     59  C   UNL A   1      43.563  27.297  32.575  1.00  0.00     0.029 A 
ATOM     60  C   UNL A   1      43.054  28.323  33.354  1.00  0.00     0.049 A 
ATOM     61  H   UNL A   1      41.480  29.661  32.919  1.00  0.00     0.167 HD
ATOM     62  C   UNL A   1      42.917  29.781  35.354  1.00  0.00     0.074 A 
ATOM     63  C   UNL A   1      43.342  30.202  36.673  1.00  0.00     0.031 C 
ATOM     64  C   UNL A   1      43.469  28.744  34.673  1.00  0.00     0.034 A 
BRANCH  51  65
ATOM     65  C   UNL A   1      40.870  27.758  29.127  1.00  0.00     0.023 A 
ATOM     66  C   UNL A   1      41.783  27.935  28.073  1.00  0.00     0.031 A 
ATOM     67  C   UNL A   1      39.859  26.792  28.968  1.00  0.00     0.131 A 
ATOM     68  C   UNL A   1      41.624  27.212  26.881  1.00  0.00     0.055 A 
ATOM     69  C   UNL A   1      39.759  26.016  27.813  1.00  0.00     0.041 A 
ATOM     70  F   UNL A   1      38.943  26.597  29.929  1.00  0.00    -0.206 F 
ATOM     71  C   UNL A   1      40.635  26.234  26.754  1.00  0.00     0.022 A 
BRANCH  68  72
ATOM     72  S   UNL A   1      42.631  27.676  25.446  1.00  0.00     0.124 S 
ATOM     73  O   UNL A   1      42.499  26.494  24.598  1.00  0.00    -0.237 OA
ATOM     74  O   UNL A   1      41.965  28.883  24.969  1.00  0.00    -0.237 OA
ATOM     75  O   UNL A   1      43.962  27.881  26.014  1.00  0.00    -0.744 OA
ENDBRANCH  68  72
ENDBRANCH  51  65
BRANCH  52  76
ATOM     76  C   UNL A   1      40.729  33.442  37.366  1.00  0.00     0.023 A 
ATOM     77  C   UNL A   1      39.997  33.009  38.485  1.00  0.00     0.031 A 
ATOM     78  C   UNL A   1      41.363  34.695  37.443  1.00  0.00     0.131 A 
ATOM     79  C   UNL A   1      39.876  33.842  39.610  1.00  0.00     0.055 A 
ATOM     80  C   UNL A   1      41.289  35.494  38.586  1.00  0.00     0.041 A 
ATOM     81  F   UNL A   1      42.065  35.165  36.400  1.00  0.00    -0.206 F 
ATOM     82  C   UNL A   1      40.530  35.074  39.674  1.00  0.00     0.022 A 
BRANCH  79  83
ATOM     83  S   UNL A   1      38.767  33.336  40.954  1.00  0.00     0.124 S 
ATOM     84  O   UNL A   1      37.462  33.422  40.310  1.00  0.00    -0.237 OA
ATOM     85  O   UNL A   1      39.248  31.991  41.253  1.00  0.00    -0.237 OA
ATOM     86  O   UNL A   1      39.017  34.330  41.996  1.00  0.00    -0.744 OA
ENDBRANCH  79  83
ENDBRANCH  52  76
BRANCH  64  87
ATOM     87  C   UNL A   1      44.636  28.027  35.315  1.00  0.00     0.023 A 
ATOM     88  C   UNL A   1      44.491  26.774  35.939  1.00  0.00     0.031 A 
ATOM     89  C   UNL A   1      45.917  28.610  35.298  1.00  0.00     0.131 A 
ATOM     90  C   UNL A   1      45.595  26.173  36.567  1.00  0.00     0.055 A 
ATOM     91  C   UNL A   1      47.023  27.976  35.867  1.00  0.00     0.041 A 
ATOM     92  F   UNL A   1      46.116  29.805  34.720  1.00  0.00    -0.206 F 
ATOM     93  C   UNL A   1      46.863  26.758  36.517  1.00  0.00     0.022 A 
BRANCH  90  94
ATOM     94  S   UNL A   1      45.333  24.662  37.536  1.00  0.00     0.124 S 
ATOM     95  O   UNL A   1      46.643  24.023  37.460  1.00  0.00    -0.237 OA
ATOM     96  O   UNL A   1      44.955  25.190  38.842  1.00  0.00    -0.237 OA
ATOM     97  O   UNL A   1      44.266  23.972  36.814  1.00  0.00    -0.744 OA
ENDBRANCH  90  94
ENDBRANCH  64  87
ENDBRANCH  38  39
ENDBRANCH  31  33
ENDBRANCH  30  31
ENDBRANCH  29  30
ENDBRANCH  28  29
ENDBRANCH  27  28
ENDBRANCH   1  27
TORSDOF 23
ENDMDL
MODEL 3
REMARK VINA RESULT:     -10.1      4.588      6.864
REMARK SMILES C[NH2+][C@@]1(C(=O)OCCOCCOCCOC(=O)c2ccc(-c3c4nc(c(-c5cc(S(=O)(=O)[O-])ccc5F)c5ccc([nH]5)c(-c5cc(S(=O)(=O)[O-])ccc5F)c5nc(c(-c6cc(S(=O)(=O)[O-])ccc6F)c6ccc3[nH]6)C=C5)C=C4)cc2)CC[C@H](Sc2ccc(C)c(C)c2)C1
REMARK SMILES IDX 11 1 10 2 9 3 8 4 7 5 6 6 4 7 5 8 3 9 81 10 93 11 82 12
REMARK SMILES IDX 83 13 2 14 1 15 84 18 85 19 86 20 92 21 87 22 90 23 88 24
REMARK SMILES IDX 91 25 89 26 12 27 13 28 14 29 15 30 16 31 17 32 18 33 19 34
REMARK SMILES IDX 80 35 20 36 79 37 21 38 22 39 23 40 73 41 24 42 78 43 72 44
REMARK SMILES IDX 74 45 25 46 77 47 71 48 70 49 26 51 58 52 38 53 57 54 39 55
REMARK SMILES IDX 42 56 56 57 75 58 40 59 41 60 55 62 76 63 43 64 27 65 28 66
REMARK SMILES IDX 36 67 29 68 35 69 37 70 34 71 30 72 31 73 32 74 33 75 59 76
REMARK SMILES IDX 60 77 68 78 61 79 67 80 69 81 66 82 62 83 63 84 64 85 65 86
REMARK SMILES IDX 44 87 45 88 53 89 46 90 52 91 54 92 51 93 47 94 48 95 49 96
REMARK SMILES IDX 50 97
REMARK H PARENT 2 16 2 17 74 50 42 61
REMARK Flexibility Score: inf
ROOT
ATOM      1  C   UNL A   1      39.864  21.134  26.845  1.00  0.00     0.188 C 
ENDROOT
BRANCH   1   2
ATOM      2  C   UNL A   1      39.616  20.082  25.758  1.00  0.00     0.188 C 
BRANCH   2   3
ATOM      3  O   UNL A   1      38.409  20.215  25.012  1.00  0.00    -0.376 OA
BRANCH   3   4
ATOM      4  C   UNL A   1      37.794  21.506  25.020  1.00  0.00     0.202 C 
BRANCH   4   5
ATOM      5  C   UNL A   1      36.345  21.608  24.511  1.00  0.00     0.261 C 
BRANCH   5   6
ATOM      6  O   UNL A   1      35.430  20.648  25.092  1.00  0.00    -0.459 OA
BRANCH   6   7
ATOM      7  C   UNL A   1      34.430  21.171  25.849  1.00  0.00     0.368 C 
ATOM      8  O   UNL A   1      34.633  21.860  26.848  1.00  0.00    -0.245 OA
BRANCH   7   9
ATOM      9  C   UNL A   1      32.979  20.838  25.359  1.00  0.00     0.195 C 
ATOM     10  C   UNL A   1      33.054  20.861  23.824  1.00  0.00     0.082 C 
ATOM     11  C   UNL A   1      31.859  21.877  25.571  1.00  0.00     0.096 C 
ATOM     12  C   UNL A   1      33.064  22.369  23.523  1.00  0.00     0.022 C 
ATOM     13  C   UNL A   1      32.062  22.977  24.515  1.00  0.00     0.059 C 
BRANCH   9  14
ATOM     14  N   UNL A   1      32.467  19.580  25.962  1.00  0.00    -0.335 N 
ATOM     15  C   UNL A   1      32.759  18.348  25.246  1.00  0.00     0.331 C 
ATOM     16  H   UNL A   1      32.868  19.499  26.895  1.00  0.00     0.347 HD
ATOM     17  H   UNL A   1      31.450  19.668  25.942  1.00  0.00     0.347 HD
ENDBRANCH   9  14
BRANCH  13  18
ATOM     18  S   UNL A   1      32.547  24.460  25.462  1.00  0.00    -0.122 SA
BRANCH  18  19
ATOM     19  C   UNL A   1      31.774  25.861  24.712  1.00  0.00     0.008 A 
ATOM     20  C   UNL A   1      32.389  27.044  24.330  1.00  0.00     0.015 A 
ATOM     21  C   UNL A   1      30.389  25.731  24.529  1.00  0.00     0.018 A 
ATOM     22  C   UNL A   1      31.620  28.103  23.839  1.00  0.00     0.005 A 
ATOM     23  C   UNL A   1      29.603  26.773  24.022  1.00  0.00    -0.047 A 
ATOM     24  C   UNL A   1      30.226  27.987  23.690  1.00  0.00    -0.048 A 
ATOM     25  C   UNL A   1      28.126  26.546  23.873  1.00  0.00     0.044 C 
ATOM     26  C   UNL A   1      29.466  29.189  23.209  1.00  0.00     0.044 C 
ENDBRANCH  18  19
ENDBRANCH  13  18
ENDBRANCH   7   9
ENDBRANCH   6   7
ENDBRANCH   5   6
ENDBRANCH   4   5
ENDBRANCH   3   4
ENDBRANCH   2   3
ENDBRANCH   1   2
BRANCH   1  27
ATOM     27  O   UNL A   1      41.213  21.557  26.942  1.00  0.00    -0.376 OA
BRANCH  27  28
ATOM     28  C   UNL A   1      42.248  20.605  26.730  1.00  0.00     0.202 C 
BRANCH  28  29
ATOM     29  C   UNL A   1      43.347  20.995  25.718  1.00  0.00     0.261 C 
BRANCH  29  30
ATOM     30  O   UNL A   1      44.039  22.236  25.965  1.00  0.00    -0.460 OA
BRANCH  30  31
ATOM     31  C   UNL A   1      43.719  23.297  25.183  1.00  0.00     0.338 C 
ATOM     32  O   UNL A   1      43.662  23.301  23.964  1.00  0.00    -0.246 OA
BRANCH  31  33
ATOM     33  C   UNL A   1      43.173  24.371  26.059  1.00  0.00     0.060 A 
ATOM     34  C   UNL A   1      44.019  25.432  26.417  1.00  0.00     0.016 A 
ATOM     35  C   UNL A   1      41.830  24.396  26.448  1.00  0.00     0.016 A 
ATOM     36  C   UNL A   1      43.542  26.486  27.205  1.00  0.00     0.010 A 
ATOM     37  C   UNL A   1      41.356  25.446  27.246  1.00  0.00     0.010 A 
ATOM     38  C   UNL A   1      42.218  26.479  27.662  1.00  0.00    -0.014 A 
BRANCH  38  39
ATOM     39  C   UNL A   1      41.795  27.401  28.753  1.00  0.00     0.031 A 
ATOM     40  C   UNL A   1      42.585  27.376  30.036  1.00  0.00     0.074 A 
ATOM     41  C   UNL A   1      40.756  28.247  28.626  1.00  0.00     0.049 A 
ATOM     42  N   UNL A   1      42.376  28.009  31.162  1.00  0.00    -0.248 NA
ATOM     43  C   UNL A   1      43.773  26.508  30.045  1.00  0.00     0.031 C 
ATOM     44  C   UNL A   1      39.941  28.417  27.425  1.00  0.00     0.029 A 
ATOM     45  N   UNL A   1      40.201  29.120  29.533  1.00  0.00    -0.354 N 
ATOM     46  C   UNL A   1      43.399  27.608  32.016  1.00  0.00     0.074 A 
ATOM     47  C   UNL A   1      44.203  26.649  31.289  1.00  0.00     0.031 C 
ATOM     48  C   UNL A   1      38.982  29.327  27.674  1.00  0.00     0.029 A 
ATOM     49  C   UNL A   1      39.084  29.776  29.063  1.00  0.00     0.049 A 
ATOM     50  H   UNL A   1      40.568  29.264  30.435  1.00  0.00     0.167 HD
ATOM     51  C   UNL A   1      43.653  28.009  33.286  1.00  0.00     0.034 A 
ATOM     52  C   UNL A   1      38.229  30.613  29.691  1.00  0.00     0.034 A 
ATOM     53  C   UNL A   1      42.839  28.954  34.009  1.00  0.00     0.049 A 
ATOM     54  C   UNL A   1      38.470  30.965  31.144  1.00  0.00     0.074 A 
ATOM     55  C   UNL A   1      43.015  29.433  35.296  1.00  0.00     0.029 A 
ATOM     56  N   UNL A   1      41.689  29.556  33.516  1.00  0.00    -0.354 N 
ATOM     57  N   UNL A   1      39.442  30.581  31.942  1.00  0.00    -0.248 NA
ATOM     58  C   UNL A   1      37.498  31.867  31.780  1.00  0.00     0.031 C 
ATOM     59  C   UNL A   1      41.930  30.256  35.609  1.00  0.00     0.029 A 
ATOM     60  C   UNL A   1      41.125  30.369  34.487  1.00  0.00     0.049 A 
ATOM     61  H   UNL A   1      41.327  29.423  32.610  1.00  0.00     0.167 HD
ATOM     62  C   UNL A   1      39.215  31.226  33.158  1.00  0.00     0.074 A 
ATOM     63  C   UNL A   1      38.025  32.031  32.986  1.00  0.00     0.031 C 
ATOM     64  C   UNL A   1      39.932  31.166  34.310  1.00  0.00     0.034 A 
BRANCH  51  65
ATOM     65  C   UNL A   1      44.830  27.372  33.988  1.00  0.00     0.023 A 
ATOM     66  C   UNL A   1      44.669  26.306  34.890  1.00  0.00     0.031 A 
ATOM     67  C   UNL A   1      46.131  27.865  33.775  1.00  0.00     0.131 A 
ATOM     68  C   UNL A   1      45.776  25.818  35.601  1.00  0.00     0.055 A 
ATOM     69  C   UNL A   1      47.239  27.317  34.422  1.00  0.00     0.041 A 
ATOM     70  F   UNL A   1      46.343  28.898  32.946  1.00  0.00    -0.206 F 
ATOM     71  C   UNL A   1      47.064  26.297  35.352  1.00  0.00     0.022 A 
BRANCH  68  72
ATOM     72  S   UNL A   1      45.487  24.655  36.962  1.00  0.00     0.124 S 
ATOM     73  O   UNL A   1      46.114  23.439  36.450  1.00  0.00    -0.237 OA
ATOM     74  O   UNL A   1      46.165  25.302  38.080  1.00  0.00    -0.237 OA
ATOM     75  O   UNL A   1      44.030  24.601  37.062  1.00  0.00    -0.744 OA
ENDBRANCH  68  72
ENDBRANCH  51  65
BRANCH  52  76
ATOM     76  C   UNL A   1      37.027  31.149  28.982  1.00  0.00     0.023 A 
ATOM     77  C   UNL A   1      35.992  30.301  28.554  1.00  0.00     0.031 A 
ATOM     78  C   UNL A   1      36.935  32.513  28.650  1.00  0.00     0.131 A 
ATOM     79  C   UNL A   1      34.939  30.814  27.779  1.00  0.00     0.055 A 
ATOM     80  C   UNL A   1      35.856  33.029  27.930  1.00  0.00     0.041 A 
ATOM     81  F   UNL A   1      37.901  33.368  29.021  1.00  0.00    -0.206 F 
ATOM     82  C   UNL A   1      34.856  32.174  27.478  1.00  0.00     0.022 A 
BRANCH  79  83
ATOM     83  S   UNL A   1      33.725  29.657  27.083  1.00  0.00     0.124 S 
ATOM     84  O   UNL A   1      32.686  30.566  26.613  1.00  0.00    -0.237 OA
ATOM     85  O   UNL A   1      34.506  28.985  26.050  1.00  0.00    -0.237 OA
ATOM     86  O   UNL A   1      33.357  28.822  28.224  1.00  0.00    -0.744 OA
ENDBRANCH  79  83
ENDBRANCH  52  76
BRANCH  64  87
ATOM     87  C   UNL A   1      39.483  32.040  35.460  1.00  0.00     0.023 A 
ATOM     88  C   UNL A   1      39.994  33.335  35.659  1.00  0.00     0.031 A 
ATOM     89  C   UNL A   1      38.523  31.564  36.373  1.00  0.00     0.131 A 
ATOM     90  C   UNL A   1      39.584  34.086  36.773  1.00  0.00     0.055 A 
ATOM     91  C   UNL A   1      38.070  32.342  37.440  1.00  0.00     0.041 A 
ATOM     92  F   UNL A   1      38.001  30.335  36.237  1.00  0.00    -0.206 F 
ATOM     93  C   UNL A   1      38.611  33.605  37.653  1.00  0.00     0.022 A 
BRANCH  90  94
ATOM     94  S   UNL A   1      40.409  35.665  37.114  1.00  0.00     0.124 S 
ATOM     95  O   UNL A   1      40.208  35.808  38.552  1.00  0.00    -0.237 OA
ATOM     96  O   UNL A   1      41.779  35.401  36.685  1.00  0.00    -0.237 OA
ATOM     97  O   UNL A   1      39.676  36.622  36.288  1.00  0.00    -0.744 OA
ENDBRANCH  90  94
ENDBRANCH  64  87
ENDBRANCH  38  39
ENDBRANCH  31  33
ENDBRANCH  30  31
ENDBRANCH  29  30
ENDBRANCH  28  29
ENDBRANCH  27  28
ENDBRANCH   1  27
TORSDOF 23
ENDMDL
