MODEL 1
REMARK VINA RESULT:      -9.8      0.000      0.000
REMARK SMILES C[C@](NC(=O)NCCC[NH3+])(C(=O)OCCOCCOCCOC(=O)c1ccc(-c2c3nc(c(-c4cc(S(=O)(=O)[O-])ccc4F)c4ccc([nH]4)c(-c4cc(S(=O)(=O)[O-])ccc4F)c4nc(c(-c5cc(S(=O)(=O)[O-])ccc5F)c5ccc2[nH]5)C=C4)C=C3)cc1)C(F)(F)F
REMARK SMILES IDX 17 1 16 2 15 3 14 4 13 5 11 6 12 7 2 8 1 9 88 10 89 11 90 12
REMARK SMILES IDX 91 13 3 14 4 15 5 17 6 18 7 20 8 21 9 22 10 23 18 27 19 28
REMARK SMILES IDX 20 29 21 30 22 31 23 32 24 33 25 34 26 35 87 36 27 37 86 38
REMARK SMILES IDX 28 39 29 40 30 41 80 42 31 43 85 44 79 45 81 46 32 47 84 48
REMARK SMILES IDX 78 49 77 50 33 52 65 53 45 54 64 55 46 56 49 57 63 58 82 59
REMARK SMILES IDX 47 60 48 61 62 63 83 64 50 65 34 66 35 67 43 68 36 69 42 70
REMARK SMILES IDX 44 71 41 72 37 73 38 74 39 75 40 76 66 77 67 78 75 79 68 80
REMARK SMILES IDX 74 81 76 82 73 83 69 84 70 85 71 86 72 87 51 88 52 89 60 90
REMARK SMILES IDX 53 91 59 92 61 93 58 94 54 95 55 96 56 97 57 98
REMARK H PARENT 3 16 6 19 10 24 10 25 10 26 81 51 49 62
REMARK Flexibility Score: inf
ROOT
ATOM      1  C   UNL A   1      33.039  28.827  25.420  1.00  0.00     0.188 C 
ENDROOT
BRANCH   1   2
ATOM      2  O   UNL A   1      32.561  29.108  24.121  1.00  0.00    -0.376 OA
BRANCH   2   3
ATOM      3  C   UNL A   1      31.169  29.073  23.851  1.00  0.00     0.202 C 
BRANCH   3   4
ATOM      4  C   UNL A   1      30.297  27.814  23.643  1.00  0.00     0.261 C 
BRANCH   4   5
ATOM      5  O   UNL A   1      30.647  26.596  24.316  1.00  0.00    -0.461 OA
BRANCH   5   6
ATOM      6  C   UNL A   1      31.252  25.659  23.535  1.00  0.00     0.341 C 
ATOM      7  O   UNL A   1      31.475  25.824  22.340  1.00  0.00    -0.249 OA
BRANCH   6   8
ATOM      8  C   UNL A   1      31.527  24.335  24.265  1.00  0.00     0.232 C 
ATOM      9  C   UNL A   1      31.270  23.301  23.147  1.00  0.00     0.058 C 
BRANCH   8  10
ATOM     10  C   UNL A   1      33.004  24.561  24.712  1.00  0.00     0.422 C 
ATOM     11  F   UNL A   1      33.845  23.674  24.123  1.00  0.00    -0.168 F 
ATOM     12  F   UNL A   1      33.498  25.774  24.378  1.00  0.00    -0.168 F 
ATOM     13  F   UNL A   1      33.155  24.444  26.049  1.00  0.00    -0.168 F 
ENDBRANCH   8  10
BRANCH   8  14
ATOM     14  N   UNL A   1      30.598  24.041  25.404  1.00  0.00    -0.315 N 
ATOM     15  C   UNL A   1      30.590  23.095  26.361  1.00  0.00     0.315 C 
ATOM     16  H   UNL A   1      29.841  24.667  25.463  1.00  0.00     0.166 HD
ATOM     17  O   UNL A   1      29.838  23.256  27.324  1.00  0.00    -0.249 OA
ATOM     18  N   UNL A   1      31.343  21.982  26.335  1.00  0.00    -0.338 N 
ATOM     19  H   UNL A   1      31.441  21.555  27.217  1.00  0.00     0.165 HD
BRANCH  18  20
ATOM     20  C   UNL A   1      32.044  21.284  25.272  1.00  0.00     0.123 C 
BRANCH  20  21
ATOM     21  C   UNL A   1      33.157  20.344  25.722  1.00  0.00     0.082 C 
BRANCH  21  22
ATOM     22  C   UNL A   1      34.505  21.021  25.941  1.00  0.00     0.260 C 
BRANCH  22  23
ATOM     23  N   UNL A   1      34.641  21.579  27.286  1.00  0.00    -0.358 N 
ATOM     24  H   UNL A   1      33.717  21.727  27.689  1.00  0.00     0.344 HD
ATOM     25  H   UNL A   1      35.137  22.470  27.235  1.00  0.00     0.344 HD
ATOM     26  H   UNL A   1      35.168  20.930  27.871  1.00  0.00     0.344 HD
ENDBRANCH  22  23
ENDBRANCH  21  22
ENDBRANCH  20  21
ENDBRANCH  18  20
ENDBRANCH   8  14
ENDBRANCH   6   8
ENDBRANCH   5   6
ENDBRANCH   4   5
ENDBRANCH   3   4
ENDBRANCH   2   3
ENDBRANCH   1   2
BRANCH   1  27
ATOM     27  C   UNL A   1      32.187  29.410  26.557  1.00  0.00     0.188 C 
BRANCH  27  28
ATOM     28  O   UNL A   1      32.532  30.716  26.963  1.00  0.00    -0.376 OA
BRANCH  28  29
ATOM     29  C   UNL A   1      31.647  31.784  26.648  1.00  0.00     0.202 C 
BRANCH  29  30
ATOM     30  C   UNL A   1      31.918  33.297  26.867  1.00  0.00     0.261 C 
BRANCH  30  31
ATOM     31  O   UNL A   1      32.286  33.765  28.169  1.00  0.00    -0.460 OA
BRANCH  31  32
ATOM     32  C   UNL A   1      33.398  34.536  28.257  1.00  0.00     0.338 C 
ATOM     33  O   UNL A   1      33.442  35.754  28.224  1.00  0.00    -0.246 OA
BRANCH  32  34
ATOM     34  C   UNL A   1      34.528  33.655  28.640  1.00  0.00     0.060 A 
ATOM     35  C   UNL A   1      34.252  32.445  29.296  1.00  0.00     0.016 A 
ATOM     36  C   UNL A   1      35.845  34.001  28.336  1.00  0.00     0.016 A 
ATOM     37  C   UNL A   1      35.292  31.587  29.663  1.00  0.00     0.010 A 
ATOM     38  C   UNL A   1      36.888  33.158  28.737  1.00  0.00     0.010 A 
ATOM     39  C   UNL A   1      36.621  31.960  29.425  1.00  0.00    -0.014 A 
BRANCH  39  40
ATOM     40  C   UNL A   1      37.727  31.215  30.083  1.00  0.00     0.031 A 
ATOM     41  C   UNL A   1      38.063  31.563  31.509  1.00  0.00     0.074 A 
ATOM     42  C   UNL A   1      38.409  30.242  29.451  1.00  0.00     0.049 A 
ATOM     43  N   UNL A   1      39.034  31.126  32.269  1.00  0.00    -0.248 NA
ATOM     44  C   UNL A   1      37.181  32.545  32.159  1.00  0.00     0.031 C 
ATOM     45  C   UNL A   1      38.137  29.760  28.098  1.00  0.00     0.029 A 
ATOM     46  N   UNL A   1      39.480  29.488  29.867  1.00  0.00    -0.354 N 
ATOM     47  C   UNL A   1      38.884  31.785  33.486  1.00  0.00     0.074 A 
ATOM     48  C   UNL A   1      37.754  32.677  33.346  1.00  0.00     0.031 C 
ATOM     49  C   UNL A   1      39.031  28.804  27.790  1.00  0.00     0.029 A 
ATOM     50  C   UNL A   1      39.966  28.636  28.902  1.00  0.00     0.049 A 
ATOM     51  H   UNL A   1      39.865  29.554  30.771  1.00  0.00     0.167 HD
ATOM     52  C   UNL A   1      39.620  31.654  34.617  1.00  0.00     0.034 A 
ATOM     53  C   UNL A   1      41.057  27.840  28.907  1.00  0.00     0.034 A 
ATOM     54  C   UNL A   1      40.757  30.775  34.738  1.00  0.00     0.049 A 
ATOM     55  C   UNL A   1      41.933  27.796  30.140  1.00  0.00     0.074 A 
ATOM     56  C   UNL A   1      41.570  30.566  35.839  1.00  0.00     0.029 A 
ATOM     57  N   UNL A   1      41.254  29.970  33.721  1.00  0.00    -0.354 N 
ATOM     58  N   UNL A   1      41.789  28.427  31.284  1.00  0.00    -0.248 NA
ATOM     59  C   UNL A   1      43.118  26.928  30.084  1.00  0.00     0.031 C 
ATOM     60  C   UNL A   1      42.605  29.702  35.463  1.00  0.00     0.029 A 
ATOM     61  C   UNL A   1      42.384  29.294  34.157  1.00  0.00     0.049 A 
ATOM     62  H   UNL A   1      40.862  29.891  32.821  1.00  0.00     0.167 HD
ATOM     63  C   UNL A   1      42.842  27.999  32.092  1.00  0.00     0.074 A 
ATOM     64  C   UNL A   1      43.604  27.049  31.310  1.00  0.00     0.031 C 
ATOM     65  C   UNL A   1      43.146  28.352  33.368  1.00  0.00     0.034 A 
BRANCH  52  66
ATOM     66  C   UNL A   1      39.250  32.531  35.789  1.00  0.00     0.023 A 
ATOM     67  C   UNL A   1      39.661  33.873  35.872  1.00  0.00     0.031 A 
ATOM     68  C   UNL A   1      38.501  32.005  36.858  1.00  0.00     0.131 A 
ATOM     69  C   UNL A   1      39.384  34.621  37.027  1.00  0.00     0.055 A 
ATOM     70  C   UNL A   1      38.155  32.780  37.967  1.00  0.00     0.041 A 
ATOM     71  F   UNL A   1      38.104  30.724  36.850  1.00  0.00    -0.206 F 
ATOM     72  C   UNL A   1      38.611  34.092  38.063  1.00  0.00     0.022 A 
BRANCH  69  73
ATOM     73  S   UNL A   1      40.177  36.240  37.223  1.00  0.00     0.124 S 
ATOM     74  O   UNL A   1      39.987  36.823  35.896  1.00  0.00    -0.237 OA
ATOM     75  O   UNL A   1      39.405  36.842  38.303  1.00  0.00    -0.237 OA
ATOM     76  O   UNL A   1      41.561  35.905  37.555  1.00  0.00    -0.744 OA
ENDBRANCH  69  73
ENDBRANCH  52  66
BRANCH  53  77
ATOM     77  C   UNL A   1      41.430  27.052  27.693  1.00  0.00     0.023 A 
ATOM     78  C   UNL A   1      41.247  25.660  27.641  1.00  0.00     0.031 A 
ATOM     79  C   UNL A   1      42.052  27.673  26.594  1.00  0.00     0.131 A 
ATOM     80  C   UNL A   1      41.727  24.930  26.541  1.00  0.00     0.055 A 
ATOM     81  C   UNL A   1      42.471  26.951  25.475  1.00  0.00     0.041 A 
ATOM     82  F   UNL A   1      42.266  28.999  26.593  1.00  0.00    -0.206 F 
ATOM     83  C   UNL A   1      42.322  25.568  25.450  1.00  0.00     0.022 A 
BRANCH  80  84
ATOM     84  S   UNL A   1      41.658  23.118  26.603  1.00  0.00     0.124 S 
ATOM     85  O   UNL A   1      42.572  22.750  25.529  1.00  0.00    -0.237 OA
ATOM     86  O   UNL A   1      42.118  22.842  27.959  1.00  0.00    -0.237 OA
ATOM     87  O   UNL A   1      40.249  22.823  26.352  1.00  0.00    -0.744 OA
ENDBRANCH  80  84
ENDBRANCH  53  77
BRANCH  65  88
ATOM     88  C   UNL A   1      44.321  27.661  34.022  1.00  0.00     0.023 A 
ATOM     89  C   UNL A   1      44.161  26.544  34.860  1.00  0.00     0.031 A 
ATOM     90  C   UNL A   1      45.628  28.135  33.800  1.00  0.00     0.131 A 
ATOM     91  C   UNL A   1      45.278  25.974  35.491  1.00  0.00     0.055 A 
ATOM     92  C   UNL A   1      46.743  27.522  34.375  1.00  0.00     0.041 A 
ATOM     93  F   UNL A   1      45.846  29.201  33.013  1.00  0.00    -0.206 F 
ATOM     94  C   UNL A   1      46.570  26.444  35.237  1.00  0.00     0.022 A 
BRANCH  91  95
ATOM     95  S   UNL A   1      45.017  24.675  36.729  1.00  0.00     0.124 S 
ATOM     96  O   UNL A   1      43.589  24.801  37.004  1.00  0.00    -0.237 OA
ATOM     97  O   UNL A   1      45.423  23.472  36.010  1.00  0.00    -0.237 OA
ATOM     98  O   UNL A   1      45.896  25.065  37.829  1.00  0.00    -0.744 OA
ENDBRANCH  91  95
ENDBRANCH  65  88
ENDBRANCH  39  40
ENDBRANCH  32  34
ENDBRANCH  31  32
ENDBRANCH  30  31
ENDBRANCH  29  30
ENDBRANCH  28  29
ENDBRANCH  27  28
ENDBRANCH   1  27
TORSDOF 26
ENDMDL
MODEL 2
REMARK VINA RESULT:      -9.1      1.728      7.678
REMARK SMILES C[C@](NC(=O)NCCC[NH3+])(C(=O)OCCOCCOCCOC(=O)c1ccc(-c2c3nc(c(-c4cc(S(=O)(=O)[O-])ccc4F)c4ccc([nH]4)c(-c4cc(S(=O)(=O)[O-])ccc4F)c4nc(c(-c5cc(S(=O)(=O)[O-])ccc5F)c5ccc2[nH]5)C=C4)C=C3)cc1)C(F)(F)F
REMARK SMILES IDX 17 1 16 2 15 3 14 4 13 5 11 6 12 7 2 8 1 9 88 10 89 11 90 12
REMARK SMILES IDX 91 13 3 14 4 15 5 17 6 18 7 20 8 21 9 22 10 23 18 27 19 28
REMARK SMILES IDX 20 29 21 30 22 31 23 32 24 33 25 34 26 35 87 36 27 37 86 38
REMARK SMILES IDX 28 39 29 40 30 41 80 42 31 43 85 44 79 45 81 46 32 47 84 48
REMARK SMILES IDX 78 49 77 50 33 52 65 53 45 54 64 55 46 56 49 57 63 58 82 59
REMARK SMILES IDX 47 60 48 61 62 63 83 64 50 65 34 66 35 67 43 68 36 69 42 70
REMARK SMILES IDX 44 71 41 72 37 73 38 74 39 75 40 76 66 77 67 78 75 79 68 80
REMARK SMILES IDX 74 81 76 82 73 83 69 84 70 85 71 86 72 87 51 88 52 89 60 90
REMARK SMILES IDX 53 91 59 92 61 93 58 94 54 95 55 96 56 97 57 98
REMARK H PARENT 3 16 6 19 10 24 10 25 10 26 81 51 49 62
REMARK Flexibility Score: inf
ROOT
ATOM      1  C   UNL A   1      33.125  28.743  25.630  1.00  0.00     0.188 C 
ENDROOT
BRANCH   1   2
ATOM      2  O   UNL A   1      32.304  29.136  24.551  1.00  0.00    -0.376 OA
BRANCH   2   3
ATOM      3  C   UNL A   1      30.969  28.666  24.463  1.00  0.00     0.202 C 
BRANCH   3   4
ATOM      4  C   UNL A   1      30.503  27.292  23.932  1.00  0.00     0.261 C 
BRANCH   4   5
ATOM      5  O   UNL A   1      31.360  26.152  24.083  1.00  0.00    -0.461 OA
BRANCH   5   6
ATOM      6  C   UNL A   1      30.871  25.165  24.884  1.00  0.00     0.341 C 
ATOM      7  O   UNL A   1      29.969  25.344  25.696  1.00  0.00    -0.249 OA
BRANCH   6   8
ATOM      8  C   UNL A   1      31.630  23.835  24.755  1.00  0.00     0.232 C 
ATOM      9  C   UNL A   1      30.977  22.990  25.870  1.00  0.00     0.058 C 
BRANCH   8  10
ATOM     10  C   UNL A   1      31.297  23.462  23.278  1.00  0.00     0.422 C 
ATOM     11  F   UNL A   1      31.327  22.120  23.082  1.00  0.00    -0.168 F 
ATOM     12  F   UNL A   1      30.059  23.838  22.885  1.00  0.00    -0.168 F 
ATOM     13  F   UNL A   1      32.159  24.023  22.403  1.00  0.00    -0.168 F 
ENDBRANCH   8  10
BRANCH   8  14
ATOM     14  N   UNL A   1      33.101  23.923  25.029  1.00  0.00    -0.315 N 
ATOM     15  C   UNL A   1      34.088  23.008  25.048  1.00  0.00     0.315 C 
ATOM     16  H   UNL A   1      33.407  24.835  25.238  1.00  0.00     0.166 HD
ATOM     17  O   UNL A   1      35.252  23.414  25.051  1.00  0.00    -0.249 OA
ATOM     18  N   UNL A   1      33.891  21.679  25.067  1.00  0.00    -0.338 N 
ATOM     19  H   UNL A   1      34.680  21.161  24.787  1.00  0.00     0.165 HD
BRANCH  18  20
ATOM     20  C   UNL A   1      32.750  20.851  25.415  1.00  0.00     0.123 C 
BRANCH  20  21
ATOM     21  C   UNL A   1      32.539  19.618  24.544  1.00  0.00     0.082 C 
BRANCH  21  22
ATOM     22  C   UNL A   1      33.151  18.338  25.102  1.00  0.00     0.260 C 
BRANCH  22  23
ATOM     23  N   UNL A   1      32.739  18.072  26.479  1.00  0.00    -0.358 N 
ATOM     24  H   UNL A   1      33.503  18.301  27.114  1.00  0.00     0.344 HD
ATOM     25  H   UNL A   1      32.498  17.086  26.578  1.00  0.00     0.344 HD
ATOM     26  H   UNL A   1      31.925  18.645  26.707  1.00  0.00     0.344 HD
ENDBRANCH  22  23
ENDBRANCH  21  22
ENDBRANCH  20  21
ENDBRANCH  18  20
ENDBRANCH   8  14
ENDBRANCH   6   8
ENDBRANCH   5   6
ENDBRANCH   4   5
ENDBRANCH   3   4
ENDBRANCH   2   3
ENDBRANCH   1   2
BRANCH   1  27
ATOM     27  C   UNL A   1      32.664  29.249  27.005  1.00  0.00     0.188 C 
BRANCH  27  28
ATOM     28  O   UNL A   1      32.954  30.601  27.281  1.00  0.00    -0.376 OA
BRANCH  28  29
ATOM     29  C   UNL A   1      32.012  31.594  26.894  1.00  0.00     0.202 C 
BRANCH  29  30
ATOM     30  C   UNL A   1      32.157  33.127  27.090  1.00  0.00     0.261 C 
BRANCH  30  31
ATOM     31  O   UNL A   1      32.334  33.654  28.409  1.00  0.00    -0.460 OA
BRANCH  31  32
ATOM     32  C   UNL A   1      33.329  34.558  28.585  1.00  0.00     0.338 C 
ATOM     33  O   UNL A   1      33.219  35.773  28.571  1.00  0.00    -0.246 OA
BRANCH  32  34
ATOM     34  C   UNL A   1      34.535  33.820  29.036  1.00  0.00     0.060 A 
ATOM     35  C   UNL A   1      34.373  32.691  29.851  1.00  0.00     0.016 A 
ATOM     36  C   UNL A   1      35.812  34.220  28.640  1.00  0.00     0.016 A 
ATOM     37  C   UNL A   1      35.485  31.967  30.287  1.00  0.00     0.010 A 
ATOM     38  C   UNL A   1      36.929  33.516  29.106  1.00  0.00     0.010 A 
ATOM     39  C   UNL A   1      36.775  32.402  29.953  1.00  0.00    -0.014 A 
BRANCH  39  40
ATOM     40  C   UNL A   1      37.953  31.833  30.658  1.00  0.00     0.031 A 
ATOM     41  C   UNL A   1      38.744  30.758  29.959  1.00  0.00     0.074 A 
ATOM     42  C   UNL A   1      38.333  32.261  31.876  1.00  0.00     0.049 A 
ATOM     43  N   UNL A   1      39.749  30.045  30.394  1.00  0.00    -0.248 NA
ATOM     44  C   UNL A   1      38.333  30.447  28.581  1.00  0.00     0.031 C 
ATOM     45  C   UNL A   1      37.699  33.341  32.629  1.00  0.00     0.029 A 
ATOM     46  N   UNL A   1      39.347  31.829  32.698  1.00  0.00    -0.354 N 
ATOM     47  C   UNL A   1      40.089  29.194  29.346  1.00  0.00     0.074 A 
ATOM     48  C   UNL A   1      39.156  29.457  28.272  1.00  0.00     0.031 C 
ATOM     49  C   UNL A   1      38.328  33.475  33.810  1.00  0.00     0.029 A 
ATOM     50  C   UNL A   1      39.379  32.463  33.918  1.00  0.00     0.049 A 
ATOM     51  H   UNL A   1      39.989  31.129  32.437  1.00  0.00     0.167 HD
ATOM     52  C   UNL A   1      41.090  28.282  29.283  1.00  0.00     0.034 A 
ATOM     53  C   UNL A   1      40.144  32.229  35.006  1.00  0.00     0.034 A 
ATOM     54  C   UNL A   1      42.001  28.015  30.368  1.00  0.00     0.049 A 
ATOM     55  C   UNL A   1      41.179  31.126  34.956  1.00  0.00     0.074 A 
ATOM     56  C   UNL A   1      43.051  27.113  30.409  1.00  0.00     0.029 A 
ATOM     57  N   UNL A   1      41.966  28.637  31.611  1.00  0.00    -0.354 N 
ATOM     58  N   UNL A   1      41.488  30.321  33.964  1.00  0.00    -0.248 NA
ATOM     59  C   UNL A   1      41.971  30.901  36.174  1.00  0.00     0.031 C 
ATOM     60  C   UNL A   1      43.594  27.129  31.699  1.00  0.00     0.029 A 
ATOM     61  C   UNL A   1      42.948  28.110  32.436  1.00  0.00     0.049 A 
ATOM     62  H   UNL A   1      41.335  29.347  31.868  1.00  0.00     0.167 HD
ATOM     63  C   UNL A   1      42.537  29.527  34.428  1.00  0.00     0.074 A 
ATOM     64  C   UNL A   1      42.813  29.957  35.783  1.00  0.00     0.031 C 
ATOM     65  C   UNL A   1      43.215  28.538  33.790  1.00  0.00     0.034 A 
BRANCH  52  66
ATOM     66  C   UNL A   1      41.203  27.464  28.019  1.00  0.00     0.023 A 
ATOM     67  C   UNL A   1      40.816  26.113  27.972  1.00  0.00     0.031 A 
ATOM     68  C   UNL A   1      41.740  28.036  26.852  1.00  0.00     0.131 A 
ATOM     69  C   UNL A   1      41.037  25.362  26.806  1.00  0.00     0.055 A 
ATOM     70  C   UNL A   1      41.877  27.307  25.669  1.00  0.00     0.041 A 
ATOM     71  F   UNL A   1      42.153  29.313  26.843  1.00  0.00    -0.206 F 
ATOM     72  C   UNL A   1      41.539  25.957  25.647  1.00  0.00     0.022 A 
BRANCH  69  73
ATOM     73  S   UNL A   1      40.801  23.565  26.875  1.00  0.00     0.124 S 
ATOM     74  O   UNL A   1      39.398  23.437  26.485  1.00  0.00    -0.237 OA
ATOM     75  O   UNL A   1      41.780  23.080  25.910  1.00  0.00    -0.237 OA
ATOM     76  O   UNL A   1      41.083  23.236  28.271  1.00  0.00    -0.744 OA
ENDBRANCH  69  73
ENDBRANCH  52  66
BRANCH  53  77
ATOM     77  C   UNL A   1      39.940  33.010  36.264  1.00  0.00     0.023 A 
ATOM     78  C   UNL A   1      39.152  32.509  37.313  1.00  0.00     0.031 A 
ATOM     79  C   UNL A   1      40.466  34.307  36.401  1.00  0.00     0.131 A 
ATOM     80  C   UNL A   1      38.870  33.318  38.426  1.00  0.00     0.055 A 
ATOM     81  C   UNL A   1      40.235  35.084  37.537  1.00  0.00     0.041 A 
ATOM     82  F   UNL A   1      41.215  34.844  35.424  1.00  0.00    -0.206 F 
ATOM     83  C   UNL A   1      39.420  34.595  38.554  1.00  0.00     0.022 A 
BRANCH  80  84
ATOM     84  S   UNL A   1      37.684  32.716  39.661  1.00  0.00     0.124 S 
ATOM     85  O   UNL A   1      37.473  33.908  40.475  1.00  0.00    -0.237 OA
ATOM     86  O   UNL A   1      36.561  32.301  38.828  1.00  0.00    -0.237 OA
ATOM     87  O   UNL A   1      38.404  31.629  40.322  1.00  0.00    -0.744 OA
ENDBRANCH  80  84
ENDBRANCH  53  77
BRANCH  65  88
ATOM     88  C   UNL A   1      44.365  27.892  34.529  1.00  0.00     0.023 A 
ATOM     89  C   UNL A   1      44.191  26.756  35.339  1.00  0.00     0.031 A 
ATOM     90  C   UNL A   1      45.662  28.429  34.420  1.00  0.00     0.131 A 
ATOM     91  C   UNL A   1      45.280  26.229  36.052  1.00  0.00     0.055 A 
ATOM     92  C   UNL A   1      46.754  27.859  35.076  1.00  0.00     0.041 A 
ATOM     93  F   UNL A   1      45.892  29.516  33.665  1.00  0.00    -0.206 F 
ATOM     94  C   UNL A   1      46.564  26.762  35.909  1.00  0.00     0.022 A 
BRANCH  91  95
ATOM     95  S   UNL A   1      44.981  24.900  37.250  1.00  0.00     0.124 S 
ATOM     96  O   UNL A   1      45.224  23.707  36.446  1.00  0.00    -0.237 OA
ATOM     97  O   UNL A   1      45.970  25.184  38.285  1.00  0.00    -0.237 OA
ATOM     98  O   UNL A   1      43.590  25.104  37.650  1.00  0.00    -0.744 OA
ENDBRANCH  91  95
ENDBRANCH  65  88
ENDBRANCH  39  40
ENDBRANCH  32  34
ENDBRANCH  31  32
ENDBRANCH  30  31
ENDBRANCH  29  30
ENDBRANCH  28  29
ENDBRANCH  27  28
ENDBRANCH   1  27
TORSDOF 26
ENDMDL
MODEL 3
REMARK VINA RESULT:      -9.0      1.744      7.681
REMARK SMILES C[C@](NC(=O)NCCC[NH3+])(C(=O)OCCOCCOCCOC(=O)c1ccc(-c2c3nc(c(-c4cc(S(=O)(=O)[O-])ccc4F)c4ccc([nH]4)c(-c4cc(S(=O)(=O)[O-])ccc4F)c4nc(c(-c5cc(S(=O)(=O)[O-])ccc5F)c5ccc2[nH]5)C=C4)C=C3)cc1)C(F)(F)F
REMARK SMILES IDX 17 1 16 2 15 3 14 4 13 5 11 6 12 7 2 8 1 9 88 10 89 11 90 12
REMARK SMILES IDX 91 13 3 14 4 15 5 17 6 18 7 20 8 21 9 22 10 23 18 27 19 28
REMARK SMILES IDX 20 29 21 30 22 31 23 32 24 33 25 34 26 35 87 36 27 37 86 38
REMARK SMILES IDX 28 39 29 40 30 41 80 42 31 43 85 44 79 45 81 46 32 47 84 48
REMARK SMILES IDX 78 49 77 50 33 52 65 53 45 54 64 55 46 56 49 57 63 58 82 59
REMARK SMILES IDX 47 60 48 61 62 63 83 64 50 65 34 66 35 67 43 68 36 69 42 70
REMARK SMILES IDX 44 71 41 72 37 73 38 74 39 75 40 76 66 77 67 78 75 79 68 80
REMARK SMILES IDX 74 81 76 82 73 83 69 84 70 85 71 86 72 87 51 88 52 89 60 90
REMARK SMILES IDX 53 91 59 92 61 93 58 94 54 95 55 96 56 97 57 98
REMARK H PARENT 3 16 6 19 10 24 10 25 10 26 81 51 49 62
REMARK Flexibility Score: inf
ROOT
ATOM      1  C   UNL A   1      32.980  28.863  25.693  1.00  0.00     0.188 C 
ENDROOT
BRANCH   1   2
ATOM      2  O   UNL A   1      32.531  29.108  24.377  1.00  0.00    -0.376 OA
BRANCH   2   3
ATOM      3  C   UNL A   1      31.312  28.544  23.923  1.00  0.00     0.202 C 
BRANCH   3   4
ATOM      4  C   UNL A   1      31.124  27.175  23.232  1.00  0.00     0.261 C 
BRANCH   4   5
ATOM      5  O   UNL A   1      31.352  25.972  23.979  1.00  0.00    -0.461 OA
BRANCH   5   6
ATOM      6  C   UNL A   1      32.248  25.110  23.425  1.00  0.00     0.341 C 
ATOM      7  O   UNL A   1      32.673  25.228  22.280  1.00  0.00    -0.249 OA
BRANCH   6   8
ATOM      8  C   UNL A   1      32.590  23.914  24.327  1.00  0.00     0.232 C 
ATOM      9  C   UNL A   1      32.565  22.743  23.320  1.00  0.00     0.058 C 
BRANCH   8  10
ATOM     10  C   UNL A   1      33.979  24.363  24.876  1.00  0.00     0.422 C 
ATOM     11  F   UNL A   1      33.865  24.984  26.076  1.00  0.00    -0.168 F 
ATOM     12  F   UNL A   1      34.836  23.342  25.098  1.00  0.00    -0.168 F 
ATOM     13  F   UNL A   1      34.610  25.211  24.034  1.00  0.00    -0.168 F 
ENDBRANCH   8  10
BRANCH   8  14
ATOM     14  N   UNL A   1      31.587  23.632  25.404  1.00  0.00    -0.315 N 
ATOM     15  C   UNL A   1      31.534  22.723  26.395  1.00  0.00     0.315 C 
ATOM     16  H   UNL A   1      30.809  24.236  25.382  1.00  0.00     0.166 HD
ATOM     17  O   UNL A   1      30.707  22.896  27.293  1.00  0.00    -0.249 OA
ATOM     18  N   UNL A   1      32.320  21.636  26.471  1.00  0.00    -0.338 N 
ATOM     19  H   UNL A   1      32.364  21.245  27.373  1.00  0.00     0.165 HD
BRANCH  18  20
ATOM     20  C   UNL A   1      33.120  20.921  25.492  1.00  0.00     0.123 C 
BRANCH  20  21
ATOM     21  C   UNL A   1      32.719  19.472  25.244  1.00  0.00     0.082 C 
BRANCH  21  22
ATOM     22  C   UNL A   1      33.628  18.720  24.278  1.00  0.00     0.260 C 
BRANCH  22  23
ATOM     23  N   UNL A   1      34.925  18.394  24.867  1.00  0.00    -0.358 N 
ATOM     24  H   UNL A   1      35.423  17.746  24.257  1.00  0.00     0.344 HD
ATOM     25  H   UNL A   1      34.785  17.962  25.780  1.00  0.00     0.344 HD
ATOM     26  H   UNL A   1      35.474  19.247  24.975  1.00  0.00     0.344 HD
ENDBRANCH  22  23
ENDBRANCH  21  22
ENDBRANCH  20  21
ENDBRANCH  18  20
ENDBRANCH   8  14
ENDBRANCH   6   8
ENDBRANCH   5   6
ENDBRANCH   4   5
ENDBRANCH   3   4
ENDBRANCH   2   3
ENDBRANCH   1   2
BRANCH   1  27
ATOM     27  C   UNL A   1      32.166  29.565  26.790  1.00  0.00     0.188 C 
BRANCH  27  28
ATOM     28  O   UNL A   1      32.619  30.851  27.150  1.00  0.00    -0.376 OA
BRANCH  28  29
ATOM     29  C   UNL A   1      31.778  31.968  26.891  1.00  0.00     0.202 C 
BRANCH  29  30
ATOM     30  C   UNL A   1      32.106  33.456  27.191  1.00  0.00     0.261 C 
BRANCH  30  31
ATOM     31  O   UNL A   1      32.354  33.864  28.541  1.00  0.00    -0.460 OA
BRANCH  31  32
ATOM     32  C   UNL A   1      33.323  34.791  28.738  1.00  0.00     0.338 C 
ATOM     33  O   UNL A   1      33.191  36.002  28.685  1.00  0.00    -0.246 OA
BRANCH  32  34
ATOM     34  C   UNL A   1      34.519  34.089  29.265  1.00  0.00     0.060 A 
ATOM     35  C   UNL A   1      34.339  33.003  30.134  1.00  0.00     0.016 A 
ATOM     36  C   UNL A   1      35.805  34.478  28.888  1.00  0.00     0.016 A 
ATOM     37  C   UNL A   1      35.442  32.313  30.642  1.00  0.00     0.010 A 
ATOM     38  C   UNL A   1      36.911  33.809  29.426  1.00  0.00     0.010 A 
ATOM     39  C   UNL A   1      36.738  32.740  30.326  1.00  0.00    -0.014 A 
BRANCH  39  40
ATOM     40  C   UNL A   1      37.898  32.219  31.097  1.00  0.00     0.031 A 
ATOM     41  C   UNL A   1      38.689  31.084  30.502  1.00  0.00     0.074 A 
ATOM     42  C   UNL A   1      38.261  32.742  32.282  1.00  0.00     0.049 A 
ATOM     43  N   UNL A   1      39.679  30.400  31.012  1.00  0.00    -0.248 NA
ATOM     44  C   UNL A   1      38.300  30.666  29.146  1.00  0.00     0.031 C 
ATOM     45  C   UNL A   1      37.625  33.886  32.933  1.00  0.00     0.029 A 
ATOM     46  N   UNL A   1      39.254  32.369  33.155  1.00  0.00    -0.354 N 
ATOM     47  C   UNL A   1      40.028  29.464  30.043  1.00  0.00     0.074 A 
ATOM     48  C   UNL A   1      39.117  29.647  28.934  1.00  0.00     0.031 C 
ATOM     49  C   UNL A   1      38.234  34.109  34.111  1.00  0.00     0.029 A 
ATOM     50  C   UNL A   1      39.272  33.100  34.321  1.00  0.00     0.049 A 
ATOM     51  H   UNL A   1      39.894  31.645  32.965  1.00  0.00     0.167 HD
ATOM     52  C   UNL A   1      41.020  28.540  30.073  1.00  0.00     0.034 A 
ATOM     53  C   UNL A   1      40.015  32.948  35.438  1.00  0.00     0.034 A 
ATOM     54  C   UNL A   1      41.910  28.354  31.193  1.00  0.00     0.049 A 
ATOM     55  C   UNL A   1      41.038  31.835  35.497  1.00  0.00     0.074 A 
ATOM     56  C   UNL A   1      42.949  27.449  31.326  1.00  0.00     0.029 A 
ATOM     57  N   UNL A   1      41.859  29.075  32.380  1.00  0.00    -0.354 N 
ATOM     58  N   UNL A   1      41.357  30.950  34.579  1.00  0.00    -0.248 NA
ATOM     59  C   UNL A   1      41.806  31.703  36.744  1.00  0.00     0.031 C 
ATOM     60  C   UNL A   1      43.468  27.565  32.621  1.00  0.00     0.029 A 
ATOM     61  C   UNL A   1      42.821  28.608  33.263  1.00  0.00     0.049 A 
ATOM     62  H   UNL A   1      41.231  29.810  32.567  1.00  0.00     0.167 HD
ATOM     63  C   UNL A   1      42.388  30.186  35.126  1.00  0.00     0.074 A 
ATOM     64  C   UNL A   1      42.645  30.722  36.446  1.00  0.00     0.031 C 
ATOM     65  C   UNL A   1      43.067  29.142  34.583  1.00  0.00     0.034 A 
BRANCH  52  66
ATOM     66  C   UNL A   1      41.148  27.621  28.882  1.00  0.00     0.023 A 
ATOM     67  C   UNL A   1      42.164  27.782  27.924  1.00  0.00     0.031 A 
ATOM     68  C   UNL A   1      40.216  26.586  28.684  1.00  0.00     0.131 A 
ATOM     69  C   UNL A   1      42.182  26.972  26.778  1.00  0.00     0.055 A 
ATOM     70  C   UNL A   1      40.290  25.727  27.586  1.00  0.00     0.041 A 
ATOM     71  F   UNL A   1      39.207  26.399  29.549  1.00  0.00    -0.206 F 
ATOM     72  C   UNL A   1      41.268  25.928  26.617  1.00  0.00     0.022 A 
BRANCH  69  73
ATOM     73  S   UNL A   1      43.320  27.398  25.432  1.00  0.00     0.124 S 
ATOM     74  O   UNL A   1      42.435  28.115  24.515  1.00  0.00    -0.237 OA
ATOM     75  O   UNL A   1      44.326  28.205  26.112  1.00  0.00    -0.237 OA
ATOM     76  O   UNL A   1      43.782  26.098  24.950  1.00  0.00    -0.744 OA
ENDBRANCH  69  73
ENDBRANCH  52  66
BRANCH  53  77
ATOM     77  C   UNL A   1      39.796  33.831  36.624  1.00  0.00     0.023 A 
ATOM     78  C   UNL A   1      40.702  34.854  36.950  1.00  0.00     0.031 A 
ATOM     79  C   UNL A   1      38.716  33.609  37.498  1.00  0.00     0.131 A 
ATOM     80  C   UNL A   1      40.540  35.580  38.141  1.00  0.00     0.055 A 
ATOM     81  C   UNL A   1      38.525  34.375  38.649  1.00  0.00     0.041 A 
ATOM     82  F   UNL A   1      37.826  32.635  37.246  1.00  0.00    -0.206 F 
ATOM     83  C   UNL A   1      39.449  35.359  38.984  1.00  0.00     0.022 A 
BRANCH  80  84
ATOM     84  S   UNL A   1      41.840  36.749  38.630  1.00  0.00     0.124 S 
ATOM     85  O   UNL A   1      42.641  35.938  39.540  1.00  0.00    -0.237 OA
ATOM     86  O   UNL A   1      42.456  37.073  37.348  1.00  0.00    -0.237 OA
ATOM     87  O   UNL A   1      41.097  37.841  39.256  1.00  0.00    -0.744 OA
ENDBRANCH  80  84
ENDBRANCH  53  77
BRANCH  65  88
ATOM     88  C   UNL A   1      44.197  28.548  35.393  1.00  0.00     0.023 A 
ATOM     89  C   UNL A   1      44.003  27.461  36.264  1.00  0.00     0.031 A 
ATOM     90  C   UNL A   1      45.495  29.085  35.292  1.00  0.00     0.131 A 
ATOM     91  C   UNL A   1      45.072  26.984  37.039  1.00  0.00     0.055 A 
ATOM     92  C   UNL A   1      46.569  28.562  36.013  1.00  0.00     0.041 A 
ATOM     93  F   UNL A   1      45.743  30.127  34.481  1.00  0.00    -0.206 F 
ATOM     94  C   UNL A   1      46.358  27.515  36.904  1.00  0.00     0.022 A 
BRANCH  91  95
ATOM     95  S   UNL A   1      44.742  25.726  38.304  1.00  0.00     0.124 S 
ATOM     96  O   UNL A   1      46.086  25.245  38.610  1.00  0.00    -0.237 OA
ATOM     97  O   UNL A   1      44.089  26.502  39.353  1.00  0.00    -0.237 OA
ATOM     98  O   UNL A   1      43.882  24.765  37.618  1.00  0.00    -0.744 OA
ENDBRANCH  91  95
ENDBRANCH  65  88
ENDBRANCH  39  40
ENDBRANCH  32  34
ENDBRANCH  31  32
ENDBRANCH  30  31
ENDBRANCH  29  30
ENDBRANCH  28  29
ENDBRANCH  27  28
ENDBRANCH   1  27
TORSDOF 26
ENDMDL
