MODEL 1
REMARK VINA RESULT:     -10.1      0.000      0.000
REMARK SMILES CC(C)n1ccc(C#CC(=O)OCCOCCOCCOC(=O)c2ccc(-c3c4nc(c(-c5cc(S(=O)(=O)[O-])ccc5F)c5ccc([nH]5)c(-c5cc(S(=O)(=O)[O-])ccc5F)c5nc(c(-c6cc(S(=O)(=O)[O-])ccc6F)c6ccc3[nH]6)C=C5)C=C4)cc2)n1
REMARK SMILES IDX 17 1 16 2 15 3 14 4 13 5 12 6 10 7 11 8 9 9 8 10 7 11 4 12
REMARK SMILES IDX 5 13 87 14 6 15 2 16 1 17 3 18 18 19 19 20 20 21 21 22 22 23
REMARK SMILES IDX 23 24 24 25 25 26 86 27 26 28 85 29 27 30 28 31 29 32 79 33
REMARK SMILES IDX 30 34 84 35 78 36 80 37 31 38 83 39 77 40 76 41 32 43 64 44
REMARK SMILES IDX 44 45 63 46 45 47 48 48 62 49 81 50 46 51 47 52 61 54 82 55
REMARK SMILES IDX 49 56 33 57 34 58 42 59 35 60 41 61 43 62 40 63 36 64 37 65
REMARK SMILES IDX 38 66 39 67 65 68 66 69 74 70 67 71 73 72 75 73 72 74 68 75
REMARK SMILES IDX 69 76 70 77 71 78 50 79 51 80 59 81 52 82 58 83 60 84 57 85
REMARK SMILES IDX 53 86 54 87 55 88 56 89
REMARK H PARENT 80 42 48 53
REMARK Flexibility Score: inf
ROOT
ATOM      1  C   UNL A   1      45.340  23.051  24.332  1.00  0.00     0.188 C 
ENDROOT
BRANCH   1   2
ATOM      2  C   UNL A   1      45.544  21.547  24.652  1.00  0.00     0.188 C 
BRANCH   2   3
ATOM      3  O   UNL A   1      44.502  20.602  24.440  1.00  0.00    -0.376 OA
BRANCH   3   4
ATOM      4  C   UNL A   1      43.941  19.905  25.545  1.00  0.00     0.202 C 
BRANCH   4   5
ATOM      5  C   UNL A   1      42.415  19.707  25.653  1.00  0.00     0.262 C 
BRANCH   5   6
ATOM      6  O   UNL A   1      41.656  20.919  25.748  1.00  0.00    -0.454 OA
BRANCH   6   7
ATOM      7  C   UNL A   1      40.645  20.948  26.647  1.00  0.00     0.384 C 
ATOM      8  O   UNL A   1      40.725  20.696  27.838  1.00  0.00    -0.236 OA
BRANCH   7   9
ATOM      9  C   UNL A   1      39.415  21.437  26.076  1.00  0.00     0.024 C 
ATOM     10  C   UNL A   1      38.352  21.763  25.624  1.00  0.00    -0.033 C 
BRANCH  10  11
ATOM     11  C   UNL A   1      37.104  22.059  25.004  1.00  0.00     0.135 A 
ATOM     12  N   UNL A   1      34.992  22.134  24.904  1.00  0.00    -0.269 N 
ATOM     13  C   UNL A   1      35.425  22.744  23.756  1.00  0.00     0.110 A 
ATOM     14  N   UNL A   1      36.010  21.681  25.661  1.00  0.00    -0.164 NA
ATOM     15  C   UNL A   1      36.804  22.724  23.803  1.00  0.00     0.059 A 
BRANCH  12  16
ATOM     16  C   UNL A   1      33.617  21.857  25.318  1.00  0.00     0.101 C 
ATOM     17  C   UNL A   1      33.257  22.539  26.648  1.00  0.00     0.033 C 
ATOM     18  C   UNL A   1      32.583  22.256  24.262  1.00  0.00     0.033 C 
ENDBRANCH  12  16
ENDBRANCH  10  11
ENDBRANCH   7   9
ENDBRANCH   6   7
ENDBRANCH   5   6
ENDBRANCH   4   5
ENDBRANCH   3   4
ENDBRANCH   2   3
ENDBRANCH   1   2
BRANCH   1  19
ATOM     19  O   UNL A   1      45.544  23.928  25.421  1.00  0.00    -0.376 OA
BRANCH  19  20
ATOM     20  C   UNL A   1      44.503  24.720  25.973  1.00  0.00     0.202 C 
BRANCH  20  21
ATOM     21  C   UNL A   1      43.307  25.223  25.167  1.00  0.00     0.261 C 
BRANCH  21  22
ATOM     22  O   UNL A   1      42.465  26.119  25.852  1.00  0.00    -0.460 OA
BRANCH  22  23
ATOM     23  C   UNL A   1      41.393  25.523  26.413  1.00  0.00     0.338 C 
ATOM     24  O   UNL A   1      41.223  24.327  26.573  1.00  0.00    -0.246 OA
BRANCH  23  25
ATOM     25  C   UNL A   1      40.424  26.563  26.771  1.00  0.00     0.060 A 
ATOM     26  C   UNL A   1      40.805  27.857  26.416  1.00  0.00     0.016 A 
ATOM     27  C   UNL A   1      39.564  26.284  27.840  1.00  0.00     0.016 A 
ATOM     28  C   UNL A   1      40.664  28.824  27.375  1.00  0.00     0.010 A 
ATOM     29  C   UNL A   1      39.456  27.239  28.809  1.00  0.00     0.010 A 
ATOM     30  C   UNL A   1      40.121  28.446  28.605  1.00  0.00    -0.014 A 
BRANCH  30  31
ATOM     31  C   UNL A   1      40.218  29.373  29.703  1.00  0.00     0.031 A 
ATOM     32  C   UNL A   1      38.986  30.169  29.842  1.00  0.00     0.074 A 
ATOM     33  C   UNL A   1      41.277  29.378  30.533  1.00  0.00     0.049 A 
ATOM     34  N   UNL A   1      38.817  31.412  29.549  1.00  0.00    -0.248 NA
ATOM     35  C   UNL A   1      37.735  29.429  30.085  1.00  0.00     0.031 C 
ATOM     36  C   UNL A   1      42.406  28.447  30.594  1.00  0.00     0.029 A 
ATOM     37  N   UNL A   1      41.508  30.195  31.588  1.00  0.00    -0.354 N 
ATOM     38  C   UNL A   1      37.480  31.661  29.823  1.00  0.00     0.074 A 
ATOM     39  C   UNL A   1      36.833  30.382  29.856  1.00  0.00     0.031 C 
ATOM     40  C   UNL A   1      43.058  28.613  31.771  1.00  0.00     0.029 A 
ATOM     41  C   UNL A   1      42.469  29.738  32.482  1.00  0.00     0.049 A 
ATOM     42  H   UNL A   1      41.032  31.048  31.712  1.00  0.00     0.167 HD
ATOM     43  C   UNL A   1      37.079  32.862  30.313  1.00  0.00     0.034 A 
ATOM     44  C   UNL A   1      42.677  30.212  33.742  1.00  0.00     0.034 A 
ATOM     45  C   UNL A   1      38.081  33.878  30.073  1.00  0.00     0.049 A 
ATOM     46  C   UNL A   1      42.073  31.574  33.778  1.00  0.00     0.074 A 
ATOM     47  C   UNL A   1      38.663  34.402  28.934  1.00  0.00     0.029 A 
ATOM     48  N   UNL A   1      38.931  34.204  31.108  1.00  0.00    -0.354 N 
ATOM     49  N   UNL A   1      42.518  32.569  33.056  1.00  0.00    -0.248 NA
ATOM     50  C   UNL A   1      40.678  31.692  34.186  1.00  0.00     0.031 C 
ATOM     51  C   UNL A   1      40.039  34.571  29.267  1.00  0.00     0.029 A 
ATOM     52  C   UNL A   1      40.213  34.221  30.608  1.00  0.00     0.049 A 
ATOM     53  H   UNL A   1      38.669  34.393  32.038  1.00  0.00     0.167 HD
ATOM     54  C   UNL A   1      41.385  33.206  32.568  1.00  0.00     0.074 A 
ATOM     55  C   UNL A   1      40.280  32.672  33.365  1.00  0.00     0.031 C 
ATOM     56  C   UNL A   1      41.400  33.872  31.373  1.00  0.00     0.034 A 
BRANCH  43  57
ATOM     57  C   UNL A   1      35.973  33.019  31.332  1.00  0.00     0.023 A 
ATOM     58  C   UNL A   1      34.903  33.858  30.982  1.00  0.00     0.031 A 
ATOM     59  C   UNL A   1      36.025  32.627  32.693  1.00  0.00     0.131 A 
ATOM     60  C   UNL A   1      34.014  34.335  31.959  1.00  0.00     0.055 A 
ATOM     61  C   UNL A   1      35.095  33.047  33.645  1.00  0.00     0.041 A 
ATOM     62  F   UNL A   1      37.017  31.898  33.214  1.00  0.00    -0.206 F 
ATOM     63  C   UNL A   1      34.099  33.932  33.289  1.00  0.00     0.022 A 
BRANCH  60  64
ATOM     64  S   UNL A   1      32.847  35.634  31.489  1.00  0.00     0.124 S 
ATOM     65  O   UNL A   1      33.642  36.837  31.707  1.00  0.00    -0.237 OA
ATOM     66  O   UNL A   1      32.563  35.290  30.100  1.00  0.00    -0.237 OA
ATOM     67  O   UNL A   1      31.738  35.443  32.420  1.00  0.00    -0.744 OA
ENDBRANCH  60  64
ENDBRANCH  43  57
BRANCH  44  68
ATOM     68  C   UNL A   1      42.960  29.392  34.961  1.00  0.00     0.023 A 
ATOM     69  C   UNL A   1      42.253  28.213  35.292  1.00  0.00     0.031 A 
ATOM     70  C   UNL A   1      44.125  29.657  35.719  1.00  0.00     0.131 A 
ATOM     71  C   UNL A   1      42.711  27.374  36.341  1.00  0.00     0.055 A 
ATOM     72  C   UNL A   1      44.570  28.828  36.752  1.00  0.00     0.041 A 
ATOM     73  F   UNL A   1      44.925  30.695  35.427  1.00  0.00    -0.206 F 
ATOM     74  C   UNL A   1      43.867  27.677  37.064  1.00  0.00     0.022 A 
BRANCH  71  75
ATOM     75  S   UNL A   1      41.842  25.821  36.747  1.00  0.00     0.124 S 
ATOM     76  O   UNL A   1      40.665  26.300  37.463  1.00  0.00    -0.237 OA
ATOM     77  O   UNL A   1      41.608  25.239  35.430  1.00  0.00    -0.237 OA
ATOM     78  O   UNL A   1      42.806  25.093  37.574  1.00  0.00    -0.744 OA
ENDBRANCH  71  75
ENDBRANCH  44  68
BRANCH  56  79
ATOM     79  C   UNL A   1      42.740  34.093  30.690  1.00  0.00     0.023 A 
ATOM     80  C   UNL A   1      43.246  33.310  29.625  1.00  0.00     0.031 A 
ATOM     81  C   UNL A   1      43.460  35.247  31.046  1.00  0.00     0.131 A 
ATOM     82  C   UNL A   1      44.432  33.696  28.964  1.00  0.00     0.055 A 
ATOM     83  C   UNL A   1      44.620  35.637  30.376  1.00  0.00     0.041 A 
ATOM     84  F   UNL A   1      43.016  36.047  32.028  1.00  0.00    -0.206 F 
ATOM     85  C   UNL A   1      45.112  34.861  29.333  1.00  0.00     0.022 A 
BRANCH  82  86
ATOM     86  S   UNL A   1      45.116  32.690  27.603  1.00  0.00     0.124 S 
ATOM     87  O   UNL A   1      46.490  33.166  27.490  1.00  0.00    -0.237 OA
ATOM     88  O   UNL A   1      44.949  31.327  28.099  1.00  0.00    -0.237 OA
ATOM     89  O   UNL A   1      44.261  33.029  26.464  1.00  0.00    -0.744 OA
ENDBRANCH  82  86
ENDBRANCH  56  79
ENDBRANCH  30  31
ENDBRANCH  23  25
ENDBRANCH  22  23
ENDBRANCH  21  22
ENDBRANCH  20  21
ENDBRANCH  19  20
ENDBRANCH   1  19
TORSDOF 22
ENDMDL
MODEL 2
REMARK VINA RESULT:     -10.1      4.087     10.927
REMARK SMILES CC(C)n1ccc(C#CC(=O)OCCOCCOCCOC(=O)c2ccc(-c3c4nc(c(-c5cc(S(=O)(=O)[O-])ccc5F)c5ccc([nH]5)c(-c5cc(S(=O)(=O)[O-])ccc5F)c5nc(c(-c6cc(S(=O)(=O)[O-])ccc6F)c6ccc3[nH]6)C=C5)C=C4)cc2)n1
REMARK SMILES IDX 17 1 16 2 15 3 14 4 13 5 12 6 10 7 11 8 9 9 8 10 7 11 4 12
REMARK SMILES IDX 5 13 87 14 6 15 2 16 1 17 3 18 18 19 19 20 20 21 21 22 22 23
REMARK SMILES IDX 23 24 24 25 25 26 86 27 26 28 85 29 27 30 28 31 29 32 79 33
REMARK SMILES IDX 30 34 84 35 78 36 80 37 31 38 83 39 77 40 76 41 32 43 64 44
REMARK SMILES IDX 44 45 63 46 45 47 48 48 62 49 81 50 46 51 47 52 61 54 82 55
REMARK SMILES IDX 49 56 33 57 34 58 42 59 35 60 41 61 43 62 40 63 36 64 37 65
REMARK SMILES IDX 38 66 39 67 65 68 66 69 74 70 67 71 73 72 75 73 72 74 68 75
REMARK SMILES IDX 69 76 70 77 71 78 50 79 51 80 59 81 52 82 58 83 60 84 57 85
REMARK SMILES IDX 53 86 54 87 55 88 56 89
REMARK H PARENT 80 42 48 53
REMARK Flexibility Score: inf
ROOT
ATOM      1  C   UNL A   1      34.947  33.664  29.188  1.00  0.00     0.188 C 
ENDROOT
BRANCH   1   2
ATOM      2  C   UNL A   1      34.800  32.724  27.964  1.00  0.00     0.188 C 
BRANCH   2   3
ATOM      3  O   UNL A   1      34.106  31.486  28.065  1.00  0.00    -0.376 OA
BRANCH   3   4
ATOM      4  C   UNL A   1      34.774  30.270  27.752  1.00  0.00     0.202 C 
BRANCH   4   5
ATOM      5  C   UNL A   1      34.057  29.167  26.949  1.00  0.00     0.262 C 
BRANCH   5   6
ATOM      6  O   UNL A   1      33.327  29.631  25.806  1.00  0.00    -0.454 OA
BRANCH   6   7
ATOM      7  C   UNL A   1      33.026  28.721  24.851  1.00  0.00     0.384 C 
ATOM      8  O   UNL A   1      32.630  28.957  23.721  1.00  0.00    -0.236 OA
BRANCH   7   9
ATOM      9  C   UNL A   1      33.332  27.373  25.261  1.00  0.00     0.024 C 
ATOM     10  C   UNL A   1      33.668  26.260  25.558  1.00  0.00    -0.033 C 
BRANCH  10  11
ATOM     11  C   UNL A   1      34.067  24.913  25.790  1.00  0.00     0.135 A 
ATOM     12  N   UNL A   1      35.441  23.304  25.810  1.00  0.00    -0.269 N 
ATOM     13  C   UNL A   1      34.296  22.800  26.366  1.00  0.00     0.110 A 
ATOM     14  N   UNL A   1      35.304  24.587  25.423  1.00  0.00    -0.164 NA
ATOM     15  C   UNL A   1      33.384  23.837  26.382  1.00  0.00     0.059 A 
BRANCH  12  16
ATOM     16  C   UNL A   1      36.692  22.603  25.524  1.00  0.00     0.101 C 
ATOM     17  C   UNL A   1      36.825  22.219  24.042  1.00  0.00     0.033 C 
ATOM     18  C   UNL A   1      37.933  23.397  25.942  1.00  0.00     0.033 C 
ENDBRANCH  12  16
ENDBRANCH  10  11
ENDBRANCH   7   9
ENDBRANCH   6   7
ENDBRANCH   5   6
ENDBRANCH   4   5
ENDBRANCH   3   4
ENDBRANCH   2   3
ENDBRANCH   1   2
BRANCH   1  19
ATOM     19  O   UNL A   1      35.361  33.031  30.382  1.00  0.00    -0.376 OA
BRANCH  19  20
ATOM     20  C   UNL A   1      36.650  33.226  30.946  1.00  0.00     0.202 C 
BRANCH  20  21
ATOM     21  C   UNL A   1      37.718  32.134  31.007  1.00  0.00     0.261 C 
BRANCH  21  22
ATOM     22  O   UNL A   1      37.631  31.164  29.992  1.00  0.00    -0.460 OA
BRANCH  22  23
ATOM     23  C   UNL A   1      37.190  29.968  30.430  1.00  0.00     0.338 C 
ATOM     24  O   UNL A   1      36.457  29.765  31.383  1.00  0.00    -0.246 OA
BRANCH  23  25
ATOM     25  C   UNL A   1      37.777  28.923  29.586  1.00  0.00     0.060 A 
ATOM     26  C   UNL A   1      38.270  27.822  30.285  1.00  0.00     0.016 A 
ATOM     27  C   UNL A   1      38.273  29.323  28.339  1.00  0.00     0.016 A 
ATOM     28  C   UNL A   1      39.520  27.382  29.938  1.00  0.00     0.010 A 
ATOM     29  C   UNL A   1      39.532  28.909  28.016  1.00  0.00     0.010 A 
ATOM     30  C   UNL A   1      40.175  28.043  28.897  1.00  0.00    -0.014 A 
BRANCH  30  31
ATOM     31  C   UNL A   1      41.578  27.780  28.703  1.00  0.00     0.031 A 
ATOM     32  C   UNL A   1      41.791  26.483  28.038  1.00  0.00     0.074 A 
ATOM     33  C   UNL A   1      42.518  28.694  29.003  1.00  0.00     0.049 A 
ATOM     34  N   UNL A   1      42.240  25.395  28.563  1.00  0.00    -0.248 NA
ATOM     35  C   UNL A   1      41.188  26.306  26.705  1.00  0.00     0.031 C 
ATOM     36  C   UNL A   1      42.349  30.086  29.427  1.00  0.00     0.029 A 
ATOM     37  N   UNL A   1      43.863  28.579  28.888  1.00  0.00    -0.354 N 
ATOM     38  C   UNL A   1      42.208  24.466  27.532  1.00  0.00     0.074 A 
ATOM     39  C   UNL A   1      41.306  24.990  26.549  1.00  0.00     0.031 C 
ATOM     40  C   UNL A   1      43.531  30.738  29.296  1.00  0.00     0.029 A 
ATOM     41  C   UNL A   1      44.556  29.783  28.901  1.00  0.00     0.049 A 
ATOM     42  H   UNL A   1      44.315  27.709  28.802  1.00  0.00     0.167 HD
ATOM     43  C   UNL A   1      43.163  23.506  27.428  1.00  0.00     0.034 A 
ATOM     44  C   UNL A   1      45.851  29.964  28.520  1.00  0.00     0.034 A 
ATOM     45  C   UNL A   1      43.857  23.329  28.685  1.00  0.00     0.049 A 
ATOM     46  C   UNL A   1      46.494  28.621  28.588  1.00  0.00     0.074 A 
ATOM     47  C   UNL A   1      43.459  22.964  29.958  1.00  0.00     0.029 A 
ATOM     48  N   UNL A   1      45.079  23.946  28.842  1.00  0.00    -0.354 N 
ATOM     49  N   UNL A   1      46.647  27.962  29.707  1.00  0.00    -0.248 NA
ATOM     50  C   UNL A   1      46.473  27.792  27.389  1.00  0.00     0.031 C 
ATOM     51  C   UNL A   1      44.206  23.805  30.834  1.00  0.00     0.029 A 
ATOM     52  C   UNL A   1      45.076  24.580  30.063  1.00  0.00     0.049 A 
ATOM     53  H   UNL A   1      45.822  23.935  28.197  1.00  0.00     0.167 HD
ATOM     54  C   UNL A   1      46.319  26.647  29.408  1.00  0.00     0.074 A 
ATOM     55  C   UNL A   1      46.300  26.586  27.946  1.00  0.00     0.031 C 
ATOM     56  C   UNL A   1      45.799  25.809  30.355  1.00  0.00     0.034 A 
BRANCH  43  57
ATOM     57  C   UNL A   1      43.713  23.018  26.107  1.00  0.00     0.023 A 
ATOM     58  C   UNL A   1      43.733  21.629  25.903  1.00  0.00     0.031 A 
ATOM     59  C   UNL A   1      44.449  23.786  25.170  1.00  0.00     0.131 A 
ATOM     60  C   UNL A   1      44.515  21.063  24.883  1.00  0.00     0.055 A 
ATOM     61  C   UNL A   1      45.166  23.222  24.115  1.00  0.00     0.041 A 
ATOM     62  F   UNL A   1      44.604  25.111  25.261  1.00  0.00    -0.206 F 
ATOM     63  C   UNL A   1      45.231  21.849  23.984  1.00  0.00     0.022 A 
BRANCH  60  64
ATOM     64  S   UNL A   1      44.723  19.267  24.864  1.00  0.00     0.124 S 
ATOM     65  O   UNL A   1      44.466  18.955  23.462  1.00  0.00    -0.237 OA
ATOM     66  O   UNL A   1      46.103  19.123  25.314  1.00  0.00    -0.237 OA
ATOM     67  O   UNL A   1      43.706  18.801  25.803  1.00  0.00    -0.744 OA
ENDBRANCH  60  64
ENDBRANCH  43  57
BRANCH  44  68
ATOM     68  C   UNL A   1      46.386  31.106  27.716  1.00  0.00     0.023 A 
ATOM     69  C   UNL A   1      45.568  32.020  27.014  1.00  0.00     0.031 A 
ATOM     70  C   UNL A   1      47.756  31.446  27.821  1.00  0.00     0.131 A 
ATOM     71  C   UNL A   1      46.127  33.197  26.451  1.00  0.00     0.055 A 
ATOM     72  C   UNL A   1      48.301  32.604  27.262  1.00  0.00     0.041 A 
ATOM     73  F   UNL A   1      48.604  30.700  28.546  1.00  0.00    -0.206 F 
ATOM     74  C   UNL A   1      47.486  33.490  26.579  1.00  0.00     0.022 A 
BRANCH  71  75
ATOM     75  S   UNL A   1      45.076  34.415  25.588  1.00  0.00     0.124 S 
ATOM     76  O   UNL A   1      43.859  34.402  26.393  1.00  0.00    -0.237 OA
ATOM     77  O   UNL A   1      45.884  35.627  25.652  1.00  0.00    -0.237 OA
ATOM     78  O   UNL A   1      44.927  33.850  24.246  1.00  0.00    -0.744 OA
ENDBRANCH  71  75
ENDBRANCH  44  68
BRANCH  56  79
ATOM     79  C   UNL A   1      45.791  26.275  31.802  1.00  0.00     0.023 A 
ATOM     80  C   UNL A   1      44.673  26.833  32.468  1.00  0.00     0.031 A 
ATOM     81  C   UNL A   1      46.933  25.997  32.573  1.00  0.00     0.131 A 
ATOM     82  C   UNL A   1      44.732  27.092  33.855  1.00  0.00     0.055 A 
ATOM     83  C   UNL A   1      46.979  26.235  33.947  1.00  0.00     0.041 A 
ATOM     84  F   UNL A   1      48.015  25.441  32.006  1.00  0.00    -0.206 F 
ATOM     85  C   UNL A   1      45.879  26.786  34.593  1.00  0.00     0.022 A 
BRANCH  82  86
ATOM     86  S   UNL A   1      43.312  27.832  34.731  1.00  0.00     0.124 S 
ATOM     87  O   UNL A   1      43.476  27.358  36.100  1.00  0.00    -0.237 OA
ATOM     88  O   UNL A   1      43.516  29.261  34.518  1.00  0.00    -0.237 OA
ATOM     89  O   UNL A   1      42.151  27.276  34.031  1.00  0.00    -0.744 OA
ENDBRANCH  82  86
ENDBRANCH  56  79
ENDBRANCH  30  31
ENDBRANCH  23  25
ENDBRANCH  22  23
ENDBRANCH  21  22
ENDBRANCH  20  21
ENDBRANCH  19  20
ENDBRANCH   1  19
TORSDOF 22
ENDMDL
MODEL 3
REMARK VINA RESULT:      -9.7      3.735      8.962
REMARK SMILES CC(C)n1ccc(C#CC(=O)OCCOCCOCCOC(=O)c2ccc(-c3c4nc(c(-c5cc(S(=O)(=O)[O-])ccc5F)c5ccc([nH]5)c(-c5cc(S(=O)(=O)[O-])ccc5F)c5nc(c(-c6cc(S(=O)(=O)[O-])ccc6F)c6ccc3[nH]6)C=C5)C=C4)cc2)n1
REMARK SMILES IDX 17 1 16 2 15 3 14 4 13 5 12 6 10 7 11 8 9 9 8 10 7 11 4 12
REMARK SMILES IDX 5 13 87 14 6 15 2 16 1 17 3 18 18 19 19 20 20 21 21 22 22 23
REMARK SMILES IDX 23 24 24 25 25 26 86 27 26 28 85 29 27 30 28 31 29 32 79 33
REMARK SMILES IDX 30 34 84 35 78 36 80 37 31 38 83 39 77 40 76 41 32 43 64 44
REMARK SMILES IDX 44 45 63 46 45 47 48 48 62 49 81 50 46 51 47 52 61 54 82 55
REMARK SMILES IDX 49 56 33 57 34 58 42 59 35 60 41 61 43 62 40 63 36 64 37 65
REMARK SMILES IDX 38 66 39 67 65 68 66 69 74 70 67 71 73 72 75 73 72 74 68 75
REMARK SMILES IDX 69 76 70 77 71 78 50 79 51 80 59 81 52 82 58 83 60 84 57 85
REMARK SMILES IDX 53 86 54 87 55 88 56 89
REMARK H PARENT 80 42 48 53
REMARK Flexibility Score: inf
ROOT
ATOM      1  C   UNL A   1      33.045  28.953  24.585  1.00  0.00     0.188 C 
ENDROOT
BRANCH   1   2
ATOM      2  C   UNL A   1      31.809  28.324  23.891  1.00  0.00     0.188 C 
BRANCH   2   3
ATOM      3  O   UNL A   1      30.874  27.542  24.624  1.00  0.00    -0.376 OA
BRANCH   3   4
ATOM      4  C   UNL A   1      30.873  26.126  24.490  1.00  0.00     0.202 C 
BRANCH   4   5
ATOM      5  C   UNL A   1      30.522  25.226  25.691  1.00  0.00     0.262 C 
BRANCH   5   6
ATOM      6  O   UNL A   1      31.534  25.149  26.703  1.00  0.00    -0.454 OA
BRANCH   6   7
ATOM      7  C   UNL A   1      32.823  25.159  26.292  1.00  0.00     0.384 C 
ATOM      8  O   UNL A   1      33.546  26.136  26.190  1.00  0.00    -0.236 OA
BRANCH   7   9
ATOM      9  C   UNL A   1      33.342  23.830  26.076  1.00  0.00     0.024 C 
ATOM     10  C   UNL A   1      33.845  22.765  25.855  1.00  0.00    -0.033 C 
BRANCH  10  11
ATOM     11  C   UNL A   1      34.429  21.523  25.471  1.00  0.00     0.135 A 
ATOM     12  N   UNL A   1      34.397  19.559  24.687  1.00  0.00    -0.269 N 
ATOM     13  C   UNL A   1      35.718  19.821  24.934  1.00  0.00     0.110 A 
ATOM     14  N   UNL A   1      33.594  20.581  25.041  1.00  0.00    -0.164 NA
ATOM     15  C   UNL A   1      35.771  21.107  25.433  1.00  0.00     0.059 A 
BRANCH  12  16
ATOM     16  C   UNL A   1      33.798  18.319  24.194  1.00  0.00     0.101 C 
ATOM     17  C   UNL A   1      34.673  17.089  24.485  1.00  0.00     0.033 C 
ATOM     18  C   UNL A   1      32.394  18.070  24.751  1.00  0.00     0.033 C 
ENDBRANCH  12  16
ENDBRANCH  10  11
ENDBRANCH   7   9
ENDBRANCH   6   7
ENDBRANCH   5   6
ENDBRANCH   4   5
ENDBRANCH   3   4
ENDBRANCH   2   3
ENDBRANCH   1   2
BRANCH   1  19
ATOM     19  O   UNL A   1      32.881  29.239  25.959  1.00  0.00    -0.376 OA
BRANCH  19  20
ATOM     20  C   UNL A   1      32.747  30.562  26.457  1.00  0.00     0.202 C 
BRANCH  20  21
ATOM     21  C   UNL A   1      33.664  31.159  27.523  1.00  0.00     0.261 C 
BRANCH  21  22
ATOM     22  O   UNL A   1      35.031  30.867  27.358  1.00  0.00    -0.460 OA
BRANCH  22  23
ATOM     23  C   UNL A   1      35.845  31.772  27.940  1.00  0.00     0.338 C 
ATOM     24  O   UNL A   1      36.071  32.905  27.554  1.00  0.00    -0.246 OA
BRANCH  23  25
ATOM     25  C   UNL A   1      36.459  31.148  29.116  1.00  0.00     0.060 A 
ATOM     26  C   UNL A   1      37.478  31.896  29.703  1.00  0.00     0.016 A 
ATOM     27  C   UNL A   1      36.388  29.752  29.200  1.00  0.00     0.016 A 
ATOM     28  C   UNL A   1      38.634  31.228  30.009  1.00  0.00     0.010 A 
ATOM     29  C   UNL A   1      37.551  29.092  29.471  1.00  0.00     0.010 A 
ATOM     30  C   UNL A   1      38.682  29.858  29.744  1.00  0.00    -0.014 A 
BRANCH  30  31
ATOM     31  C   UNL A   1      39.962  29.201  29.801  1.00  0.00     0.031 A 
ATOM     32  C   UNL A   1      40.406  29.011  31.193  1.00  0.00     0.074 A 
ATOM     33  C   UNL A   1      40.568  28.735  28.693  1.00  0.00     0.049 A 
ATOM     34  N   UNL A   1      41.340  29.646  31.813  1.00  0.00    -0.248 NA
ATOM     35  C   UNL A   1      39.534  28.211  32.071  1.00  0.00     0.031 C 
ATOM     36  C   UNL A   1      40.060  28.671  27.321  1.00  0.00     0.029 A 
ATOM     37  N   UNL A   1      41.769  28.116  28.596  1.00  0.00    -0.354 N 
ATOM     38  C   UNL A   1      41.329  29.124  33.099  1.00  0.00     0.074 A 
ATOM     39  C   UNL A   1      40.051  28.495  33.264  1.00  0.00     0.031 C 
ATOM     40  C   UNL A   1      40.844  27.836  26.594  1.00  0.00     0.029 A 
ATOM     41  C   UNL A   1      41.969  27.413  27.414  1.00  0.00     0.049 A 
ATOM     42  H   UNL A   1      42.448  28.161  29.306  1.00  0.00     0.167 HD
ATOM     43  C   UNL A   1      42.481  28.975  33.802  1.00  0.00     0.034 A 
ATOM     44  C   UNL A   1      42.943  26.487  27.191  1.00  0.00     0.034 A 
ATOM     45  C   UNL A   1      43.533  29.799  33.249  1.00  0.00     0.049 A 
ATOM     46  C   UNL A   1      44.003  26.747  28.206  1.00  0.00     0.074 A 
ATOM     47  C   UNL A   1      43.687  31.159  33.056  1.00  0.00     0.029 A 
ATOM     48  N   UNL A   1      44.451  29.200  32.413  1.00  0.00    -0.354 N 
ATOM     49  N   UNL A   1      44.703  27.852  28.235  1.00  0.00    -0.248 NA
ATOM     50  C   UNL A   1      43.915  26.045  29.481  1.00  0.00     0.031 C 
ATOM     51  C   UNL A   1      44.319  31.283  31.784  1.00  0.00     0.029 A 
ATOM     52  C   UNL A   1      44.592  30.000  31.302  1.00  0.00     0.049 A 
ATOM     53  H   UNL A   1      44.923  28.353  32.580  1.00  0.00     0.167 HD
ATOM     54  C   UNL A   1      44.780  28.203  29.576  1.00  0.00     0.074 A 
ATOM     55  C   UNL A   1      44.349  27.009  30.303  1.00  0.00     0.031 C 
ATOM     56  C   UNL A   1      44.893  29.509  29.966  1.00  0.00     0.034 A 
BRANCH  43  57
ATOM     57  C   UNL A   1      42.746  27.811  34.730  1.00  0.00     0.023 A 
ATOM     58  C   UNL A   1      43.445  26.719  34.193  1.00  0.00     0.031 A 
ATOM     59  C   UNL A   1      42.141  27.592  35.993  1.00  0.00     0.131 A 
ATOM     60  C   UNL A   1      43.447  25.475  34.846  1.00  0.00     0.055 A 
ATOM     61  C   UNL A   1      42.207  26.373  36.670  1.00  0.00     0.041 A 
ATOM     62  F   UNL A   1      41.372  28.494  36.610  1.00  0.00    -0.206 F 
ATOM     63  C   UNL A   1      42.836  25.294  36.083  1.00  0.00     0.022 A 
BRANCH  60  64
ATOM     64  S   UNL A   1      44.114  24.047  33.959  1.00  0.00     0.124 S 
ATOM     65  O   UNL A   1      44.158  24.544  32.589  1.00  0.00    -0.237 OA
ATOM     66  O   UNL A   1      45.402  23.863  34.620  1.00  0.00    -0.237 OA
ATOM     67  O   UNL A   1      43.126  23.002  34.212  1.00  0.00    -0.744 OA
ENDBRANCH  60  64
ENDBRANCH  43  57
BRANCH  44  68
ATOM     68  C   UNL A   1      42.781  25.187  26.468  1.00  0.00     0.023 A 
ATOM     69  C   UNL A   1      43.747  24.659  25.581  1.00  0.00     0.031 A 
ATOM     70  C   UNL A   1      41.727  24.318  26.833  1.00  0.00     0.131 A 
ATOM     71  C   UNL A   1      43.626  23.330  25.097  1.00  0.00     0.055 A 
ATOM     72  C   UNL A   1      41.611  23.011  26.352  1.00  0.00     0.041 A 
ATOM     73  F   UNL A   1      40.808  24.681  27.742  1.00  0.00    -0.206 F 
ATOM     74  C   UNL A   1      42.566  22.509  25.485  1.00  0.00     0.022 A 
BRANCH  71  75
ATOM     75  S   UNL A   1      44.893  22.614  23.996  1.00  0.00     0.124 S 
ATOM     76  O   UNL A   1      44.133  22.345  22.780  1.00  0.00    -0.237 OA
ATOM     77  O   UNL A   1      45.883  23.683  23.919  1.00  0.00    -0.237 OA
ATOM     78  O   UNL A   1      45.339  21.420  24.715  1.00  0.00    -0.744 OA
ENDBRANCH  71  75
ENDBRANCH  44  68
BRANCH  56  79
ATOM     79  C   UNL A   1      45.155  30.558  28.898  1.00  0.00     0.023 A 
ATOM     80  C   UNL A   1      46.437  31.023  28.515  1.00  0.00     0.031 A 
ATOM     81  C   UNL A   1      44.055  30.989  28.136  1.00  0.00     0.131 A 
ATOM     82  C   UNL A   1      46.575  31.887  27.408  1.00  0.00     0.055 A 
ATOM     83  C   UNL A   1      44.198  31.826  27.029  1.00  0.00     0.041 A 
ATOM     84  F   UNL A   1      42.817  30.560  28.430  1.00  0.00    -0.206 F 
ATOM     85  C   UNL A   1      45.459  32.280  26.662  1.00  0.00     0.022 A 
BRANCH  82  86
ATOM     86  S   UNL A   1      48.214  32.517  26.910  1.00  0.00     0.124 S 
ATOM     87  O   UNL A   1      47.909  33.403  25.792  1.00  0.00    -0.237 OA
ATOM     88  O   UNL A   1      48.690  33.164  28.129  1.00  0.00    -0.237 OA
ATOM     89  O   UNL A   1      48.948  31.305  26.541  1.00  0.00    -0.744 OA
ENDBRANCH  82  86
ENDBRANCH  56  79
ENDBRANCH  30  31
ENDBRANCH  23  25
ENDBRANCH  22  23
ENDBRANCH  21  22
ENDBRANCH  20  21
ENDBRANCH  19  20
ENDBRANCH   1  19
TORSDOF 22
ENDMDL
