MODEL 1
REMARK VINA RESULT:     -11.0      0.000      0.000
REMARK SMILES Cc1cc2cc(-c3ccc([C@@H](C)C(=O)OCCOCCOCCOC(=O)c4ccc(-c5c6nc(c(-c7cc(S(=O)(=O)[O-])ccc7F)c7ccc([nH]7)c(-c7cc(S(=O)(=O)[O-])ccc7F)c7nc(c(-c8cc(S(=O)(=O)[O-])ccc8F)c8ccc5[nH]8)C=C7)C=C6)cc4)cc3)ccc2[nH]1
REMARK SMILES IDX 20 1 19 2 18 3 17 4 16 5 15 6 13 7 14 8 11 9 12 10 10 11
REMARK SMILES IDX 7 12 8 13 91 14 9 15 90 16 6 17 1 18 2 19 3 20 95 21 4 22
REMARK SMILES IDX 94 23 5 25 93 26 92 27 21 28 22 29 23 30 24 31 25 32 26 33
REMARK SMILES IDX 27 34 28 35 89 36 29 37 88 38 30 39 31 40 32 41 82 42 33 43
REMARK SMILES IDX 87 44 81 45 83 46 34 47 86 48 80 49 79 50 35 52 67 53 47 54
REMARK SMILES IDX 66 55 48 56 51 57 65 58 84 59 49 60 50 61 64 63 85 64 52 65
REMARK SMILES IDX 36 66 37 67 45 68 38 69 44 70 46 71 43 72 39 73 40 74 41 75
REMARK SMILES IDX 42 76 68 77 69 78 77 79 70 80 76 81 78 82 75 83 71 84 72 85
REMARK SMILES IDX 73 86 74 87 53 88 54 89 62 90 55 91 61 92 63 93 60 94 56 95
REMARK SMILES IDX 57 96 58 97 59 98
REMARK H PARENT 95 24 83 51 51 62
REMARK Flexibility Score: inf
ROOT
ATOM      1  C   UNL A   1      32.674  29.459  25.248  1.00  0.00     0.188 C 
ENDROOT
BRANCH   1   2
ATOM      2  C   UNL A   1      31.408  29.387  24.380  1.00  0.00     0.188 C 
BRANCH   2   3
ATOM      3  O   UNL A   1      31.524  29.016  23.010  1.00  0.00    -0.376 OA
BRANCH   3   4
ATOM      4  C   UNL A   1      31.247  27.677  22.626  1.00  0.00     0.202 C 
BRANCH   4   5
ATOM      5  C   UNL A   1      32.417  26.779  22.191  1.00  0.00     0.261 C 
BRANCH   5   6
ATOM      6  O   UNL A   1      33.537  26.721  23.104  1.00  0.00    -0.463 OA
BRANCH   6   7
ATOM      7  C   UNL A   1      33.502  25.746  24.048  1.00  0.00     0.313 C 
ATOM      8  O   UNL A   1      33.095  25.940  25.192  1.00  0.00    -0.252 OA
BRANCH   7   9
ATOM      9  C   UNL A   1      33.988  24.356  23.618  1.00  0.00     0.126 C 
ATOM     10  C   UNL A   1      32.811  23.387  23.705  1.00  0.00     0.025 C 
BRANCH   9  11
ATOM     11  C   UNL A   1      35.232  23.718  24.238  1.00  0.00    -0.034 A 
ATOM     12  C   UNL A   1      37.558  22.608  25.483  1.00  0.00    -0.018 A 
ATOM     13  C   UNL A   1      37.180  22.257  24.174  1.00  0.00     0.009 A 
ATOM     14  C   UNL A   1      36.744  23.516  26.167  1.00  0.00     0.009 A 
ATOM     15  C   UNL A   1      36.048  22.810  23.555  1.00  0.00     0.005 A 
ATOM     16  C   UNL A   1      35.607  24.069  25.553  1.00  0.00     0.005 A 
BRANCH  12  17
ATOM     17  C   UNL A   1      38.809  22.087  26.070  1.00  0.00    -0.018 A 
ATOM     18  C   UNL A   1      43.291  18.025  27.110  1.00  0.00     0.064 C 
ATOM     19  C   UNL A   1      42.242  19.050  26.893  1.00  0.00     0.013 A 
ATOM     20  C   UNL A   1      41.133  19.036  26.072  1.00  0.00     0.031 A 
ATOM     21  N   UNL A   1      42.250  20.264  27.542  1.00  0.00    -0.359 N 
ATOM     22  C   UNL A   1      40.443  20.265  26.242  1.00  0.00     0.000 A 
ATOM     23  C   UNL A   1      41.160  21.020  27.166  1.00  0.00     0.046 A 
ATOM     24  H   UNL A   1      42.938  20.553  28.184  1.00  0.00     0.166 HD
ATOM     25  C   UNL A   1      39.267  20.809  25.689  1.00  0.00     0.019 A 
ATOM     26  C   UNL A   1      40.753  22.301  27.561  1.00  0.00     0.027 A 
ATOM     27  C   UNL A   1      39.570  22.815  26.997  1.00  0.00     0.011 A 
ENDBRANCH  12  17
ENDBRANCH   9  11
ENDBRANCH   7   9
ENDBRANCH   6   7
ENDBRANCH   5   6
ENDBRANCH   4   5
ENDBRANCH   3   4
ENDBRANCH   2   3
ENDBRANCH   1   2
BRANCH   1  28
ATOM     28  O   UNL A   1      32.588  30.357  26.335  1.00  0.00    -0.376 OA
BRANCH  28  29
ATOM     29  C   UNL A   1      31.480  31.235  26.339  1.00  0.00     0.202 C 
BRANCH  29  30
ATOM     30  C   UNL A   1      31.768  32.639  26.890  1.00  0.00     0.261 C 
BRANCH  30  31
ATOM     31  O   UNL A   1      33.079  32.840  27.453  1.00  0.00    -0.460 OA
BRANCH  31  32
ATOM     32  C   UNL A   1      33.251  33.935  28.229  1.00  0.00     0.338 C 
ATOM     33  O   UNL A   1      32.512  34.908  28.287  1.00  0.00    -0.246 OA
BRANCH  32  34
ATOM     34  C   UNL A   1      34.367  33.666  29.166  1.00  0.00     0.060 A 
ATOM     35  C   UNL A   1      35.652  34.141  28.859  1.00  0.00     0.016 A 
ATOM     36  C   UNL A   1      34.152  32.945  30.342  1.00  0.00     0.016 A 
ATOM     37  C   UNL A   1      36.729  33.857  29.703  1.00  0.00     0.010 A 
ATOM     38  C   UNL A   1      35.235  32.644  31.176  1.00  0.00     0.010 A 
ATOM     39  C   UNL A   1      36.536  33.065  30.843  1.00  0.00    -0.014 A 
BRANCH  39  40
ATOM     40  C   UNL A   1      37.709  32.494  31.561  1.00  0.00     0.031 A 
ATOM     41  C   UNL A   1      38.466  31.370  30.902  1.00  0.00     0.074 A 
ATOM     42  C   UNL A   1      38.114  32.964  32.756  1.00  0.00     0.049 A 
ATOM     43  N   UNL A   1      39.471  30.661  31.351  1.00  0.00    -0.248 NA
ATOM     44  C   UNL A   1      38.017  30.989  29.554  1.00  0.00     0.031 C 
ATOM     45  C   UNL A   1      37.503  34.078  33.477  1.00  0.00     0.029 A 
ATOM     46  N   UNL A   1      39.135  32.552  33.578  1.00  0.00    -0.354 N 
ATOM     47  C   UNL A   1      39.768  29.745  30.346  1.00  0.00     0.074 A 
ATOM     48  C   UNL A   1      38.808  29.964  29.284  1.00  0.00     0.031 C 
ATOM     49  C   UNL A   1      38.155  34.255  34.640  1.00  0.00     0.029 A 
ATOM     50  C   UNL A   1      39.202  33.241  34.768  1.00  0.00     0.049 A 
ATOM     51  H   UNL A   1      39.760  31.830  33.338  1.00  0.00     0.167 HD
ATOM     52  C   UNL A   1      40.754  28.816  30.306  1.00  0.00     0.034 A 
ATOM     53  C   UNL A   1      39.996  33.056  35.844  1.00  0.00     0.034 A 
ATOM     54  C   UNL A   1      41.696  28.599  31.377  1.00  0.00     0.049 A 
ATOM     55  C   UNL A   1      41.029  31.950  35.817  1.00  0.00     0.074 A 
ATOM     56  C   UNL A   1      42.738  27.690  31.435  1.00  0.00     0.029 A 
ATOM     57  N   UNL A   1      41.705  29.287  32.583  1.00  0.00    -0.354 N 
ATOM     58  N   UNL A   1      41.303  31.093  34.860  1.00  0.00    -0.248 NA
ATOM     59  C   UNL A   1      41.868  31.798  37.014  1.00  0.00     0.031 C 
ATOM     60  C   UNL A   1      43.321  27.770  32.704  1.00  0.00     0.029 A 
ATOM     61  C   UNL A   1      42.711  28.799  33.404  1.00  0.00     0.049 A 
ATOM     62  H   UNL A   1      41.087  30.016  32.821  1.00  0.00     0.167 HD
ATOM     63  C   UNL A   1      42.373  30.329  35.326  1.00  0.00     0.074 A 
ATOM     64  C   UNL A   1      42.701  30.838  36.642  1.00  0.00     0.031 C 
ATOM     65  C   UNL A   1      43.030  29.306  34.719  1.00  0.00     0.034 A 
BRANCH  52  66
ATOM     66  C   UNL A   1      40.819  27.925  29.086  1.00  0.00     0.023 A 
ATOM     67  C   UNL A   1      41.748  28.144  28.054  1.00  0.00     0.031 A 
ATOM     68  C   UNL A   1      39.916  26.857  28.941  1.00  0.00     0.131 A 
ATOM     69  C   UNL A   1      41.703  27.358  26.893  1.00  0.00     0.055 A 
ATOM     70  C   UNL A   1      39.935  26.022  27.822  1.00  0.00     0.041 A 
ATOM     71  F   UNL A   1      38.987  26.613  29.880  1.00  0.00    -0.206 F 
ATOM     72  C   UNL A   1      40.822  26.280  26.782  1.00  0.00     0.022 A 
BRANCH  69  73
ATOM     73  S   UNL A   1      42.705  27.859  25.466  1.00  0.00     0.124 S 
ATOM     74  O   UNL A   1      42.753  26.623  24.689  1.00  0.00    -0.237 OA
ATOM     75  O   UNL A   1      41.918  28.944  24.892  1.00  0.00    -0.237 OA
ATOM     76  O   UNL A   1      43.978  28.259  26.063  1.00  0.00    -0.744 OA
ENDBRANCH  69  73
ENDBRANCH  52  66
BRANCH  53  77
ATOM     77  C   UNL A   1      39.831  33.900  37.066  1.00  0.00     0.023 A 
ATOM     78  C   UNL A   1      40.679  34.991  37.319  1.00  0.00     0.031 A 
ATOM     79  C   UNL A   1      38.865  33.581  38.037  1.00  0.00     0.131 A 
ATOM     80  C   UNL A   1      40.581  35.689  38.534  1.00  0.00     0.055 A 
ATOM     81  C   UNL A   1      38.730  34.318  39.217  1.00  0.00     0.041 A 
ATOM     82  F   UNL A   1      38.035  32.543  37.854  1.00  0.00    -0.206 F 
ATOM     83  C   UNL A   1      39.601  35.371  39.476  1.00  0.00     0.022 A 
BRANCH  80  84
ATOM     84  S   UNL A   1      41.823  36.957  38.912  1.00  0.00     0.124 S 
ATOM     85  O   UNL A   1      40.995  38.030  39.452  1.00  0.00    -0.237 OA
ATOM     86  O   UNL A   1      42.680  36.265  39.869  1.00  0.00    -0.237 OA
ATOM     87  O   UNL A   1      42.434  37.232  37.614  1.00  0.00    -0.744 OA
ENDBRANCH  80  84
ENDBRANCH  53  77
BRANCH  65  88
ATOM     88  C   UNL A   1      44.217  28.713  35.446  1.00  0.00     0.023 A 
ATOM     89  C   UNL A   1      44.082  27.655  36.364  1.00  0.00     0.031 A 
ATOM     90  C   UNL A   1      45.507  29.231  35.228  1.00  0.00     0.131 A 
ATOM     91  C   UNL A   1      45.202  27.200  37.078  1.00  0.00     0.055 A 
ATOM     92  C   UNL A   1      46.629  28.723  35.886  1.00  0.00     0.041 A 
ATOM     93  F   UNL A   1      45.701  30.244  34.367  1.00  0.00    -0.206 F 
ATOM     94  C   UNL A   1      46.477  27.713  36.831  1.00  0.00     0.022 A 
BRANCH  91  95
ATOM     95  S   UNL A   1      44.951  26.011  38.426  1.00  0.00     0.124 S 
ATOM     96  O   UNL A   1      46.160  26.197  39.222  1.00  0.00    -0.237 OA
ATOM     97  O   UNL A   1      43.710  26.483  39.032  1.00  0.00    -0.237 OA
ATOM     98  O   UNL A   1      44.854  24.726  37.736  1.00  0.00    -0.744 OA
ENDBRANCH  91  95
ENDBRANCH  65  88
ENDBRANCH  39  40
ENDBRANCH  32  34
ENDBRANCH  31  32
ENDBRANCH  30  31
ENDBRANCH  29  30
ENDBRANCH  28  29
ENDBRANCH   1  28
TORSDOF 22
ENDMDL
MODEL 2
REMARK VINA RESULT:     -10.7      2.598      3.292
REMARK SMILES Cc1cc2cc(-c3ccc([C@@H](C)C(=O)OCCOCCOCCOC(=O)c4ccc(-c5c6nc(c(-c7cc(S(=O)(=O)[O-])ccc7F)c7ccc([nH]7)c(-c7cc(S(=O)(=O)[O-])ccc7F)c7nc(c(-c8cc(S(=O)(=O)[O-])ccc8F)c8ccc5[nH]8)C=C7)C=C6)cc4)cc3)ccc2[nH]1
REMARK SMILES IDX 20 1 19 2 18 3 17 4 16 5 15 6 13 7 14 8 11 9 12 10 10 11
REMARK SMILES IDX 7 12 8 13 91 14 9 15 90 16 6 17 1 18 2 19 3 20 95 21 4 22
REMARK SMILES IDX 94 23 5 25 93 26 92 27 21 28 22 29 23 30 24 31 25 32 26 33
REMARK SMILES IDX 27 34 28 35 89 36 29 37 88 38 30 39 31 40 32 41 82 42 33 43
REMARK SMILES IDX 87 44 81 45 83 46 34 47 86 48 80 49 79 50 35 52 67 53 47 54
REMARK SMILES IDX 66 55 48 56 51 57 65 58 84 59 49 60 50 61 64 63 85 64 52 65
REMARK SMILES IDX 36 66 37 67 45 68 38 69 44 70 46 71 43 72 39 73 40 74 41 75
REMARK SMILES IDX 42 76 68 77 69 78 77 79 70 80 76 81 78 82 75 83 71 84 72 85
REMARK SMILES IDX 73 86 74 87 53 88 54 89 62 90 55 91 61 92 63 93 60 94 56 95
REMARK SMILES IDX 57 96 58 97 59 98
REMARK H PARENT 95 24 83 51 51 62
REMARK Flexibility Score: inf
ROOT
ATOM      1  C   UNL A   1      31.183  27.920  25.055  1.00  0.00     0.188 C 
ENDROOT
BRANCH   1   2
ATOM      2  C   UNL A   1      30.388  26.860  24.277  1.00  0.00     0.188 C 
BRANCH   2   3
ATOM      3  O   UNL A   1      29.778  25.788  24.989  1.00  0.00    -0.376 OA
BRANCH   3   4
ATOM      4  C   UNL A   1      30.599  24.826  25.636  1.00  0.00     0.202 C 
BRANCH   4   5
ATOM      5  C   UNL A   1      30.998  23.559  24.860  1.00  0.00     0.261 C 
BRANCH   5   6
ATOM      6  O   UNL A   1      31.043  23.691  23.421  1.00  0.00    -0.463 OA
BRANCH   6   7
ATOM      7  C   UNL A   1      32.274  23.677  22.848  1.00  0.00     0.313 C 
ATOM      8  O   UNL A   1      32.548  22.978  21.874  1.00  0.00    -0.252 OA
BRANCH   7   9
ATOM      9  C   UNL A   1      33.330  24.599  23.469  1.00  0.00     0.126 C 
ATOM     10  C   UNL A   1      33.676  25.687  22.453  1.00  0.00     0.025 C 
BRANCH   9  11
ATOM     11  C   UNL A   1      34.613  24.042  24.087  1.00  0.00    -0.034 A 
ATOM     12  C   UNL A   1      37.001  23.075  25.334  1.00  0.00    -0.018 A 
ATOM     13  C   UNL A   1      36.710  22.806  23.984  1.00  0.00     0.009 A 
ATOM     14  C   UNL A   1      36.070  23.828  26.056  1.00  0.00     0.009 A 
ATOM     15  C   UNL A   1      35.546  23.290  23.365  1.00  0.00     0.005 A 
ATOM     16  C   UNL A   1      34.902  24.311  25.442  1.00  0.00     0.005 A 
BRANCH  12  17
ATOM     17  C   UNL A   1      38.280  22.638  25.928  1.00  0.00    -0.018 A 
ATOM     18  C   UNL A   1      42.845  18.762  27.276  1.00  0.00     0.064 C 
ATOM     19  C   UNL A   1      41.776  19.746  26.977  1.00  0.00     0.013 A 
ATOM     20  C   UNL A   1      40.636  19.624  26.210  1.00  0.00     0.031 A 
ATOM     21  N   UNL A   1      41.797  21.031  27.472  1.00  0.00    -0.359 N 
ATOM     22  C   UNL A   1      39.940  20.861  26.256  1.00  0.00     0.000 A 
ATOM     23  C   UNL A   1      40.684  21.728  27.050  1.00  0.00     0.046 A 
ATOM     24  H   UNL A   1      42.507  21.400  28.045  1.00  0.00     0.166 HD
ATOM     25  C   UNL A   1      38.737  21.325  25.689  1.00  0.00     0.019 A 
ATOM     26  C   UNL A   1      40.280  23.045  27.301  1.00  0.00     0.027 A 
ATOM     27  C   UNL A   1      39.070  23.479  26.728  1.00  0.00     0.011 A 
ENDBRANCH  12  17
ENDBRANCH   9  11
ENDBRANCH   7   9
ENDBRANCH   6   7
ENDBRANCH   5   6
ENDBRANCH   4   5
ENDBRANCH   3   4
ENDBRANCH   2   3
ENDBRANCH   1   2
BRANCH   1  28
ATOM     28  O   UNL A   1      30.931  29.251  24.654  1.00  0.00    -0.376 OA
BRANCH  28  29
ATOM     29  C   UNL A   1      31.526  30.266  25.437  1.00  0.00     0.202 C 
BRANCH  29  30
ATOM     30  C   UNL A   1      32.953  29.963  25.916  1.00  0.00     0.261 C 
BRANCH  30  31
ATOM     31  O   UNL A   1      33.217  30.205  27.311  1.00  0.00    -0.460 OA
BRANCH  31  32
ATOM     32  C   UNL A   1      33.771  31.396  27.634  1.00  0.00     0.338 C 
ATOM     33  O   UNL A   1      33.190  32.471  27.709  1.00  0.00    -0.246 OA
BRANCH  32  34
ATOM     34  C   UNL A   1      35.156  31.150  28.101  1.00  0.00     0.060 A 
ATOM     35  C   UNL A   1      35.500  29.880  28.587  1.00  0.00     0.016 A 
ATOM     36  C   UNL A   1      36.111  32.167  28.065  1.00  0.00     0.016 A 
ATOM     37  C   UNL A   1      36.786  29.638  29.079  1.00  0.00     0.010 A 
ATOM     38  C   UNL A   1      37.392  31.930  28.576  1.00  0.00     0.010 A 
ATOM     39  C   UNL A   1      37.727  30.676  29.122  1.00  0.00    -0.014 A 
BRANCH  39  40
ATOM     40  C   UNL A   1      38.970  30.523  29.926  1.00  0.00     0.031 A 
ATOM     41  C   UNL A   1      40.099  29.714  29.341  1.00  0.00     0.074 A 
ATOM     42  C   UNL A   1      39.114  31.097  31.135  1.00  0.00     0.049 A 
ATOM     43  N   UNL A   1      41.248  29.377  29.869  1.00  0.00    -0.248 NA
ATOM     44  C   UNL A   1      39.894  29.210  27.975  1.00  0.00     0.031 C 
ATOM     45  C   UNL A   1      38.122  31.945  31.793  1.00  0.00     0.029 A 
ATOM     46  N   UNL A   1      40.156  31.044  32.031  1.00  0.00    -0.354 N 
ATOM     47  C   UNL A   1      41.898  28.613  28.904  1.00  0.00     0.074 A 
ATOM     48  C   UNL A   1      40.995  28.504  27.778  1.00  0.00     0.031 C 
ATOM     49  C   UNL A   1      38.598  32.325  32.992  1.00  0.00     0.029 A 
ATOM     50  C   UNL A   1      39.910  31.714  33.208  1.00  0.00     0.049 A 
ATOM     51  H   UNL A   1      40.998  30.571  31.847  1.00  0.00     0.167 HD
ATOM     52  C   UNL A   1      43.136  28.062  28.947  1.00  0.00     0.034 A 
ATOM     53  C   UNL A   1      40.645  31.799  34.337  1.00  0.00     0.034 A 
ATOM     54  C   UNL A   1      44.021  28.166  30.082  1.00  0.00     0.049 A 
ATOM     55  C   UNL A   1      41.984  31.097  34.401  1.00  0.00     0.074 A 
ATOM     56  C   UNL A   1      45.299  27.653  30.227  1.00  0.00     0.029 A 
ATOM     57  N   UNL A   1      43.720  28.816  31.272  1.00  0.00    -0.354 N 
ATOM     58  N   UNL A   1      42.591  30.381  33.480  1.00  0.00    -0.248 NA
ATOM     59  C   UNL A   1      42.742  31.228  35.652  1.00  0.00     0.031 C 
ATOM     60  C   UNL A   1      45.734  27.918  31.529  1.00  0.00     0.029 A 
ATOM     61  C   UNL A   1      44.773  28.686  32.167  1.00  0.00     0.049 A 
ATOM     62  H   UNL A   1      42.882  29.299  31.454  1.00  0.00     0.167 HD
ATOM     63  C   UNL A   1      43.819  30.013  34.031  1.00  0.00     0.074 A 
ATOM     64  C   UNL A   1      43.869  30.598  35.355  1.00  0.00     0.031 C 
ATOM     65  C   UNL A   1      44.816  29.267  33.489  1.00  0.00     0.034 A 
BRANCH  52  66
ATOM     66  C   UNL A   1      43.575  27.246  27.753  1.00  0.00     0.023 A 
ATOM     67  C   UNL A   1      43.610  25.841  27.784  1.00  0.00     0.031 A 
ATOM     68  C   UNL A   1      43.993  27.887  26.573  1.00  0.00     0.131 A 
ATOM     69  C   UNL A   1      44.123  25.129  26.690  1.00  0.00     0.055 A 
ATOM     70  C   UNL A   1      44.419  27.168  25.455  1.00  0.00     0.041 A 
ATOM     71  F   UNL A   1      44.008  29.227  26.491  1.00  0.00    -0.206 F 
ATOM     72  C   UNL A   1      44.501  25.781  25.514  1.00  0.00     0.022 A 
BRANCH  69  73
ATOM     73  S   UNL A   1      44.437  23.352  26.881  1.00  0.00     0.124 S 
ATOM     74  O   UNL A   1      45.895  23.299  26.805  1.00  0.00    -0.237 OA
ATOM     75  O   UNL A   1      43.854  23.066  28.187  1.00  0.00    -0.237 OA
ATOM     76  O   UNL A   1      43.741  22.756  25.742  1.00  0.00    -0.744 OA
ENDBRANCH  69  73
ENDBRANCH  52  66
BRANCH  53  77
ATOM     77  C   UNL A   1      40.128  32.538  35.528  1.00  0.00     0.023 A 
ATOM     78  C   UNL A   1      39.264  31.924  36.451  1.00  0.00     0.031 A 
ATOM     79  C   UNL A   1      40.434  33.898  35.721  1.00  0.00     0.131 A 
ATOM     80  C   UNL A   1      38.696  32.679  37.491  1.00  0.00     0.055 A 
ATOM     81  C   UNL A   1      39.915  34.629  36.793  1.00  0.00     0.041 A 
ATOM     82  F   UNL A   1      41.244  34.540  34.866  1.00  0.00    -0.206 F 
ATOM     83  C   UNL A   1      39.029  34.022  37.677  1.00  0.00     0.022 A 
BRANCH  80  84
ATOM     84  S   UNL A   1      37.431  31.906  38.536  1.00  0.00     0.124 S 
ATOM     85  O   UNL A   1      37.291  30.596  37.911  1.00  0.00    -0.237 OA
ATOM     86  O   UNL A   1      38.069  31.926  39.849  1.00  0.00    -0.237 OA
ATOM     87  O   UNL A   1      36.280  32.794  38.391  1.00  0.00    -0.744 OA
ENDBRANCH  80  84
ENDBRANCH  53  77
BRANCH  65  88
ATOM     88  C   UNL A   1      46.080  29.098  34.304  1.00  0.00     0.023 A 
ATOM     89  C   UNL A   1      46.229  28.068  35.251  1.00  0.00     0.031 A 
ATOM     90  C   UNL A   1      47.149  29.998  34.141  1.00  0.00     0.131 A 
ATOM     91  C   UNL A   1      47.386  28.008  36.044  1.00  0.00     0.055 A 
ATOM     92  C   UNL A   1      48.328  29.888  34.880  1.00  0.00     0.041 A 
ATOM     93  F   UNL A   1      47.066  31.005  33.256  1.00  0.00    -0.206 F 
ATOM     94  C   UNL A   1      48.444  28.898  35.851  1.00  0.00     0.022 A 
BRANCH  91  95
ATOM     95  S   UNL A   1      47.440  26.824  37.418  1.00  0.00     0.124 S 
ATOM     96  O   UNL A   1      47.115  27.670  38.561  1.00  0.00    -0.237 OA
ATOM     97  O   UNL A   1      46.420  25.852  37.034  1.00  0.00    -0.237 OA
ATOM     98  O   UNL A   1      48.814  26.324  37.387  1.00  0.00    -0.744 OA
ENDBRANCH  91  95
ENDBRANCH  65  88
ENDBRANCH  39  40
ENDBRANCH  32  34
ENDBRANCH  31  32
ENDBRANCH  30  31
ENDBRANCH  29  30
ENDBRANCH  28  29
ENDBRANCH   1  28
TORSDOF 22
ENDMDL
MODEL 3
REMARK VINA RESULT:     -10.0      5.128      8.591
REMARK SMILES Cc1cc2cc(-c3ccc([C@@H](C)C(=O)OCCOCCOCCOC(=O)c4ccc(-c5c6nc(c(-c7cc(S(=O)(=O)[O-])ccc7F)c7ccc([nH]7)c(-c7cc(S(=O)(=O)[O-])ccc7F)c7nc(c(-c8cc(S(=O)(=O)[O-])ccc8F)c8ccc5[nH]8)C=C7)C=C6)cc4)cc3)ccc2[nH]1
REMARK SMILES IDX 20 1 19 2 18 3 17 4 16 5 15 6 13 7 14 8 11 9 12 10 10 11
REMARK SMILES IDX 7 12 8 13 91 14 9 15 90 16 6 17 1 18 2 19 3 20 95 21 4 22
REMARK SMILES IDX 94 23 5 25 93 26 92 27 21 28 22 29 23 30 24 31 25 32 26 33
REMARK SMILES IDX 27 34 28 35 89 36 29 37 88 38 30 39 31 40 32 41 82 42 33 43
REMARK SMILES IDX 87 44 81 45 83 46 34 47 86 48 80 49 79 50 35 52 67 53 47 54
REMARK SMILES IDX 66 55 48 56 51 57 65 58 84 59 49 60 50 61 64 63 85 64 52 65
REMARK SMILES IDX 36 66 37 67 45 68 38 69 44 70 46 71 43 72 39 73 40 74 41 75
REMARK SMILES IDX 42 76 68 77 69 78 77 79 70 80 76 81 78 82 75 83 71 84 72 85
REMARK SMILES IDX 73 86 74 87 53 88 54 89 62 90 55 91 61 92 63 93 60 94 56 95
REMARK SMILES IDX 57 96 58 97 59 98
REMARK H PARENT 95 24 83 51 51 62
REMARK Flexibility Score: inf
ROOT
ATOM      1  C   UNL A   1      34.457  34.352  30.311  1.00  0.00     0.188 C 
ENDROOT
BRANCH   1   2
ATOM      2  C   UNL A   1      35.615  33.615  29.623  1.00  0.00     0.188 C 
BRANCH   2   3
ATOM      3  O   UNL A   1      35.324  32.600  28.666  1.00  0.00    -0.376 OA
BRANCH   3   4
ATOM      4  C   UNL A   1      35.532  31.238  29.013  1.00  0.00     0.202 C 
BRANCH   4   5
ATOM      5  C   UNL A   1      36.649  30.460  28.296  1.00  0.00     0.261 C 
BRANCH   5   6
ATOM      6  O   UNL A   1      37.028  29.204  28.903  1.00  0.00    -0.463 OA
BRANCH   6   7
ATOM      7  C   UNL A   1      38.359  28.968  29.031  1.00  0.00     0.313 C 
ATOM      8  O   UNL A   1      39.216  29.784  28.696  1.00  0.00    -0.252 OA
BRANCH   7   9
ATOM      9  C   UNL A   1      38.761  27.617  29.635  1.00  0.00     0.126 C 
ATOM     10  C   UNL A   1      38.961  27.803  31.138  1.00  0.00     0.025 C 
BRANCH   9  11
ATOM     11  C   UNL A   1      39.915  26.796  29.058  1.00  0.00    -0.034 A 
ATOM     12  C   UNL A   1      41.997  25.170  27.956  1.00  0.00    -0.018 A 
ATOM     13  C   UNL A   1      42.279  26.303  28.740  1.00  0.00     0.009 A 
ATOM     14  C   UNL A   1      40.652  24.868  27.721  1.00  0.00     0.009 A 
ATOM     15  C   UNL A   1      41.261  27.095  29.293  1.00  0.00     0.005 A 
ATOM     16  C   UNL A   1      39.629  25.660  28.269  1.00  0.00     0.005 A 
BRANCH  12  17
ATOM     17  C   UNL A   1      43.087  24.299  27.472  1.00  0.00    -0.018 A 
ATOM     18  C   UNL A   1      45.638  19.549  24.539  1.00  0.00     0.064 C 
ATOM     19  C   UNL A   1      45.080  20.720  25.259  1.00  0.00     0.013 A 
ATOM     20  C   UNL A   1      43.780  21.164  25.373  1.00  0.00     0.031 A 
ATOM     21  N   UNL A   1      45.873  21.597  25.966  1.00  0.00    -0.359 N 
ATOM     22  C   UNL A   1      43.782  22.330  26.185  1.00  0.00     0.000 A 
ATOM     23  C   UNL A   1      45.102  22.583  26.544  1.00  0.00     0.046 A 
ATOM     24  H   UNL A   1      46.851  21.529  26.045  1.00  0.00     0.166 HD
ATOM     25  C   UNL A   1      42.775  23.198  26.647  1.00  0.00     0.019 A 
ATOM     26  C   UNL A   1      45.462  23.674  27.346  1.00  0.00     0.027 A 
ATOM     27  C   UNL A   1      44.434  24.521  27.800  1.00  0.00     0.011 A 
ENDBRANCH  12  17
ENDBRANCH   9  11
ENDBRANCH   7   9
ENDBRANCH   6   7
ENDBRANCH   5   6
ENDBRANCH   4   5
ENDBRANCH   3   4
ENDBRANCH   2   3
ENDBRANCH   1   2
BRANCH   1  28
ATOM     28  O   UNL A   1      33.959  33.710  31.466  1.00  0.00    -0.376 OA
BRANCH  28  29
ATOM     29  C   UNL A   1      34.863  32.874  32.160  1.00  0.00     0.202 C 
BRANCH  29  30
ATOM     30  C   UNL A   1      35.103  33.256  33.628  1.00  0.00     0.261 C 
BRANCH  30  31
ATOM     31  O   UNL A   1      36.391  32.907  34.170  1.00  0.00    -0.460 OA
BRANCH  31  32
ATOM     32  C   UNL A   1      37.447  33.651  33.768  1.00  0.00     0.338 C 
ATOM     33  O   UNL A   1      37.574  34.862  33.897  1.00  0.00    -0.246 OA
BRANCH  32  34
ATOM     34  C   UNL A   1      38.528  32.729  33.346  1.00  0.00     0.060 A 
ATOM     35  C   UNL A   1      39.729  32.702  34.071  1.00  0.00     0.016 A 
ATOM     36  C   UNL A   1      38.362  31.898  32.236  1.00  0.00     0.016 A 
ATOM     37  C   UNL A   1      40.780  31.876  33.663  1.00  0.00     0.010 A 
ATOM     38  C   UNL A   1      39.423  31.087  31.817  1.00  0.00     0.010 A 
ATOM     39  C   UNL A   1      40.652  31.099  32.504  1.00  0.00    -0.014 A 
BRANCH  39  40
ATOM     40  C   UNL A   1      41.855  30.476  31.886  1.00  0.00     0.031 A 
ATOM     41  C   UNL A   1      42.540  31.214  30.765  1.00  0.00     0.074 A 
ATOM     42  C   UNL A   1      42.348  29.298  32.312  1.00  0.00     0.049 A 
ATOM     43  N   UNL A   1      43.554  30.852  30.022  1.00  0.00    -0.248 NA
ATOM     44  C   UNL A   1      41.994  32.539  30.434  1.00  0.00     0.031 C 
ATOM     45  C   UNL A   1      41.813  28.508  33.419  1.00  0.00     0.029 A 
ATOM     46  N   UNL A   1      43.411  28.557  31.854  1.00  0.00    -0.354 N 
ATOM     47  C   UNL A   1      43.763  31.899  29.129  1.00  0.00     0.074 A 
ATOM     48  C   UNL A   1      42.741  32.889  29.399  1.00  0.00     0.031 C 
ATOM     49  C   UNL A   1      42.543  27.386  33.547  1.00  0.00     0.029 A 
ATOM     50  C   UNL A   1      43.572  27.356  32.507  1.00  0.00     0.049 A 
ATOM     51  H   UNL A   1      44.001  28.857  31.126  1.00  0.00     0.167 HD
ATOM     52  C   UNL A   1      44.721  32.029  28.179  1.00  0.00     0.034 A 
ATOM     53  C   UNL A   1      44.430  26.339  32.273  1.00  0.00     0.034 A 
ATOM     54  C   UNL A   1      45.726  31.029  27.910  1.00  0.00     0.049 A 
ATOM     55  C   UNL A   1      45.432  26.464  31.146  1.00  0.00     0.074 A 
ATOM     56  C   UNL A   1      46.747  31.065  26.977  1.00  0.00     0.029 A 
ATOM     57  N   UNL A   1      45.830  29.807  28.563  1.00  0.00    -0.354 N 
ATOM     58  N   UNL A   1      45.622  27.461  30.311  1.00  0.00    -0.248 NA
ATOM     59  C   UNL A   1      46.343  25.330  30.941  1.00  0.00     0.031 C 
ATOM     60  C   UNL A   1      47.413  29.835  27.007  1.00  0.00     0.029 A 
ATOM     61  C   UNL A   1      46.876  29.068  28.029  1.00  0.00     0.049 A 
ATOM     62  H   UNL A   1      45.248  29.510  29.299  1.00  0.00     0.167 HD
ATOM     63  C   UNL A   1      46.701  27.087  29.510  1.00  0.00     0.074 A 
ATOM     64  C   UNL A   1      47.126  25.783  29.973  1.00  0.00     0.031 C 
ATOM     65  C   UNL A   1      47.292  27.764  28.491  1.00  0.00     0.034 A 
BRANCH  52  66
ATOM     66  C   UNL A   1      44.685  33.274  27.323  1.00  0.00     0.023 A 
ATOM     67  C   UNL A   1      45.266  34.484  27.743  1.00  0.00     0.031 A 
ATOM     68  C   UNL A   1      44.032  33.258  26.077  1.00  0.00     0.131 A 
ATOM     69  C   UNL A   1      45.117  35.641  26.964  1.00  0.00     0.055 A 
ATOM     70  C   UNL A   1      43.964  34.392  25.265  1.00  0.00     0.041 A 
ATOM     71  F   UNL A   1      43.434  32.141  25.632  1.00  0.00    -0.206 F 
ATOM     72  C   UNL A   1      44.495  35.597  25.714  1.00  0.00     0.022 A 
BRANCH  69  73
ATOM     73  S   UNL A   1      45.610  37.235  27.675  1.00  0.00     0.124 S 
ATOM     74  O   UNL A   1      46.659  36.832  28.608  1.00  0.00    -0.237 OA
ATOM     75  O   UNL A   1      46.050  37.982  26.502  1.00  0.00    -0.237 OA
ATOM     76  O   UNL A   1      44.384  37.726  28.303  1.00  0.00    -0.744 OA
ENDBRANCH  69  73
ENDBRANCH  52  66
BRANCH  53  77
ATOM     77  C   UNL A   1      44.366  25.087  33.085  1.00  0.00     0.023 A 
ATOM     78  C   UNL A   1      44.838  25.049  34.408  1.00  0.00     0.031 A 
ATOM     79  C   UNL A   1      43.896  23.886  32.523  1.00  0.00     0.131 A 
ATOM     80  C   UNL A   1      44.880  23.830  35.104  1.00  0.00     0.055 A 
ATOM     81  C   UNL A   1      43.881  22.688  33.241  1.00  0.00     0.041 A 
ATOM     82  F   UNL A   1      43.442  23.860  31.260  1.00  0.00    -0.206 F 
ATOM     83  C   UNL A   1      44.389  22.653  34.535  1.00  0.00     0.022 A 
BRANCH  80  84
ATOM     84  S   UNL A   1      45.684  23.783  36.730  1.00  0.00     0.124 S 
ATOM     85  O   UNL A   1      45.625  22.360  37.048  1.00  0.00    -0.237 OA
ATOM     86  O   UNL A   1      47.008  24.318  36.429  1.00  0.00    -0.237 OA
ATOM     87  O   UNL A   1      44.837  24.643  37.553  1.00  0.00    -0.744 OA
ENDBRANCH  80  84
ENDBRANCH  53  77
BRANCH  65  88
ATOM     88  C   UNL A   1      48.510  27.133  27.851  1.00  0.00     0.023 A 
ATOM     89  C   UNL A   1      49.802  27.288  28.385  1.00  0.00     0.031 A 
ATOM     90  C   UNL A   1      48.373  26.376  26.672  1.00  0.00     0.131 A 
ATOM     91  C   UNL A   1      50.910  26.757  27.704  1.00  0.00     0.055 A 
ATOM     92  C   UNL A   1      49.470  25.787  26.041  1.00  0.00     0.041 A 
ATOM     93  F   UNL A   1      47.166  26.195  26.111  1.00  0.00    -0.206 F 
ATOM     94  C   UNL A   1      50.750  25.991  26.547  1.00  0.00     0.022 A 
BRANCH  91  95
ATOM     95  S   UNL A   1      52.575  27.185  28.283  1.00  0.00     0.124 S 
ATOM     96  O   UNL A   1      52.513  26.807  29.691  1.00  0.00    -0.237 OA
ATOM     97  O   UNL A   1      53.424  26.352  27.436  1.00  0.00    -0.237 OA
ATOM     98  O   UNL A   1      52.668  28.622  28.029  1.00  0.00    -0.744 OA
ENDBRANCH  91  95
ENDBRANCH  65  88
ENDBRANCH  39  40
ENDBRANCH  32  34
ENDBRANCH  31  32
ENDBRANCH  30  31
ENDBRANCH  29  30
ENDBRANCH  28  29
ENDBRANCH   1  28
TORSDOF 22
ENDMDL
