MODEL 1
REMARK VINA RESULT:     -10.7      0.000      0.000
REMARK SMILES C[C@@H](C(=O)OCCOCCOCCOC(=O)c1ccc(-c2c3nc(c(-c4cc(S(=O)(=O)[O-])ccc4F)c4ccc([nH]4)c(-c4cc(S(=O)(=O)[O-])ccc4F)c4nc(c(-c5cc(S(=O)(=O)[O-])ccc5F)c5ccc2[nH]5)C=C4)C=C3)cc1)c1ccc(C[C@H]2CCC[C@@H]2O)cc1F
REMARK SMILES IDX 9 1 8 2 7 3 6 4 5 5 3 6 4 7 2 8 1 9 80 10 81 11 92 12 82 13
REMARK SMILES IDX 91 14 93 15 83 16 84 17 85 18 86 19 89 20 87 21 88 22 90 23
REMARK SMILES IDX 10 25 11 26 12 27 13 28 14 29 15 30 16 31 17 32 18 33 79 34
REMARK SMILES IDX 19 35 78 36 20 37 21 38 22 39 72 40 23 41 77 42 71 43 73 44
REMARK SMILES IDX 24 45 76 46 70 47 69 48 25 50 57 51 37 52 56 53 38 54 41 55
REMARK SMILES IDX 55 56 74 57 39 58 40 59 54 61 75 62 42 63 26 64 27 65 35 66
REMARK SMILES IDX 28 67 34 68 36 69 33 70 29 71 30 72 31 73 32 74 58 75 59 76
REMARK SMILES IDX 67 77 60 78 66 79 68 80 65 81 61 82 62 83 63 84 64 85 43 86
REMARK SMILES IDX 44 87 52 88 45 89 51 90 53 91 50 92 46 93 47 94 48 95 49 96
REMARK H PARENT 90 24 73 49 41 60
REMARK Flexibility Score: inf
ROOT
ATOM      1  C   UNL A   1      33.303  28.764  22.646  1.00  0.00     0.188 C 
ENDROOT
BRANCH   1   2
ATOM      2  O   UNL A   1      33.869  27.625  22.043  1.00  0.00    -0.376 OA
BRANCH   2   3
ATOM      3  C   UNL A   1      33.145  26.404  22.090  1.00  0.00     0.202 C 
BRANCH   3   4
ATOM      4  C   UNL A   1      33.668  25.119  22.768  1.00  0.00     0.261 C 
BRANCH   4   5
ATOM      5  O   UNL A   1      33.509  25.015  24.198  1.00  0.00    -0.463 OA
BRANCH   5   6
ATOM      6  C   UNL A   1      34.435  24.252  24.853  1.00  0.00     0.313 C 
ATOM      7  O   UNL A   1      35.639  24.305  24.608  1.00  0.00    -0.252 OA
BRANCH   6   8
ATOM      8  C   UNL A   1      33.863  23.310  25.931  1.00  0.00     0.129 C 
ATOM      9  C   UNL A   1      34.549  23.261  27.297  1.00  0.00     0.025 C 
BRANCH   8  10
ATOM     10  C   UNL A   1      33.592  21.904  25.410  1.00  0.00     0.002 A 
ATOM     11  C   UNL A   1      34.600  20.945  25.254  1.00  0.00     0.008 A 
ATOM     12  C   UNL A   1      32.296  21.531  25.046  1.00  0.00     0.127 A 
ATOM     13  C   UNL A   1      34.347  19.718  24.643  1.00  0.00     0.004 A 
ATOM     14  C   UNL A   1      32.037  20.322  24.405  1.00  0.00     0.043 A 
ATOM     15  F   UNL A   1      31.277  22.375  25.267  1.00  0.00    -0.207 F 
ATOM     16  C   UNL A   1      33.084  19.441  24.122  1.00  0.00    -0.045 A 
BRANCH  16  17
ATOM     17  C   UNL A   1      32.893  18.284  23.173  1.00  0.00     0.041 C 
BRANCH  17  18
ATOM     18  C   UNL A   1      33.248  16.902  23.767  1.00  0.00     0.022 C 
ATOM     19  C   UNL A   1      34.723  16.486  23.813  1.00  0.00     0.007 C 
ATOM     20  C   UNL A   1      32.801  16.686  25.208  1.00  0.00     0.117 C 
ATOM     21  C   UNL A   1      34.875  15.592  25.060  1.00  0.00     0.003 C 
ATOM     22  C   UNL A   1      33.474  15.393  25.609  1.00  0.00     0.032 C 
BRANCH  20  23
ATOM     23  O   UNL A   1      31.415  16.589  25.287  1.00  0.00    -0.393 OA
ATOM     24  H   UNL A   1      31.101  17.063  26.074  1.00  0.00     0.210 HD
ENDBRANCH  20  23
ENDBRANCH  17  18
ENDBRANCH  16  17
ENDBRANCH   8  10
ENDBRANCH   6   8
ENDBRANCH   5   6
ENDBRANCH   4   5
ENDBRANCH   3   4
ENDBRANCH   2   3
ENDBRANCH   1   2
BRANCH   1  25
ATOM     25  C   UNL A   1      31.771  28.860  22.713  1.00  0.00     0.188 C 
BRANCH  25  26
ATOM     26  O   UNL A   1      31.081  28.611  23.917  1.00  0.00    -0.376 OA
BRANCH  26  27
ATOM     27  C   UNL A   1      31.689  28.955  25.147  1.00  0.00     0.202 C 
BRANCH  27  28
ATOM     28  C   UNL A   1      31.721  30.392  25.701  1.00  0.00     0.261 C 
BRANCH  28  29
ATOM     29  O   UNL A   1      32.192  30.590  27.039  1.00  0.00    -0.460 OA
BRANCH  29  30
ATOM     30  C   UNL A   1      32.923  31.721  27.236  1.00  0.00     0.338 C 
ATOM     31  O   UNL A   1      32.535  32.865  27.121  1.00  0.00    -0.246 OA
BRANCH  30  32
ATOM     32  C   UNL A   1      34.247  31.345  27.787  1.00  0.00     0.060 A 
ATOM     33  C   UNL A   1      34.551  29.990  27.984  1.00  0.00     0.016 A 
ATOM     34  C   UNL A   1      35.164  32.330  28.156  1.00  0.00     0.016 A 
ATOM     35  C   UNL A   1      35.769  29.622  28.568  1.00  0.00     0.010 A 
ATOM     36  C   UNL A   1      36.366  31.960  28.768  1.00  0.00     0.010 A 
ATOM     37  C   UNL A   1      36.669  30.607  28.999  1.00  0.00    -0.014 A 
BRANCH  37  38
ATOM     38  C   UNL A   1      37.848  30.242  29.834  1.00  0.00     0.031 A 
ATOM     39  C   UNL A   1      38.962  29.456  29.211  1.00  0.00     0.074 A 
ATOM     40  C   UNL A   1      37.886  30.491  31.155  1.00  0.00     0.049 A 
ATOM     41  N   UNL A   1      40.065  29.014  29.755  1.00  0.00    -0.248 NA
ATOM     42  C   UNL A   1      38.762  29.044  27.815  1.00  0.00     0.031 C 
ATOM     43  C   UNL A   1      36.789  31.075  31.909  1.00  0.00     0.029 A 
ATOM     44  N   UNL A   1      38.877  30.296  32.094  1.00  0.00    -0.354 N 
ATOM     45  C   UNL A   1      40.648  28.191  28.802  1.00  0.00     0.074 A 
ATOM     46  C   UNL A   1      39.789  28.228  27.636  1.00  0.00     0.031 C 
ATOM     47  C   UNL A   1      37.189  31.251  33.179  1.00  0.00     0.029 A 
ATOM     48  C   UNL A   1      38.589  30.865  33.320  1.00  0.00     0.049 A 
ATOM     49  H   UNL A   1      39.708  29.800  31.909  1.00  0.00     0.167 HD
ATOM     50  C   UNL A   1      41.769  27.435  28.916  1.00  0.00     0.034 A 
ATOM     51  C   UNL A   1      39.395  31.111  34.382  1.00  0.00     0.034 A 
ATOM     52  C   UNL A   1      42.601  27.396  30.094  1.00  0.00     0.049 A 
ATOM     53  C   UNL A   1      40.765  30.471  34.390  1.00  0.00     0.074 A 
ATOM     54  C   UNL A   1      43.759  26.667  30.308  1.00  0.00     0.029 A 
ATOM     55  N   UNL A   1      42.363  28.106  31.264  1.00  0.00    -0.354 N 
ATOM     56  N   UNL A   1      41.344  29.748  33.458  1.00  0.00    -0.248 NA
ATOM     57  C   UNL A   1      41.569  30.622  35.613  1.00  0.00     0.031 C 
ATOM     58  C   UNL A   1      44.184  26.885  31.622  1.00  0.00     0.029 A 
ATOM     59  C   UNL A   1      43.345  27.820  32.204  1.00  0.00     0.049 A 
ATOM     60  H   UNL A   1      41.609  28.723  31.406  1.00  0.00     0.167 HD
ATOM     61  C   UNL A   1      42.548  29.319  34.006  1.00  0.00     0.074 A 
ATOM     62  C   UNL A   1      42.668  29.951  35.301  1.00  0.00     0.031 C 
ATOM     63  C   UNL A   1      43.444  28.429  33.508  1.00  0.00     0.034 A 
BRANCH  50  64
ATOM     64  C   UNL A   1      42.100  26.524  27.761  1.00  0.00     0.023 A 
ATOM     65  C   UNL A   1      41.657  25.193  27.717  1.00  0.00     0.031 A 
ATOM     66  C   UNL A   1      42.916  26.983  26.711  1.00  0.00     0.131 A 
ATOM     67  C   UNL A   1      42.098  24.345  26.691  1.00  0.00     0.055 A 
ATOM     68  C   UNL A   1      43.273  26.160  25.642  1.00  0.00     0.041 A 
ATOM     69  F   UNL A   1      43.394  28.237  26.713  1.00  0.00    -0.206 F 
ATOM     70  C   UNL A   1      42.878  24.826  25.638  1.00  0.00     0.022 A 
BRANCH  67  71
ATOM     71  S   UNL A   1      41.770  22.569  26.845  1.00  0.00     0.124 S 
ATOM     72  O   UNL A   1      40.407  22.476  26.327  1.00  0.00    -0.237 OA
ATOM     73  O   UNL A   1      42.812  21.982  26.010  1.00  0.00    -0.237 OA
ATOM     74  O   UNL A   1      41.904  22.319  28.279  1.00  0.00    -0.744 OA
ENDBRANCH  67  71
ENDBRANCH  50  64
BRANCH  51  75
ATOM     75  C   UNL A   1      39.002  32.033  35.506  1.00  0.00     0.023 A 
ATOM     76  C   UNL A   1      39.452  33.372  35.508  1.00  0.00     0.031 A 
ATOM     77  C   UNL A   1      38.225  31.624  36.601  1.00  0.00     0.131 A 
ATOM     78  C   UNL A   1      39.173  34.223  36.593  1.00  0.00     0.055 A 
ATOM     79  C   UNL A   1      37.872  32.502  37.632  1.00  0.00     0.041 A 
ATOM     80  F   UNL A   1      37.801  30.355  36.702  1.00  0.00    -0.206 F 
ATOM     81  C   UNL A   1      38.359  33.805  37.641  1.00  0.00     0.022 A 
BRANCH  78  82
ATOM     82  S   UNL A   1      39.990  35.843  36.668  1.00  0.00     0.124 S 
ATOM     83  O   UNL A   1      41.387  35.464  36.839  1.00  0.00    -0.237 OA
ATOM     84  O   UNL A   1      39.632  36.416  35.375  1.00  0.00    -0.237 OA
ATOM     85  O   UNL A   1      39.370  36.484  37.826  1.00  0.00    -0.744 OA
ENDBRANCH  78  82
ENDBRANCH  51  75
BRANCH  63  86
ATOM     86  C   UNL A   1      44.616  28.068  34.390  1.00  0.00     0.023 A 
ATOM     87  C   UNL A   1      44.529  27.028  35.336  1.00  0.00     0.031 A 
ATOM     88  C   UNL A   1      45.831  28.767  34.289  1.00  0.00     0.131 A 
ATOM     89  C   UNL A   1      45.613  26.758  36.183  1.00  0.00     0.055 A 
ATOM     90  C   UNL A   1      46.929  28.449  35.091  1.00  0.00     0.041 A 
ATOM     91  F   UNL A   1      45.971  29.770  33.408  1.00  0.00    -0.206 F 
ATOM     92  C   UNL A   1      46.820  27.449  36.053  1.00  0.00     0.022 A 
BRANCH  89  93
ATOM     93  S   UNL A   1      45.396  25.555  37.525  1.00  0.00     0.124 S 
ATOM     94  O   UNL A   1      44.396  26.210  38.361  1.00  0.00    -0.237 OA
ATOM     95  O   UNL A   1      44.949  24.365  36.809  1.00  0.00    -0.237 OA
ATOM     96  O   UNL A   1      46.730  25.456  38.116  1.00  0.00    -0.744 OA
ENDBRANCH  89  93
ENDBRANCH  63  86
ENDBRANCH  37  38
ENDBRANCH  30  32
ENDBRANCH  29  30
ENDBRANCH  28  29
ENDBRANCH  27  28
ENDBRANCH  26  27
ENDBRANCH  25  26
ENDBRANCH   1  25
TORSDOF 24
ENDMDL
MODEL 2
REMARK VINA RESULT:     -10.5      1.892      2.131
REMARK SMILES C[C@@H](C(=O)OCCOCCOCCOC(=O)c1ccc(-c2c3nc(c(-c4cc(S(=O)(=O)[O-])ccc4F)c4ccc([nH]4)c(-c4cc(S(=O)(=O)[O-])ccc4F)c4nc(c(-c5cc(S(=O)(=O)[O-])ccc5F)c5ccc2[nH]5)C=C4)C=C3)cc1)c1ccc(C[C@H]2CCC[C@@H]2O)cc1F
REMARK SMILES IDX 9 1 8 2 7 3 6 4 5 5 3 6 4 7 2 8 1 9 80 10 81 11 92 12 82 13
REMARK SMILES IDX 91 14 93 15 83 16 84 17 85 18 86 19 89 20 87 21 88 22 90 23
REMARK SMILES IDX 10 25 11 26 12 27 13 28 14 29 15 30 16 31 17 32 18 33 79 34
REMARK SMILES IDX 19 35 78 36 20 37 21 38 22 39 72 40 23 41 77 42 71 43 73 44
REMARK SMILES IDX 24 45 76 46 70 47 69 48 25 50 57 51 37 52 56 53 38 54 41 55
REMARK SMILES IDX 55 56 74 57 39 58 40 59 54 61 75 62 42 63 26 64 27 65 35 66
REMARK SMILES IDX 28 67 34 68 36 69 33 70 29 71 30 72 31 73 32 74 58 75 59 76
REMARK SMILES IDX 67 77 60 78 66 79 68 80 65 81 61 82 62 83 63 84 64 85 43 86
REMARK SMILES IDX 44 87 52 88 45 89 51 90 53 91 50 92 46 93 47 94 48 95 49 96
REMARK H PARENT 90 24 73 49 41 60
REMARK Flexibility Score: inf
ROOT
ATOM      1  C   UNL A   1      33.149  28.808  22.475  1.00  0.00     0.188 C 
ENDROOT
BRANCH   1   2
ATOM      2  O   UNL A   1      33.675  27.606  21.964  1.00  0.00    -0.376 OA
BRANCH   2   3
ATOM      3  C   UNL A   1      32.977  26.397  22.223  1.00  0.00     0.202 C 
BRANCH   3   4
ATOM      4  C   UNL A   1      33.621  25.155  22.877  1.00  0.00     0.261 C 
BRANCH   4   5
ATOM      5  O   UNL A   1      33.586  25.073  24.317  1.00  0.00    -0.463 OA
BRANCH   5   6
ATOM      6  C   UNL A   1      34.529  24.271  24.897  1.00  0.00     0.313 C 
ATOM      7  O   UNL A   1      35.716  24.299  24.581  1.00  0.00    -0.252 OA
BRANCH   6   8
ATOM      8  C   UNL A   1      33.997  23.320  25.988  1.00  0.00     0.129 C 
ATOM      9  C   UNL A   1      34.756  23.231  27.313  1.00  0.00     0.025 C 
BRANCH   8  10
ATOM     10  C   UNL A   1      33.670  21.929  25.457  1.00  0.00     0.002 A 
ATOM     11  C   UNL A   1      34.634  20.924  25.317  1.00  0.00     0.008 A 
ATOM     12  C   UNL A   1      32.365  21.620  25.067  1.00  0.00     0.127 A 
ATOM     13  C   UNL A   1      34.335  19.712  24.697  1.00  0.00     0.004 A 
ATOM     14  C   UNL A   1      32.061  20.426  24.417  1.00  0.00     0.043 A 
ATOM     15  F   UNL A   1      31.383  22.510  25.272  1.00  0.00    -0.207 F 
ATOM     16  C   UNL A   1      33.070  19.497  24.151  1.00  0.00    -0.045 A 
BRANCH  16  17
ATOM     17  C   UNL A   1      32.843  18.353  23.194  1.00  0.00     0.041 C 
BRANCH  17  18
ATOM     18  C   UNL A   1      33.214  16.963  23.758  1.00  0.00     0.022 C 
ATOM     19  C   UNL A   1      34.690  16.553  23.773  1.00  0.00     0.007 C 
ATOM     20  C   UNL A   1      32.790  16.718  25.201  1.00  0.00     0.117 C 
ATOM     21  C   UNL A   1      34.867  15.637  25.001  1.00  0.00     0.003 C 
ATOM     22  C   UNL A   1      33.475  15.422  25.568  1.00  0.00     0.032 C 
BRANCH  20  23
ATOM     23  O   UNL A   1      31.406  16.614  25.300  1.00  0.00    -0.393 OA
ATOM     24  H   UNL A   1      31.172  16.192  26.142  1.00  0.00     0.210 HD
ENDBRANCH  20  23
ENDBRANCH  17  18
ENDBRANCH  16  17
ENDBRANCH   8  10
ENDBRANCH   6   8
ENDBRANCH   5   6
ENDBRANCH   4   5
ENDBRANCH   3   4
ENDBRANCH   2   3
ENDBRANCH   1   2
BRANCH   1  25
ATOM     25  C   UNL A   1      31.622  28.944  22.571  1.00  0.00     0.188 C 
BRANCH  25  26
ATOM     26  O   UNL A   1      30.935  28.594  23.752  1.00  0.00    -0.376 OA
BRANCH  26  27
ATOM     27  C   UNL A   1      31.544  28.839  25.005  1.00  0.00     0.202 C 
BRANCH  27  28
ATOM     28  C   UNL A   1      31.685  30.247  25.616  1.00  0.00     0.261 C 
BRANCH  28  29
ATOM     29  O   UNL A   1      32.229  30.359  26.936  1.00  0.00    -0.460 OA
BRANCH  29  30
ATOM     30  C   UNL A   1      32.926  31.501  27.182  1.00  0.00     0.338 C 
ATOM     31  O   UNL A   1      32.500  32.637  27.132  1.00  0.00    -0.246 OA
BRANCH  30  32
ATOM     32  C   UNL A   1      34.270  31.141  27.694  1.00  0.00     0.060 A 
ATOM     33  C   UNL A   1      34.590  29.791  27.898  1.00  0.00     0.016 A 
ATOM     34  C   UNL A   1      35.192  32.136  28.018  1.00  0.00     0.016 A 
ATOM     35  C   UNL A   1      35.828  29.438  28.447  1.00  0.00     0.010 A 
ATOM     36  C   UNL A   1      36.417  31.782  28.595  1.00  0.00     0.010 A 
ATOM     37  C   UNL A   1      36.736  30.435  28.835  1.00  0.00    -0.014 A 
BRANCH  37  38
ATOM     38  C   UNL A   1      37.944  30.088  29.634  1.00  0.00     0.031 A 
ATOM     39  C   UNL A   1      39.039  29.296  28.987  1.00  0.00     0.074 A 
ATOM     40  C   UNL A   1      38.026  30.361  30.949  1.00  0.00     0.049 A 
ATOM     41  N   UNL A   1      40.162  28.867  29.501  1.00  0.00    -0.248 NA
ATOM     42  C   UNL A   1      38.793  28.859  27.607  1.00  0.00     0.031 C 
ATOM     43  C   UNL A   1      36.953  30.953  31.730  1.00  0.00     0.029 A 
ATOM     44  N   UNL A   1      39.049  30.185  31.856  1.00  0.00    -0.354 N 
ATOM     45  C   UNL A   1      40.716  28.029  28.543  1.00  0.00     0.074 A 
ATOM     46  C   UNL A   1      39.817  28.043  27.406  1.00  0.00     0.031 C 
ATOM     47  C   UNL A   1      37.396  31.153  32.982  1.00  0.00     0.029 A 
ATOM     48  C   UNL A   1      38.801  30.775  33.082  1.00  0.00     0.049 A 
ATOM     49  H   UNL A   1      39.875  29.689  31.652  1.00  0.00     0.167 HD
ATOM     50  C   UNL A   1      41.843  27.280  28.632  1.00  0.00     0.034 A 
ATOM     51  C   UNL A   1      39.641  31.042  34.111  1.00  0.00     0.034 A 
ATOM     52  C   UNL A   1      42.715  27.264  29.781  1.00  0.00     0.049 A 
ATOM     53  C   UNL A   1      41.014  30.406  34.083  1.00  0.00     0.074 A 
ATOM     54  C   UNL A   1      43.882  26.543  29.967  1.00  0.00     0.029 A 
ATOM     55  N   UNL A   1      42.514  27.994  30.946  1.00  0.00    -0.354 N 
ATOM     56  N   UNL A   1      41.563  29.670  33.144  1.00  0.00    -0.248 NA
ATOM     57  C   UNL A   1      41.859  30.582  35.275  1.00  0.00     0.031 C 
ATOM     58  C   UNL A   1      44.351  26.785  31.262  1.00  0.00     0.029 A 
ATOM     59  C   UNL A   1      43.528  27.727  31.856  1.00  0.00     0.049 A 
ATOM     60  H   UNL A   1      41.762  28.610  31.103  1.00  0.00     0.167 HD
ATOM     61  C   UNL A   1      42.787  29.254  33.659  1.00  0.00     0.074 A 
ATOM     62  C   UNL A   1      42.949  29.909  34.938  1.00  0.00     0.031 C 
ATOM     63  C   UNL A   1      43.669  28.359  33.146  1.00  0.00     0.034 A 
BRANCH  50  64
ATOM     64  C   UNL A   1      42.137  26.350  27.482  1.00  0.00     0.023 A 
ATOM     65  C   UNL A   1      41.593  25.058  27.415  1.00  0.00     0.031 A 
ATOM     66  C   UNL A   1      43.021  26.747  26.461  1.00  0.00     0.131 A 
ATOM     67  C   UNL A   1      41.998  24.182  26.399  1.00  0.00     0.055 A 
ATOM     68  C   UNL A   1      43.346  25.902  25.399  1.00  0.00     0.041 A 
ATOM     69  F   UNL A   1      43.597  27.959  26.486  1.00  0.00    -0.206 F 
ATOM     70  C   UNL A   1      42.847  24.603  25.374  1.00  0.00     0.022 A 
BRANCH  67  71
ATOM     71  S   UNL A   1      41.526  22.437  26.530  1.00  0.00     0.124 S 
ATOM     72  O   UNL A   1      40.126  22.479  26.116  1.00  0.00    -0.237 OA
ATOM     73  O   UNL A   1      42.447  21.790  25.603  1.00  0.00    -0.237 OA
ATOM     74  O   UNL A   1      41.743  22.129  27.943  1.00  0.00    -0.744 OA
ENDBRANCH  67  71
ENDBRANCH  50  64
BRANCH  51  75
ATOM     75  C   UNL A   1      39.283  31.981  35.232  1.00  0.00     0.023 A 
ATOM     76  C   UNL A   1      38.645  31.484  36.390  1.00  0.00     0.031 A 
ATOM     77  C   UNL A   1      39.516  33.364  35.181  1.00  0.00     0.131 A 
ATOM     78  C   UNL A   1      38.220  32.357  37.408  1.00  0.00     0.055 A 
ATOM     79  C   UNL A   1      39.176  34.216  36.239  1.00  0.00     0.041 A 
ATOM     80  F   UNL A   1      40.070  33.925  34.095  1.00  0.00    -0.206 F 
ATOM     81  C   UNL A   1      38.509  33.717  37.353  1.00  0.00     0.022 A 
BRANCH  78  82
ATOM     82  S   UNL A   1      37.179  31.703  38.745  1.00  0.00     0.124 S 
ATOM     83  O   UNL A   1      36.010  32.572  38.663  1.00  0.00    -0.237 OA
ATOM     84  O   UNL A   1      36.985  30.321  38.322  1.00  0.00    -0.237 OA
ATOM     85  O   UNL A   1      38.006  31.879  39.937  1.00  0.00    -0.744 OA
ENDBRANCH  78  82
ENDBRANCH  51  75
BRANCH  63  86
ATOM     86  C   UNL A   1      44.872  28.018  33.994  1.00  0.00     0.023 A 
ATOM     87  C   UNL A   1      46.072  28.747  33.892  1.00  0.00     0.031 A 
ATOM     88  C   UNL A   1      44.823  26.954  34.911  1.00  0.00     0.131 A 
ATOM     89  C   UNL A   1      47.191  28.367  34.647  1.00  0.00     0.055 A 
ATOM     90  C   UNL A   1      45.920  26.622  35.708  1.00  0.00     0.041 A 
ATOM     91  F   UNL A   1      43.707  26.221  35.049  1.00  0.00    -0.206 F 
ATOM     92  C   UNL A   1      47.116  27.320  35.570  1.00  0.00     0.022 A 
BRANCH  89  93
ATOM     93  S   UNL A   1      48.776  29.195  34.341  1.00  0.00     0.124 S 
ATOM     94  O   UNL A   1      49.736  28.149  34.676  1.00  0.00    -0.237 OA
ATOM     95  O   UNL A   1      48.679  29.543  32.926  1.00  0.00    -0.237 OA
ATOM     96  O   UNL A   1      48.753  30.333  35.259  1.00  0.00    -0.744 OA
ENDBRANCH  89  93
ENDBRANCH  63  86
ENDBRANCH  37  38
ENDBRANCH  30  32
ENDBRANCH  29  30
ENDBRANCH  28  29
ENDBRANCH  27  28
ENDBRANCH  26  27
ENDBRANCH  25  26
ENDBRANCH   1  25
TORSDOF 24
ENDMDL
MODEL 3
REMARK VINA RESULT:     -10.4      5.664      9.421
REMARK SMILES C[C@@H](C(=O)OCCOCCOCCOC(=O)c1ccc(-c2c3nc(c(-c4cc(S(=O)(=O)[O-])ccc4F)c4ccc([nH]4)c(-c4cc(S(=O)(=O)[O-])ccc4F)c4nc(c(-c5cc(S(=O)(=O)[O-])ccc5F)c5ccc2[nH]5)C=C4)C=C3)cc1)c1ccc(C[C@H]2CCC[C@@H]2O)cc1F
REMARK SMILES IDX 9 1 8 2 7 3 6 4 5 5 3 6 4 7 2 8 1 9 80 10 81 11 92 12 82 13
REMARK SMILES IDX 91 14 93 15 83 16 84 17 85 18 86 19 89 20 87 21 88 22 90 23
REMARK SMILES IDX 10 25 11 26 12 27 13 28 14 29 15 30 16 31 17 32 18 33 79 34
REMARK SMILES IDX 19 35 78 36 20 37 21 38 22 39 72 40 23 41 77 42 71 43 73 44
REMARK SMILES IDX 24 45 76 46 70 47 69 48 25 50 57 51 37 52 56 53 38 54 41 55
REMARK SMILES IDX 55 56 74 57 39 58 40 59 54 61 75 62 42 63 26 64 27 65 35 66
REMARK SMILES IDX 28 67 34 68 36 69 33 70 29 71 30 72 31 73 32 74 58 75 59 76
REMARK SMILES IDX 67 77 60 78 66 79 68 80 65 81 61 82 62 83 63 84 64 85 43 86
REMARK SMILES IDX 44 87 52 88 45 89 51 90 53 91 50 92 46 93 47 94 48 95 49 96
REMARK H PARENT 90 24 73 49 41 60
REMARK Flexibility Score: inf
ROOT
ATOM      1  C   UNL A   1      39.947  21.122  26.316  1.00  0.00     0.188 C 
ENDROOT
BRANCH   1   2
ATOM      2  O   UNL A   1      38.974  20.522  25.494  1.00  0.00    -0.376 OA
BRANCH   2   3
ATOM      3  C   UNL A   1      37.880  21.315  25.053  1.00  0.00     0.202 C 
BRANCH   3   4
ATOM      4  C   UNL A   1      37.476  22.658  25.699  1.00  0.00     0.261 C 
BRANCH   4   5
ATOM      5  O   UNL A   1      37.197  23.760  24.812  1.00  0.00    -0.463 OA
BRANCH   5   6
ATOM      6  C   UNL A   1      36.284  23.521  23.822  1.00  0.00     0.313 C 
ATOM      7  O   UNL A   1      36.601  23.135  22.700  1.00  0.00    -0.252 OA
BRANCH   6   8
ATOM      8  C   UNL A   1      34.814  23.768  24.215  1.00  0.00     0.129 C 
ATOM      9  C   UNL A   1      34.521  24.672  25.414  1.00  0.00     0.025 C 
BRANCH   8  10
ATOM     10  C   UNL A   1      33.994  22.485  24.291  1.00  0.00     0.002 A 
ATOM     11  C   UNL A   1      34.078  21.593  25.366  1.00  0.00     0.008 A 
ATOM     12  C   UNL A   1      33.126  22.149  23.250  1.00  0.00     0.127 A 
ATOM     13  C   UNL A   1      33.425  20.362  25.341  1.00  0.00     0.004 A 
ATOM     14  C   UNL A   1      32.494  20.908  23.198  1.00  0.00     0.043 A 
ATOM     15  F   UNL A   1      32.931  23.014  22.244  1.00  0.00    -0.207 F 
ATOM     16  C   UNL A   1      32.711  19.969  24.209  1.00  0.00    -0.045 A 
BRANCH  16  17
ATOM     17  C   UNL A   1      32.298  18.529  24.037  1.00  0.00     0.041 C 
BRANCH  17  18
ATOM     18  C   UNL A   1      33.058  17.531  24.940  1.00  0.00     0.022 C 
ATOM     19  C   UNL A   1      32.311  16.292  25.445  1.00  0.00     0.007 C 
ATOM     20  C   UNL A   1      34.313  16.929  24.321  1.00  0.00     0.117 C 
ATOM     21  C   UNL A   1      33.369  15.178  25.572  1.00  0.00     0.003 C 
ATOM     22  C   UNL A   1      34.708  15.836  25.287  1.00  0.00     0.032 C 
BRANCH  20  23
ATOM     23  O   UNL A   1      35.313  17.889  24.196  1.00  0.00    -0.393 OA
ATOM     24  H   UNL A   1      34.929  18.715  23.860  1.00  0.00     0.210 HD
ENDBRANCH  20  23
ENDBRANCH  17  18
ENDBRANCH  16  17
ENDBRANCH   8  10
ENDBRANCH   6   8
ENDBRANCH   5   6
ENDBRANCH   4   5
ENDBRANCH   3   4
ENDBRANCH   2   3
ENDBRANCH   1   2
BRANCH   1  25
ATOM     25  C   UNL A   1      41.420  20.755  26.077  1.00  0.00     0.188 C 
BRANCH  25  26
ATOM     26  O   UNL A   1      41.775  19.505  25.530  1.00  0.00    -0.376 OA
BRANCH  26  27
ATOM     27  C   UNL A   1      42.784  18.737  26.157  1.00  0.00     0.202 C 
BRANCH  27  28
ATOM     28  C   UNL A   1      44.024  18.203  25.414  1.00  0.00     0.261 C 
BRANCH  28  29
ATOM     29  O   UNL A   1      45.079  19.123  25.114  1.00  0.00    -0.460 OA
BRANCH  29  30
ATOM     30  C   UNL A   1      44.790  20.046  24.156  1.00  0.00     0.338 C 
ATOM     31  O   UNL A   1      44.494  19.824  23.000  1.00  0.00    -0.246 OA
BRANCH  30  32
ATOM     32  C   UNL A   1      44.724  21.386  24.787  1.00  0.00     0.060 A 
ATOM     33  C   UNL A   1      44.164  22.456  24.074  1.00  0.00     0.016 A 
ATOM     34  C   UNL A   1      45.261  21.595  26.058  1.00  0.00     0.016 A 
ATOM     35  C   UNL A   1      44.159  23.742  24.628  1.00  0.00     0.010 A 
ATOM     36  C   UNL A   1      45.282  22.887  26.595  1.00  0.00     0.010 A 
ATOM     37  C   UNL A   1      44.752  23.973  25.877  1.00  0.00    -0.014 A 
BRANCH  37  38
ATOM     38  C   UNL A   1      44.968  25.363  26.367  1.00  0.00     0.031 A 
ATOM     39  C   UNL A   1      46.282  26.031  26.097  1.00  0.00     0.074 A 
ATOM     40  C   UNL A   1      44.066  25.989  27.144  1.00  0.00     0.049 A 
ATOM     41  N   UNL A   1      46.690  27.222  26.449  1.00  0.00    -0.248 NA
ATOM     42  C   UNL A   1      47.296  25.214  25.418  1.00  0.00     0.031 C 
ATOM     43  C   UNL A   1      42.841  25.378  27.630  1.00  0.00     0.029 A 
ATOM     44  N   UNL A   1      44.031  27.270  27.653  1.00  0.00    -0.354 N 
ATOM     45  C   UNL A   1      48.039  27.267  26.121  1.00  0.00     0.074 A 
ATOM     46  C   UNL A   1      48.363  25.994  25.510  1.00  0.00     0.031 C 
ATOM     47  C   UNL A   1      42.143  26.301  28.312  1.00  0.00     0.029 A 
ATOM     48  C   UNL A   1      42.827  27.588  28.253  1.00  0.00     0.049 A 
ATOM     49  H   UNL A   1      44.789  27.896  27.596  1.00  0.00     0.167 HD
ATOM     50  C   UNL A   1      48.929  28.263  26.359  1.00  0.00     0.034 A 
ATOM     51  C   UNL A   1      42.325  28.791  28.625  1.00  0.00     0.034 A 
ATOM     52  C   UNL A   1      48.591  29.517  26.987  1.00  0.00     0.049 A 
ATOM     53  C   UNL A   1      43.268  29.974  28.641  1.00  0.00     0.074 A 
ATOM     54  C   UNL A   1      49.418  30.590  27.269  1.00  0.00     0.029 A 
ATOM     55  N   UNL A   1      47.325  29.866  27.443  1.00  0.00    -0.354 N 
ATOM     56  N   UNL A   1      44.525  30.032  28.266  1.00  0.00    -0.248 NA
ATOM     57  C   UNL A   1      42.749  31.237  29.189  1.00  0.00     0.031 C 
ATOM     58  C   UNL A   1      48.673  31.558  27.948  1.00  0.00     0.029 A 
ATOM     59  C   UNL A   1      47.357  31.132  28.014  1.00  0.00     0.049 A 
ATOM     60  H   UNL A   1      46.524  29.300  27.371  1.00  0.00     0.167 HD
ATOM     61  C   UNL A   1      44.955  31.316  28.583  1.00  0.00     0.074 A 
ATOM     62  C   UNL A   1      43.800  32.035  29.075  1.00  0.00     0.031 C 
ATOM     63  C   UNL A   1      46.208  31.834  28.533  1.00  0.00     0.034 A 
BRANCH  50  64
ATOM     64  C   UNL A   1      50.370  27.987  26.014  1.00  0.00     0.023 A 
ATOM     65  C   UNL A   1      50.835  28.021  24.690  1.00  0.00     0.031 A 
ATOM     66  C   UNL A   1      51.283  27.632  27.025  1.00  0.00     0.131 A 
ATOM     67  C   UNL A   1      52.150  27.629  24.402  1.00  0.00     0.055 A 
ATOM     68  C   UNL A   1      52.616  27.334  26.742  1.00  0.00     0.041 A 
ATOM     69  F   UNL A   1      50.889  27.552  28.306  1.00  0.00    -0.206 F 
ATOM     70  C   UNL A   1      53.052  27.315  25.420  1.00  0.00     0.022 A 
BRANCH  67  71
ATOM     71  S   UNL A   1      52.611  27.379  22.667  1.00  0.00     0.124 S 
ATOM     72  O   UNL A   1      53.339  28.612  22.377  1.00  0.00    -0.237 OA
ATOM     73  O   UNL A   1      53.414  26.163  22.726  1.00  0.00    -0.237 OA
ATOM     74  O   UNL A   1      51.324  27.247  21.986  1.00  0.00    -0.744 OA
ENDBRANCH  67  71
ENDBRANCH  50  64
BRANCH  51  75
ATOM     75  C   UNL A   1      40.871  28.998  28.958  1.00  0.00     0.023 A 
ATOM     76  C   UNL A   1      40.448  28.980  30.306  1.00  0.00     0.031 A 
ATOM     77  C   UNL A   1      39.876  29.176  27.985  1.00  0.00     0.131 A 
ATOM     78  C   UNL A   1      39.085  29.080  30.634  1.00  0.00     0.055 A 
ATOM     79  C   UNL A   1      38.531  29.370  28.322  1.00  0.00     0.041 A 
ATOM     80  F   UNL A   1      40.185  29.154  26.680  1.00  0.00    -0.206 F 
ATOM     81  C   UNL A   1      38.126  29.306  29.651  1.00  0.00     0.022 A 
BRANCH  78  82
ATOM     82  S   UNL A   1      38.572  28.790  32.352  1.00  0.00     0.124 S 
ATOM     83  O   UNL A   1      39.480  29.666  33.084  1.00  0.00    -0.237 OA
ATOM     84  O   UNL A   1      37.172  29.199  32.318  1.00  0.00    -0.237 OA
ATOM     85  O   UNL A   1      38.799  27.359  32.539  1.00  0.00    -0.744 OA
ENDBRANCH  78  82
ENDBRANCH  51  75
BRANCH  63  86
ATOM     86  C   UNL A   1      46.392  33.239  29.055  1.00  0.00     0.023 A 
ATOM     87  C   UNL A   1      46.000  34.360  28.299  1.00  0.00     0.031 A 
ATOM     88  C   UNL A   1      46.964  33.464  30.319  1.00  0.00     0.131 A 
ATOM     89  C   UNL A   1      46.241  35.654  28.784  1.00  0.00     0.055 A 
ATOM     90  C   UNL A   1      47.141  34.754  30.825  1.00  0.00     0.041 A 
ATOM     91  F   UNL A   1      47.360  32.435  31.084  1.00  0.00    -0.206 F 
ATOM     92  C   UNL A   1      46.791  35.857  30.052  1.00  0.00     0.022 A 
BRANCH  89  93
ATOM     93  S   UNL A   1      45.914  37.071  27.699  1.00  0.00     0.124 S 
ATOM     94  O   UNL A   1      45.087  36.472  26.657  1.00  0.00    -0.237 OA
ATOM     95  O   UNL A   1      45.237  38.003  28.595  1.00  0.00    -0.237 OA
ATOM     96  O   UNL A   1      47.248  37.487  27.268  1.00  0.00    -0.744 OA
ENDBRANCH  89  93
ENDBRANCH  63  86
ENDBRANCH  37  38
ENDBRANCH  30  32
ENDBRANCH  29  30
ENDBRANCH  28  29
ENDBRANCH  27  28
ENDBRANCH  26  27
ENDBRANCH  25  26
ENDBRANCH   1  25
TORSDOF 24
ENDMDL
