MODEL 1
REMARK VINA RESULT:      -9.1      0.000      0.000
REMARK SMILES O=C(C[C@@H]1CSCC[NH2+]1)NC[C@H]1CC[C@@H](C(=O)OCCOCCOCCOC(=O)c2ccc(-c3c4nc(c(-c5cc(S(=O)(=O)[O-])ccc5F)c5ccc([nH]5)c(-c5cc(S(=O)(=O)[O-])ccc5F)c5nc(c(-c6cc(S(=O)(=O)[O-])ccc6F)c6ccc3[nH]6)C=C5)C=C4)cc2)O1
REMARK SMILES IDX 22 1 21 2 20 3 19 4 18 5 16 6 17 7 15 8 12 9 13 10 93 11
REMARK SMILES IDX 14 12 11 13 10 14 1 15 2 16 3 18 4 19 5 20 9 21 6 22 8 23
REMARK SMILES IDX 7 26 23 27 24 28 25 29 26 30 27 31 28 32 29 33 30 34 31 35
REMARK SMILES IDX 92 36 32 37 91 38 33 39 34 40 35 41 85 42 36 43 90 44 84 45
REMARK SMILES IDX 86 46 37 47 89 48 83 49 82 50 38 52 70 53 50 54 69 55 51 56
REMARK SMILES IDX 54 57 68 58 87 59 52 60 53 61 67 63 88 64 55 65 39 66 40 67
REMARK SMILES IDX 48 68 41 69 47 70 49 71 46 72 42 73 43 74 44 75 45 76 71 77
REMARK SMILES IDX 72 78 80 79 73 80 79 81 81 82 78 83 74 84 75 85 76 86 77 87
REMARK SMILES IDX 56 88 57 89 65 90 58 91 64 92 66 93 63 94 59 95 60 96 61 97
REMARK SMILES IDX 62 98
REMARK H PARENT 10 17 9 24 9 25 86 51 54 62
REMARK Flexibility Score: inf
ROOT
ATOM      1  C   UNL A   1      35.012  34.125  28.497  1.00  0.00     0.188 C 
ENDROOT
BRANCH   1   2
ATOM      2  O   UNL A   1      35.469  33.101  27.614  1.00  0.00    -0.376 OA
BRANCH   2   3
ATOM      3  C   UNL A   1      36.229  32.026  28.149  1.00  0.00     0.202 C 
BRANCH   3   4
ATOM      4  C   UNL A   1      35.443  30.793  28.594  1.00  0.00     0.261 C 
BRANCH   4   5
ATOM      5  O   UNL A   1      35.231  29.856  27.522  1.00  0.00    -0.461 OA
BRANCH   5   6
ATOM      6  C   UNL A   1      33.940  29.665  27.148  1.00  0.00     0.335 C 
ATOM      7  O   UNL A   1      33.047  30.493  27.301  1.00  0.00    -0.249 OA
BRANCH   6   8
ATOM      8  C   UNL A   1      33.688  28.297  26.495  1.00  0.00     0.228 C 
ATOM      9  C   UNL A   1      32.488  26.494  25.749  1.00  0.00     0.138 C 
ATOM     10  C   UNL A   1      33.596  26.769  24.723  1.00  0.00     0.037 C 
ATOM     11  O   UNL A   1      32.374  27.722  26.524  1.00  0.00    -0.361 OA
ATOM     12  C   UNL A   1      34.016  28.203  25.019  1.00  0.00     0.047 C 
BRANCH   9  13
ATOM     13  C   UNL A   1      31.123  25.998  25.234  1.00  0.00     0.147 C 
BRANCH  13  14
ATOM     14  N   UNL A   1      30.254  27.019  24.667  1.00  0.00    -0.353 N 
ATOM     15  O   UNL A   1      30.861  26.619  22.500  1.00  0.00    -0.275 OA
ATOM     16  C   UNL A   1      30.199  27.258  23.313  1.00  0.00     0.226 C 
ATOM     17  H   UNL A   1      29.688  27.554  25.269  1.00  0.00     0.163 HD
BRANCH  16  18
ATOM     18  C   UNL A   1      29.335  28.426  22.865  1.00  0.00     0.165 C 
BRANCH  18  19
ATOM     19  C   UNL A   1      29.926  29.847  22.757  1.00  0.00     0.201 C 
ATOM     20  C   UNL A   1      29.455  30.809  23.862  1.00  0.00     0.135 C 
ATOM     21  N   UNL A   1      29.953  30.469  21.426  1.00  0.00    -0.342 N 
ATOM     22  S   UNL A   1      27.763  31.380  23.623  1.00  0.00    -0.150 SA
ATOM     23  C   UNL A   1      28.663  30.980  20.956  1.00  0.00     0.271 C 
ATOM     24  H   UNL A   1      30.279  29.771  20.758  1.00  0.00     0.346 HD
ATOM     25  H   UNL A   1      30.570  31.278  21.501  1.00  0.00     0.346 HD
ATOM     26  C   UNL A   1      27.952  31.955  21.898  1.00  0.00     0.131 C 
ENDBRANCH  18  19
ENDBRANCH  16  18
ENDBRANCH  13  14
ENDBRANCH   9  13
ENDBRANCH   6   8
ENDBRANCH   5   6
ENDBRANCH   4   5
ENDBRANCH   3   4
ENDBRANCH   2   3
ENDBRANCH   1   2
BRANCH   1  27
ATOM     27  C   UNL A   1      33.817  35.003  28.072  1.00  0.00     0.188 C 
BRANCH  27  28
ATOM     28  O   UNL A   1      34.004  36.387  28.349  1.00  0.00    -0.376 OA
BRANCH  28  29
ATOM     29  C   UNL A   1      33.710  36.804  29.673  1.00  0.00     0.202 C 
BRANCH  29  30
ATOM     30  C   UNL A   1      32.293  36.463  30.119  1.00  0.00     0.261 C 
BRANCH  30  31
ATOM     31  O   UNL A   1      32.312  35.637  31.299  1.00  0.00    -0.460 OA
BRANCH  31  32
ATOM     32  C   UNL A   1      32.976  36.085  32.379  1.00  0.00     0.338 C 
ATOM     33  O   UNL A   1      32.772  37.126  32.988  1.00  0.00    -0.246 OA
BRANCH  32  34
ATOM     34  C   UNL A   1      34.047  35.122  32.709  1.00  0.00     0.060 A 
ATOM     35  C   UNL A   1      33.759  33.855  33.235  1.00  0.00     0.016 A 
ATOM     36  C   UNL A   1      35.371  35.517  32.529  1.00  0.00     0.016 A 
ATOM     37  C   UNL A   1      34.796  32.992  33.602  1.00  0.00     0.010 A 
ATOM     38  C   UNL A   1      36.406  34.641  32.864  1.00  0.00     0.010 A 
ATOM     39  C   UNL A   1      36.129  33.379  33.423  1.00  0.00    -0.014 A 
BRANCH  39  40
ATOM     40  C   UNL A   1      37.257  32.532  33.893  1.00  0.00     0.031 A 
ATOM     41  C   UNL A   1      37.909  32.856  35.209  1.00  0.00     0.074 A 
ATOM     42  C   UNL A   1      37.721  31.513  33.147  1.00  0.00     0.049 A 
ATOM     43  N   UNL A   1      39.049  32.447  35.698  1.00  0.00    -0.248 NA
ATOM     44  C   UNL A   1      37.174  33.783  36.082  1.00  0.00     0.031 C 
ATOM     45  C   UNL A   1      37.135  31.044  31.890  1.00  0.00     0.029 A 
ATOM     46  N   UNL A   1      38.816  30.702  33.326  1.00  0.00    -0.354 N 
ATOM     47  C   UNL A   1      39.188  33.090  36.924  1.00  0.00     0.074 A 
ATOM     48  C   UNL A   1      38.020  33.930  37.091  1.00  0.00     0.031 C 
ATOM     49  C   UNL A   1      37.890  30.046  31.401  1.00  0.00     0.029 A 
ATOM     50  C   UNL A   1      39.049  29.853  32.269  1.00  0.00     0.049 A 
ATOM     51  H   UNL A   1      39.380  30.726  34.134  1.00  0.00     0.167 HD
ATOM     52  C   UNL A   1      40.199  32.989  37.822  1.00  0.00     0.034 A 
ATOM     53  C   UNL A   1      40.105  29.058  31.998  1.00  0.00     0.034 A 
ATOM     54  C   UNL A   1      41.354  32.144  37.637  1.00  0.00     0.049 A 
ATOM     55  C   UNL A   1      41.262  29.025  32.967  1.00  0.00     0.074 A 
ATOM     56  C   UNL A   1      42.450  31.981  38.467  1.00  0.00     0.029 A 
ATOM     57  N   UNL A   1      41.562  31.313  36.543  1.00  0.00    -0.354 N 
ATOM     58  N   UNL A   1      41.422  29.690  34.089  1.00  0.00    -0.248 NA
ATOM     59  C   UNL A   1      42.383  28.137  32.629  1.00  0.00     0.031 C 
ATOM     60  C   UNL A   1      43.344  31.097  37.849  1.00  0.00     0.029 A 
ATOM     61  C   UNL A   1      42.775  30.651  36.667  1.00  0.00     0.049 A 
ATOM     62  H   UNL A   1      40.939  31.209  35.788  1.00  0.00     0.167 HD
ATOM     63  C   UNL A   1      42.655  29.285  34.597  1.00  0.00     0.074 A 
ATOM     64  C   UNL A   1      43.182  28.304  33.672  1.00  0.00     0.031 C 
ATOM     65  C   UNL A   1      43.294  29.687  35.726  1.00  0.00     0.034 A 
BRANCH  52  66
ATOM     66  C   UNL A   1      40.125  33.868  39.048  1.00  0.00     0.023 A 
ATOM     67  C   UNL A   1      40.733  35.135  39.094  1.00  0.00     0.031 A 
ATOM     68  C   UNL A   1      39.463  33.413  40.203  1.00  0.00     0.131 A 
ATOM     69  C   UNL A   1      40.725  35.871  40.290  1.00  0.00     0.055 A 
ATOM     70  C   UNL A   1      39.393  34.184  41.365  1.00  0.00     0.041 A 
ATOM     71  F   UNL A   1      38.885  32.202  40.228  1.00  0.00    -0.206 F 
ATOM     72  C   UNL A   1      40.039  35.416  41.418  1.00  0.00     0.022 A 
BRANCH  69  73
ATOM     73  S   UNL A   1      41.738  37.373  40.393  1.00  0.00     0.124 S 
ATOM     74  O   UNL A   1      41.883  37.531  41.839  1.00  0.00    -0.237 OA
ATOM     75  O   UNL A   1      42.943  36.993  39.667  1.00  0.00    -0.237 OA
ATOM     76  O   UNL A   1      40.912  38.389  39.744  1.00  0.00    -0.744 OA
ENDBRANCH  69  73
ENDBRANCH  52  66
BRANCH  53  77
ATOM     77  C   UNL A   1      40.168  28.294  30.718  1.00  0.00     0.023 A 
ATOM     78  C   UNL A   1      41.031  28.677  29.680  1.00  0.00     0.031 A 
ATOM     79  C   UNL A   1      39.315  27.197  30.493  1.00  0.00     0.131 A 
ATOM     80  C   UNL A   1      40.994  27.999  28.451  1.00  0.00     0.055 A 
ATOM     81  C   UNL A   1      39.321  26.490  29.291  1.00  0.00     0.041 A 
ATOM     82  F   UNL A   1      38.464  26.791  31.449  1.00  0.00    -0.206 F 
ATOM     83  C   UNL A   1      40.155  26.898  28.255  1.00  0.00     0.022 A 
BRANCH  80  84
ATOM     84  S   UNL A   1      41.994  28.632  27.077  1.00  0.00     0.124 S 
ATOM     85  O   UNL A   1      42.717  29.728  27.716  1.00  0.00    -0.237 OA
ATOM     86  O   UNL A   1      42.790  27.463  26.718  1.00  0.00    -0.237 OA
ATOM     87  O   UNL A   1      40.998  29.034  26.087  1.00  0.00    -0.744 OA
ENDBRANCH  80  84
ENDBRANCH  53  77
BRANCH  65  88
ATOM     88  C   UNL A   1      44.614  29.023  36.035  1.00  0.00     0.023 A 
ATOM     89  C   UNL A   1      44.683  27.788  36.703  1.00  0.00     0.031 A 
ATOM     90  C   UNL A   1      45.821  29.651  35.678  1.00  0.00     0.131 A 
ATOM     91  C   UNL A   1      45.932  27.247  37.045  1.00  0.00     0.055 A 
ATOM     92  C   UNL A   1      47.060  29.080  35.969  1.00  0.00     0.041 A 
ATOM     93  F   UNL A   1      45.814  30.832  35.040  1.00  0.00    -0.206 F 
ATOM     94  C   UNL A   1      47.121  27.879  36.670  1.00  0.00     0.022 A 
BRANCH  91  95
ATOM     95  S   UNL A   1      45.985  25.753  38.074  1.00  0.00     0.124 S 
ATOM     96  O   UNL A   1      44.599  25.642  38.518  1.00  0.00    -0.237 OA
ATOM     97  O   UNL A   1      46.433  24.738  37.126  1.00  0.00    -0.237 OA
ATOM     98  O   UNL A   1      46.946  26.091  39.121  1.00  0.00    -0.744 OA
ENDBRANCH  91  95
ENDBRANCH  65  88
ENDBRANCH  39  40
ENDBRANCH  32  34
ENDBRANCH  31  32
ENDBRANCH  30  31
ENDBRANCH  29  30
ENDBRANCH  28  29
ENDBRANCH  27  28
ENDBRANCH   1  27
TORSDOF 24
ENDMDL
MODEL 2
REMARK VINA RESULT:      -9.0      1.859      2.156
REMARK SMILES O=C(C[C@@H]1CSCC[NH2+]1)NC[C@H]1CC[C@@H](C(=O)OCCOCCOCCOC(=O)c2ccc(-c3c4nc(c(-c5cc(S(=O)(=O)[O-])ccc5F)c5ccc([nH]5)c(-c5cc(S(=O)(=O)[O-])ccc5F)c5nc(c(-c6cc(S(=O)(=O)[O-])ccc6F)c6ccc3[nH]6)C=C5)C=C4)cc2)O1
REMARK SMILES IDX 22 1 21 2 20 3 19 4 18 5 16 6 17 7 15 8 12 9 13 10 93 11
REMARK SMILES IDX 14 12 11 13 10 14 1 15 2 16 3 18 4 19 5 20 9 21 6 22 8 23
REMARK SMILES IDX 7 26 23 27 24 28 25 29 26 30 27 31 28 32 29 33 30 34 31 35
REMARK SMILES IDX 92 36 32 37 91 38 33 39 34 40 35 41 85 42 36 43 90 44 84 45
REMARK SMILES IDX 86 46 37 47 89 48 83 49 82 50 38 52 70 53 50 54 69 55 51 56
REMARK SMILES IDX 54 57 68 58 87 59 52 60 53 61 67 63 88 64 55 65 39 66 40 67
REMARK SMILES IDX 48 68 41 69 47 70 49 71 46 72 42 73 43 74 44 75 45 76 71 77
REMARK SMILES IDX 72 78 80 79 73 80 79 81 81 82 78 83 74 84 75 85 76 86 77 87
REMARK SMILES IDX 56 88 57 89 65 90 58 91 64 92 66 93 63 94 59 95 60 96 61 97
REMARK SMILES IDX 62 98
REMARK H PARENT 10 17 9 24 9 25 86 51 54 62
REMARK Flexibility Score: inf
ROOT
ATOM      1  C   UNL A   1      35.252  34.379  28.565  1.00  0.00     0.188 C 
ENDROOT
BRANCH   1   2
ATOM      2  O   UNL A   1      35.818  33.335  27.772  1.00  0.00    -0.376 OA
BRANCH   2   3
ATOM      3  C   UNL A   1      36.468  32.255  28.427  1.00  0.00     0.202 C 
BRANCH   3   4
ATOM      4  C   UNL A   1      35.630  30.998  28.663  1.00  0.00     0.261 C 
BRANCH   4   5
ATOM      5  O   UNL A   1      35.336  30.293  27.443  1.00  0.00    -0.461 OA
BRANCH   5   6
ATOM      6  C   UNL A   1      34.021  30.071  27.188  1.00  0.00     0.335 C 
ATOM      7  O   UNL A   1      33.140  30.916  27.316  1.00  0.00    -0.249 OA
BRANCH   6   8
ATOM      8  C   UNL A   1      33.724  28.641  26.709  1.00  0.00     0.228 C 
ATOM      9  C   UNL A   1      32.462  26.809  26.160  1.00  0.00     0.138 C 
ATOM     10  C   UNL A   1      33.611  26.901  25.146  1.00  0.00     0.037 C 
ATOM     11  O   UNL A   1      32.384  28.132  26.766  1.00  0.00    -0.361 OA
ATOM     12  C   UNL A   1      34.090  28.341  25.270  1.00  0.00     0.047 C 
BRANCH   9  13
ATOM     13  C   UNL A   1      31.091  26.309  25.667  1.00  0.00     0.147 C 
BRANCH  13  14
ATOM     14  N   UNL A   1      30.322  27.258  24.874  1.00  0.00    -0.353 N 
ATOM     15  O   UNL A   1      30.726  26.225  22.875  1.00  0.00    -0.275 OA
ATOM     16  C   UNL A   1      30.206  27.141  23.508  1.00  0.00     0.226 C 
ATOM     17  H   UNL A   1      29.870  28.005  25.329  1.00  0.00     0.163 HD
BRANCH  16  18
ATOM     18  C   UNL A   1      29.468  28.260  22.792  1.00  0.00     0.165 C 
BRANCH  18  19
ATOM     19  C   UNL A   1      30.058  29.685  22.741  1.00  0.00     0.201 C 
ATOM     20  C   UNL A   1      29.551  30.615  23.857  1.00  0.00     0.135 C 
ATOM     21  N   UNL A   1      30.122  30.344  21.429  1.00  0.00    -0.342 N 
ATOM     22  S   UNL A   1      27.865  31.188  23.584  1.00  0.00    -0.150 SA
ATOM     23  C   UNL A   1      28.845  30.864  20.935  1.00  0.00     0.271 C 
ATOM     24  H   UNL A   1      30.470  29.665  20.751  1.00  0.00     0.346 HD
ATOM     25  H   UNL A   1      30.734  31.152  21.544  1.00  0.00     0.346 HD
ATOM     26  C   UNL A   1      28.103  31.811  21.882  1.00  0.00     0.131 C 
ENDBRANCH  18  19
ENDBRANCH  16  18
ENDBRANCH  13  14
ENDBRANCH   9  13
ENDBRANCH   6   8
ENDBRANCH   5   6
ENDBRANCH   4   5
ENDBRANCH   3   4
ENDBRANCH   2   3
ENDBRANCH   1   2
BRANCH   1  27
ATOM     27  C   UNL A   1      33.894  34.981  28.152  1.00  0.00     0.188 C 
BRANCH  27  28
ATOM     28  O   UNL A   1      33.812  36.388  28.357  1.00  0.00    -0.376 OA
BRANCH  28  29
ATOM     29  C   UNL A   1      33.644  36.813  29.700  1.00  0.00     0.202 C 
BRANCH  29  30
ATOM     30  C   UNL A   1      32.288  36.446  30.290  1.00  0.00     0.261 C 
BRANCH  30  31
ATOM     31  O   UNL A   1      32.440  35.547  31.405  1.00  0.00    -0.460 OA
BRANCH  31  32
ATOM     32  C   UNL A   1      33.108  35.983  32.488  1.00  0.00     0.338 C 
ATOM     33  O   UNL A   1      32.891  37.006  33.123  1.00  0.00    -0.246 OA
BRANCH  32  34
ATOM     34  C   UNL A   1      34.201  35.034  32.784  1.00  0.00     0.060 A 
ATOM     35  C   UNL A   1      33.943  33.748  33.278  1.00  0.00     0.016 A 
ATOM     36  C   UNL A   1      35.515  35.461  32.603  1.00  0.00     0.016 A 
ATOM     37  C   UNL A   1      35.001  32.898  33.613  1.00  0.00     0.010 A 
ATOM     38  C   UNL A   1      36.570  34.598  32.906  1.00  0.00     0.010 A 
ATOM     39  C   UNL A   1      36.324  33.317  33.434  1.00  0.00    -0.014 A 
BRANCH  39  40
ATOM     40  C   UNL A   1      37.472  32.480  33.872  1.00  0.00     0.031 A 
ATOM     41  C   UNL A   1      38.134  32.787  35.188  1.00  0.00     0.074 A 
ATOM     42  C   UNL A   1      37.947  31.487  33.098  1.00  0.00     0.049 A 
ATOM     43  N   UNL A   1      39.287  32.389  35.655  1.00  0.00    -0.248 NA
ATOM     44  C   UNL A   1      37.392  33.681  36.090  1.00  0.00     0.031 C 
ATOM     45  C   UNL A   1      37.356  31.036  31.838  1.00  0.00     0.029 A 
ATOM     46  N   UNL A   1      39.059  30.694  33.247  1.00  0.00    -0.354 N 
ATOM     47  C   UNL A   1      39.428  33.008  36.893  1.00  0.00     0.074 A 
ATOM     48  C   UNL A   1      38.247  33.821  37.092  1.00  0.00     0.031 C 
ATOM     49  C   UNL A   1      38.123  30.063  31.318  1.00  0.00     0.029 A 
ATOM     50  C   UNL A   1      39.296  29.873  32.168  1.00  0.00     0.049 A 
ATOM     51  H   UNL A   1      39.632  30.710  34.048  1.00  0.00     0.167 HD
ATOM     52  C   UNL A   1      40.452  32.906  37.777  1.00  0.00     0.034 A 
ATOM     53  C   UNL A   1      40.363  29.105  31.867  1.00  0.00     0.034 A 
ATOM     54  C   UNL A   1      41.620  32.087  37.560  1.00  0.00     0.049 A 
ATOM     55  C   UNL A   1      41.532  29.071  32.822  1.00  0.00     0.074 A 
ATOM     56  C   UNL A   1      42.729  31.926  38.374  1.00  0.00     0.029 A 
ATOM     57  N   UNL A   1      41.831  31.285  36.445  1.00  0.00    -0.354 N 
ATOM     58  N   UNL A   1      41.692  29.714  33.957  1.00  0.00    -0.248 NA
ATOM     59  C   UNL A   1      42.666  28.213  32.452  1.00  0.00     0.031 C 
ATOM     60  C   UNL A   1      43.631  31.073  37.726  1.00  0.00     0.029 A 
ATOM     61  C   UNL A   1      43.057  30.643  36.541  1.00  0.00     0.049 A 
ATOM     62  H   UNL A   1      41.200  31.186  35.695  1.00  0.00     0.167 HD
ATOM     63  C   UNL A   1      42.938  29.321  34.442  1.00  0.00     0.074 A 
ATOM     64  C   UNL A   1      43.473  28.371  33.490  1.00  0.00     0.031 C 
ATOM     65  C   UNL A   1      43.583  29.710  35.573  1.00  0.00     0.034 A 
BRANCH  52  66
ATOM     66  C   UNL A   1      40.375  33.755  39.023  1.00  0.00     0.023 A 
ATOM     67  C   UNL A   1      39.556  33.407  40.113  1.00  0.00     0.031 A 
ATOM     68  C   UNL A   1      41.107  34.954  39.106  1.00  0.00     0.131 A 
ATOM     69  C   UNL A   1      39.439  34.281  41.205  1.00  0.00     0.055 A 
ATOM     70  C   UNL A   1      41.044  35.780  40.230  1.00  0.00     0.041 A 
ATOM     71  F   UNL A   1      41.886  35.352  38.087  1.00  0.00    -0.206 F 
ATOM     72  C   UNL A   1      40.195  35.453  41.282  1.00  0.00     0.022 A 
BRANCH  69  73
ATOM     73  S   UNL A   1      38.181  33.932  42.466  1.00  0.00     0.124 S 
ATOM     74  O   UNL A   1      37.677  35.273  42.758  1.00  0.00    -0.237 OA
ATOM     75  O   UNL A   1      37.265  33.043  41.762  1.00  0.00    -0.237 OA
ATOM     76  O   UNL A   1      38.943  33.313  43.548  1.00  0.00    -0.744 OA
ENDBRANCH  69  73
ENDBRANCH  52  66
BRANCH  53  77
ATOM     77  C   UNL A   1      40.425  28.370  30.570  1.00  0.00     0.023 A 
ATOM     78  C   UNL A   1      41.323  28.748  29.560  1.00  0.00     0.031 A 
ATOM     79  C   UNL A   1      39.539  27.311  30.300  1.00  0.00     0.131 A 
ATOM     80  C   UNL A   1      41.287  28.102  28.313  1.00  0.00     0.055 A 
ATOM     81  C   UNL A   1      39.545  26.634  29.081  1.00  0.00     0.041 A 
ATOM     82  F   UNL A   1      38.654  26.913  31.228  1.00  0.00    -0.206 F 
ATOM     83  C   UNL A   1      40.414  27.037  28.073  1.00  0.00     0.022 A 
BRANCH  80  84
ATOM     84  S   UNL A   1      42.338  28.733  26.976  1.00  0.00     0.124 S 
ATOM     85  O   UNL A   1      43.322  27.663  26.842  1.00  0.00    -0.237 OA
ATOM     86  O   UNL A   1      41.384  28.867  25.880  1.00  0.00    -0.237 OA
ATOM     87  O   UNL A   1      42.852  29.991  27.511  1.00  0.00    -0.744 OA
ENDBRANCH  80  84
ENDBRANCH  53  77
BRANCH  65  88
ATOM     88  C   UNL A   1      44.919  29.064  35.851  1.00  0.00     0.023 A 
ATOM     89  C   UNL A   1      46.122  29.626  35.389  1.00  0.00     0.031 A 
ATOM     90  C   UNL A   1      44.984  27.856  36.567  1.00  0.00     0.131 A 
ATOM     91  C   UNL A   1      47.334  28.950  35.597  1.00  0.00     0.055 A 
ATOM     92  C   UNL A   1      46.198  27.217  36.822  1.00  0.00     0.041 A 
ATOM     93  F   UNL A   1      43.865  27.275  37.030  1.00  0.00    -0.206 F 
ATOM     94  C   UNL A   1      47.381  27.756  36.323  1.00  0.00     0.022 A 
BRANCH  91  95
ATOM     95  S   UNL A   1      48.841  29.599  34.824  1.00  0.00     0.124 S 
ATOM     96  O   UNL A   1      48.470  30.985  34.555  1.00  0.00    -0.237 OA
ATOM     97  O   UNL A   1      49.840  29.398  35.869  1.00  0.00    -0.237 OA
ATOM     98  O   UNL A   1      49.008  28.761  33.639  1.00  0.00    -0.744 OA
ENDBRANCH  91  95
ENDBRANCH  65  88
ENDBRANCH  39  40
ENDBRANCH  32  34
ENDBRANCH  31  32
ENDBRANCH  30  31
ENDBRANCH  29  30
ENDBRANCH  28  29
ENDBRANCH  27  28
ENDBRANCH   1  27
TORSDOF 24
ENDMDL
MODEL 3
REMARK VINA RESULT:      -9.0      5.369     10.383
REMARK SMILES O=C(C[C@@H]1CSCC[NH2+]1)NC[C@H]1CC[C@@H](C(=O)OCCOCCOCCOC(=O)c2ccc(-c3c4nc(c(-c5cc(S(=O)(=O)[O-])ccc5F)c5ccc([nH]5)c(-c5cc(S(=O)(=O)[O-])ccc5F)c5nc(c(-c6cc(S(=O)(=O)[O-])ccc6F)c6ccc3[nH]6)C=C5)C=C4)cc2)O1
REMARK SMILES IDX 22 1 21 2 20 3 19 4 18 5 16 6 17 7 15 8 12 9 13 10 93 11
REMARK SMILES IDX 14 12 11 13 10 14 1 15 2 16 3 18 4 19 5 20 9 21 6 22 8 23
REMARK SMILES IDX 7 26 23 27 24 28 25 29 26 30 27 31 28 32 29 33 30 34 31 35
REMARK SMILES IDX 92 36 32 37 91 38 33 39 34 40 35 41 85 42 36 43 90 44 84 45
REMARK SMILES IDX 86 46 37 47 89 48 83 49 82 50 38 52 70 53 50 54 69 55 51 56
REMARK SMILES IDX 54 57 68 58 87 59 52 60 53 61 67 63 88 64 55 65 39 66 40 67
REMARK SMILES IDX 48 68 41 69 47 70 49 71 46 72 42 73 43 74 44 75 45 76 71 77
REMARK SMILES IDX 72 78 80 79 73 80 79 81 81 82 78 83 74 84 75 85 76 86 77 87
REMARK SMILES IDX 56 88 57 89 65 90 58 91 64 92 66 93 63 94 59 95 60 96 61 97
REMARK SMILES IDX 62 98
REMARK H PARENT 10 17 9 24 9 25 86 51 54 62
REMARK Flexibility Score: inf
ROOT
ATOM      1  C   UNL A   1      33.349  37.546  31.806  1.00  0.00     0.188 C 
ENDROOT
BRANCH   1   2
ATOM      2  O   UNL A   1      33.227  37.047  30.474  1.00  0.00    -0.376 OA
BRANCH   2   3
ATOM      3  C   UNL A   1      32.672  35.754  30.276  1.00  0.00     0.202 C 
BRANCH   3   4
ATOM      4  C   UNL A   1      33.055  35.041  28.979  1.00  0.00     0.261 C 
BRANCH   4   5
ATOM      5  O   UNL A   1      33.635  33.745  29.211  1.00  0.00    -0.461 OA
BRANCH   5   6
ATOM      6  C   UNL A   1      34.607  33.366  28.341  1.00  0.00     0.335 C 
ATOM      7  O   UNL A   1      35.188  34.133  27.579  1.00  0.00    -0.249 OA
BRANCH   6   8
ATOM      8  C   UNL A   1      34.928  31.865  28.400  1.00  0.00     0.228 C 
ATOM      9  C   UNL A   1      34.655  29.622  28.015  1.00  0.00     0.138 C 
ATOM     10  C   UNL A   1      36.156  29.930  27.916  1.00  0.00     0.037 C 
ATOM     11  O   UNL A   1      33.993  30.912  27.874  1.00  0.00    -0.361 OA
ATOM     12  C   UNL A   1      36.204  31.438  27.703  1.00  0.00     0.047 C 
BRANCH   9  13
ATOM     13  C   UNL A   1      34.065  28.554  27.075  1.00  0.00     0.147 C 
BRANCH  13  14
ATOM     14  N   UNL A   1      33.287  29.063  25.954  1.00  0.00    -0.353 N 
ATOM     15  O   UNL A   1      31.305  28.169  26.663  1.00  0.00    -0.275 OA
ATOM     16  C   UNL A   1      31.939  28.815  25.832  1.00  0.00     0.226 C 
ATOM     17  H   UNL A   1      33.738  29.601  25.264  1.00  0.00     0.163 HD
BRANCH  16  18
ATOM     18  C   UNL A   1      31.271  29.309  24.558  1.00  0.00     0.165 C 
BRANCH  18  19
ATOM     19  C   UNL A   1      31.266  28.441  23.284  1.00  0.00     0.201 C 
ATOM     20  C   UNL A   1      29.874  27.925  22.880  1.00  0.00     0.135 C 
ATOM     21  N   UNL A   1      32.316  27.419  23.158  1.00  0.00    -0.342 N 
ATOM     22  S   UNL A   1      29.291  26.581  23.927  1.00  0.00    -0.150 SA
ATOM     23  C   UNL A   1      32.109  26.217  23.967  1.00  0.00     0.271 C 
ATOM     24  H   UNL A   1      33.202  27.841  23.437  1.00  0.00     0.346 HD
ATOM     25  H   UNL A   1      32.302  27.114  22.184  1.00  0.00     0.346 HD
ATOM     26  C   UNL A   1      30.765  25.510  23.776  1.00  0.00     0.131 C 
ENDBRANCH  18  19
ENDBRANCH  16  18
ENDBRANCH  13  14
ENDBRANCH   9  13
ENDBRANCH   6   8
ENDBRANCH   5   6
ENDBRANCH   4   5
ENDBRANCH   3   4
ENDBRANCH   2   3
ENDBRANCH   1   2
BRANCH   1  27
ATOM     27  C   UNL A   1      33.685  36.563  32.947  1.00  0.00     0.188 C 
BRANCH  27  28
ATOM     28  O   UNL A   1      34.502  35.473  32.532  1.00  0.00    -0.376 OA
BRANCH  28  29
ATOM     29  C   UNL A   1      34.224  34.220  33.136  1.00  0.00     0.202 C 
BRANCH  29  30
ATOM     30  C   UNL A   1      35.355  33.703  34.018  1.00  0.00     0.261 C 
BRANCH  30  31
ATOM     31  O   UNL A   1      36.012  32.579  33.403  1.00  0.00    -0.460 OA
BRANCH  31  32
ATOM     32  C   UNL A   1      37.055  32.022  34.044  1.00  0.00     0.338 C 
ATOM     33  O   UNL A   1      37.227  31.963  35.254  1.00  0.00    -0.246 OA
BRANCH  32  34
ATOM     34  C   UNL A   1      38.009  31.508  33.040  1.00  0.00     0.060 A 
ATOM     35  C   UNL A   1      39.113  30.728  33.408  1.00  0.00     0.016 A 
ATOM     36  C   UNL A   1      37.814  31.855  31.704  1.00  0.00     0.016 A 
ATOM     37  C   UNL A   1      40.036  30.315  32.443  1.00  0.00     0.010 A 
ATOM     38  C   UNL A   1      38.719  31.412  30.737  1.00  0.00     0.010 A 
ATOM     39  C   UNL A   1      39.849  30.657  31.099  1.00  0.00    -0.014 A 
BRANCH  39  40
ATOM     40  C   UNL A   1      40.860  30.321  30.061  1.00  0.00     0.031 A 
ATOM     41  C   UNL A   1      40.742  29.012  29.330  1.00  0.00     0.074 A 
ATOM     42  C   UNL A   1      41.888  31.147  29.797  1.00  0.00     0.049 A 
ATOM     43  N   UNL A   1      41.622  28.386  28.594  1.00  0.00    -0.248 NA
ATOM     44  C   UNL A   1      39.457  28.311  29.466  1.00  0.00     0.031 C 
ATOM     45  C   UNL A   1      42.081  32.477  30.377  1.00  0.00     0.029 A 
ATOM     46  N   UNL A   1      42.987  30.975  28.989  1.00  0.00    -0.354 N 
ATOM     47  C   UNL A   1      41.010  27.199  28.203  1.00  0.00     0.074 A 
ATOM     48  C   UNL A   1      39.691  27.189  28.800  1.00  0.00     0.031 C 
ATOM     49  C   UNL A   1      43.237  32.989  29.925  1.00  0.00     0.029 A 
ATOM     50  C   UNL A   1      43.903  31.997  29.083  1.00  0.00     0.049 A 
ATOM     51  H   UNL A   1      43.107  30.195  28.400  1.00  0.00     0.167 HD
ATOM     52  C   UNL A   1      41.509  26.210  27.420  1.00  0.00     0.034 A 
ATOM     53  C   UNL A   1      45.158  32.098  28.599  1.00  0.00     0.034 A 
ATOM     54  C   UNL A   1      42.826  26.240  26.831  1.00  0.00     0.049 A 
ATOM     55  C   UNL A   1      45.729  30.950  27.802  1.00  0.00     0.074 A 
ATOM     56  C   UNL A   1      43.445  25.285  26.042  1.00  0.00     0.029 A 
ATOM     57  N   UNL A   1      43.731  27.286  26.966  1.00  0.00    -0.354 N 
ATOM     58  N   UNL A   1      45.174  29.799  27.496  1.00  0.00    -0.248 NA
ATOM     59  C   UNL A   1      47.096  31.112  27.292  1.00  0.00     0.031 C 
ATOM     60  C   UNL A   1      44.740  25.728  25.748  1.00  0.00     0.029 A 
ATOM     61  C   UNL A   1      44.908  26.991  26.291  1.00  0.00     0.049 A 
ATOM     62  H   UNL A   1      43.562  28.116  27.467  1.00  0.00     0.167 HD
ATOM     63  C   UNL A   1      46.122  29.110  26.741  1.00  0.00     0.074 A 
ATOM     64  C   UNL A   1      47.270  29.984  26.622  1.00  0.00     0.031 C 
ATOM     65  C   UNL A   1      46.050  27.869  26.196  1.00  0.00     0.034 A 
BRANCH  52  66
ATOM     66  C   UNL A   1      40.645  24.988  27.217  1.00  0.00     0.023 A 
ATOM     67  C   UNL A   1      41.150  23.684  27.374  1.00  0.00     0.031 A 
ATOM     68  C   UNL A   1      39.302  25.131  26.824  1.00  0.00     0.131 A 
ATOM     69  C   UNL A   1      40.337  22.580  27.074  1.00  0.00     0.055 A 
ATOM     70  C   UNL A   1      38.477  24.026  26.602  1.00  0.00     0.041 A 
ATOM     71  F   UNL A   1      38.770  26.349  26.635  1.00  0.00    -0.206 F 
ATOM     72  C   UNL A   1      38.997  22.740  26.713  1.00  0.00     0.022 A 
BRANCH  69  73
ATOM     73  S   UNL A   1      41.092  20.930  27.032  1.00  0.00     0.124 S 
ATOM     74  O   UNL A   1      41.053  20.553  28.443  1.00  0.00    -0.237 OA
ATOM     75  O   UNL A   1      40.197  20.194  26.148  1.00  0.00    -0.237 OA
ATOM     76  O   UNL A   1      42.430  21.179  26.499  1.00  0.00    -0.744 OA
ENDBRANCH  69  73
ENDBRANCH  52  66
BRANCH  53  77
ATOM     77  C   UNL A   1      46.000  33.287  28.923  1.00  0.00     0.023 A 
ATOM     78  C   UNL A   1      46.069  34.389  28.057  1.00  0.00     0.031 A 
ATOM     79  C   UNL A   1      46.798  33.309  30.082  1.00  0.00     0.131 A 
ATOM     80  C   UNL A   1      46.948  35.448  28.340  1.00  0.00     0.055 A 
ATOM     81  C   UNL A   1      47.628  34.387  30.388  1.00  0.00     0.041 A 
ATOM     82  F   UNL A   1      46.777  32.277  30.941  1.00  0.00    -0.206 F 
ATOM     83  C   UNL A   1      47.716  35.460  29.507  1.00  0.00     0.022 A 
BRANCH  80  84
ATOM     84  S   UNL A   1      47.141  36.770  27.113  1.00  0.00     0.124 S 
ATOM     85  O   UNL A   1      46.357  36.254  25.995  1.00  0.00    -0.237 OA
ATOM     86  O   UNL A   1      46.577  37.918  27.815  1.00  0.00    -0.237 OA
ATOM     87  O   UNL A   1      48.584  36.822  26.893  1.00  0.00    -0.744 OA
ENDBRANCH  80  84
ENDBRANCH  53  77
BRANCH  65  88
ATOM     88  C   UNL A   1      47.239  27.412  25.384  1.00  0.00     0.023 A 
ATOM     89  C   UNL A   1      47.402  27.783  24.038  1.00  0.00     0.031 A 
ATOM     90  C   UNL A   1      48.207  26.570  25.961  1.00  0.00     0.131 A 
ATOM     91  C   UNL A   1      48.475  27.268  23.296  1.00  0.00     0.055 A 
ATOM     92  C   UNL A   1      49.304  26.107  25.234  1.00  0.00     0.041 A 
ATOM     93  F   UNL A   1      48.100  26.183  27.242  1.00  0.00    -0.206 F 
ATOM     94  C   UNL A   1      49.435  26.443  23.889  1.00  0.00     0.022 A 
BRANCH  91  95
ATOM     95  S   UNL A   1      48.551  27.610  21.515  1.00  0.00     0.124 S 
ATOM     96  O   UNL A   1      49.610  28.611  21.444  1.00  0.00    -0.237 OA
ATOM     97  O   UNL A   1      48.874  26.299  20.960  1.00  0.00    -0.237 OA
ATOM     98  O   UNL A   1      47.210  28.101  21.203  1.00  0.00    -0.744 OA
ENDBRANCH  91  95
ENDBRANCH  65  88
ENDBRANCH  39  40
ENDBRANCH  32  34
ENDBRANCH  31  32
ENDBRANCH  30  31
ENDBRANCH  29  30
ENDBRANCH  28  29
ENDBRANCH  27  28
ENDBRANCH   1  27
TORSDOF 24
ENDMDL
