MODEL 1
REMARK VINA RESULT:     -10.0      0.000      0.000
REMARK SMILES O=C(OCCOCCOCCOC(=O)[C@H]1CCC[N@@H+]1Cc1ccccc1[N+](=O)[O-])c1ccc(-c2c3nc(c(-c4cc(S(=O)(=O)[O-])ccc4F)c4ccc([nH]4)c(-c4cc(S(=O)(=O)[O-])ccc4F)c4nc(c(-c5cc(S(=O)(=O)[O-])ccc5F)c5ccc2[nH]5)C=C4)C=C3)cc1
REMARK SMILES IDX 7 1 6 2 5 3 4 4 3 5 2 6 1 7 30 8 31 9 92 10 32 11 91 12
REMARK SMILES IDX 33 13 34 14 35 15 85 16 36 17 90 18 84 19 86 20 37 21 89 22
REMARK SMILES IDX 83 23 82 24 38 26 70 27 50 28 69 29 51 30 54 31 68 32 87 33
REMARK SMILES IDX 52 34 53 35 67 37 88 38 55 39 39 40 40 41 48 42 41 43 47 44
REMARK SMILES IDX 49 45 46 46 42 47 43 48 44 49 45 50 71 51 72 52 80 53 73 54
REMARK SMILES IDX 79 55 81 56 78 57 74 58 75 59 76 60 77 61 56 62 57 63 65 64
REMARK SMILES IDX 58 65 64 66 66 67 63 68 59 69 60 70 61 71 62 72 8 73 9 74
REMARK SMILES IDX 10 75 11 76 12 77 13 78 14 79 15 80 16 81 19 82 17 83 18 84
REMARK SMILES IDX 20 86 21 87 22 88 26 89 23 90 25 91 24 92 27 93 28 94 29 95
REMARK H PARENT 86 25 54 36 19 85
REMARK Flexibility Score: inf
ROOT
ATOM      1  C   UNL A   1      32.850  29.523  25.063  1.00  0.00     0.188 C 
ENDROOT
BRANCH   1   2
ATOM      2  O   UNL A   1      31.521  30.059  25.067  1.00  0.00    -0.376 OA
BRANCH   2   3
ATOM      3  C   UNL A   1      31.281  31.015  26.105  1.00  0.00     0.202 C 
BRANCH   3   4
ATOM      4  C   UNL A   1      32.474  31.256  27.040  1.00  0.00     0.261 C 
BRANCH   4   5
ATOM      5  O   UNL A   1      32.706  32.656  27.268  1.00  0.00    -0.460 OA
BRANCH   5   6
ATOM      6  C   UNL A   1      33.648  33.224  28.067  1.00  0.00     0.338 C 
ATOM      7  O   UNL A   1      33.435  34.350  28.515  1.00  0.00    -0.246 OA
BRANCH   6   8
ATOM      8  C   UNL A   1      34.917  32.540  28.466  1.00  0.00     0.060 A 
ATOM      9  C   UNL A   1      34.993  31.250  28.988  1.00  0.00     0.016 A 
ATOM     10  C   UNL A   1      36.123  33.234  28.261  1.00  0.00     0.016 A 
ATOM     11  C   UNL A   1      36.194  30.724  29.442  1.00  0.00     0.010 A 
ATOM     12  C   UNL A   1      37.352  32.676  28.637  1.00  0.00     0.010 A 
ATOM     13  C   UNL A   1      37.383  31.432  29.278  1.00  0.00    -0.014 A 
BRANCH  13  14
ATOM     14  C   UNL A   1      38.606  30.871  29.894  1.00  0.00     0.031 A 
ATOM     15  C   UNL A   1      38.959  31.275  31.297  1.00  0.00     0.074 A 
ATOM     16  C   UNL A   1      39.279  29.888  29.263  1.00  0.00     0.049 A 
ATOM     17  N   UNL A   1      39.938  30.861  32.055  1.00  0.00    -0.248 NA
ATOM     18  C   UNL A   1      38.068  32.253  31.941  1.00  0.00     0.031 C 
ATOM     19  C   UNL A   1      38.921  29.338  27.954  1.00  0.00     0.029 A 
ATOM     20  N   UNL A   1      40.368  29.148  29.640  1.00  0.00    -0.354 N 
ATOM     21  C   UNL A   1      39.773  31.514  33.272  1.00  0.00     0.074 A 
ATOM     22  C   UNL A   1      38.628  32.388  33.132  1.00  0.00     0.031 C 
ATOM     23  C   UNL A   1      39.777  28.356  27.632  1.00  0.00     0.029 A 
ATOM     24  C   UNL A   1      40.758  28.220  28.700  1.00  0.00     0.049 A 
ATOM     25  H   UNL A   1      40.830  29.269  30.501  1.00  0.00     0.167 HD
ATOM     26  C   UNL A   1      40.501  31.379  34.407  1.00  0.00     0.034 A 
ATOM     27  C   UNL A   1      41.796  27.361  28.702  1.00  0.00     0.034 A 
ATOM     28  C   UNL A   1      41.657  30.526  34.502  1.00  0.00     0.049 A 
ATOM     29  C   UNL A   1      42.663  27.320  29.932  1.00  0.00     0.074 A 
ATOM     30  C   UNL A   1      42.555  30.389  35.544  1.00  0.00     0.029 A 
ATOM     31  N   UNL A   1      42.078  29.658  33.499  1.00  0.00    -0.354 N 
ATOM     32  N   UNL A   1      42.539  28.004  31.048  1.00  0.00    -0.248 NA
ATOM     33  C   UNL A   1      43.794  26.388  29.912  1.00  0.00     0.031 C 
ATOM     34  C   UNL A   1      43.544  29.478  35.152  1.00  0.00     0.029 A 
ATOM     35  C   UNL A   1      43.230  28.996  33.890  1.00  0.00     0.049 A 
ATOM     36  H   UNL A   1      41.622  29.533  32.635  1.00  0.00     0.167 HD
ATOM     37  C   UNL A   1      43.576  27.577  31.869  1.00  0.00     0.074 A 
ATOM     38  C   UNL A   1      44.288  26.550  31.131  1.00  0.00     0.031 C 
ATOM     39  C   UNL A   1      43.922  27.996  33.114  1.00  0.00     0.034 A 
BRANCH  26  40
ATOM     40  C   UNL A   1      40.091  32.236  35.579  1.00  0.00     0.023 A 
ATOM     41  C   UNL A   1      39.181  31.773  36.548  1.00  0.00     0.031 A 
ATOM     42  C   UNL A   1      40.538  33.566  35.677  1.00  0.00     0.131 A 
ATOM     43  C   UNL A   1      38.689  32.654  37.523  1.00  0.00     0.055 A 
ATOM     44  C   UNL A   1      40.099  34.415  36.695  1.00  0.00     0.041 A 
ATOM     45  F   UNL A   1      41.381  34.071  34.763  1.00  0.00    -0.206 F 
ATOM     46  C   UNL A   1      39.157  33.966  37.616  1.00  0.00     0.022 A 
BRANCH  43  47
ATOM     47  S   UNL A   1      37.310  32.108  38.572  1.00  0.00     0.124 S 
ATOM     48  O   UNL A   1      37.189  30.705  38.191  1.00  0.00    -0.237 OA
ATOM     49  O   UNL A   1      37.817  32.363  39.915  1.00  0.00    -0.237 OA
ATOM     50  O   UNL A   1      36.202  32.959  38.152  1.00  0.00    -0.744 OA
ENDBRANCH  43  47
ENDBRANCH  26  40
BRANCH  27  51
ATOM     51  C   UNL A   1      42.100  26.528  27.502  1.00  0.00     0.023 A 
ATOM     52  C   UNL A   1      41.758  25.170  27.435  1.00  0.00     0.031 A 
ATOM     53  C   UNL A   1      42.802  27.081  26.414  1.00  0.00     0.131 A 
ATOM     54  C   UNL A   1      42.152  24.402  26.325  1.00  0.00     0.055 A 
ATOM     55  C   UNL A   1      43.138  26.330  25.287  1.00  0.00     0.041 A 
ATOM     56  F   UNL A   1      43.175  28.370  26.432  1.00  0.00    -0.206 F 
ATOM     57  C   UNL A   1      42.826  24.976  25.244  1.00  0.00     0.022 A 
BRANCH  54  58
ATOM     58  S   UNL A   1      41.871  22.609  26.360  1.00  0.00     0.124 S 
ATOM     59  O   UNL A   1      40.414  22.536  26.356  1.00  0.00    -0.237 OA
ATOM     60  O   UNL A   1      42.539  22.179  25.136  1.00  0.00    -0.237 OA
ATOM     61  O   UNL A   1      42.514  22.189  27.602  1.00  0.00    -0.744 OA
ENDBRANCH  54  58
ENDBRANCH  27  51
BRANCH  39  62
ATOM     62  C   UNL A   1      45.119  27.322  33.732  1.00  0.00     0.023 A 
ATOM     63  C   UNL A   1      44.989  26.113  34.435  1.00  0.00     0.031 A 
ATOM     64  C   UNL A   1      46.390  27.913  33.648  1.00  0.00     0.131 A 
ATOM     65  C   UNL A   1      46.100  25.565  35.089  1.00  0.00     0.055 A 
ATOM     66  C   UNL A   1      47.506  27.331  34.248  1.00  0.00     0.041 A 
ATOM     67  F   UNL A   1      46.564  29.068  32.988  1.00  0.00    -0.206 F 
ATOM     68  C   UNL A   1      47.362  26.158  34.987  1.00  0.00     0.022 A 
BRANCH  65  69
ATOM     69  S   UNL A   1      45.850  24.125  36.160  1.00  0.00     0.124 S 
ATOM     70  O   UNL A   1      44.405  23.929  36.070  1.00  0.00    -0.237 OA
ATOM     71  O   UNL A   1      46.671  23.108  35.512  1.00  0.00    -0.237 OA
ATOM     72  O   UNL A   1      46.335  24.578  37.462  1.00  0.00    -0.744 OA
ENDBRANCH  65  69
ENDBRANCH  39  62
ENDBRANCH  13  14
ENDBRANCH   6   8
ENDBRANCH   5   6
ENDBRANCH   4   5
ENDBRANCH   3   4
ENDBRANCH   2   3
ENDBRANCH   1   2
BRANCH   1  73
ATOM     73  C   UNL A   1      33.029  28.502  23.936  1.00  0.00     0.188 C 
BRANCH  73  74
ATOM     74  O   UNL A   1      32.110  28.613  22.844  1.00  0.00    -0.376 OA
BRANCH  74  75
ATOM     75  C   UNL A   1      31.890  27.443  22.062  1.00  0.00     0.202 C 
BRANCH  75  76
ATOM     76  C   UNL A   1      32.157  26.076  22.712  1.00  0.00     0.261 C 
BRANCH  76  77
ATOM     77  O   UNL A   1      31.145  25.600  23.614  1.00  0.00    -0.459 OA
BRANCH  77  78
ATOM     78  C   UNL A   1      31.246  24.268  23.898  1.00  0.00     0.365 C 
ATOM     79  O   UNL A   1      30.732  23.386  23.214  1.00  0.00    -0.245 OA
BRANCH  78  80
ATOM     80  C   UNL A   1      32.066  23.995  25.192  1.00  0.00     0.295 C 
ATOM     81  C   UNL A   1      31.376  24.774  26.310  1.00  0.00     0.083 C 
ATOM     82  N   UNL A   1      31.933  22.573  25.608  1.00  0.00    -0.319 N 
ATOM     83  C   UNL A   1      30.277  23.829  26.798  1.00  0.00     0.068 C 
ATOM     84  C   UNL A   1      30.586  22.470  26.172  1.00  0.00     0.263 C 
ATOM     85  H   UNL A   1      32.057  21.966  24.797  1.00  0.00     0.349 HD
BRANCH  82  86
ATOM     86  C   UNL A   1      33.010  22.015  26.456  1.00  0.00     0.307 C 
BRANCH  86  87
ATOM     87  C   UNL A   1      34.185  21.304  25.801  1.00  0.00     0.084 A 
ATOM     88  C   UNL A   1      35.454  21.901  25.893  1.00  0.00     0.017 A 
ATOM     89  C   UNL A   1      34.129  20.070  25.124  1.00  0.00     0.278 A 
ATOM     90  C   UNL A   1      36.612  21.248  25.454  1.00  0.00     0.001 A 
ATOM     91  C   UNL A   1      35.289  19.387  24.715  1.00  0.00     0.086 A 
ATOM     92  C   UNL A   1      36.535  19.973  24.904  1.00  0.00     0.007 A 
BRANCH  89  93
ATOM     93  N   UNL A   1      32.862  19.464  24.737  1.00  0.00     0.063 N 
ATOM     94  O   UNL A   1      32.352  19.841  23.671  1.00  0.00    -0.258 OA
ATOM     95  O   UNL A   1      32.355  18.648  25.518  1.00  0.00    -0.258 OA
ENDBRANCH  89  93
ENDBRANCH  86  87
ENDBRANCH  82  86
ENDBRANCH  78  80
ENDBRANCH  77  78
ENDBRANCH  76  77
ENDBRANCH  75  76
ENDBRANCH  74  75
ENDBRANCH  73  74
ENDBRANCH   1  73
TORSDOF 23
ENDMDL
MODEL 2
REMARK VINA RESULT:     -10.0      4.627      9.529
REMARK SMILES O=C(OCCOCCOCCOC(=O)[C@H]1CCC[N@@H+]1Cc1ccccc1[N+](=O)[O-])c1ccc(-c2c3nc(c(-c4cc(S(=O)(=O)[O-])ccc4F)c4ccc([nH]4)c(-c4cc(S(=O)(=O)[O-])ccc4F)c4nc(c(-c5cc(S(=O)(=O)[O-])ccc5F)c5ccc2[nH]5)C=C4)C=C3)cc1
REMARK SMILES IDX 7 1 6 2 5 3 4 4 3 5 2 6 1 7 30 8 31 9 92 10 32 11 91 12
REMARK SMILES IDX 33 13 34 14 35 15 85 16 36 17 90 18 84 19 86 20 37 21 89 22
REMARK SMILES IDX 83 23 82 24 38 26 70 27 50 28 69 29 51 30 54 31 68 32 87 33
REMARK SMILES IDX 52 34 53 35 67 37 88 38 55 39 39 40 40 41 48 42 41 43 47 44
REMARK SMILES IDX 49 45 46 46 42 47 43 48 44 49 45 50 71 51 72 52 80 53 73 54
REMARK SMILES IDX 79 55 81 56 78 57 74 58 75 59 76 60 77 61 56 62 57 63 65 64
REMARK SMILES IDX 58 65 64 66 66 67 63 68 59 69 60 70 61 71 62 72 8 73 9 74
REMARK SMILES IDX 10 75 11 76 12 77 13 78 14 79 15 80 16 81 19 82 17 83 18 84
REMARK SMILES IDX 20 86 21 87 22 88 26 89 23 90 25 91 24 92 27 93 28 94 29 95
REMARK H PARENT 86 25 54 36 19 85
REMARK Flexibility Score: inf
ROOT
ATOM      1  C   UNL A   1      33.838  26.162  25.447  1.00  0.00     0.188 C 
ENDROOT
BRANCH   1   2
ATOM      2  O   UNL A   1      34.192  24.873  25.964  1.00  0.00    -0.376 OA
BRANCH   2   3
ATOM      3  C   UNL A   1      35.256  24.232  25.254  1.00  0.00     0.202 C 
BRANCH   3   4
ATOM      4  C   UNL A   1      36.130  23.306  26.110  1.00  0.00     0.261 C 
BRANCH   4   5
ATOM      5  O   UNL A   1      37.418  23.074  25.512  1.00  0.00    -0.460 OA
BRANCH   5   6
ATOM      6  C   UNL A   1      38.627  23.029  26.132  1.00  0.00     0.338 C 
ATOM      7  O   UNL A   1      39.248  21.967  26.128  1.00  0.00    -0.246 OA
BRANCH   6   8
ATOM      8  C   UNL A   1      39.265  24.213  26.788  1.00  0.00     0.060 A 
ATOM      9  C   UNL A   1      39.240  24.470  28.157  1.00  0.00     0.016 A 
ATOM     10  C   UNL A   1      39.976  25.107  25.967  1.00  0.00     0.016 A 
ATOM     11  C   UNL A   1      39.755  25.648  28.680  1.00  0.00     0.010 A 
ATOM     12  C   UNL A   1      40.576  26.256  26.500  1.00  0.00     0.010 A 
ATOM     13  C   UNL A   1      40.422  26.554  27.858  1.00  0.00    -0.014 A 
BRANCH  13  14
ATOM     14  C   UNL A   1      40.838  27.844  28.455  1.00  0.00     0.031 A 
ATOM     15  C   UNL A   1      42.294  28.210  28.440  1.00  0.00     0.074 A 
ATOM     16  C   UNL A   1      39.900  28.733  28.838  1.00  0.00     0.049 A 
ATOM     17  N   UNL A   1      42.874  29.309  28.841  1.00  0.00    -0.248 NA
ATOM     18  C   UNL A   1      43.215  27.216  27.866  1.00  0.00     0.031 C 
ATOM     19  C   UNL A   1      38.454  28.511  28.756  1.00  0.00     0.029 A 
ATOM     20  N   UNL A   1      40.006  30.007  29.328  1.00  0.00    -0.354 N 
ATOM     21  C   UNL A   1      44.225  29.147  28.553  1.00  0.00     0.074 A 
ATOM     22  C   UNL A   1      44.383  27.824  27.989  1.00  0.00     0.031 C 
ATOM     23  C   UNL A   1      37.809  29.604  29.190  1.00  0.00     0.029 A 
ATOM     24  C   UNL A   1      38.791  30.598  29.600  1.00  0.00     0.049 A 
ATOM     25  H   UNL A   1      40.869  30.458  29.476  1.00  0.00     0.167 HD
ATOM     26  C   UNL A   1      45.236  30.032  28.727  1.00  0.00     0.034 A 
ATOM     27  C   UNL A   1      38.509  31.805  30.127  1.00  0.00     0.034 A 
ATOM     28  C   UNL A   1      45.051  31.329  29.325  1.00  0.00     0.049 A 
ATOM     29  C   UNL A   1      39.664  32.722  30.425  1.00  0.00     0.074 A 
ATOM     30  C   UNL A   1      46.001  32.271  29.674  1.00  0.00     0.029 A 
ATOM     31  N   UNL A   1      43.814  31.866  29.669  1.00  0.00    -0.354 N 
ATOM     32  N   UNL A   1      40.946  32.522  30.220  1.00  0.00    -0.248 NA
ATOM     33  C   UNL A   1      39.338  34.027  31.008  1.00  0.00     0.031 C 
ATOM     34  C   UNL A   1      45.344  33.354  30.272  1.00  0.00     0.029 A 
ATOM     35  C   UNL A   1      43.977  33.117  30.240  1.00  0.00     0.049 A 
ATOM     36  H   UNL A   1      42.948  31.420  29.526  1.00  0.00     0.167 HD
ATOM     37  C   UNL A   1      41.582  33.684  30.643  1.00  0.00     0.074 A 
ATOM     38  C   UNL A   1      40.535  34.590  31.077  1.00  0.00     0.031 C 
ATOM     39  C   UNL A   1      42.907  33.979  30.682  1.00  0.00     0.034 A 
BRANCH  26  40
ATOM     40  C   UNL A   1      46.616  29.569  28.331  1.00  0.00     0.023 A 
ATOM     41  C   UNL A   1      47.449  28.879  29.232  1.00  0.00     0.031 A 
ATOM     42  C   UNL A   1      47.143  29.904  27.072  1.00  0.00     0.131 A 
ATOM     43  C   UNL A   1      48.785  28.620  28.891  1.00  0.00     0.055 A 
ATOM     44  C   UNL A   1      48.452  29.576  26.711  1.00  0.00     0.041 A 
ATOM     45  F   UNL A   1      46.406  30.589  26.184  1.00  0.00    -0.206 F 
ATOM     46  C   UNL A   1      49.287  28.944  27.629  1.00  0.00     0.022 A 
BRANCH  43  47
ATOM     47  S   UNL A   1      49.906  27.991  30.176  1.00  0.00     0.124 S 
ATOM     48  O   UNL A   1      50.665  26.987  29.437  1.00  0.00    -0.237 OA
ATOM     49  O   UNL A   1      50.641  29.188  30.564  1.00  0.00    -0.237 OA
ATOM     50  O   UNL A   1      49.000  27.458  31.189  1.00  0.00    -0.744 OA
ENDBRANCH  43  47
ENDBRANCH  26  40
BRANCH  27  51
ATOM     51  C   UNL A   1      37.103  32.185  30.454  1.00  0.00     0.023 A 
ATOM     52  C   UNL A   1      36.250  32.764  29.503  1.00  0.00     0.031 A 
ATOM     53  C   UNL A   1      36.609  32.021  31.762  1.00  0.00     0.131 A 
ATOM     54  C   UNL A   1      34.967  33.195  29.882  1.00  0.00     0.055 A 
ATOM     55  C   UNL A   1      35.313  32.395  32.120  1.00  0.00     0.041 A 
ATOM     56  F   UNL A   1      37.387  31.492  32.719  1.00  0.00    -0.206 F 
ATOM     57  C   UNL A   1      34.488  33.001  31.180  1.00  0.00     0.022 A 
BRANCH  54  58
ATOM     58  S   UNL A   1      33.967  34.120  28.683  1.00  0.00     0.124 S 
ATOM     59  O   UNL A   1      33.619  33.080  27.720  1.00  0.00    -0.237 OA
ATOM     60  O   UNL A   1      32.876  34.610  29.520  1.00  0.00    -0.237 OA
ATOM     61  O   UNL A   1      34.885  35.144  28.193  1.00  0.00    -0.744 OA
ENDBRANCH  54  58
ENDBRANCH  27  51
BRANCH  39  62
ATOM     62  C   UNL A   1      43.267  35.343  31.209  1.00  0.00     0.023 A 
ATOM     63  C   UNL A   1      43.483  36.424  30.338  1.00  0.00     0.031 A 
ATOM     64  C   UNL A   1      43.433  35.553  32.588  1.00  0.00     0.131 A 
ATOM     65  C   UNL A   1      43.920  37.653  30.850  1.00  0.00     0.055 A 
ATOM     66  C   UNL A   1      43.807  36.795  33.097  1.00  0.00     0.041 A 
ATOM     67  F   UNL A   1      43.239  34.549  33.459  1.00  0.00    -0.206 F 
ATOM     68  C   UNL A   1      44.069  37.850  32.226  1.00  0.00     0.022 A 
BRANCH  65  69
ATOM     69  S   UNL A   1      44.392  38.956  29.683  1.00  0.00     0.124 S 
ATOM     70  O   UNL A   1      43.327  39.937  29.877  1.00  0.00    -0.237 OA
ATOM     71  O   UNL A   1      45.712  39.346  30.168  1.00  0.00    -0.237 OA
ATOM     72  O   UNL A   1      44.382  38.278  28.389  1.00  0.00    -0.744 OA
ENDBRANCH  65  69
ENDBRANCH  39  62
ENDBRANCH  13  14
ENDBRANCH   6   8
ENDBRANCH   5   6
ENDBRANCH   4   5
ENDBRANCH   3   4
ENDBRANCH   2   3
ENDBRANCH   1   2
BRANCH   1  73
ATOM     73  C   UNL A   1      32.829  26.863  26.360  1.00  0.00     0.188 C 
BRANCH  73  74
ATOM     74  O   UNL A   1      33.372  27.834  27.260  1.00  0.00    -0.376 OA
BRANCH  74  75
ATOM     75  C   UNL A   1      34.046  28.947  26.683  1.00  0.00     0.202 C 
BRANCH  75  76
ATOM     76  C   UNL A   1      33.208  29.989  25.925  1.00  0.00     0.261 C 
BRANCH  76  77
ATOM     77  O   UNL A   1      32.480  29.501  24.787  1.00  0.00    -0.459 OA
BRANCH  77  78
ATOM     78  C   UNL A   1      31.173  29.895  24.762  1.00  0.00     0.365 C 
ATOM     79  O   UNL A   1      30.761  30.921  25.299  1.00  0.00    -0.245 OA
BRANCH  78  80
ATOM     80  C   UNL A   1      30.261  28.893  23.997  1.00  0.00     0.295 C 
ATOM     81  C   UNL A   1      29.143  29.722  23.367  1.00  0.00     0.083 C 
ATOM     82  N   UNL A   1      30.981  28.314  22.830  1.00  0.00    -0.319 N 
ATOM     83  C   UNL A   1      29.738  30.204  22.043  1.00  0.00     0.068 C 
ATOM     84  C   UNL A   1      31.013  29.388  21.836  1.00  0.00     0.263 C 
ATOM     85  H   UNL A   1      31.917  28.025  23.115  1.00  0.00     0.349 HD
BRANCH  82  86
ATOM     86  C   UNL A   1      30.503  27.008  22.324  1.00  0.00     0.307 C 
BRANCH  86  87
ATOM     87  C   UNL A   1      31.124  25.725  22.857  1.00  0.00     0.084 A 
ATOM     88  C   UNL A   1      30.535  25.122  23.982  1.00  0.00     0.017 A 
ATOM     89  C   UNL A   1      32.235  25.056  22.307  1.00  0.00     0.278 A 
ATOM     90  C   UNL A   1      30.944  23.867  24.448  1.00  0.00     0.001 A 
ATOM     91  C   UNL A   1      32.629  23.777  22.741  1.00  0.00     0.086 A 
ATOM     92  C   UNL A   1      31.962  23.175  23.802  1.00  0.00     0.007 A 
BRANCH  89  93
ATOM     93  N   UNL A   1      33.090  25.683  21.309  1.00  0.00     0.063 N 
ATOM     94  O   UNL A   1      33.026  25.249  20.148  1.00  0.00    -0.258 OA
ATOM     95  O   UNL A   1      33.859  26.575  21.691  1.00  0.00    -0.258 OA
ENDBRANCH  89  93
ENDBRANCH  86  87
ENDBRANCH  82  86
ENDBRANCH  78  80
ENDBRANCH  77  78
ENDBRANCH  76  77
ENDBRANCH  75  76
ENDBRANCH  74  75
ENDBRANCH  73  74
ENDBRANCH   1  73
TORSDOF 23
ENDMDL
MODEL 3
REMARK VINA RESULT:      -9.8      2.703      3.912
REMARK SMILES O=C(OCCOCCOCCOC(=O)[C@H]1CCC[N@@H+]1Cc1ccccc1[N+](=O)[O-])c1ccc(-c2c3nc(c(-c4cc(S(=O)(=O)[O-])ccc4F)c4ccc([nH]4)c(-c4cc(S(=O)(=O)[O-])ccc4F)c4nc(c(-c5cc(S(=O)(=O)[O-])ccc5F)c5ccc2[nH]5)C=C4)C=C3)cc1
REMARK SMILES IDX 7 1 6 2 5 3 4 4 3 5 2 6 1 7 30 8 31 9 92 10 32 11 91 12
REMARK SMILES IDX 33 13 34 14 35 15 85 16 36 17 90 18 84 19 86 20 37 21 89 22
REMARK SMILES IDX 83 23 82 24 38 26 70 27 50 28 69 29 51 30 54 31 68 32 87 33
REMARK SMILES IDX 52 34 53 35 67 37 88 38 55 39 39 40 40 41 48 42 41 43 47 44
REMARK SMILES IDX 49 45 46 46 42 47 43 48 44 49 45 50 71 51 72 52 80 53 73 54
REMARK SMILES IDX 79 55 81 56 78 57 74 58 75 59 76 60 77 61 56 62 57 63 65 64
REMARK SMILES IDX 58 65 64 66 66 67 63 68 59 69 60 70 61 71 62 72 8 73 9 74
REMARK SMILES IDX 10 75 11 76 12 77 13 78 14 79 15 80 16 81 19 82 17 83 18 84
REMARK SMILES IDX 20 86 21 87 22 88 26 89 23 90 25 91 24 92 27 93 28 94 29 95
REMARK H PARENT 86 25 54 36 19 85
REMARK Flexibility Score: inf
ROOT
ATOM      1  C   UNL A   1      34.328  33.466  28.919  1.00  0.00     0.188 C 
ENDROOT
BRANCH   1   2
ATOM      2  O   UNL A   1      34.036  34.791  28.456  1.00  0.00    -0.376 OA
BRANCH   2   3
ATOM      3  C   UNL A   1      32.904  35.394  29.093  1.00  0.00     0.202 C 
BRANCH   3   4
ATOM      4  C   UNL A   1      33.225  36.654  29.908  1.00  0.00     0.261 C 
BRANCH   4   5
ATOM      5  O   UNL A   1      32.800  36.533  31.276  1.00  0.00    -0.460 OA
BRANCH   5   6
ATOM      6  C   UNL A   1      32.918  35.453  32.093  1.00  0.00     0.338 C 
ATOM      7  O   UNL A   1      31.930  35.085  32.725  1.00  0.00    -0.246 OA
BRANCH   6   8
ATOM      8  C   UNL A   1      34.178  34.658  32.237  1.00  0.00     0.060 A 
ATOM      9  C   UNL A   1      34.235  33.331  32.659  1.00  0.00     0.016 A 
ATOM     10  C   UNL A   1      35.386  35.284  31.882  1.00  0.00     0.016 A 
ATOM     11  C   UNL A   1      35.448  32.695  32.879  1.00  0.00     0.010 A 
ATOM     12  C   UNL A   1      36.612  34.618  32.018  1.00  0.00     0.010 A 
ATOM     13  C   UNL A   1      36.648  33.332  32.567  1.00  0.00    -0.014 A 
BRANCH  13  14
ATOM     14  C   UNL A   1      37.906  32.647  32.941  1.00  0.00     0.031 A 
ATOM     15  C   UNL A   1      38.509  32.929  34.286  1.00  0.00     0.074 A 
ATOM     16  C   UNL A   1      38.389  31.666  32.152  1.00  0.00     0.049 A 
ATOM     17  N   UNL A   1      39.562  32.398  34.848  1.00  0.00    -0.248 NA
ATOM     18  C   UNL A   1      37.813  33.920  35.123  1.00  0.00     0.031 C 
ATOM     19  C   UNL A   1      37.783  31.233  30.891  1.00  0.00     0.029 A 
ATOM     20  N   UNL A   1      39.462  30.830  32.303  1.00  0.00    -0.354 N 
ATOM     21  C   UNL A   1      39.645  32.976  36.111  1.00  0.00     0.074 A 
ATOM     22  C   UNL A   1      38.566  33.934  36.211  1.00  0.00     0.031 C 
ATOM     23  C   UNL A   1      38.497  30.219  30.378  1.00  0.00     0.029 A 
ATOM     24  C   UNL A   1      39.622  29.943  31.260  1.00  0.00     0.049 A 
ATOM     25  H   UNL A   1      40.064  30.859  33.081  1.00  0.00     0.167 HD
ATOM     26  C   UNL A   1      40.533  32.714  37.101  1.00  0.00     0.034 A 
ATOM     27  C   UNL A   1      40.576  29.017  31.043  1.00  0.00     0.034 A 
ATOM     28  C   UNL A   1      41.619  31.779  36.955  1.00  0.00     0.049 A 
ATOM     29  C   UNL A   1      41.623  28.833  32.109  1.00  0.00     0.074 A 
ATOM     30  C   UNL A   1      42.659  31.509  37.826  1.00  0.00     0.029 A 
ATOM     31  N   UNL A   1      41.803  30.955  35.849  1.00  0.00    -0.354 N 
ATOM     32  N   UNL A   1      41.734  29.445  33.266  1.00  0.00    -0.248 NA
ATOM     33  C   UNL A   1      42.659  27.829  31.850  1.00  0.00     0.031 C 
ATOM     34  C   UNL A   1      43.496  30.561  37.226  1.00  0.00     0.029 A 
ATOM     35  C   UNL A   1      42.947  30.190  36.007  1.00  0.00     0.049 A 
ATOM     36  H   UNL A   1      41.207  30.922  35.067  1.00  0.00     0.167 HD
ATOM     37  C   UNL A   1      42.852  28.893  33.879  1.00  0.00     0.074 A 
ATOM     38  C   UNL A   1      43.353  27.872  32.978  1.00  0.00     0.031 C 
ATOM     39  C   UNL A   1      43.425  29.200  35.072  1.00  0.00     0.034 A 
BRANCH  26  40
ATOM     40  C   UNL A   1      40.385  33.515  38.370  1.00  0.00     0.023 A 
ATOM     41  C   UNL A   1      39.422  33.184  39.342  1.00  0.00     0.031 A 
ATOM     42  C   UNL A   1      41.148  34.679  38.569  1.00  0.00     0.131 A 
ATOM     43  C   UNL A   1      39.193  34.049  40.423  1.00  0.00     0.055 A 
ATOM     44  C   UNL A   1      40.965  35.496  39.687  1.00  0.00     0.041 A 
ATOM     45  F   UNL A   1      42.059  35.061  37.660  1.00  0.00    -0.206 F 
ATOM     46  C   UNL A   1      39.973  35.192  40.614  1.00  0.00     0.022 A 
BRANCH  43  47
ATOM     47  S   UNL A   1      37.758  33.743  41.495  1.00  0.00     0.124 S 
ATOM     48  O   UNL A   1      37.396  35.099  41.894  1.00  0.00    -0.237 OA
ATOM     49  O   UNL A   1      36.829  33.074  40.592  1.00  0.00    -0.237 OA
ATOM     50  O   UNL A   1      38.300  32.909  42.563  1.00  0.00    -0.744 OA
ENDBRANCH  43  47
ENDBRANCH  26  40
BRANCH  27  51
ATOM     51  C   UNL A   1      40.618  28.250  29.764  1.00  0.00     0.023 A 
ATOM     52  C   UNL A   1      41.540  28.545  28.750  1.00  0.00     0.031 A 
ATOM     53  C   UNL A   1      39.678  27.231  29.517  1.00  0.00     0.131 A 
ATOM     54  C   UNL A   1      41.478  27.860  27.524  1.00  0.00     0.055 A 
ATOM     55  C   UNL A   1      39.658  26.511  28.321  1.00  0.00     0.041 A 
ATOM     56  F   UNL A   1      38.757  26.919  30.442  1.00  0.00    -0.206 F 
ATOM     57  C   UNL A   1      40.553  26.835  27.309  1.00  0.00     0.022 A 
BRANCH  54  58
ATOM     58  S   UNL A   1      42.551  28.403  26.165  1.00  0.00     0.124 S 
ATOM     59  O   UNL A   1      41.741  28.076  24.996  1.00  0.00    -0.237 OA
ATOM     60  O   UNL A   1      42.709  29.824  26.460  1.00  0.00    -0.237 OA
ATOM     61  O   UNL A   1      43.754  27.593  26.338  1.00  0.00    -0.744 OA
ENDBRANCH  54  58
ENDBRANCH  27  51
BRANCH  39  62
ATOM     62  C   UNL A   1      44.648  28.405  35.445  1.00  0.00     0.023 A 
ATOM     63  C   UNL A   1      44.541  27.200  36.159  1.00  0.00     0.031 A 
ATOM     64  C   UNL A   1      45.930  28.875  35.116  1.00  0.00     0.131 A 
ATOM     65  C   UNL A   1      45.700  26.538  36.584  1.00  0.00     0.055 A 
ATOM     66  C   UNL A   1      47.080  28.180  35.488  1.00  0.00     0.041 A 
ATOM     67  F   UNL A   1      46.083  30.022  34.435  1.00  0.00    -0.206 F 
ATOM     68  C   UNL A   1      46.969  27.012  36.239  1.00  0.00     0.022 A 
BRANCH  65  69
ATOM     69  S   UNL A   1      45.525  25.108  37.683  1.00  0.00     0.124 S 
ATOM     70  O   UNL A   1      44.969  24.101  36.782  1.00  0.00    -0.237 OA
ATOM     71  O   UNL A   1      46.898  24.881  38.121  1.00  0.00    -0.237 OA
ATOM     72  O   UNL A   1      44.613  25.583  38.721  1.00  0.00    -0.744 OA
ENDBRANCH  65  69
ENDBRANCH  39  62
ENDBRANCH  13  14
ENDBRANCH   6   8
ENDBRANCH   5   6
ENDBRANCH   4   5
ENDBRANCH   3   4
ENDBRANCH   2   3
ENDBRANCH   1   2
BRANCH   1  73
ATOM     73  C   UNL A   1      34.500  32.499  27.745  1.00  0.00     0.188 C 
BRANCH  73  74
ATOM     74  O   UNL A   1      33.687  31.322  27.781  1.00  0.00    -0.376 OA
BRANCH  74  75
ATOM     75  C   UNL A   1      34.098  30.225  26.972  1.00  0.00     0.202 C 
BRANCH  75  76
ATOM     76  C   UNL A   1      33.721  28.807  27.427  1.00  0.00     0.261 C 
BRANCH  76  77
ATOM     77  O   UNL A   1      32.987  28.016  26.478  1.00  0.00    -0.459 OA
BRANCH  77  78
ATOM     78  C   UNL A   1      31.851  27.458  26.991  1.00  0.00     0.365 C 
ATOM     79  O   UNL A   1      31.107  28.035  27.781  1.00  0.00    -0.245 OA
BRANCH  78  80
ATOM     80  C   UNL A   1      31.615  26.008  26.479  1.00  0.00     0.295 C 
ATOM     81  C   UNL A   1      30.221  25.994  25.854  1.00  0.00     0.083 C 
ATOM     82  N   UNL A   1      32.523  25.698  25.343  1.00  0.00    -0.319 N 
ATOM     83  C   UNL A   1      30.453  26.470  24.419  1.00  0.00     0.068 C 
ATOM     84  C   UNL A   1      31.965  26.428  24.204  1.00  0.00     0.263 C 
ATOM     85  H   UNL A   1      33.470  26.003  25.568  1.00  0.00     0.349 HD
BRANCH  82  86
ATOM     86  C   UNL A   1      32.818  24.270  25.085  1.00  0.00     0.307 C 
BRANCH  86  87
ATOM     87  C   UNL A   1      34.211  23.865  24.626  1.00  0.00     0.084 A 
ATOM     88  C   UNL A   1      35.299  24.172  25.461  1.00  0.00     0.017 A 
ATOM     89  C   UNL A   1      34.519  23.174  23.437  1.00  0.00     0.278 A 
ATOM     90  C   UNL A   1      36.592  23.706  25.194  1.00  0.00     0.001 A 
ATOM     91  C   UNL A   1      35.806  22.667  23.178  1.00  0.00     0.086 A 
ATOM     92  C   UNL A   1      36.837  22.918  24.076  1.00  0.00     0.007 A 
BRANCH  89  93
ATOM     93  N   UNL A   1      33.542  23.011  22.370  1.00  0.00     0.063 N 
ATOM     94  O   UNL A   1      33.584  23.820  21.430  1.00  0.00    -0.258 OA
ATOM     95  O   UNL A   1      32.706  22.106  22.491  1.00  0.00    -0.258 OA
ENDBRANCH  89  93
ENDBRANCH  86  87
ENDBRANCH  82  86
ENDBRANCH  78  80
ENDBRANCH  77  78
ENDBRANCH  76  77
ENDBRANCH  75  76
ENDBRANCH  74  75
ENDBRANCH  73  74
ENDBRANCH   1  73
TORSDOF 23
ENDMDL
