MODEL 1
REMARK VINA RESULT:     -12.9      0.000      0.000
REMARK SMILES Cc1cc(OCC(=O)OCCOCCOCCOC(=O)c2ccc(-c3c4nc(c(-c5cc(S(=O)(=O)[O-])ccc5F)c5ccc([nH]5)c(-c5cc(S(=O)(=O)[O-])ccc5F)c5nc(c(-c6cc(S(=O)(=O)[O-])ccc6F)c6ccc3[nH]6)C=C5)C=C4)cc2)ccc1NC(=O)c1ccc(N2C(=O)[C@@H]3[C@H](C2=O)[C@H]2C=C[C@@H]3C2)cc1
REMARK SMILES IDX 13 1 12 2 11 3 10 4 9 5 7 6 8 7 6 8 5 9 4 10 1 11 2 12 3 13
REMARK SMILES IDX 86 14 85 15 84 16 87 17 88 18 89 20 90 21 91 22 107 23 92 24
REMARK SMILES IDX 106 25 93 26 94 27 95 28 99 29 96 30 97 31 98 32 100 33
REMARK SMILES IDX 104 34 101 35 103 36 105 37 102 38 14 39 15 40 16 41 17 42
REMARK SMILES IDX 18 43 19 44 20 45 21 46 22 47 83 48 23 49 82 50 24 51 25 52
REMARK SMILES IDX 26 53 76 54 27 55 81 56 75 57 77 58 28 59 80 60 74 61 73 62
REMARK SMILES IDX 29 64 61 65 41 66 60 67 42 68 45 69 59 70 78 71 43 72 44 73
REMARK SMILES IDX 58 75 79 76 46 77 30 78 31 79 39 80 32 81 38 82 40 83 37 84
REMARK SMILES IDX 33 85 34 86 35 87 36 88 62 89 63 90 71 91 64 92 70 93 72 94
REMARK SMILES IDX 69 95 65 96 66 97 67 98 68 99 47 100 48 101 56 102 49 103
REMARK SMILES IDX 55 104 57 105 54 106 50 107 51 108 52 109 53 110
REMARK H PARENT 87 19 77 63 45 74
REMARK Flexibility Score: inf
ROOT
ATOM      1  C   UNL A   1      37.226  20.784  24.996  1.00  0.00     0.188 C 
ENDROOT
BRANCH   1   2
ATOM      2  O   UNL A   1      37.076  21.639  23.848  1.00  0.00    -0.376 OA
BRANCH   2   3
ATOM      3  C   UNL A   1      37.020  23.073  23.969  1.00  0.00     0.202 C 
BRANCH   3   4
ATOM      4  C   UNL A   1      36.836  23.813  25.566  1.00  0.00     0.261 C 
BRANCH   4   5
ATOM      5  O   UNL A   1      35.645  23.403  26.841  1.00  0.00    -0.461 OA
BRANCH   5   6
ATOM      6  C   UNL A   1      34.218  22.950  27.131  1.00  0.00     0.344 C 
ATOM      7  O   UNL A   1      33.756  22.008  27.797  1.00  0.00    -0.248 OA
BRANCH   6   8
ATOM      8  C   UNL A   1      33.128  23.824  26.679  1.00  0.00     0.351 C 
BRANCH   8   9
ATOM      9  O   UNL A   1      32.071  22.949  26.511  1.00  0.00    -0.482 OA
BRANCH   9  10
ATOM     10  C   UNL A   1      30.970  23.583  25.859  1.00  0.00     0.120 A 
ATOM     11  C   UNL A   1      32.259  24.930  22.087  1.00  0.00     0.047 C 
ATOM     12  C   UNL A   1      31.090  24.740  23.055  1.00  0.00    -0.024 A 
ATOM     13  C   UNL A   1      31.539  23.458  24.172  1.00  0.00     0.052 A 
ATOM     14  C   UNL A   1      29.990  26.102  23.470  1.00  0.00     0.044 A 
ATOM     15  C   UNL A   1      29.306  26.309  25.052  1.00  0.00     0.030 A 
ATOM     16  C   UNL A   1      29.774  25.156  26.326  1.00  0.00     0.048 A 
BRANCH  14  17
ATOM     17  N   UNL A   1      29.917  27.202  22.581  1.00  0.00    -0.322 N 
ATOM     18  C   UNL A   1      30.505  28.471  22.594  1.00  0.00     0.255 C 
ATOM     19  H   UNL A   1      29.340  27.042  21.799  1.00  0.00     0.170 HD
ATOM     20  O   UNL A   1      30.311  29.206  21.620  1.00  0.00    -0.269 OA
BRANCH  18  21
ATOM     21  C   UNL A   1      31.418  29.006  23.659  1.00  0.00     0.040 A 
ATOM     22  C   UNL A   1      30.921  29.734  24.736  1.00  0.00     0.016 A 
ATOM     23  C   UNL A   1      32.807  28.946  23.542  1.00  0.00     0.016 A 
ATOM     24  C   UNL A   1      31.782  30.207  25.770  1.00  0.00     0.027 A 
ATOM     25  C   UNL A   1      33.662  29.426  24.581  1.00  0.00     0.027 A 
ATOM     26  C   UNL A   1      33.169  29.976  25.780  1.00  0.00     0.052 A 
BRANCH  26  27
ATOM     27  N   UNL A   1      34.005  30.222  26.958  1.00  0.00    -0.250 N 
ATOM     28  C   UNL A   1      34.942  29.329  27.467  1.00  0.00     0.238 C 
ATOM     29  C   UNL A   1      33.948  31.354  27.752  1.00  0.00     0.238 C 
ATOM     30  O   UNL A   1      35.041  28.127  27.245  1.00  0.00    -0.274 OA
ATOM     31  C   UNL A   1      35.703  29.953  28.626  1.00  0.00     0.099 C 
ATOM     32  C   UNL A   1      34.916  31.236  28.910  1.00  0.00     0.099 C 
ATOM     33  O   UNL A   1      33.215  32.331  27.654  1.00  0.00    -0.274 OA
ATOM     34  C   UNL A   1      37.164  30.462  28.479  1.00  0.00     0.025 C 
ATOM     35  C   UNL A   1      36.012  32.320  28.969  1.00  0.00     0.025 C 
ATOM     36  C   UNL A   1      37.613  30.924  29.860  1.00  0.00    -0.027 C 
ATOM     37  C   UNL A   1      36.990  31.855  27.884  1.00  0.00     0.017 C 
ATOM     38  C   UNL A   1      36.901  32.023  30.166  1.00  0.00    -0.027 C 
ENDBRANCH  26  27
ENDBRANCH  18  21
ENDBRANCH  14  17
ENDBRANCH   9  10
ENDBRANCH   8   9
ENDBRANCH   6   8
ENDBRANCH   5   6
ENDBRANCH   4   5
ENDBRANCH   3   4
ENDBRANCH   2   3
ENDBRANCH   1   2
BRANCH   1  39
ATOM     39  C   UNL A   1      37.652  19.360  24.706  1.00  0.00     0.188 C 
BRANCH  39  40
ATOM     40  O   UNL A   1      38.774  18.905  25.434  1.00  0.00    -0.376 OA
BRANCH  40  41
ATOM     41  C   UNL A   1      39.728  19.935  25.742  1.00  0.00     0.202 C 
BRANCH  41  42
ATOM     42  C   UNL A   1      41.132  19.469  26.273  1.00  0.00     0.261 C 
BRANCH  42  43
ATOM     43  O   UNL A   1      42.138  19.240  25.224  1.00  0.00    -0.460 OA
BRANCH  43  44
ATOM     44  C   UNL A   1      43.507  19.251  25.496  1.00  0.00     0.338 C 
ATOM     45  O   UNL A   1      43.973  18.271  26.046  1.00  0.00    -0.246 OA
BRANCH  44  46
ATOM     46  C   UNL A   1      44.202  20.705  24.986  1.00  0.00     0.060 A 
ATOM     47  C   UNL A   1      45.747  21.624  24.032  1.00  0.00     0.016 A 
ATOM     48  C   UNL A   1      43.290  21.658  26.100  1.00  0.00     0.016 A 
ATOM     49  C   UNL A   1      46.093  23.395  24.529  1.00  0.00     0.010 A 
ATOM     50  C   UNL A   1      43.851  23.162  26.509  1.00  0.00     0.010 A 
ATOM     51  C   UNL A   1      45.123  24.173  25.825  1.00  0.00    -0.014 A 
BRANCH  51  52
ATOM     52  C   UNL A   1      45.138  25.730  26.658  1.00  0.00     0.031 A 
ATOM     53  C   UNL A   1      43.782  26.803  27.238  1.00  0.00     0.074 A 
ATOM     54  C   UNL A   1      46.305  25.927  27.330  1.00  0.00     0.049 A 
ATOM     55  N   UNL A   1      43.811  28.097  27.496  1.00  0.00    -0.248 NA
ATOM     56  C   UNL A   1      42.223  26.497  27.490  1.00  0.00     0.031 C 
ATOM     57  C   UNL A   1      46.489  26.570  28.642  1.00  0.00     0.029 A 
ATOM     58  N   UNL A   1      47.596  25.449  27.050  1.00  0.00    -0.354 N 
ATOM     59  C   UNL A   1      42.510  28.387  28.046  1.00  0.00     0.074 A 
ATOM     60  C   UNL A   1      41.581  27.638  27.321  1.00  0.00     0.031 C 
ATOM     61  C   UNL A   1      47.800  26.632  28.951  1.00  0.00     0.029 A 
ATOM     62  C   UNL A   1      48.510  26.292  27.733  1.00  0.00     0.049 A 
ATOM     63  H   UNL A   1      47.824  24.676  26.484  1.00  0.00     0.167 HD
ATOM     64  C   UNL A   1      42.296  28.644  29.390  1.00  0.00     0.034 A 
ATOM     65  C   UNL A   1      49.251  27.195  27.015  1.00  0.00     0.034 A 
ATOM     66  C   UNL A   1      43.553  29.031  29.962  1.00  0.00     0.049 A 
ATOM     67  C   UNL A   1      48.771  28.622  27.278  1.00  0.00     0.074 A 
ATOM     68  C   UNL A   1      44.400  28.623  30.966  1.00  0.00     0.029 A 
ATOM     69  N   UNL A   1      44.265  29.905  29.182  1.00  0.00    -0.354 N 
ATOM     70  N   UNL A   1      47.619  28.902  27.838  1.00  0.00    -0.248 NA
ATOM     71  C   UNL A   1      49.560  29.830  27.058  1.00  0.00     0.031 C 
ATOM     72  C   UNL A   1      45.690  29.190  30.659  1.00  0.00     0.029 A 
ATOM     73  C   UNL A   1      45.580  29.960  29.509  1.00  0.00     0.049 A 
ATOM     74  H   UNL A   1      43.863  30.438  28.459  1.00  0.00     0.167 HD
ATOM     75  C   UNL A   1      47.497  30.239  28.065  1.00  0.00     0.074 A 
ATOM     76  C   UNL A   1      48.739  30.781  27.545  1.00  0.00     0.031 C 
ATOM     77  C   UNL A   1      46.390  30.798  28.641  1.00  0.00     0.034 A 
BRANCH  64  78
ATOM     78  C   UNL A   1      41.000  28.408  30.226  1.00  0.00     0.023 A 
ATOM     79  C   UNL A   1      40.806  29.243  31.346  1.00  0.00     0.031 A 
ATOM     80  C   UNL A   1      39.976  27.423  30.074  1.00  0.00     0.131 A 
ATOM     81  C   UNL A   1      39.677  29.125  32.194  1.00  0.00     0.055 A 
ATOM     82  C   UNL A   1      38.823  27.344  30.884  1.00  0.00     0.041 A 
ATOM     83  F   UNL A   1      40.038  26.423  29.185  1.00  0.00    -0.206 F 
ATOM     84  C   UNL A   1      38.666  28.201  31.953  1.00  0.00     0.022 A 
BRANCH  81  85
ATOM     85  S   UNL A   1      39.556  30.202  33.645  1.00  0.00     0.124 S 
ATOM     86  O   UNL A   1      40.728  29.798  34.415  1.00  0.00    -0.237 OA
ATOM     87  O   UNL A   1      39.597  31.530  33.047  1.00  0.00    -0.237 OA
ATOM     88  O   UNL A   1      38.272  29.832  34.240  1.00  0.00    -0.744 OA
ENDBRANCH  81  85
ENDBRANCH  64  78
BRANCH  65  89
ATOM     89  C   UNL A   1      49.707  26.566  25.727  1.00  0.00     0.023 A 
ATOM     90  C   UNL A   1      48.891  26.818  24.596  1.00  0.00     0.031 A 
ATOM     91  C   UNL A   1      51.078  26.357  25.498  1.00  0.00     0.131 A 
ATOM     92  C   UNL A   1      49.484  27.106  23.354  1.00  0.00     0.055 A 
ATOM     93  C   UNL A   1      51.649  26.583  24.235  1.00  0.00     0.041 A 
ATOM     94  F   UNL A   1      51.907  26.120  26.524  1.00  0.00    -0.206 F 
ATOM     95  C   UNL A   1      50.862  27.016  23.169  1.00  0.00     0.022 A 
BRANCH  92  96
ATOM     96  S   UNL A   1      48.452  27.882  22.083  1.00  0.00     0.124 S 
ATOM     97  O   UNL A   1      47.258  28.252  22.832  1.00  0.00    -0.237 OA
ATOM     98  O   UNL A   1      49.315  28.986  21.661  1.00  0.00    -0.237 OA
ATOM     99  O   UNL A   1      48.265  26.826  21.090  1.00  0.00    -0.744 OA
ENDBRANCH  92  96
ENDBRANCH  65  89
BRANCH  77 100
ATOM    100  C   UNL A   1      45.883  32.195  28.284  1.00  0.00     0.023 A 
ATOM    101  C   UNL A   1      45.096  32.408  27.156  1.00  0.00     0.031 A 
ATOM    102  C   UNL A   1      46.049  33.340  29.117  1.00  0.00     0.131 A 
ATOM    103  C   UNL A   1      44.672  33.691  26.795  1.00  0.00     0.055 A 
ATOM    104  C   UNL A   1      45.469  34.582  28.846  1.00  0.00     0.041 A 
ATOM    105  F   UNL A   1      46.768  33.319  30.249  1.00  0.00    -0.206 F 
ATOM    106  C   UNL A   1      44.816  34.779  27.646  1.00  0.00     0.022 A 
BRANCH 103 107
ATOM    107  S   UNL A   1      44.131  33.904  25.088  1.00  0.00     0.124 S 
ATOM    108  O   UNL A   1      45.364  34.354  24.445  1.00  0.00    -0.237 OA
ATOM    109  O   UNL A   1      43.685  32.562  24.730  1.00  0.00    -0.237 OA
ATOM    110  O   UNL A   1      43.080  34.914  25.187  1.00  0.00    -0.744 OA
ENDBRANCH 103 107
ENDBRANCH  77 100
ENDBRANCH  51  52
ENDBRANCH  44  46
ENDBRANCH  43  44
ENDBRANCH  42  43
ENDBRANCH  41  42
ENDBRANCH  40  41
ENDBRANCH  39  40
ENDBRANCH   1  39
TORSDOF 25
ENDMDL
MODEL 2
REMARK VINA RESULT:     -12.2      4.428      7.877
REMARK SMILES Cc1cc(OCC(=O)OCCOCCOCCOC(=O)c2ccc(-c3c4nc(c(-c5cc(S(=O)(=O)[O-])ccc5F)c5ccc([nH]5)c(-c5cc(S(=O)(=O)[O-])ccc5F)c5nc(c(-c6cc(S(=O)(=O)[O-])ccc6F)c6ccc3[nH]6)C=C5)C=C4)cc2)ccc1NC(=O)c1ccc(N2C(=O)[C@@H]3[C@H](C2=O)[C@H]2C=C[C@@H]3C2)cc1
REMARK SMILES IDX 13 1 12 2 11 3 10 4 9 5 7 6 8 7 6 8 5 9 4 10 1 11 2 12 3 13
REMARK SMILES IDX 86 14 85 15 84 16 87 17 88 18 89 20 90 21 91 22 107 23 92 24
REMARK SMILES IDX 106 25 93 26 94 27 95 28 99 29 96 30 97 31 98 32 100 33
REMARK SMILES IDX 104 34 101 35 103 36 105 37 102 38 14 39 15 40 16 41 17 42
REMARK SMILES IDX 18 43 19 44 20 45 21 46 22 47 83 48 23 49 82 50 24 51 25 52
REMARK SMILES IDX 26 53 76 54 27 55 81 56 75 57 77 58 28 59 80 60 74 61 73 62
REMARK SMILES IDX 29 64 61 65 41 66 60 67 42 68 45 69 59 70 78 71 43 72 44 73
REMARK SMILES IDX 58 75 79 76 46 77 30 78 31 79 39 80 32 81 38 82 40 83 37 84
REMARK SMILES IDX 33 85 34 86 35 87 36 88 62 89 63 90 71 91 64 92 70 93 72 94
REMARK SMILES IDX 69 95 65 96 66 97 67 98 68 99 47 100 48 101 56 102 49 103
REMARK SMILES IDX 55 104 57 105 54 106 50 107 51 108 52 109 53 110
REMARK H PARENT 87 19 77 63 45 74
REMARK Flexibility Score: inf
ROOT
ATOM      1  C   UNL A   1      35.970  22.399  23.876  1.00  0.00     0.188 C 
ENDROOT
BRANCH   1   2
ATOM      2  O   UNL A   1      35.276  23.441  24.586  1.00  0.00    -0.376 OA
BRANCH   2   3
ATOM      3  C   UNL A   1      34.108  24.085  24.043  1.00  0.00     0.202 C 
BRANCH   3   4
ATOM      4  C   UNL A   1      33.847  25.812  24.328  1.00  0.00     0.261 C 
BRANCH   4   5
ATOM      5  O   UNL A   1      32.892  26.582  25.635  1.00  0.00    -0.461 OA
BRANCH   5   6
ATOM      6  C   UNL A   1      32.817  27.739  26.625  1.00  0.00     0.344 C 
ATOM      7  O   UNL A   1      32.212  27.885  27.701  1.00  0.00    -0.248 OA
BRANCH   6   8
ATOM      8  C   UNL A   1      33.710  28.882  26.395  1.00  0.00     0.351 C 
BRANCH   8   9
ATOM      9  O   UNL A   1      34.403  28.985  27.588  1.00  0.00    -0.482 OA
BRANCH   9  10
ATOM     10  C   UNL A   1      34.919  30.304  27.776  1.00  0.00     0.120 A 
ATOM     11  C   UNL A   1      36.959  30.418  31.454  1.00  0.00     0.047 C 
ATOM     12  C   UNL A   1      36.589  31.153  30.164  1.00  0.00    -0.024 A 
ATOM     13  C   UNL A   1      36.202  29.931  28.959  1.00  0.00     0.052 A 
ATOM     14  C   UNL A   1      35.865  32.799  30.202  1.00  0.00     0.044 A 
ATOM     15  C   UNL A   1      34.658  33.321  29.070  1.00  0.00     0.030 A 
ATOM     16  C   UNL A   1      34.072  32.147  27.866  1.00  0.00     0.048 A 
BRANCH  14  17
ATOM     17  N   UNL A   1      36.053  33.590  31.362  1.00  0.00    -0.322 N 
ATOM     18  C   UNL A   1      37.168  34.255  31.884  1.00  0.00     0.255 C 
ATOM     19  H   UNL A   1      35.240  33.693  31.908  1.00  0.00     0.170 HD
ATOM     20  O   UNL A   1      37.005  34.944  32.897  1.00  0.00    -0.269 OA
BRANCH  18  21
ATOM     21  C   UNL A   1      38.544  34.271  31.283  1.00  0.00     0.040 A 
ATOM     22  C   UNL A   1      39.680  34.171  32.082  1.00  0.00     0.016 A 
ATOM     23  C   UNL A   1      38.760  34.547  29.934  1.00  0.00     0.016 A 
ATOM     24  C   UNL A   1      40.985  34.143  31.510  1.00  0.00     0.027 A 
ATOM     25  C   UNL A   1      40.072  34.521  29.370  1.00  0.00     0.027 A 
ATOM     26  C   UNL A   1      41.220  34.211  30.126  1.00  0.00     0.052 A 
BRANCH  26  27
ATOM     27  N   UNL A   1      42.524  33.914  29.527  1.00  0.00    -0.250 N 
ATOM     28  C   UNL A   1      43.050  32.638  29.362  1.00  0.00     0.238 C 
ATOM     29  C   UNL A   1      43.430  34.862  29.084  1.00  0.00     0.238 C 
ATOM     30  O   UNL A   1      42.704  31.599  29.915  1.00  0.00    -0.274 OA
ATOM     31  C   UNL A   1      44.369  32.694  28.608  1.00  0.00     0.099 C 
ATOM     32  C   UNL A   1      44.690  34.192  28.578  1.00  0.00     0.099 C 
ATOM     33  O   UNL A   1      43.346  36.084  29.111  1.00  0.00    -0.274 OA
ATOM     34  C   UNL A   1      44.489  32.279  27.115  1.00  0.00     0.025 C 
ATOM     35  C   UNL A   1      45.028  34.453  27.096  1.00  0.00     0.025 C 
ATOM     36  C   UNL A   1      45.964  32.377  26.745  1.00  0.00    -0.027 C 
ATOM     37  C   UNL A   1      44.043  33.530  26.368  1.00  0.00     0.017 C 
ATOM     38  C   UNL A   1      46.294  33.681  26.761  1.00  0.00    -0.027 C 
ENDBRANCH  26  27
ENDBRANCH  18  21
ENDBRANCH  14  17
ENDBRANCH   9  10
ENDBRANCH   8   9
ENDBRANCH   6   8
ENDBRANCH   5   6
ENDBRANCH   4   5
ENDBRANCH   3   4
ENDBRANCH   2   3
ENDBRANCH   1   2
BRANCH   1  39
ATOM     39  C   UNL A   1      37.290  21.959  24.477  1.00  0.00     0.188 C 
BRANCH  39  40
ATOM     40  O   UNL A   1      37.641  20.611  24.240  1.00  0.00    -0.376 OA
BRANCH  40  41
ATOM     41  C   UNL A   1      38.306  19.978  25.346  1.00  0.00     0.202 C 
BRANCH  41  42
ATOM     42  C   UNL A   1      39.470  20.781  26.031  1.00  0.00     0.261 C 
BRANCH  42  43
ATOM     43  O   UNL A   1      40.777  20.652  25.367  1.00  0.00    -0.460 OA
BRANCH  43  44
ATOM     44  C   UNL A   1      41.923  20.254  26.056  1.00  0.00     0.338 C 
ATOM     45  O   UNL A   1      41.986  19.092  26.407  1.00  0.00    -0.246 OA
BRANCH  44  46
ATOM     46  C   UNL A   1      42.977  21.560  26.260  1.00  0.00     0.060 A 
ATOM     47  C   UNL A   1      44.750  22.426  25.758  1.00  0.00     0.016 A 
ATOM     48  C   UNL A   1      42.264  22.045  27.755  1.00  0.00     0.016 A 
ATOM     49  C   UNL A   1      45.486  23.597  27.018  1.00  0.00     0.010 A 
ATOM     50  C   UNL A   1      43.149  22.982  28.795  1.00  0.00     0.010 A 
ATOM     51  C   UNL A   1      44.664  23.860  28.593  1.00  0.00    -0.014 A 
BRANCH  51  52
ATOM     52  C   UNL A   1      45.011  24.768  30.067  1.00  0.00     0.031 A 
ATOM     53  C   UNL A   1      44.681  24.394  31.821  1.00  0.00     0.074 A 
ATOM     54  C   UNL A   1      46.039  25.641  29.887  1.00  0.00     0.049 A 
ATOM     55  N   UNL A   1      44.597  25.231  32.838  1.00  0.00    -0.248 NA
ATOM     56  C   UNL A   1      44.322  23.011  32.561  1.00  0.00     0.031 C 
ATOM     57  C   UNL A   1      47.101  25.988  30.846  1.00  0.00     0.029 A 
ATOM     58  N   UNL A   1      46.455  26.313  28.726  1.00  0.00    -0.354 N 
ATOM     59  C   UNL A   1      44.459  24.383  33.997  1.00  0.00     0.074 A 
ATOM     60  C   UNL A   1      43.621  23.326  33.635  1.00  0.00     0.031 C 
ATOM     61  C   UNL A   1      47.907  26.937  30.326  1.00  0.00     0.029 A 
ATOM     62  C   UNL A   1      47.227  27.428  29.144  1.00  0.00     0.049 A 
ATOM     63  H   UNL A   1      46.249  26.059  27.798  1.00  0.00     0.167 HD
ATOM     64  C   UNL A   1      45.478  24.177  34.912  1.00  0.00     0.034 A 
ATOM     65  C   UNL A   1      46.688  28.686  29.052  1.00  0.00     0.034 A 
ATOM     66  C   UNL A   1      46.409  25.260  34.771  1.00  0.00     0.049 A 
ATOM     67  C   UNL A   1      46.361  29.238  30.440  1.00  0.00     0.074 A 
ATOM     68  C   UNL A   1      47.743  25.444  34.489  1.00  0.00     0.029 A 
ATOM     69  N   UNL A   1      45.811  26.486  34.647  1.00  0.00    -0.354 N 
ATOM     70  N   UNL A   1      46.296  28.491  31.516  1.00  0.00    -0.248 NA
ATOM     71  C   UNL A   1      46.201  30.651  30.767  1.00  0.00     0.031 C 
ATOM     72  C   UNL A   1      47.877  26.812  34.054  1.00  0.00     0.029 A 
ATOM     73  C   UNL A   1      46.636  27.430  34.128  1.00  0.00     0.049 A 
ATOM     74  H   UNL A   1      44.878  26.664  34.907  1.00  0.00     0.167 HD
ATOM     75  C   UNL A   1      46.111  29.252  32.629  1.00  0.00     0.074 A 
ATOM     76  C   UNL A   1      46.045  30.603  32.104  1.00  0.00     0.031 C 
ATOM     77  C   UNL A   1      46.010  28.719  33.885  1.00  0.00     0.034 A 
BRANCH  64  78
ATOM     78  C   UNL A   1      45.722  22.938  35.827  1.00  0.00     0.023 A 
ATOM     79  C   UNL A   1      45.819  23.181  37.213  1.00  0.00     0.031 A 
ATOM     80  C   UNL A   1      45.925  21.567  35.480  1.00  0.00     0.131 A 
ATOM     81  C   UNL A   1      46.049  22.145  38.150  1.00  0.00     0.055 A 
ATOM     82  C   UNL A   1      46.097  20.527  36.419  1.00  0.00     0.041 A 
ATOM     83  F   UNL A   1      46.042  21.133  34.219  1.00  0.00    -0.206 F 
ATOM     84  C   UNL A   1      46.158  20.812  37.767  1.00  0.00     0.022 A 
BRANCH  81  85
ATOM     85  S   UNL A   1      46.224  22.572  39.902  1.00  0.00     0.124 S 
ATOM     86  O   UNL A   1      46.060  21.271  40.543  1.00  0.00    -0.237 OA
ATOM     87  O   UNL A   1      47.559  23.155  39.946  1.00  0.00    -0.237 OA
ATOM     88  O   UNL A   1      45.130  23.515  40.135  1.00  0.00    -0.744 OA
ENDBRANCH  81  85
ENDBRANCH  64  78
BRANCH  65  89
ATOM     89  C   UNL A   1      45.911  28.812  27.770  1.00  0.00     0.023 A 
ATOM     90  C   UNL A   1      46.673  28.725  26.578  1.00  0.00     0.031 A 
ATOM     91  C   UNL A   1      44.577  28.372  27.715  1.00  0.00     0.131 A 
ATOM     92  C   UNL A   1      46.183  27.987  25.485  1.00  0.00     0.055 A 
ATOM     93  C   UNL A   1      44.078  27.696  26.590  1.00  0.00     0.041 A 
ATOM     94  F   UNL A   1      43.803  28.421  28.808  1.00  0.00    -0.206 F 
ATOM     95  C   UNL A   1      44.898  27.449  25.491  1.00  0.00     0.022 A 
BRANCH  92  96
ATOM     96  S   UNL A   1      47.358  27.502  24.196  1.00  0.00     0.124 S 
ATOM     97  O   UNL A   1      46.911  28.288  23.052  1.00  0.00    -0.237 OA
ATOM     98  O   UNL A   1      48.624  27.916  24.804  1.00  0.00    -0.237 OA
ATOM     99  O   UNL A   1      47.171  26.058  24.074  1.00  0.00    -0.744 OA
ENDBRANCH  92  96
ENDBRANCH  65  89
BRANCH  77 100
ATOM    100  C   UNL A   1      45.139  29.333  34.980  1.00  0.00     0.023 A 
ATOM    101  C   UNL A   1      43.751  29.346  34.873  1.00  0.00     0.031 A 
ATOM    102  C   UNL A   1      45.643  29.807  36.227  1.00  0.00     0.131 A 
ATOM    103  C   UNL A   1      42.951  29.953  35.846  1.00  0.00     0.055 A 
ATOM    104  C   UNL A   1      44.826  30.244  37.273  1.00  0.00     0.041 A 
ATOM    105  F   UNL A   1      46.952  29.860  36.511  1.00  0.00    -0.206 F 
ATOM    106  C   UNL A   1      43.467  30.370  37.067  1.00  0.00     0.022 A 
BRANCH 103 107
ATOM    107  S   UNL A   1      41.265  30.363  35.354  1.00  0.00     0.124 S 
ATOM    108  O   UNL A   1      40.486  29.466  36.206  1.00  0.00    -0.237 OA
ATOM    109  O   UNL A   1      41.178  31.781  35.686  1.00  0.00    -0.237 OA
ATOM    110  O   UNL A   1      41.239  30.044  33.930  1.00  0.00    -0.744 OA
ENDBRANCH 103 107
ENDBRANCH  77 100
ENDBRANCH  51  52
ENDBRANCH  44  46
ENDBRANCH  43  44
ENDBRANCH  42  43
ENDBRANCH  41  42
ENDBRANCH  40  41
ENDBRANCH  39  40
ENDBRANCH   1  39
TORSDOF 25
ENDMDL
MODEL 3
REMARK VINA RESULT:     -11.9      5.962     10.592
REMARK SMILES Cc1cc(OCC(=O)OCCOCCOCCOC(=O)c2ccc(-c3c4nc(c(-c5cc(S(=O)(=O)[O-])ccc5F)c5ccc([nH]5)c(-c5cc(S(=O)(=O)[O-])ccc5F)c5nc(c(-c6cc(S(=O)(=O)[O-])ccc6F)c6ccc3[nH]6)C=C5)C=C4)cc2)ccc1NC(=O)c1ccc(N2C(=O)[C@@H]3[C@H](C2=O)[C@H]2C=C[C@@H]3C2)cc1
REMARK SMILES IDX 13 1 12 2 11 3 10 4 9 5 7 6 8 7 6 8 5 9 4 10 1 11 2 12 3 13
REMARK SMILES IDX 86 14 85 15 84 16 87 17 88 18 89 20 90 21 91 22 107 23 92 24
REMARK SMILES IDX 106 25 93 26 94 27 95 28 99 29 96 30 97 31 98 32 100 33
REMARK SMILES IDX 104 34 101 35 103 36 105 37 102 38 14 39 15 40 16 41 17 42
REMARK SMILES IDX 18 43 19 44 20 45 21 46 22 47 83 48 23 49 82 50 24 51 25 52
REMARK SMILES IDX 26 53 76 54 27 55 81 56 75 57 77 58 28 59 80 60 74 61 73 62
REMARK SMILES IDX 29 64 61 65 41 66 60 67 42 68 45 69 59 70 78 71 43 72 44 73
REMARK SMILES IDX 58 75 79 76 46 77 30 78 31 79 39 80 32 81 38 82 40 83 37 84
REMARK SMILES IDX 33 85 34 86 35 87 36 88 62 89 63 90 71 91 64 92 70 93 72 94
REMARK SMILES IDX 69 95 65 96 66 97 67 98 68 99 47 100 48 101 56 102 49 103
REMARK SMILES IDX 55 104 57 105 54 106 50 107 51 108 52 109 53 110
REMARK H PARENT 87 19 77 63 45 74
REMARK Flexibility Score: inf
ROOT
ATOM      1  C   UNL A   1      31.091  30.237  24.886  1.00  0.00     0.188 C 
ENDROOT
BRANCH   1   2
ATOM      2  O   UNL A   1      30.221  29.529  23.985  1.00  0.00    -0.376 OA
BRANCH   2   3
ATOM      3  C   UNL A   1      30.716  28.887  22.795  1.00  0.00     0.202 C 
BRANCH   3   4
ATOM      4  C   UNL A   1      31.116  27.163  22.828  1.00  0.00     0.261 C 
BRANCH   4   5
ATOM      5  O   UNL A   1      31.473  26.142  24.258  1.00  0.00    -0.461 OA
BRANCH   5   6
ATOM      6  C   UNL A   1      30.927  25.100  25.228  1.00  0.00     0.344 C 
ATOM      7  O   UNL A   1      30.383  25.194  26.341  1.00  0.00    -0.248 OA
BRANCH   6   8
ATOM      8  C   UNL A   1      30.880  23.708  24.765  1.00  0.00     0.351 C 
BRANCH   8   9
ATOM      9  O   UNL A   1      32.093  23.549  24.119  1.00  0.00    -0.482 OA
BRANCH   9  10
ATOM     10  C   UNL A   1      33.178  23.543  25.048  1.00  0.00     0.120 A 
ATOM     11  C   UNL A   1      36.759  23.021  22.899  1.00  0.00     0.047 C 
ATOM     12  C   UNL A   1      36.097  23.297  24.251  1.00  0.00    -0.024 A 
ATOM     13  C   UNL A   1      34.502  23.963  23.926  1.00  0.00     0.052 A 
ATOM     14  C   UNL A   1      36.509  22.326  25.708  1.00  0.00     0.044 A 
ATOM     15  C   UNL A   1      35.337  21.902  26.916  1.00  0.00     0.030 A 
ATOM     16  C   UNL A   1      33.647  22.399  26.659  1.00  0.00     0.048 A 
BRANCH  14  17
ATOM     17  N   UNL A   1      37.742  21.629  25.725  1.00  0.00    -0.322 N 
ATOM     18  C   UNL A   1      39.010  21.960  26.213  1.00  0.00     0.255 C 
ATOM     19  H   UNL A   1      37.698  20.736  25.313  1.00  0.00     0.170 HD
ATOM     20  O   UNL A   1      39.894  21.098  26.152  1.00  0.00    -0.269 OA
BRANCH  18  21
ATOM     21  C   UNL A   1      39.387  23.252  26.879  1.00  0.00     0.040 A 
ATOM     22  C   UNL A   1      40.620  23.407  27.506  1.00  0.00     0.016 A 
ATOM     23  C   UNL A   1      38.474  24.293  27.045  1.00  0.00     0.016 A 
ATOM     24  C   UNL A   1      40.996  24.647  28.101  1.00  0.00     0.027 A 
ATOM     25  C   UNL A   1      38.859  25.531  27.646  1.00  0.00     0.027 A 
ATOM     26  C   UNL A   1      40.169  25.783  28.098  1.00  0.00     0.052 A 
BRANCH  26  27
ATOM     27  N   UNL A   1      40.653  27.117  28.465  1.00  0.00    -0.250 N 
ATOM     28  C   UNL A   1      40.155  27.881  29.515  1.00  0.00     0.238 C 
ATOM     29  C   UNL A   1      41.637  27.819  27.792  1.00  0.00     0.238 C 
ATOM     30  O   UNL A   1      39.092  27.747  30.112  1.00  0.00    -0.274 OA
ATOM     31  C   UNL A   1      40.960  29.161  29.676  1.00  0.00     0.099 C 
ATOM     32  C   UNL A   1      41.835  29.183  28.419  1.00  0.00     0.099 C 
ATOM     33  O   UNL A   1      42.269  27.498  26.792  1.00  0.00    -0.274 OA
ATOM     34  C   UNL A   1      41.990  29.352  30.824  1.00  0.00     0.025 C 
ATOM     35  C   UNL A   1      43.248  29.457  28.973  1.00  0.00     0.025 C 
ATOM     36  C   UNL A   1      42.516  30.778  30.714  1.00  0.00    -0.027 C 
ATOM     37  C   UNL A   1      43.242  28.667  30.288  1.00  0.00     0.017 C 
ATOM     38  C   UNL A   1      43.248  30.847  29.587  1.00  0.00    -0.027 C 
ENDBRANCH  26  27
ENDBRANCH  18  21
ENDBRANCH  14  17
ENDBRANCH   9  10
ENDBRANCH   8   9
ENDBRANCH   6   8
ENDBRANCH   5   6
ENDBRANCH   4   5
ENDBRANCH   3   4
ENDBRANCH   2   3
ENDBRANCH   1   2
BRANCH   1  39
ATOM     39  C   UNL A   1      31.960  29.374  25.778  1.00  0.00     0.188 C 
BRANCH  39  40
ATOM     40  O   UNL A   1      32.278  29.934  27.036  1.00  0.00    -0.376 OA
BRANCH  40  41
ATOM     41  C   UNL A   1      33.676  30.216  27.215  1.00  0.00     0.202 C 
BRANCH  41  42
ATOM     42  C   UNL A   1      34.047  31.602  27.854  1.00  0.00     0.261 C 
BRANCH  42  43
ATOM     43  O   UNL A   1      35.151  31.554  28.825  1.00  0.00    -0.460 OA
BRANCH  43  44
ATOM     44  C   UNL A   1      35.719  32.711  29.361  1.00  0.00     0.338 C 
ATOM     45  O   UNL A   1      35.156  33.764  29.131  1.00  0.00    -0.246 OA
BRANCH  44  46
ATOM     46  C   UNL A   1      37.127  32.339  30.219  1.00  0.00     0.060 A 
ATOM     47  C   UNL A   1      38.066  31.074  31.507  1.00  0.00     0.016 A 
ATOM     48  C   UNL A   1      37.753  33.944  30.102  1.00  0.00     0.016 A 
ATOM     49  C   UNL A   1      39.462  31.804  32.517  1.00  0.00     0.010 A 
ATOM     50  C   UNL A   1      38.900  34.435  31.191  1.00  0.00     0.010 A 
ATOM     51  C   UNL A   1      39.870  33.546  32.363  1.00  0.00    -0.014 A 
BRANCH  51  52
ATOM     52  C   UNL A   1      41.003  34.655  33.141  1.00  0.00     0.031 A 
ATOM     53  C   UNL A   1      40.964  35.474  34.770  1.00  0.00     0.074 A 
ATOM     54  C   UNL A   1      42.260  34.524  32.634  1.00  0.00     0.049 A 
ATOM     55  N   UNL A   1      41.601  36.564  35.157  1.00  0.00    -0.248 NA
ATOM     56  C   UNL A   1      40.105  35.162  36.093  1.00  0.00     0.031 C 
ATOM     57  C   UNL A   1      43.535  34.599  33.366  1.00  0.00     0.029 A 
ATOM     58  N   UNL A   1      42.675  34.139  31.349  1.00  0.00    -0.354 N 
ATOM     59  C   UNL A   1      41.312  36.673  36.566  1.00  0.00     0.074 A 
ATOM     60  C   UNL A   1      39.976  36.305  36.741  1.00  0.00     0.031 C 
ATOM     61  C   UNL A   1      44.571  34.480  32.509  1.00  0.00     0.029 A 
ATOM     62  C   UNL A   1      44.003  34.610  31.182  1.00  0.00     0.049 A 
ATOM     63  H   UNL A   1      42.144  33.638  30.689  1.00  0.00     0.167 HD
ATOM     64  C   UNL A   1      42.242  36.396  37.554  1.00  0.00     0.034 A 
ATOM     65  C   UNL A   1      44.231  35.688  30.366  1.00  0.00     0.034 A 
ATOM     66  C   UNL A   1      43.544  36.476  36.956  1.00  0.00     0.049 A 
ATOM     67  C   UNL A   1      44.608  36.920  31.189  1.00  0.00     0.074 A 
ATOM     68  C   UNL A   1      44.646  35.675  36.769  1.00  0.00     0.029 A 
ATOM     69  N   UNL A   1      43.700  37.554  36.123  1.00  0.00    -0.354 N 
ATOM     70  N   UNL A   1      44.413  37.009  32.482  1.00  0.00    -0.248 NA
ATOM     71  C   UNL A   1      45.328  38.083  30.680  1.00  0.00     0.031 C 
ATOM     72  C   UNL A   1      45.391  36.260  35.683  1.00  0.00     0.029 A 
ATOM     73  C   UNL A   1      44.749  37.421  35.272  1.00  0.00     0.049 A 
ATOM     74  H   UNL A   1      43.111  38.342  36.140  1.00  0.00     0.167 HD
ATOM     75  C   UNL A   1      44.951  38.157  32.980  1.00  0.00     0.074 A 
ATOM     76  C   UNL A   1      45.504  38.804  31.805  1.00  0.00     0.031 C 
ATOM     77  C   UNL A   1      44.887  38.495  34.304  1.00  0.00     0.034 A 
BRANCH  64  78
ATOM     78  C   UNL A   1      41.989  35.909  39.014  1.00  0.00     0.023 A 
ATOM     79  C   UNL A   1      42.032  34.518  39.236  1.00  0.00     0.031 A 
ATOM     80  C   UNL A   1      41.655  36.657  40.185  1.00  0.00     0.131 A 
ATOM     81  C   UNL A   1      41.808  33.946  40.513  1.00  0.00     0.055 A 
ATOM     82  C   UNL A   1      41.490  36.092  41.468  1.00  0.00     0.041 A 
ATOM     83  F   UNL A   1      41.396  37.971  40.175  1.00  0.00    -0.206 F 
ATOM     84  C   UNL A   1      41.568  34.725  41.640  1.00  0.00     0.022 A 
BRANCH  81  85
ATOM     85  S   UNL A   1      41.820  32.142  40.679  1.00  0.00     0.124 S 
ATOM     86  O   UNL A   1      40.422  31.863  40.993  1.00  0.00    -0.237 OA
ATOM     87  O   UNL A   1      42.290  31.715  39.367  1.00  0.00    -0.237 OA
ATOM     88  O   UNL A   1      42.756  31.906  41.778  1.00  0.00    -0.744 OA
ENDBRANCH  81  85
ENDBRANCH  64  78
BRANCH  65  89
ATOM     89  C   UNL A   1      43.362  35.590  29.142  1.00  0.00     0.023 A 
ATOM     90  C   UNL A   1      42.672  36.774  28.780  1.00  0.00     0.031 A 
ATOM     91  C   UNL A   1      43.712  34.707  28.106  1.00  0.00     0.131 A 
ATOM     92  C   UNL A   1      42.591  37.153  27.428  1.00  0.00     0.055 A 
ATOM     93  C   UNL A   1      43.562  35.069  26.757  1.00  0.00     0.041 A 
ATOM     94  F   UNL A   1      44.370  33.573  28.378  1.00  0.00    -0.206 F 
ATOM     95  C   UNL A   1      43.054  36.321  26.412  1.00  0.00     0.022 A 
BRANCH  92  96
ATOM     96  S   UNL A   1      42.142  38.868  27.055  1.00  0.00     0.124 S 
ATOM     97  O   UNL A   1      41.052  38.705  26.099  1.00  0.00    -0.237 OA
ATOM     98  O   UNL A   1      41.764  39.351  28.384  1.00  0.00    -0.237 OA
ATOM     99  O   UNL A   1      43.370  39.442  26.511  1.00  0.00    -0.744 OA
ENDBRANCH  92  96
ENDBRANCH  65  89
BRANCH  77 100
ATOM    100  C   UNL A   1      44.789  39.941  34.789  1.00  0.00     0.023 A 
ATOM    101  C   UNL A   1      43.795  40.793  34.316  1.00  0.00     0.031 A 
ATOM    102  C   UNL A   1      45.593  40.487  35.831  1.00  0.00     0.131 A 
ATOM    103  C   UNL A   1      43.731  42.131  34.716  1.00  0.00     0.055 A 
ATOM    104  C   UNL A   1      45.408  41.768  36.358  1.00  0.00     0.041 A 
ATOM    105  F   UNL A   1      46.593  39.809  36.412  1.00  0.00    -0.206 F 
ATOM    106  C   UNL A   1      44.503  42.623  35.761  1.00  0.00     0.022 A 
BRANCH 103 107
ATOM    107  S   UNL A   1      42.763  43.234  33.669  1.00  0.00     0.124 S 
ATOM    108  O   UNL A   1      43.814  44.000  33.002  1.00  0.00    -0.237 OA
ATOM    109  O   UNL A   1      42.030  42.300  32.822  1.00  0.00    -0.237 OA
ATOM    110  O   UNL A   1      41.956  43.989  34.623  1.00  0.00    -0.744 OA
ENDBRANCH 103 107
ENDBRANCH  77 100
ENDBRANCH  51  52
ENDBRANCH  44  46
ENDBRANCH  43  44
ENDBRANCH  42  43
ENDBRANCH  41  42
ENDBRANCH  40  41
ENDBRANCH  39  40
ENDBRANCH   1  39
TORSDOF 25
ENDMDL
