MODEL 1
REMARK VINA RESULT:     -10.0      0.000      0.000
REMARK SMILES CC(C)[C@@H]1CN(C(=O)Cc2ccsc2)C[C@H]1C(=O)OCCOCCOCCOC(=O)c1ccc(-c2c3nc(c(-c4cc(S(=O)(=O)[O-])ccc4F)c4ccc([nH]4)c(-c4cc(S(=O)(=O)[O-])ccc4F)c4nc(c(-c5cc(S(=O)(=O)[O-])ccc5F)c5ccc2[nH]5)C=C4)C=C3)cc1
REMARK SMILES IDX 23 1 22 2 21 3 20 4 19 5 17 6 18 7 16 8 4 9 5 10 6 11 15 12
REMARK SMILES IDX 2 13 1 14 3 15 7 16 8 17 9 18 10 19 11 20 14 21 12 22 13 23
REMARK SMILES IDX 24 24 25 25 26 26 27 27 28 28 29 29 30 30 31 31 32 32 93 33
REMARK SMILES IDX 33 34 92 35 34 36 35 37 36 38 86 39 37 40 91 41 85 42 87 43
REMARK SMILES IDX 38 44 90 45 84 46 83 47 39 49 71 50 51 51 70 52 52 53 55 54
REMARK SMILES IDX 69 55 88 56 53 57 54 58 68 60 89 61 56 62 40 63 41 64 49 65
REMARK SMILES IDX 42 66 48 67 50 68 47 69 43 70 44 71 45 72 46 73 72 74 73 75
REMARK SMILES IDX 81 76 74 77 80 78 82 79 79 80 75 81 76 82 77 83 78 84 57 85
REMARK SMILES IDX 58 86 66 87 59 88 65 89 67 90 64 91 60 92 61 93 62 94 63 95
REMARK H PARENT 87 48 55 59
REMARK Flexibility Score: inf
ROOT
ATOM      1  C   UNL A   1      40.449  21.060  26.225  1.00  0.00     0.188 C 
ENDROOT
BRANCH   1   2
ATOM      2  O   UNL A   1      39.106  21.397  26.550  1.00  0.00    -0.376 OA
BRANCH   2   3
ATOM      3  C   UNL A   1      38.546  22.564  25.969  1.00  0.00     0.202 C 
BRANCH   3   4
ATOM      4  C   UNL A   1      37.274  22.352  25.152  1.00  0.00     0.261 C 
BRANCH   4   5
ATOM      5  O   UNL A   1      36.802  23.556  24.512  1.00  0.00    -0.463 OA
BRANCH   5   6
ATOM      6  C   UNL A   1      35.893  23.400  23.510  1.00  0.00     0.311 C 
ATOM      7  O   UNL A   1      36.179  23.216  22.335  1.00  0.00    -0.252 OA
BRANCH   6   8
ATOM      8  C   UNL A   1      34.469  23.633  23.977  1.00  0.00     0.124 C 
ATOM      9  C   UNL A   1      33.363  23.741  22.903  1.00  0.00     0.027 C 
ATOM     10  C   UNL A   1      32.172  23.012  23.543  1.00  0.00     0.124 C 
ATOM     11  N   UNL A   1      32.710  22.157  24.573  1.00  0.00    -0.341 N 
ATOM     12  C   UNL A   1      34.108  22.413  24.818  1.00  0.00     0.135 C 
BRANCH   9  13
ATOM     13  C   UNL A   1      32.885  25.170  22.517  1.00  0.00    -0.012 C 
ATOM     14  C   UNL A   1      33.693  26.315  23.096  1.00  0.00     0.008 C 
ATOM     15  C   UNL A   1      32.854  25.319  20.985  1.00  0.00     0.008 C 
ENDBRANCH   9  13
BRANCH  11  16
ATOM     16  C   UNL A   1      32.003  21.269  25.356  1.00  0.00     0.227 C 
ATOM     17  O   UNL A   1      30.822  21.463  25.653  1.00  0.00    -0.275 OA
BRANCH  16  18
ATOM     18  C   UNL A   1      32.731  20.017  25.821  1.00  0.00     0.136 C 
BRANCH  18  19
ATOM     19  C   UNL A   1      33.000  19.020  24.721  1.00  0.00    -0.028 A 
ATOM     20  C   UNL A   1      34.212  18.255  24.632  1.00  0.00     0.016 A 
ATOM     21  C   UNL A   1      32.159  18.708  23.664  1.00  0.00     0.069 A 
ATOM     22  C   UNL A   1      34.247  17.431  23.530  1.00  0.00     0.065 A 
ATOM     23  S   UNL A   1      32.829  17.561  22.588  1.00  0.00    -0.152 S 
ENDBRANCH  18  19
ENDBRANCH  16  18
ENDBRANCH  11  16
ENDBRANCH   6   8
ENDBRANCH   5   6
ENDBRANCH   4   5
ENDBRANCH   3   4
ENDBRANCH   2   3
ENDBRANCH   1   2
BRANCH   1  24
ATOM     24  C   UNL A   1      41.193  20.100  27.168  1.00  0.00     0.188 C 
BRANCH  24  25
ATOM     25  O   UNL A   1      42.597  19.959  26.982  1.00  0.00    -0.376 OA
BRANCH  25  26
ATOM     26  C   UNL A   1      43.052  19.959  25.631  1.00  0.00     0.202 C 
BRANCH  26  27
ATOM     27  C   UNL A   1      43.963  21.136  25.287  1.00  0.00     0.261 C 
BRANCH  27  28
ATOM     28  O   UNL A   1      43.192  22.352  25.195  1.00  0.00    -0.460 OA
BRANCH  28  29
ATOM     29  C   UNL A   1      43.894  23.489  25.402  1.00  0.00     0.338 C 
ATOM     30  O   UNL A   1      45.016  23.742  25.002  1.00  0.00    -0.246 OA
BRANCH  29  31
ATOM     31  C   UNL A   1      43.080  24.459  26.155  1.00  0.00     0.060 A 
ATOM     32  C   UNL A   1      43.069  25.795  25.758  1.00  0.00     0.016 A 
ATOM     33  C   UNL A   1      42.492  24.084  27.358  1.00  0.00     0.016 A 
ATOM     34  C   UNL A   1      42.576  26.785  26.605  1.00  0.00     0.010 A 
ATOM     35  C   UNL A   1      41.927  25.069  28.178  1.00  0.00     0.010 A 
ATOM     36  C   UNL A   1      42.011  26.434  27.836  1.00  0.00    -0.014 A 
BRANCH  36  37
ATOM     37  C   UNL A   1      41.627  27.472  28.833  1.00  0.00     0.031 A 
ATOM     38  C   UNL A   1      42.483  27.644  30.061  1.00  0.00     0.074 A 
ATOM     39  C   UNL A   1      40.553  28.265  28.660  1.00  0.00     0.049 A 
ATOM     40  N   UNL A   1      42.207  28.230  31.196  1.00  0.00    -0.248 NA
ATOM     41  C   UNL A   1      43.830  27.057  29.996  1.00  0.00     0.031 C 
ATOM     42  C   UNL A   1      39.709  28.308  27.465  1.00  0.00     0.029 A 
ATOM     43  N   UNL A   1      39.980  29.185  29.504  1.00  0.00    -0.354 N 
ATOM     44  C   UNL A   1      43.320  28.026  32.008  1.00  0.00     0.074 A 
ATOM     45  C   UNL A   1      44.271  27.261  31.228  1.00  0.00     0.031 C 
ATOM     46  C   UNL A   1      38.733  29.212  27.651  1.00  0.00     0.029 A 
ATOM     47  C   UNL A   1      38.817  29.731  29.012  1.00  0.00     0.049 A 
ATOM     48  H   UNL A   1      40.365  29.431  30.376  1.00  0.00     0.167 HD
ATOM     49  C   UNL A   1      43.516  28.430  33.287  1.00  0.00     0.034 A 
ATOM     50  C   UNL A   1      37.887  30.502  29.611  1.00  0.00     0.034 A 
ATOM     51  C   UNL A   1      42.561  29.221  34.027  1.00  0.00     0.049 A 
ATOM     52  C   UNL A   1      38.067  30.855  31.068  1.00  0.00     0.074 A 
ATOM     53  C   UNL A   1      42.628  29.659  35.337  1.00  0.00     0.029 A 
ATOM     54  N   UNL A   1      41.366  29.704  33.509  1.00  0.00    -0.354 N 
ATOM     55  N   UNL A   1      39.054  30.547  31.877  1.00  0.00    -0.248 NA
ATOM     56  C   UNL A   1      36.994  31.638  31.696  1.00  0.00     0.031 C 
ATOM     57  C   UNL A   1      41.451  30.361  35.627  1.00  0.00     0.029 A 
ATOM     58  C   UNL A   1      40.679  30.419  34.477  1.00  0.00     0.049 A 
ATOM     59  H   UNL A   1      41.052  29.560  32.587  1.00  0.00     0.167 HD
ATOM     60  C   UNL A   1      38.728  31.116  33.106  1.00  0.00     0.074 A 
ATOM     61  C   UNL A   1      37.462  31.795  32.926  1.00  0.00     0.031 C 
ATOM     62  C   UNL A   1      39.414  31.083  34.277  1.00  0.00     0.034 A 
BRANCH  49  63
ATOM     63  C   UNL A   1      44.767  27.944  33.981  1.00  0.00     0.023 A 
ATOM     64  C   UNL A   1      44.769  26.813  34.816  1.00  0.00     0.031 A 
ATOM     65  C   UNL A   1      45.966  28.667  33.851  1.00  0.00     0.131 A 
ATOM     66  C   UNL A   1      45.921  26.490  35.551  1.00  0.00     0.055 A 
ATOM     67  C   UNL A   1      47.132  28.291  34.520  1.00  0.00     0.041 A 
ATOM     68  F   UNL A   1      46.021  29.770  33.087  1.00  0.00    -0.206 F 
ATOM     69  C   UNL A   1      47.109  27.206  35.390  1.00  0.00     0.022 A 
BRANCH  66  70
ATOM     70  S   UNL A   1      45.799  25.219  36.841  1.00  0.00     0.124 S 
ATOM     71  O   UNL A   1      46.923  24.349  36.505  1.00  0.00    -0.237 OA
ATOM     72  O   UNL A   1      45.939  25.999  38.065  1.00  0.00    -0.237 OA
ATOM     73  O   UNL A   1      44.478  24.632  36.621  1.00  0.00    -0.744 OA
ENDBRANCH  66  70
ENDBRANCH  49  63
BRANCH  50  74
ATOM     74  C   UNL A   1      36.653  30.909  28.876  1.00  0.00     0.023 A 
ATOM     75  C   UNL A   1      35.753  29.951  28.385  1.00  0.00     0.031 A 
ATOM     76  C   UNL A   1      36.380  32.264  28.617  1.00  0.00     0.131 A 
ATOM     77  C   UNL A   1      34.639  30.359  27.633  1.00  0.00     0.055 A 
ATOM     78  C   UNL A   1      35.242  32.669  27.917  1.00  0.00     0.041 A 
ATOM     79  F   UNL A   1      37.213  33.223  29.054  1.00  0.00    -0.206 F 
ATOM     80  C   UNL A   1      34.368  31.712  27.411  1.00  0.00     0.022 A 
BRANCH  77  81
ATOM     81  S   UNL A   1      33.586  29.090  26.879  1.00  0.00     0.124 S 
ATOM     82  O   UNL A   1      32.966  29.830  25.787  1.00  0.00    -0.237 OA
ATOM     83  O   UNL A   1      34.562  28.075  26.494  1.00  0.00    -0.237 OA
ATOM     84  O   UNL A   1      32.685  28.705  27.964  1.00  0.00    -0.744 OA
ENDBRANCH  77  81
ENDBRANCH  50  74
BRANCH  62  85
ATOM     85  C   UNL A   1      38.826  31.851  35.433  1.00  0.00     0.023 A 
ATOM     86  C   UNL A   1      38.284  31.202  36.555  1.00  0.00     0.031 A 
ATOM     87  C   UNL A   1      38.807  33.257  35.403  1.00  0.00     0.131 A 
ATOM     88  C   UNL A   1      37.706  31.959  37.585  1.00  0.00     0.055 A 
ATOM     89  C   UNL A   1      38.274  34.005  36.453  1.00  0.00     0.041 A 
ATOM     90  F   UNL A   1      39.312  33.924  34.353  1.00  0.00    -0.206 F 
ATOM     91  C   UNL A   1      37.710  33.356  37.548  1.00  0.00     0.022 A 
BRANCH  88  92
ATOM     92  S   UNL A   1      36.885  31.091  38.951  1.00  0.00     0.124 S 
ATOM     93  O   UNL A   1      37.868  31.211  40.022  1.00  0.00    -0.237 OA
ATOM     94  O   UNL A   1      35.659  31.864  39.121  1.00  0.00    -0.237 OA
ATOM     95  O   UNL A   1      36.695  29.737  38.432  1.00  0.00    -0.744 OA
ENDBRANCH  88  92
ENDBRANCH  62  85
ENDBRANCH  36  37
ENDBRANCH  29  31
ENDBRANCH  28  29
ENDBRANCH  27  28
ENDBRANCH  26  27
ENDBRANCH  25  26
ENDBRANCH  24  25
ENDBRANCH   1  24
TORSDOF 24
ENDMDL
MODEL 2
REMARK VINA RESULT:      -9.9      2.247      2.501
REMARK SMILES CC(C)[C@@H]1CN(C(=O)Cc2ccsc2)C[C@H]1C(=O)OCCOCCOCCOC(=O)c1ccc(-c2c3nc(c(-c4cc(S(=O)(=O)[O-])ccc4F)c4ccc([nH]4)c(-c4cc(S(=O)(=O)[O-])ccc4F)c4nc(c(-c5cc(S(=O)(=O)[O-])ccc5F)c5ccc2[nH]5)C=C4)C=C3)cc1
REMARK SMILES IDX 23 1 22 2 21 3 20 4 19 5 17 6 18 7 16 8 4 9 5 10 6 11 15 12
REMARK SMILES IDX 2 13 1 14 3 15 7 16 8 17 9 18 10 19 11 20 14 21 12 22 13 23
REMARK SMILES IDX 24 24 25 25 26 26 27 27 28 28 29 29 30 30 31 31 32 32 93 33
REMARK SMILES IDX 33 34 92 35 34 36 35 37 36 38 86 39 37 40 91 41 85 42 87 43
REMARK SMILES IDX 38 44 90 45 84 46 83 47 39 49 71 50 51 51 70 52 52 53 55 54
REMARK SMILES IDX 69 55 88 56 53 57 54 58 68 60 89 61 56 62 40 63 41 64 49 65
REMARK SMILES IDX 42 66 48 67 50 68 47 69 43 70 44 71 45 72 46 73 72 74 73 75
REMARK SMILES IDX 81 76 74 77 80 78 82 79 79 80 75 81 76 82 77 83 78 84 57 85
REMARK SMILES IDX 58 86 66 87 59 88 65 89 67 90 64 91 60 92 61 93 62 94 63 95
REMARK H PARENT 87 48 55 59
REMARK Flexibility Score: inf
ROOT
ATOM      1  C   UNL A   1      40.736  22.214  26.581  1.00  0.00     0.188 C 
ENDROOT
BRANCH   1   2
ATOM      2  O   UNL A   1      39.392  22.495  26.954  1.00  0.00    -0.376 OA
BRANCH   2   3
ATOM      3  C   UNL A   1      38.682  23.480  26.219  1.00  0.00     0.202 C 
BRANCH   3   4
ATOM      4  C   UNL A   1      37.374  23.017  25.583  1.00  0.00     0.261 C 
BRANCH   4   5
ATOM      5  O   UNL A   1      36.869  23.933  24.589  1.00  0.00    -0.463 OA
BRANCH   5   6
ATOM      6  C   UNL A   1      36.034  23.414  23.647  1.00  0.00     0.311 C 
ATOM      7  O   UNL A   1      36.400  22.934  22.583  1.00  0.00    -0.252 OA
BRANCH   6   8
ATOM      8  C   UNL A   1      34.571  23.633  23.983  1.00  0.00     0.124 C 
ATOM      9  C   UNL A   1      33.548  23.591  22.826  1.00  0.00     0.027 C 
ATOM     10  C   UNL A   1      32.336  22.880  23.446  1.00  0.00     0.124 C 
ATOM     11  N   UNL A   1      32.822  22.150  24.592  1.00  0.00    -0.341 N 
ATOM     12  C   UNL A   1      34.189  22.485  24.912  1.00  0.00     0.135 C 
BRANCH   9  13
ATOM     13  C   UNL A   1      33.054  24.956  22.267  1.00  0.00    -0.012 C 
ATOM     14  C   UNL A   1      31.554  25.182  22.306  1.00  0.00     0.008 C 
ATOM     15  C   UNL A   1      33.741  26.112  23.015  1.00  0.00     0.008 C 
ENDBRANCH   9  13
BRANCH  11  16
ATOM     16  C   UNL A   1      32.087  21.313  25.406  1.00  0.00     0.227 C 
ATOM     17  O   UNL A   1      30.894  21.517  25.637  1.00  0.00    -0.275 OA
BRANCH  16  18
ATOM     18  C   UNL A   1      32.803  20.104  25.989  1.00  0.00     0.136 C 
BRANCH  18  19
ATOM     19  C   UNL A   1      32.867  18.920  25.056  1.00  0.00    -0.028 A 
ATOM     20  C   UNL A   1      33.033  17.568  25.511  1.00  0.00     0.016 A 
ATOM     21  C   UNL A   1      32.789  18.953  23.672  1.00  0.00     0.069 A 
ATOM     22  C   UNL A   1      33.092  16.659  24.479  1.00  0.00     0.065 A 
ATOM     23  S   UNL A   1      32.949  17.411  22.954  1.00  0.00    -0.152 S 
ENDBRANCH  18  19
ENDBRANCH  16  18
ENDBRANCH  11  16
ENDBRANCH   6   8
ENDBRANCH   5   6
ENDBRANCH   4   5
ENDBRANCH   3   4
ENDBRANCH   2   3
ENDBRANCH   1   2
BRANCH   1  24
ATOM     24  C   UNL A   1      41.501  21.165  27.405  1.00  0.00     0.188 C 
BRANCH  24  25
ATOM     25  O   UNL A   1      42.884  20.993  27.118  1.00  0.00    -0.376 OA
BRANCH  25  26
ATOM     26  C   UNL A   1      43.227  20.870  25.740  1.00  0.00     0.202 C 
BRANCH  26  27
ATOM     27  C   UNL A   1      44.216  21.930  25.255  1.00  0.00     0.261 C 
BRANCH  27  28
ATOM     28  O   UNL A   1      43.508  23.117  24.840  1.00  0.00    -0.460 OA
BRANCH  28  29
ATOM     29  C   UNL A   1      44.188  24.273  25.012  1.00  0.00     0.338 C 
ATOM     30  O   UNL A   1      45.295  24.545  24.583  1.00  0.00    -0.246 OA
BRANCH  29  31
ATOM     31  C   UNL A   1      43.367  25.238  25.765  1.00  0.00     0.060 A 
ATOM     32  C   UNL A   1      43.347  26.574  25.367  1.00  0.00     0.016 A 
ATOM     33  C   UNL A   1      42.783  24.860  26.969  1.00  0.00     0.016 A 
ATOM     34  C   UNL A   1      42.847  27.561  26.215  1.00  0.00     0.010 A 
ATOM     35  C   UNL A   1      42.212  25.841  27.788  1.00  0.00     0.010 A 
ATOM     36  C   UNL A   1      42.286  27.206  27.445  1.00  0.00    -0.014 A 
BRANCH  36  37
ATOM     37  C   UNL A   1      41.895  28.242  28.443  1.00  0.00     0.031 A 
ATOM     38  C   UNL A   1      42.847  28.556  29.567  1.00  0.00     0.074 A 
ATOM     39  C   UNL A   1      40.729  28.910  28.358  1.00  0.00     0.049 A 
ATOM     40  N   UNL A   1      42.627  29.160  30.704  1.00  0.00    -0.248 NA
ATOM     41  C   UNL A   1      44.236  28.110  29.380  1.00  0.00     0.031 C 
ATOM     42  C   UNL A   1      39.769  28.812  27.258  1.00  0.00     0.029 A 
ATOM     43  N   UNL A   1      40.149  29.802  29.227  1.00  0.00    -0.354 N 
ATOM     44  C   UNL A   1      43.831  29.109  31.400  1.00  0.00     0.074 A 
ATOM     45  C   UNL A   1      44.776  28.414  30.551  1.00  0.00     0.031 C 
ATOM     46  C   UNL A   1      38.725  29.616  27.515  1.00  0.00     0.029 A 
ATOM     47  C   UNL A   1      38.890  30.201  28.842  1.00  0.00     0.049 A 
ATOM     48  H   UNL A   1      40.592  30.125  30.045  1.00  0.00     0.167 HD
ATOM     49  C   UNL A   1      44.111  29.588  32.638  1.00  0.00     0.034 A 
ATOM     50  C   UNL A   1      37.947  30.897  29.511  1.00  0.00     0.034 A 
ATOM     51  C   UNL A   1      43.157  30.307  33.448  1.00  0.00     0.049 A 
ATOM     52  C   UNL A   1      38.235  31.331  30.927  1.00  0.00     0.074 A 
ATOM     53  C   UNL A   1      43.309  30.808  34.728  1.00  0.00     0.029 A 
ATOM     54  N   UNL A   1      41.870  30.639  33.043  1.00  0.00    -0.354 N 
ATOM     55  N   UNL A   1      39.327  31.164  31.638  1.00  0.00    -0.248 NA
ATOM     56  C   UNL A   1      37.153  32.026  31.639  1.00  0.00     0.031 C 
ATOM     57  C   UNL A   1      42.098  31.395  35.117  1.00  0.00     0.029 A 
ATOM     58  C   UNL A   1      41.212  31.321  34.054  1.00  0.00     0.049 A 
ATOM     59  H   UNL A   1      41.482  30.423  32.165  1.00  0.00     0.167 HD
ATOM     60  C   UNL A   1      39.068  31.750  32.875  1.00  0.00     0.074 A 
ATOM     61  C   UNL A   1      37.723  32.284  32.807  1.00  0.00     0.031 C 
ATOM     62  C   UNL A   1      39.868  31.840  33.967  1.00  0.00     0.034 A 
BRANCH  49  63
ATOM     63  C   UNL A   1      45.471  29.266  33.211  1.00  0.00     0.023 A 
ATOM     64  C   UNL A   1      46.596  30.075  32.972  1.00  0.00     0.031 A 
ATOM     65  C   UNL A   1      45.656  28.090  33.960  1.00  0.00     0.131 A 
ATOM     66  C   UNL A   1      47.864  29.655  33.404  1.00  0.00     0.055 A 
ATOM     67  C   UNL A   1      46.906  27.720  34.459  1.00  0.00     0.041 A 
ATOM     68  F   UNL A   1      44.625  27.264  34.201  1.00  0.00    -0.206 F 
ATOM     69  C   UNL A   1      48.023  28.496  34.167  1.00  0.00     0.022 A 
BRANCH  66  70
ATOM     70  S   UNL A   1      49.325  30.558  32.819  1.00  0.00     0.124 S 
ATOM     71  O   UNL A   1      49.949  30.958  34.078  1.00  0.00    -0.237 OA
ATOM     72  O   UNL A   1      50.035  29.544  32.048  1.00  0.00    -0.237 OA
ATOM     73  O   UNL A   1      48.759  31.655  32.036  1.00  0.00    -0.744 OA
ENDBRANCH  66  70
ENDBRANCH  49  63
BRANCH  50  74
ATOM     74  C   UNL A   1      36.609  31.141  28.897  1.00  0.00     0.023 A 
ATOM     75  C   UNL A   1      36.092  32.440  28.777  1.00  0.00     0.031 A 
ATOM     76  C   UNL A   1      35.808  30.070  28.460  1.00  0.00     0.131 A 
ATOM     77  C   UNL A   1      34.799  32.633  28.263  1.00  0.00     0.055 A 
ATOM     78  C   UNL A   1      34.546  30.270  27.898  1.00  0.00     0.041 A 
ATOM     79  F   UNL A   1      36.248  28.805  28.561  1.00  0.00    -0.206 F 
ATOM     80  C   UNL A   1      34.030  31.559  27.807  1.00  0.00     0.022 A 
BRANCH  77  81
ATOM     81  S   UNL A   1      34.100  34.307  28.271  1.00  0.00     0.124 S 
ATOM     82  O   UNL A   1      34.813  34.931  27.163  1.00  0.00    -0.237 OA
ATOM     83  O   UNL A   1      32.681  34.045  28.056  1.00  0.00    -0.237 OA
ATOM     84  O   UNL A   1      34.444  34.813  29.598  1.00  0.00    -0.744 OA
ENDBRANCH  77  81
ENDBRANCH  50  74
BRANCH  62  85
ATOM     85  C   UNL A   1      39.321  32.594  35.152  1.00  0.00     0.023 A 
ATOM     86  C   UNL A   1      38.741  31.931  36.248  1.00  0.00     0.031 A 
ATOM     87  C   UNL A   1      39.380  33.999  35.178  1.00  0.00     0.131 A 
ATOM     88  C   UNL A   1      38.204  32.678  37.307  1.00  0.00     0.055 A 
ATOM     89  C   UNL A   1      38.887  34.733  36.257  1.00  0.00     0.041 A 
ATOM     90  F   UNL A   1      39.923  34.678  34.155  1.00  0.00    -0.206 F 
ATOM     91  C   UNL A   1      38.285  34.073  37.325  1.00  0.00     0.022 A 
BRANCH  88  92
ATOM     92  S   UNL A   1      37.333  31.804  38.637  1.00  0.00     0.124 S 
ATOM     93  O   UNL A   1      38.237  31.991  39.767  1.00  0.00    -0.237 OA
ATOM     94  O   UNL A   1      36.066  32.524  38.708  1.00  0.00    -0.237 OA
ATOM     95  O   UNL A   1      37.237  30.432  38.141  1.00  0.00    -0.744 OA
ENDBRANCH  88  92
ENDBRANCH  62  85
ENDBRANCH  36  37
ENDBRANCH  29  31
ENDBRANCH  28  29
ENDBRANCH  27  28
ENDBRANCH  26  27
ENDBRANCH  25  26
ENDBRANCH  24  25
ENDBRANCH   1  24
TORSDOF 24
ENDMDL
MODEL 3
REMARK VINA RESULT:      -9.3      6.050      9.317
REMARK SMILES CC(C)[C@@H]1CN(C(=O)Cc2ccsc2)C[C@H]1C(=O)OCCOCCOCCOC(=O)c1ccc(-c2c3nc(c(-c4cc(S(=O)(=O)[O-])ccc4F)c4ccc([nH]4)c(-c4cc(S(=O)(=O)[O-])ccc4F)c4nc(c(-c5cc(S(=O)(=O)[O-])ccc5F)c5ccc2[nH]5)C=C4)C=C3)cc1
REMARK SMILES IDX 23 1 22 2 21 3 20 4 19 5 17 6 18 7 16 8 4 9 5 10 6 11 15 12
REMARK SMILES IDX 2 13 1 14 3 15 7 16 8 17 9 18 10 19 11 20 14 21 12 22 13 23
REMARK SMILES IDX 24 24 25 25 26 26 27 27 28 28 29 29 30 30 31 31 32 32 93 33
REMARK SMILES IDX 33 34 92 35 34 36 35 37 36 38 86 39 37 40 91 41 85 42 87 43
REMARK SMILES IDX 38 44 90 45 84 46 83 47 39 49 71 50 51 51 70 52 52 53 55 54
REMARK SMILES IDX 69 55 88 56 53 57 54 58 68 60 89 61 56 62 40 63 41 64 49 65
REMARK SMILES IDX 42 66 48 67 50 68 47 69 43 70 44 71 45 72 46 73 72 74 73 75
REMARK SMILES IDX 81 76 74 77 80 78 82 79 79 80 75 81 76 82 77 83 78 84 57 85
REMARK SMILES IDX 58 86 66 87 59 88 65 89 67 90 64 91 60 92 61 93 62 94 63 95
REMARK H PARENT 87 48 55 59
REMARK Flexibility Score: inf
ROOT
ATOM      1  C   UNL A   1      41.190  22.797  26.559  1.00  0.00     0.188 C 
ENDROOT
BRANCH   1   2
ATOM      2  O   UNL A   1      40.472  24.023  26.501  1.00  0.00    -0.376 OA
BRANCH   2   3
ATOM      3  C   UNL A   1      39.101  24.018  26.869  1.00  0.00     0.202 C 
BRANCH   3   4
ATOM      4  C   UNL A   1      38.219  23.020  26.122  1.00  0.00     0.261 C 
BRANCH   4   5
ATOM      5  O   UNL A   1      37.084  23.636  25.479  1.00  0.00    -0.463 OA
BRANCH   5   6
ATOM      6  C   UNL A   1      36.211  22.801  24.850  1.00  0.00     0.311 C 
ATOM      7  O   UNL A   1      36.457  21.643  24.542  1.00  0.00    -0.252 OA
BRANCH   6   8
ATOM      8  C   UNL A   1      34.939  23.507  24.422  1.00  0.00     0.124 C 
ATOM      9  C   UNL A   1      33.590  22.823  24.739  1.00  0.00     0.027 C 
ATOM     10  C   UNL A   1      32.677  23.997  25.125  1.00  0.00     0.124 C 
ATOM     11  N   UNL A   1      33.539  25.091  25.500  1.00  0.00    -0.341 N 
ATOM     12  C   UNL A   1      34.924  24.824  25.191  1.00  0.00     0.135 C 
BRANCH   9  13
ATOM     13  C   UNL A   1      32.895  22.052  23.581  1.00  0.00    -0.012 C 
ATOM     14  C   UNL A   1      32.523  20.612  23.875  1.00  0.00     0.008 C 
ATOM     15  C   UNL A   1      31.628  22.803  23.133  1.00  0.00     0.008 C 
ENDBRANCH   9  13
BRANCH  11  16
ATOM     16  C   UNL A   1      33.144  26.321  25.982  1.00  0.00     0.227 C 
ATOM     17  O   UNL A   1      33.962  27.189  26.293  1.00  0.00    -0.275 OA
BRANCH  16  18
ATOM     18  C   UNL A   1      31.649  26.579  26.092  1.00  0.00     0.136 C 
BRANCH  18  19
ATOM     19  C   UNL A   1      31.083  27.398  24.959  1.00  0.00    -0.028 A 
ATOM     20  C   UNL A   1      31.285  28.815  24.834  1.00  0.00     0.016 A 
ATOM     21  C   UNL A   1      30.306  26.932  23.910  1.00  0.00     0.069 A 
ATOM     22  C   UNL A   1      30.651  29.352  23.737  1.00  0.00     0.065 A 
ATOM     23  S   UNL A   1      29.809  28.169  22.840  1.00  0.00    -0.152 S 
ENDBRANCH  18  19
ENDBRANCH  16  18
ENDBRANCH  11  16
ENDBRANCH   6   8
ENDBRANCH   5   6
ENDBRANCH   4   5
ENDBRANCH   3   4
ENDBRANCH   2   3
ENDBRANCH   1   2
BRANCH   1  24
ATOM     24  C   UNL A   1      42.536  22.722  25.820  1.00  0.00     0.188 C 
BRANCH  24  25
ATOM     25  O   UNL A   1      43.504  21.804  26.318  1.00  0.00    -0.376 OA
BRANCH  25  26
ATOM     26  C   UNL A   1      44.008  20.856  25.379  1.00  0.00     0.202 C 
BRANCH  26  27
ATOM     27  C   UNL A   1      45.447  21.130  24.942  1.00  0.00     0.261 C 
BRANCH  27  28
ATOM     28  O   UNL A   1      46.005  22.212  25.716  1.00  0.00    -0.460 OA
BRANCH  28  29
ATOM     29  C   UNL A   1      46.180  23.367  25.035  1.00  0.00     0.338 C 
ATOM     30  O   UNL A   1      46.637  23.497  23.914  1.00  0.00    -0.246 OA
BRANCH  29  31
ATOM     31  C   UNL A   1      45.672  24.503  25.824  1.00  0.00     0.060 A 
ATOM     32  C   UNL A   1      45.071  25.576  25.167  1.00  0.00     0.016 A 
ATOM     33  C   UNL A   1      45.966  24.592  27.180  1.00  0.00     0.016 A 
ATOM     34  C   UNL A   1      44.862  26.786  25.825  1.00  0.00     0.010 A 
ATOM     35  C   UNL A   1      45.687  25.783  27.862  1.00  0.00     0.010 A 
ATOM     36  C   UNL A   1      45.183  26.909  27.180  1.00  0.00    -0.014 A 
BRANCH  36  37
ATOM     37  C   UNL A   1      45.130  28.228  27.870  1.00  0.00     0.031 A 
ATOM     38  C   UNL A   1      43.826  28.671  28.481  1.00  0.00     0.074 A 
ATOM     39  C   UNL A   1      46.212  29.023  27.975  1.00  0.00     0.049 A 
ATOM     40  N   UNL A   1      43.436  29.864  28.845  1.00  0.00    -0.248 NA
ATOM     41  C   UNL A   1      42.822  27.617  28.692  1.00  0.00     0.031 C 
ATOM     42  C   UNL A   1      47.569  28.674  27.553  1.00  0.00     0.029 A 
ATOM     43  N   UNL A   1      46.334  30.301  28.464  1.00  0.00    -0.354 N 
ATOM     44  C   UNL A   1      42.118  29.719  29.268  1.00  0.00     0.074 A 
ATOM     45  C   UNL A   1      41.780  28.319  29.112  1.00  0.00     0.031 C 
ATOM     46  C   UNL A   1      48.387  29.709  27.808  1.00  0.00     0.029 A 
ATOM     47  C   UNL A   1      47.595  30.829  28.308  1.00  0.00     0.049 A 
ATOM     48  H   UNL A   1      45.592  30.792  28.885  1.00  0.00     0.167 HD
ATOM     49  C   UNL A   1      41.270  30.672  29.729  1.00  0.00     0.034 A 
ATOM     50  C   UNL A   1      48.047  32.088  28.479  1.00  0.00     0.034 A 
ATOM     51  C   UNL A   1      41.647  32.054  29.904  1.00  0.00     0.049 A 
ATOM     52  C   UNL A   1      47.067  33.160  28.890  1.00  0.00     0.074 A 
ATOM     53  C   UNL A   1      40.870  33.119  30.326  1.00  0.00     0.029 A 
ATOM     54  N   UNL A   1      42.921  32.560  29.679  1.00  0.00    -0.354 N 
ATOM     55  N   UNL A   1      45.786  33.051  29.157  1.00  0.00    -0.248 NA
ATOM     56  C   UNL A   1      47.590  34.529  28.996  1.00  0.00     0.031 C 
ATOM     57  C   UNL A   1      41.660  34.276  30.304  1.00  0.00     0.029 A 
ATOM     58  C   UNL A   1      42.948  33.922  29.934  1.00  0.00     0.049 A 
ATOM     59  H   UNL A   1      43.694  32.028  29.381  1.00  0.00     0.167 HD
ATOM     60  C   UNL A   1      45.355  34.336  29.482  1.00  0.00     0.074 A 
ATOM     61  C   UNL A   1      46.515  35.198  29.389  1.00  0.00     0.031 C 
ATOM     62  C   UNL A   1      44.115  34.764  29.828  1.00  0.00     0.034 A 
BRANCH  49  63
ATOM     63  C   UNL A   1      39.840  30.259  29.983  1.00  0.00     0.023 A 
ATOM     64  C   UNL A   1      38.793  30.608  29.112  1.00  0.00     0.031 A 
ATOM     65  C   UNL A   1      39.511  29.557  31.156  1.00  0.00     0.131 A 
ATOM     66  C   UNL A   1      37.464  30.326  29.468  1.00  0.00     0.055 A 
ATOM     67  C   UNL A   1      38.196  29.206  31.464  1.00  0.00     0.041 A 
ATOM     68  F   UNL A   1      40.463  29.217  32.039  1.00  0.00    -0.206 F 
ATOM     69  C   UNL A   1      37.160  29.607  30.625  1.00  0.00     0.022 A 
BRANCH  66  70
ATOM     70  S   UNL A   1      36.128  31.054  28.479  1.00  0.00     0.124 S 
ATOM     71  O   UNL A   1      35.929  30.032  27.454  1.00  0.00    -0.237 OA
ATOM     72  O   UNL A   1      35.054  31.195  29.456  1.00  0.00    -0.237 OA
ATOM     73  O   UNL A   1      36.702  32.308  27.995  1.00  0.00    -0.744 OA
ENDBRANCH  66  70
ENDBRANCH  49  63
BRANCH  50  74
ATOM     74  C   UNL A   1      49.465  32.433  28.166  1.00  0.00     0.023 A 
ATOM     75  C   UNL A   1      49.832  32.912  26.899  1.00  0.00     0.031 A 
ATOM     76  C   UNL A   1      50.482  32.246  29.119  1.00  0.00     0.131 A 
ATOM     77  C   UNL A   1      51.183  33.158  26.609  1.00  0.00     0.055 A 
ATOM     78  C   UNL A   1      51.818  32.544  28.845  1.00  0.00     0.041 A 
ATOM     79  F   UNL A   1      50.190  31.779  30.344  1.00  0.00    -0.206 F 
ATOM     80  C   UNL A   1      52.176  32.994  27.578  1.00  0.00     0.022 A 
BRANCH  77  81
ATOM     81  S   UNL A   1      51.640  33.622  24.916  1.00  0.00     0.124 S 
ATOM     82  O   UNL A   1      50.559  34.531  24.556  1.00  0.00    -0.237 OA
ATOM     83  O   UNL A   1      52.952  34.229  25.111  1.00  0.00    -0.237 OA
ATOM     84  O   UNL A   1      51.646  32.346  24.203  1.00  0.00    -0.744 OA
ENDBRANCH  77  81
ENDBRANCH  50  74
BRANCH  62  85
ATOM     85  C   UNL A   1      43.972  36.221  30.183  1.00  0.00     0.023 A 
ATOM     86  C   UNL A   1      43.518  37.170  29.251  1.00  0.00     0.031 A 
ATOM     87  C   UNL A   1      44.302  36.664  31.477  1.00  0.00     0.131 A 
ATOM     88  C   UNL A   1      43.445  38.523  29.614  1.00  0.00     0.055 A 
ATOM     89  C   UNL A   1      44.182  38.004  31.846  1.00  0.00     0.041 A 
ATOM     90  F   UNL A   1      44.742  35.797  32.403  1.00  0.00    -0.206 F 
ATOM     91  C   UNL A   1      43.761  38.944  30.909  1.00  0.00     0.022 A 
BRANCH  88  92
ATOM     92  S   UNL A   1      42.995  39.743  28.350  1.00  0.00     0.124 S 
ATOM     93  O   UNL A   1      41.550  39.846  28.526  1.00  0.00    -0.237 OA
ATOM     94  O   UNL A   1      43.772  40.912  28.751  1.00  0.00    -0.237 OA
ATOM     95  O   UNL A   1      43.424  39.117  27.100  1.00  0.00    -0.744 OA
ENDBRANCH  88  92
ENDBRANCH  62  85
ENDBRANCH  36  37
ENDBRANCH  29  31
ENDBRANCH  28  29
ENDBRANCH  27  28
ENDBRANCH  26  27
ENDBRANCH  25  26
ENDBRANCH  24  25
ENDBRANCH   1  24
TORSDOF 24
ENDMDL
