MODEL 1
REMARK VINA RESULT:      -9.6      0.000      0.000
REMARK SMILES CC(C)[NH2+][C@]1(C(=O)OCCOCCOCCOC(=O)c2ccc(-c3c4nc(c(-c5cc(S(=O)(=O)[O-])ccc5F)c5ccc([nH]5)c(-c5cc(S(=O)(=O)[O-])ccc5F)c5nc(c(-c6cc(S(=O)(=O)[O-])ccc6F)c6ccc3[nH]6)C=C5)C=C4)cc2)CC[C@H](Oc2cccc(CO)c2)C1
REMARK SMILES IDX 12 1 11 2 10 3 9 4 8 5 6 6 7 7 5 8 83 9 95 10 84 11 85 12
REMARK SMILES IDX 4 13 2 16 1 17 3 18 86 19 87 20 88 21 94 22 89 23 91 24
REMARK SMILES IDX 90 25 92 26 93 27 13 29 14 30 15 31 16 32 17 33 18 34 19 35
REMARK SMILES IDX 20 36 21 37 82 38 22 39 81 40 23 41 24 42 25 43 75 44 26 45
REMARK SMILES IDX 80 46 74 47 76 48 27 49 79 50 73 51 72 52 28 54 60 55 40 56
REMARK SMILES IDX 59 57 41 58 44 59 58 60 77 61 42 62 43 63 57 65 78 66 45 67
REMARK SMILES IDX 29 68 30 69 38 70 31 71 37 72 39 73 36 74 32 75 33 76 34 77
REMARK SMILES IDX 35 78 61 79 62 80 70 81 63 82 69 83 71 84 68 85 64 86 65 87
REMARK SMILES IDX 66 88 67 89 46 90 47 91 55 92 48 93 54 94 56 95 53 96 49 97
REMARK SMILES IDX 50 98 51 99 52 100
REMARK H PARENT 4 14 4 15 93 28 76 53 44 64
REMARK Flexibility Score: inf
ROOT
ATOM      1  C   UNL A   1      33.187  21.949  24.475  1.00  0.00     0.188 C 
ENDROOT
BRANCH   1   2
ATOM      2  O   UNL A   1      32.578  21.674  25.732  1.00  0.00    -0.376 OA
BRANCH   2   3
ATOM      3  C   UNL A   1      32.295  22.797  26.561  1.00  0.00     0.202 C 
BRANCH   3   4
ATOM      4  C   UNL A   1      31.181  23.755  26.105  1.00  0.00     0.261 C 
BRANCH   4   5
ATOM      5  O   UNL A   1      31.584  24.763  25.152  1.00  0.00    -0.459 OA
BRANCH   5   6
ATOM      6  C   UNL A   1      30.984  25.982  25.313  1.00  0.00     0.368 C 
ATOM      7  O   UNL A   1      29.768  26.109  25.433  1.00  0.00    -0.245 OA
BRANCH   6   8
ATOM      8  C   UNL A   1      31.982  27.186  25.237  1.00  0.00     0.198 C 
ATOM      9  C   UNL A   1      31.381  28.557  24.860  1.00  0.00     0.085 C 
ATOM     10  C   UNL A   1      32.460  27.522  26.664  1.00  0.00     0.126 C 
ATOM     11  C   UNL A   1      32.447  29.560  25.326  1.00  0.00     0.052 C 
ATOM     12  C   UNL A   1      33.000  28.969  26.631  1.00  0.00     0.180 C 
BRANCH   8  13
ATOM     13  N   UNL A   1      33.005  26.923  24.192  1.00  0.00    -0.330 N 
ATOM     14  H   UNL A   1      33.768  27.579  24.360  1.00  0.00     0.347 HD
ATOM     15  H   UNL A   1      33.199  25.928  24.307  1.00  0.00     0.347 HD
BRANCH  13  16
ATOM     16  C   UNL A   1      32.665  27.031  22.776  1.00  0.00     0.176 C 
ATOM     17  C   UNL A   1      33.641  28.048  22.173  1.00  0.00     0.075 C 
ATOM     18  C   UNL A   1      32.836  25.706  22.040  1.00  0.00     0.075 C 
ENDBRANCH  13  16
ENDBRANCH   8  13
BRANCH  12  19
ATOM     19  O   UNL A   1      34.413  28.833  26.730  1.00  0.00    -0.490 OA
BRANCH  19  20
ATOM     20  C   UNL A   1      35.209  29.717  27.378  1.00  0.00     0.120 A 
ATOM     21  C   UNL A   1      36.438  29.464  27.971  1.00  0.00     0.046 A 
ATOM     22  C   UNL A   1      34.665  31.005  27.441  1.00  0.00     0.052 A 
ATOM     23  C   UNL A   1      37.080  30.483  28.683  1.00  0.00     0.004 A 
ATOM     24  C   UNL A   1      35.281  32.027  28.165  1.00  0.00    -0.019 A 
ATOM     25  C   UNL A   1      36.501  31.753  28.790  1.00  0.00     0.006 A 
BRANCH  24  26
ATOM     26  C   UNL A   1      34.635  33.383  28.260  1.00  0.00     0.191 C 
BRANCH  26  27
ATOM     27  O   UNL A   1      35.258  34.306  27.379  1.00  0.00    -0.392 OA
ATOM     28  H   UNL A   1      34.914  35.197  27.548  1.00  0.00     0.211 HD
ENDBRANCH  26  27
ENDBRANCH  24  26
ENDBRANCH  19  20
ENDBRANCH  12  19
ENDBRANCH   6   8
ENDBRANCH   5   6
ENDBRANCH   4   5
ENDBRANCH   3   4
ENDBRANCH   2   3
ENDBRANCH   1   2
BRANCH   1  29
ATOM     29  C   UNL A   1      34.525  22.691  24.509  1.00  0.00     0.188 C 
BRANCH  29  30
ATOM     30  O   UNL A   1      35.551  22.096  25.299  1.00  0.00    -0.376 OA
BRANCH  30  31
ATOM     31  C   UNL A   1      35.942  20.773  24.915  1.00  0.00     0.202 C 
BRANCH  31  32
ATOM     32  C   UNL A   1      37.447  20.442  25.021  1.00  0.00     0.261 C 
BRANCH  32  33
ATOM     33  O   UNL A   1      38.288  21.534  25.453  1.00  0.00    -0.460 OA
BRANCH  33  34
ATOM     34  C   UNL A   1      39.427  21.212  26.113  1.00  0.00     0.338 C 
ATOM     35  O   UNL A   1      40.060  20.176  25.983  1.00  0.00    -0.246 OA
BRANCH  34  36
ATOM     36  C   UNL A   1      39.942  22.424  26.809  1.00  0.00     0.060 A 
ATOM     37  C   UNL A   1      39.349  23.657  26.500  1.00  0.00     0.016 A 
ATOM     38  C   UNL A   1      40.939  22.365  27.789  1.00  0.00     0.016 A 
ATOM     39  C   UNL A   1      39.787  24.831  27.120  1.00  0.00     0.010 A 
ATOM     40  C   UNL A   1      41.386  23.545  28.402  1.00  0.00     0.010 A 
ATOM     41  C   UNL A   1      40.841  24.792  28.042  1.00  0.00    -0.014 A 
BRANCH  41  42
ATOM     42  C   UNL A   1      41.512  26.064  28.434  1.00  0.00     0.031 A 
ATOM     43  C   UNL A   1      42.910  26.312  27.923  1.00  0.00     0.074 A 
ATOM     44  C   UNL A   1      40.889  27.019  29.150  1.00  0.00     0.049 A 
ATOM     45  N   UNL A   1      43.700  27.338  28.113  1.00  0.00    -0.248 NA
ATOM     46  C   UNL A   1      43.489  25.254  27.079  1.00  0.00     0.031 C 
ATOM     47  C   UNL A   1      39.520  26.942  29.657  1.00  0.00     0.029 A 
ATOM     48  N   UNL A   1      41.332  28.251  29.571  1.00  0.00    -0.354 N 
ATOM     49  C   UNL A   1      44.859  27.060  27.396  1.00  0.00     0.074 A 
ATOM     50  C   UNL A   1      44.690  25.744  26.818  1.00  0.00     0.031 C 
ATOM     51  C   UNL A   1      39.237  28.078  30.324  1.00  0.00     0.029 A 
ATOM     52  C   UNL A   1      40.413  28.950  30.321  1.00  0.00     0.049 A 
ATOM     53  H   UNL A   1      42.226  28.602  29.356  1.00  0.00     0.167 HD
ATOM     54  C   UNL A   1      45.958  27.834  27.214  1.00  0.00     0.034 A 
ATOM     55  C   UNL A   1      40.514  30.143  30.947  1.00  0.00     0.034 A 
ATOM     56  C   UNL A   1      46.141  29.132  27.811  1.00  0.00     0.049 A 
ATOM     57  C   UNL A   1      41.802  30.934  30.833  1.00  0.00     0.074 A 
ATOM     58  C   UNL A   1      47.235  29.977  27.718  1.00  0.00     0.029 A 
ATOM     59  N   UNL A   1      45.213  29.777  28.617  1.00  0.00    -0.354 N 
ATOM     60  N   UNL A   1      42.894  30.652  30.158  1.00  0.00    -0.248 NA
ATOM     61  C   UNL A   1      41.863  32.213  31.558  1.00  0.00     0.031 C 
ATOM     62  C   UNL A   1      46.995  31.100  28.518  1.00  0.00     0.029 A 
ATOM     63  C   UNL A   1      45.718  30.995  29.046  1.00  0.00     0.049 A 
ATOM     64  H   UNL A   1      44.325  29.421  28.850  1.00  0.00     0.167 HD
ATOM     65  C   UNL A   1      43.749  31.740  30.348  1.00  0.00     0.074 A 
ATOM     66  C   UNL A   1      43.042  32.686  31.181  1.00  0.00     0.031 C 
ATOM     67  C   UNL A   1      45.006  31.938  29.875  1.00  0.00     0.034 A 
BRANCH  54  68
ATOM     68  C   UNL A   1      47.063  27.265  26.358  1.00  0.00     0.023 A 
ATOM     69  C   UNL A   1      48.142  26.566  26.926  1.00  0.00     0.031 A 
ATOM     70  C   UNL A   1      47.053  27.448  24.965  1.00  0.00     0.131 A 
ATOM     71  C   UNL A   1      49.199  26.132  26.112  1.00  0.00     0.055 A 
ATOM     72  C   UNL A   1      48.069  26.945  24.151  1.00  0.00     0.041 A 
ATOM     73  F   UNL A   1      46.061  28.131  24.372  1.00  0.00    -0.206 F 
ATOM     74  C   UNL A   1      49.157  26.294  24.725  1.00  0.00     0.022 A 
BRANCH  71  75
ATOM     75  S   UNL A   1      50.692  25.478  26.906  1.00  0.00     0.124 S 
ATOM     76  O   UNL A   1      50.161  24.322  27.626  1.00  0.00    -0.237 OA
ATOM     77  O   UNL A   1      51.551  25.180  25.766  1.00  0.00    -0.237 OA
ATOM     78  O   UNL A   1      51.140  26.579  27.755  1.00  0.00    -0.744 OA
ENDBRANCH  71  75
ENDBRANCH  54  68
BRANCH  55  79
ATOM     79  C   UNL A   1      39.397  30.668  31.792  1.00  0.00     0.023 A 
ATOM     80  C   UNL A   1      38.726  31.860  31.462  1.00  0.00     0.031 A 
ATOM     81  C   UNL A   1      39.068  30.049  33.011  1.00  0.00     0.131 A 
ATOM     82  C   UNL A   1      37.819  32.429  32.370  1.00  0.00     0.055 A 
ATOM     83  C   UNL A   1      38.114  30.584  33.880  1.00  0.00     0.041 A 
ATOM     84  F   UNL A   1      39.683  28.917  33.386  1.00  0.00    -0.206 F 
ATOM     85  C   UNL A   1      37.499  31.793  33.571  1.00  0.00     0.022 A 
BRANCH  82  86
ATOM     86  S   UNL A   1      37.168  34.088  32.024  1.00  0.00     0.124 S 
ATOM     87  O   UNL A   1      37.625  34.836  33.190  1.00  0.00    -0.237 OA
ATOM     88  O   UNL A   1      37.819  34.410  30.759  1.00  0.00    -0.237 OA
ATOM     89  O   UNL A   1      35.723  33.877  31.944  1.00  0.00    -0.744 OA
ENDBRANCH  82  86
ENDBRANCH  55  79
BRANCH  67  90
ATOM     90  C   UNL A   1      45.670  33.259  30.197  1.00  0.00     0.023 A 
ATOM     91  C   UNL A   1      46.384  33.463  31.391  1.00  0.00     0.031 A 
ATOM     92  C   UNL A   1      45.568  34.337  29.298  1.00  0.00     0.131 A 
ATOM     93  C   UNL A   1      46.911  34.730  31.684  1.00  0.00     0.055 A 
ATOM     94  C   UNL A   1      46.149  35.578  29.567  1.00  0.00     0.041 A 
ATOM     95  F   UNL A   1      44.900  34.203  28.141  1.00  0.00    -0.206 F 
ATOM     96  C   UNL A   1      46.812  35.785  30.772  1.00  0.00     0.022 A 
BRANCH  93  97
ATOM     97  S   UNL A   1      47.640  35.016  33.321  1.00  0.00     0.124 S 
ATOM     98  O   UNL A   1      48.490  33.841  33.486  1.00  0.00    -0.237 OA
ATOM     99  O   UNL A   1      48.337  36.285  33.135  1.00  0.00    -0.237 OA
ATOM    100  O   UNL A   1      46.480  35.073  34.210  1.00  0.00    -0.744 OA
ENDBRANCH  93  97
ENDBRANCH  67  90
ENDBRANCH  41  42
ENDBRANCH  34  36
ENDBRANCH  33  34
ENDBRANCH  32  33
ENDBRANCH  31  32
ENDBRANCH  30  31
ENDBRANCH  29  30
ENDBRANCH   1  29
TORSDOF 26
ENDMDL
MODEL 2
REMARK VINA RESULT:      -9.2      2.108      2.438
REMARK SMILES CC(C)[NH2+][C@]1(C(=O)OCCOCCOCCOC(=O)c2ccc(-c3c4nc(c(-c5cc(S(=O)(=O)[O-])ccc5F)c5ccc([nH]5)c(-c5cc(S(=O)(=O)[O-])ccc5F)c5nc(c(-c6cc(S(=O)(=O)[O-])ccc6F)c6ccc3[nH]6)C=C5)C=C4)cc2)CC[C@H](Oc2cccc(CO)c2)C1
REMARK SMILES IDX 12 1 11 2 10 3 9 4 8 5 6 6 7 7 5 8 83 9 95 10 84 11 85 12
REMARK SMILES IDX 4 13 2 16 1 17 3 18 86 19 87 20 88 21 94 22 89 23 91 24
REMARK SMILES IDX 90 25 92 26 93 27 13 29 14 30 15 31 16 32 17 33 18 34 19 35
REMARK SMILES IDX 20 36 21 37 82 38 22 39 81 40 23 41 24 42 25 43 75 44 26 45
REMARK SMILES IDX 80 46 74 47 76 48 27 49 79 50 73 51 72 52 28 54 60 55 40 56
REMARK SMILES IDX 59 57 41 58 44 59 58 60 77 61 42 62 43 63 57 65 78 66 45 67
REMARK SMILES IDX 29 68 30 69 38 70 31 71 37 72 39 73 36 74 32 75 33 76 34 77
REMARK SMILES IDX 35 78 61 79 62 80 70 81 63 82 69 83 71 84 68 85 64 86 65 87
REMARK SMILES IDX 66 88 67 89 46 90 47 91 55 92 48 93 54 94 56 95 53 96 49 97
REMARK SMILES IDX 50 98 51 99 52 100
REMARK H PARENT 4 14 4 15 93 28 76 53 44 64
REMARK Flexibility Score: inf
ROOT
ATOM      1  C   UNL A   1      33.799  22.606  23.912  1.00  0.00     0.188 C 
ENDROOT
BRANCH   1   2
ATOM      2  O   UNL A   1      33.045  22.090  25.003  1.00  0.00    -0.376 OA
BRANCH   2   3
ATOM      3  C   UNL A   1      32.297  23.033  25.763  1.00  0.00     0.202 C 
BRANCH   3   4
ATOM      4  C   UNL A   1      30.912  23.439  25.229  1.00  0.00     0.261 C 
BRANCH   4   5
ATOM      5  O   UNL A   1      30.905  24.556  24.314  1.00  0.00    -0.459 OA
BRANCH   5   6
ATOM      6  C   UNL A   1      30.301  25.688  24.788  1.00  0.00     0.368 C 
ATOM      7  O   UNL A   1      29.153  25.690  25.226  1.00  0.00    -0.245 OA
BRANCH   6   8
ATOM      8  C   UNL A   1      31.177  26.976  24.634  1.00  0.00     0.198 C 
ATOM      9  C   UNL A   1      30.524  28.172  23.908  1.00  0.00     0.085 C 
ATOM     10  C   UNL A   1      31.362  27.617  26.024  1.00  0.00     0.126 C 
ATOM     11  C   UNL A   1      31.390  29.368  24.328  1.00  0.00     0.052 C 
ATOM     12  C   UNL A   1      31.759  29.093  25.793  1.00  0.00     0.180 C 
BRANCH   8  13
ATOM     13  N   UNL A   1      32.388  26.665  23.832  1.00  0.00    -0.330 N 
ATOM     14  H   UNL A   1      33.165  27.155  24.275  1.00  0.00     0.347 HD
ATOM     15  H   UNL A   1      32.407  25.645  23.833  1.00  0.00     0.347 HD
BRANCH  13  16
ATOM     16  C   UNL A   1      32.442  26.994  22.410  1.00  0.00     0.176 C 
ATOM     17  C   UNL A   1      33.686  27.868  22.216  1.00  0.00     0.075 C 
ATOM     18  C   UNL A   1      32.586  25.751  21.537  1.00  0.00     0.075 C 
ENDBRANCH  13  16
ENDBRANCH   8  13
BRANCH  12  19
ATOM     19  O   UNL A   1      33.138  29.156  26.134  1.00  0.00    -0.490 OA
BRANCH  19  20
ATOM     20  C   UNL A   1      33.656  30.056  27.005  1.00  0.00     0.120 A 
ATOM     21  C   UNL A   1      33.250  31.369  27.196  1.00  0.00     0.046 A 
ATOM     22  C   UNL A   1      34.729  29.550  27.748  1.00  0.00     0.052 A 
ATOM     23  C   UNL A   1      33.966  32.187  28.077  1.00  0.00     0.004 A 
ATOM     24  C   UNL A   1      35.466  30.358  28.615  1.00  0.00    -0.019 A 
ATOM     25  C   UNL A   1      35.073  31.690  28.774  1.00  0.00     0.006 A 
BRANCH  24  26
ATOM     26  C   UNL A   1      36.650  29.794  29.352  1.00  0.00     0.191 C 
BRANCH  26  27
ATOM     27  O   UNL A   1      36.262  29.261  30.609  1.00  0.00    -0.392 OA
ATOM     28  H   UNL A   1      36.478  29.895  31.310  1.00  0.00     0.211 HD
ENDBRANCH  26  27
ENDBRANCH  24  26
ENDBRANCH  19  20
ENDBRANCH  12  19
ENDBRANCH   6   8
ENDBRANCH   5   6
ENDBRANCH   4   5
ENDBRANCH   3   4
ENDBRANCH   2   3
ENDBRANCH   1   2
BRANCH   1  29
ATOM     29  C   UNL A   1      34.953  23.549  24.262  1.00  0.00     0.188 C 
BRANCH  29  30
ATOM     30  O   UNL A   1      36.003  22.989  25.046  1.00  0.00    -0.376 OA
BRANCH  30  31
ATOM     31  C   UNL A   1      36.467  21.700  24.631  1.00  0.00     0.202 C 
BRANCH  31  32
ATOM     32  C   UNL A   1      37.658  21.110  25.420  1.00  0.00     0.261 C 
BRANCH  32  33
ATOM     33  O   UNL A   1      38.812  21.973  25.528  1.00  0.00    -0.460 OA
BRANCH  33  34
ATOM     34  C   UNL A   1      39.729  21.661  26.475  1.00  0.00     0.338 C 
ATOM     35  O   UNL A   1      40.201  20.553  26.676  1.00  0.00    -0.246 OA
BRANCH  34  36
ATOM     36  C   UNL A   1      40.281  22.920  27.048  1.00  0.00     0.060 A 
ATOM     37  C   UNL A   1      39.713  24.132  26.630  1.00  0.00     0.016 A 
ATOM     38  C   UNL A   1      41.288  22.929  28.018  1.00  0.00     0.016 A 
ATOM     39  C   UNL A   1      40.186  25.348  27.131  1.00  0.00     0.010 A 
ATOM     40  C   UNL A   1      41.771  24.151  28.513  1.00  0.00     0.010 A 
ATOM     41  C   UNL A   1      41.250  25.371  28.041  1.00  0.00    -0.014 A 
BRANCH  41  42
ATOM     42  C   UNL A   1      41.955  26.657  28.304  1.00  0.00     0.031 A 
ATOM     43  C   UNL A   1      43.338  26.836  27.726  1.00  0.00     0.074 A 
ATOM     44  C   UNL A   1      41.374  27.680  28.960  1.00  0.00     0.049 A 
ATOM     45  N   UNL A   1      44.151  27.859  27.804  1.00  0.00    -0.248 NA
ATOM     46  C   UNL A   1      43.870  25.702  26.953  1.00  0.00     0.031 C 
ATOM     47  C   UNL A   1      40.023  27.671  29.519  1.00  0.00     0.029 A 
ATOM     48  N   UNL A   1      41.852  28.934  29.262  1.00  0.00    -0.354 N 
ATOM     49  C   UNL A   1      45.279  27.502  27.073  1.00  0.00     0.074 A 
ATOM     50  C   UNL A   1      45.068  26.146  26.611  1.00  0.00     0.031 C 
ATOM     51  C   UNL A   1      39.783  28.863  30.099  1.00  0.00     0.029 A 
ATOM     52  C   UNL A   1      40.972  29.709  29.984  1.00  0.00     0.049 A 
ATOM     53  H   UNL A   1      42.744  29.249  28.989  1.00  0.00     0.167 HD
ATOM     54  C   UNL A   1      46.383  28.237  26.789  1.00  0.00     0.034 A 
ATOM     55  C   UNL A   1      41.115  30.947  30.505  1.00  0.00     0.034 A 
ATOM     56  C   UNL A   1      46.609  29.576  27.271  1.00  0.00     0.049 A 
ATOM     57  C   UNL A   1      42.411  31.701  30.283  1.00  0.00     0.074 A 
ATOM     58  C   UNL A   1      47.712  30.389  27.071  1.00  0.00     0.029 A 
ATOM     59  N   UNL A   1      45.721  30.301  28.053  1.00  0.00    -0.354 N 
ATOM     60  N   UNL A   1      43.473  31.344  29.596  1.00  0.00    -0.248 NA
ATOM     61  C   UNL A   1      42.519  33.033  30.898  1.00  0.00     0.031 C 
ATOM     62  C   UNL A   1      47.519  31.578  27.784  1.00  0.00     0.029 A 
ATOM     63  C   UNL A   1      46.261  31.540  28.362  1.00  0.00     0.049 A 
ATOM     64  H   UNL A   1      44.836  29.983  28.345  1.00  0.00     0.167 HD
ATOM     65  C   UNL A   1      44.352  32.427  29.666  1.00  0.00     0.074 A 
ATOM     66  C   UNL A   1      43.690  33.452  30.442  1.00  0.00     0.031 C 
ATOM     67  C   UNL A   1      45.594  32.561  29.135  1.00  0.00     0.034 A 
BRANCH  54  68
ATOM     68  C   UNL A   1      47.447  27.579  25.946  1.00  0.00     0.023 A 
ATOM     69  C   UNL A   1      48.509  26.867  26.531  1.00  0.00     0.031 A 
ATOM     70  C   UNL A   1      47.417  27.688  24.545  1.00  0.00     0.131 A 
ATOM     71  C   UNL A   1      49.531  26.348  25.723  1.00  0.00     0.055 A 
ATOM     72  C   UNL A   1      48.395  27.101  23.741  1.00  0.00     0.041 A 
ATOM     73  F   UNL A   1      46.441  28.379  23.934  1.00  0.00    -0.206 F 
ATOM     74  C   UNL A   1      49.468  26.438  24.330  1.00  0.00     0.022 A 
BRANCH  71  75
ATOM     75  S   UNL A   1      51.012  25.676  26.524  1.00  0.00     0.124 S 
ATOM     76  O   UNL A   1      50.474  24.496  27.198  1.00  0.00    -0.237 OA
ATOM     77  O   UNL A   1      51.894  25.418  25.391  1.00  0.00    -0.237 OA
ATOM     78  O   UNL A   1      51.439  26.753  27.414  1.00  0.00    -0.744 OA
ENDBRANCH  71  75
ENDBRANCH  54  68
BRANCH  55  79
ATOM     79  C   UNL A   1      40.037  31.561  31.342  1.00  0.00     0.023 A 
ATOM     80  C   UNL A   1      40.028  31.421  32.742  1.00  0.00     0.031 A 
ATOM     81  C   UNL A   1      38.933  32.191  30.740  1.00  0.00     0.131 A 
ATOM     82  C   UNL A   1      38.909  31.838  33.481  1.00  0.00     0.055 A 
ATOM     83  C   UNL A   1      37.853  32.665  31.487  1.00  0.00     0.041 A 
ATOM     84  F   UNL A   1      38.880  32.340  29.408  1.00  0.00    -0.206 F 
ATOM     85  C   UNL A   1      37.827  32.470  32.864  1.00  0.00     0.022 A 
BRANCH  82  86
ATOM     86  S   UNL A   1      38.824  31.414  35.244  1.00  0.00     0.124 S 
ATOM     87  O   UNL A   1      40.231  31.449  35.625  1.00  0.00    -0.237 OA
ATOM     88  O   UNL A   1      37.989  32.487  35.772  1.00  0.00    -0.237 OA
ATOM     89  O   UNL A   1      38.209  30.088  35.246  1.00  0.00    -0.744 OA
ENDBRANCH  82  86
ENDBRANCH  55  79
BRANCH  67  90
ATOM     90  C   UNL A   1      46.291  33.891  29.324  1.00  0.00     0.023 A 
ATOM     91  C   UNL A   1      46.139  34.949  28.411  1.00  0.00     0.031 A 
ATOM     92  C   UNL A   1      47.136  34.094  30.431  1.00  0.00     0.131 A 
ATOM     93  C   UNL A   1      46.870  36.135  28.583  1.00  0.00     0.055 A 
ATOM     94  C   UNL A   1      47.812  35.299  30.631  1.00  0.00     0.041 A 
ATOM     95  F   UNL A   1      47.321  33.122  31.338  1.00  0.00    -0.206 F 
ATOM     96  C   UNL A   1      47.694  36.322  29.696  1.00  0.00     0.022 A 
BRANCH  93  97
ATOM     97  S   UNL A   1      46.814  37.394  27.277  1.00  0.00     0.124 S 
ATOM     98  O   UNL A   1      46.627  36.582  26.079  1.00  0.00    -0.237 OA
ATOM     99  O   UNL A   1      45.671  38.208  27.680  1.00  0.00    -0.237 OA
ATOM    100  O   UNL A   1      48.113  38.057  27.382  1.00  0.00    -0.744 OA
ENDBRANCH  93  97
ENDBRANCH  67  90
ENDBRANCH  41  42
ENDBRANCH  34  36
ENDBRANCH  33  34
ENDBRANCH  32  33
ENDBRANCH  31  32
ENDBRANCH  30  31
ENDBRANCH  29  30
ENDBRANCH   1  29
TORSDOF 26
ENDMDL
MODEL 3
REMARK VINA RESULT:      -9.2      4.571      8.743
REMARK SMILES CC(C)[NH2+][C@]1(C(=O)OCCOCCOCCOC(=O)c2ccc(-c3c4nc(c(-c5cc(S(=O)(=O)[O-])ccc5F)c5ccc([nH]5)c(-c5cc(S(=O)(=O)[O-])ccc5F)c5nc(c(-c6cc(S(=O)(=O)[O-])ccc6F)c6ccc3[nH]6)C=C5)C=C4)cc2)CC[C@H](Oc2cccc(CO)c2)C1
REMARK SMILES IDX 12 1 11 2 10 3 9 4 8 5 6 6 7 7 5 8 83 9 95 10 84 11 85 12
REMARK SMILES IDX 4 13 2 16 1 17 3 18 86 19 87 20 88 21 94 22 89 23 91 24
REMARK SMILES IDX 90 25 92 26 93 27 13 29 14 30 15 31 16 32 17 33 18 34 19 35
REMARK SMILES IDX 20 36 21 37 82 38 22 39 81 40 23 41 24 42 25 43 75 44 26 45
REMARK SMILES IDX 80 46 74 47 76 48 27 49 79 50 73 51 72 52 28 54 60 55 40 56
REMARK SMILES IDX 59 57 41 58 44 59 58 60 77 61 42 62 43 63 57 65 78 66 45 67
REMARK SMILES IDX 29 68 30 69 38 70 31 71 37 72 39 73 36 74 32 75 33 76 34 77
REMARK SMILES IDX 35 78 61 79 62 80 70 81 63 82 69 83 71 84 68 85 64 86 65 87
REMARK SMILES IDX 66 88 67 89 46 90 47 91 55 92 48 93 54 94 56 95 53 96 49 97
REMARK SMILES IDX 50 98 51 99 52 100
REMARK H PARENT 4 14 4 15 93 28 76 53 44 64
REMARK Flexibility Score: inf
ROOT
ATOM      1  C   UNL A   1      30.817  28.505  23.883  1.00  0.00     0.188 C 
ENDROOT
BRANCH   1   2
ATOM      2  O   UNL A   1      29.984  27.571  24.562  1.00  0.00    -0.376 OA
BRANCH   2   3
ATOM      3  C   UNL A   1      30.642  26.513  25.249  1.00  0.00     0.202 C 
BRANCH   3   4
ATOM      4  C   UNL A   1      31.493  26.882  26.476  1.00  0.00     0.261 C 
BRANCH   4   5
ATOM      5  O   UNL A   1      32.569  25.968  26.780  1.00  0.00    -0.459 OA
BRANCH   5   6
ATOM      6  C   UNL A   1      33.458  25.762  25.761  1.00  0.00     0.368 C 
ATOM      7  O   UNL A   1      34.070  26.681  25.222  1.00  0.00    -0.245 OA
BRANCH   6   8
ATOM      8  C   UNL A   1      33.546  24.269  25.299  1.00  0.00     0.198 C 
ATOM      9  C   UNL A   1      34.963  23.706  25.050  1.00  0.00     0.085 C 
ATOM     10  C   UNL A   1      33.137  23.363  26.477  1.00  0.00     0.126 C 
ATOM     11  C   UNL A   1      34.761  22.185  25.092  1.00  0.00     0.052 C 
ATOM     12  C   UNL A   1      33.708  21.957  26.187  1.00  0.00     0.180 C 
BRANCH   8  13
ATOM     13  N   UNL A   1      32.843  24.104  24.001  1.00  0.00    -0.330 N 
ATOM     14  H   UNL A   1      32.583  23.120  23.933  1.00  0.00     0.347 HD
ATOM     15  H   UNL A   1      32.091  24.791  24.060  1.00  0.00     0.347 HD
BRANCH  13  16
ATOM     16  C   UNL A   1      33.507  24.448  22.747  1.00  0.00     0.176 C 
ATOM     17  C   UNL A   1      33.277  23.267  21.797  1.00  0.00     0.075 C 
ATOM     18  C   UNL A   1      32.917  25.701  22.108  1.00  0.00     0.075 C 
ENDBRANCH  13  16
ENDBRANCH   8  13
BRANCH  12  19
ATOM     19  O   UNL A   1      32.576  21.168  25.839  1.00  0.00    -0.490 OA
BRANCH  19  20
ATOM     20  C   UNL A   1      32.581  20.245  24.847  1.00  0.00     0.120 A 
ATOM     21  C   UNL A   1      32.376  20.466  23.493  1.00  0.00     0.046 A 
ATOM     22  C   UNL A   1      32.801  18.942  25.308  1.00  0.00     0.052 A 
ATOM     23  C   UNL A   1      32.322  19.375  22.619  1.00  0.00     0.004 A 
ATOM     24  C   UNL A   1      32.729  17.840  24.453  1.00  0.00    -0.019 A 
ATOM     25  C   UNL A   1      32.486  18.069  23.096  1.00  0.00     0.006 A 
BRANCH  24  26
ATOM     26  C   UNL A   1      32.913  16.449  24.996  1.00  0.00     0.191 C 
BRANCH  26  27
ATOM     27  O   UNL A   1      34.022  15.807  24.388  1.00  0.00    -0.392 OA
ATOM     28  H   UNL A   1      33.895  15.781  23.427  1.00  0.00     0.211 HD
ENDBRANCH  26  27
ENDBRANCH  24  26
ENDBRANCH  19  20
ENDBRANCH  12  19
ENDBRANCH   6   8
ENDBRANCH   5   6
ENDBRANCH   4   5
ENDBRANCH   3   4
ENDBRANCH   2   3
ENDBRANCH   1   2
BRANCH   1  29
ATOM     29  C   UNL A   1      30.831  29.934  24.430  1.00  0.00     0.188 C 
BRANCH  29  30
ATOM     30  O   UNL A   1      31.855  30.232  25.376  1.00  0.00    -0.376 OA
BRANCH  30  31
ATOM     31  C   UNL A   1      31.566  31.296  26.289  1.00  0.00     0.202 C 
BRANCH  31  32
ATOM     32  C   UNL A   1      32.638  31.592  27.362  1.00  0.00     0.261 C 
BRANCH  32  33
ATOM     33  O   UNL A   1      33.415  32.791  27.141  1.00  0.00    -0.460 OA
BRANCH  33  34
ATOM     34  C   UNL A   1      33.382  33.735  28.112  1.00  0.00     0.338 C 
ATOM     35  O   UNL A   1      32.499  34.562  28.276  1.00  0.00    -0.246 OA
BRANCH  34  36
ATOM     36  C   UNL A   1      34.441  33.434  29.116  1.00  0.00     0.060 A 
ATOM     37  C   UNL A   1      35.757  33.811  28.810  1.00  0.00     0.016 A 
ATOM     38  C   UNL A   1      34.161  32.852  30.357  1.00  0.00     0.016 A 
ATOM     39  C   UNL A   1      36.796  33.556  29.710  1.00  0.00     0.010 A 
ATOM     40  C   UNL A   1      35.206  32.586  31.255  1.00  0.00     0.010 A 
ATOM     41  C   UNL A   1      36.537  32.900  30.920  1.00  0.00    -0.014 A 
BRANCH  41  42
ATOM     42  C   UNL A   1      37.676  32.343  31.703  1.00  0.00     0.031 A 
ATOM     43  C   UNL A   1      38.467  31.212  31.092  1.00  0.00     0.074 A 
ATOM     44  C   UNL A   1      38.065  32.862  32.883  1.00  0.00     0.049 A 
ATOM     45  N   UNL A   1      39.503  30.566  31.565  1.00  0.00    -0.248 NA
ATOM     46  C   UNL A   1      38.028  30.756  29.764  1.00  0.00     0.031 C 
ATOM     47  C   UNL A   1      37.433  33.992  33.563  1.00  0.00     0.029 A 
ATOM     48  N   UNL A   1      39.098  32.506  33.719  1.00  0.00    -0.354 N 
ATOM     49  C   UNL A   1      39.851  29.643  30.584  1.00  0.00     0.074 A 
ATOM     50  C   UNL A   1      38.880  29.775  29.519  1.00  0.00     0.031 C 
ATOM     51  C   UNL A   1      38.091  34.232  34.713  1.00  0.00     0.029 A 
ATOM     52  C   UNL A   1      39.170  33.256  34.871  1.00  0.00     0.049 A 
ATOM     53  H   UNL A   1      39.728  31.778  33.513  1.00  0.00     0.167 HD
ATOM     54  C   UNL A   1      40.894  28.777  30.557  1.00  0.00     0.034 A 
ATOM     55  C   UNL A   1      39.995  33.155  35.936  1.00  0.00     0.034 A 
ATOM     56  C   UNL A   1      41.846  28.623  31.628  1.00  0.00     0.049 A 
ATOM     57  C   UNL A   1      41.077  32.093  35.938  1.00  0.00     0.074 A 
ATOM     58  C   UNL A   1      42.915  27.745  31.711  1.00  0.00     0.029 A 
ATOM     59  N   UNL A   1      41.846  29.356  32.806  1.00  0.00    -0.354 N 
ATOM     60  N   UNL A   1      41.387  31.219  35.006  1.00  0.00    -0.248 NA
ATOM     61  C   UNL A   1      41.927  32.012  37.136  1.00  0.00     0.031 C 
ATOM     62  C   UNL A   1      43.519  27.905  32.963  1.00  0.00     0.029 A 
ATOM     63  C   UNL A   1      42.879  28.936  33.630  1.00  0.00     0.049 A 
ATOM     64  H   UNL A   1      41.205  30.071  33.025  1.00  0.00     0.167 HD
ATOM     65  C   UNL A   1      42.493  30.521  35.492  1.00  0.00     0.074 A 
ATOM     66  C   UNL A   1      42.806  31.084  36.787  1.00  0.00     0.031 C 
ATOM     67  C   UNL A   1      43.188  29.505  34.920  1.00  0.00     0.034 A 
BRANCH  54  68
ATOM     68  C   UNL A   1      41.028  27.902  29.335  1.00  0.00     0.023 A 
ATOM     69  C   UNL A   1      41.970  28.187  28.330  1.00  0.00     0.031 A 
ATOM     70  C   UNL A   1      40.186  26.791  29.157  1.00  0.00     0.131 A 
ATOM     71  C   UNL A   1      42.004  27.408  27.164  1.00  0.00     0.055 A 
ATOM     72  C   UNL A   1      40.279  25.972  28.030  1.00  0.00     0.041 A 
ATOM     73  F   UNL A   1      39.251  26.488  30.071  1.00  0.00    -0.206 F 
ATOM     74  C   UNL A   1      41.182  26.287  27.018  1.00  0.00     0.022 A 
BRANCH  71  75
ATOM     75  S   UNL A   1      43.038  27.962  25.782  1.00  0.00     0.124 S 
ATOM     76  O   UNL A   1      44.354  27.466  26.181  1.00  0.00    -0.237 OA
ATOM     77  O   UNL A   1      42.423  27.294  24.640  1.00  0.00    -0.237 OA
ATOM     78  O   UNL A   1      42.894  29.415  25.807  1.00  0.00    -0.744 OA
ENDBRANCH  71  75
ENDBRANCH  54  68
BRANCH  55  79
ATOM     79  C   UNL A   1      39.824  34.038  37.131  1.00  0.00     0.023 A 
ATOM     80  C   UNL A   1      40.746  35.058  37.426  1.00  0.00     0.031 A 
ATOM     81  C   UNL A   1      38.802  33.790  38.065  1.00  0.00     0.131 A 
ATOM     82  C   UNL A   1      40.670  35.740  38.651  1.00  0.00     0.055 A 
ATOM     83  C   UNL A   1      38.691  34.518  39.251  1.00  0.00     0.041 A 
ATOM     84  F   UNL A   1      37.901  32.820  37.845  1.00  0.00    -0.206 F 
ATOM     85  C   UNL A   1      39.641  35.486  39.560  1.00  0.00     0.022 A 
BRANCH  82  86
ATOM     86  S   UNL A   1      42.019  36.868  39.104  1.00  0.00     0.124 S 
ATOM     87  O   UNL A   1      42.498  36.273  40.346  1.00  0.00    -0.237 OA
ATOM     88  O   UNL A   1      42.907  36.753  37.954  1.00  0.00    -0.237 OA
ATOM     89  O   UNL A   1      41.349  38.159  39.247  1.00  0.00    -0.744 OA
ENDBRANCH  82  86
ENDBRANCH  55  79
BRANCH  67  90
ATOM     90  C   UNL A   1      44.397  28.982  35.666  1.00  0.00     0.023 A 
ATOM     91  C   UNL A   1      44.279  28.075  36.734  1.00  0.00     0.031 A 
ATOM     92  C   UNL A   1      45.687  29.416  35.310  1.00  0.00     0.131 A 
ATOM     93  C   UNL A   1      45.421  27.684  37.450  1.00  0.00     0.055 A 
ATOM     94  C   UNL A   1      46.826  28.974  35.986  1.00  0.00     0.041 A 
ATOM     95  F   UNL A   1      45.864  30.281  34.299  1.00  0.00    -0.206 F 
ATOM     96  C   UNL A   1      46.696  28.115  37.073  1.00  0.00     0.022 A 
BRANCH  93  97
ATOM     97  S   UNL A   1      45.211  26.683  38.949  1.00  0.00     0.124 S 
ATOM     98  O   UNL A   1      45.558  27.634  40.001  1.00  0.00    -0.237 OA
ATOM     99  O   UNL A   1      43.805  26.300  38.874  1.00  0.00    -0.237 OA
ATOM    100  O   UNL A   1      46.161  25.586  38.767  1.00  0.00    -0.744 OA
ENDBRANCH  93  97
ENDBRANCH  67  90
ENDBRANCH  41  42
ENDBRANCH  34  36
ENDBRANCH  33  34
ENDBRANCH  32  33
ENDBRANCH  31  32
ENDBRANCH  30  31
ENDBRANCH  29  30
ENDBRANCH   1  29
TORSDOF 26
ENDMDL
