MODEL 1
REMARK VINA RESULT:      -9.9      0.000      0.000
REMARK SMILES CCOc1cc(N2CCOCC2)ccc1[C@H]([NH3+])C(=O)OCCOCCOCCOC(=O)c1ccc(-c2c3nc(c(-c4cc(S(=O)(=O)[O-])ccc4F)c4ccc([nH]4)c(-c4cc(S(=O)(=O)[O-])ccc4F)c4nc(c(-c5cc(S(=O)(=O)[O-])ccc5F)c5ccc2[nH]5)C=C4)C=C3)cc1
REMARK SMILES IDX 24 1 23 2 22 3 21 4 20 5 18 6 19 7 16 8 15 9 4 10 5 11 6 12
REMARK SMILES IDX 14 13 13 14 3 15 2 16 1 17 7 18 8 19 12 20 9 21 11 22 10 23
REMARK SMILES IDX 17 24 25 28 26 29 27 30 28 31 29 32 30 33 31 34 32 35 33 36
REMARK SMILES IDX 94 37 34 38 93 39 35 40 36 41 37 42 87 43 38 44 92 45 86 46
REMARK SMILES IDX 88 47 39 48 91 49 85 50 84 51 40 53 72 54 52 55 71 56 53 57
REMARK SMILES IDX 56 58 70 59 89 60 54 61 55 62 69 64 90 65 57 66 41 67 42 68
REMARK SMILES IDX 50 69 43 70 49 71 51 72 48 73 44 74 45 75 46 76 47 77 73 78
REMARK SMILES IDX 74 79 82 80 75 81 81 82 83 83 80 84 76 85 77 86 78 87 79 88
REMARK SMILES IDX 58 89 59 90 67 91 60 92 66 93 68 94 65 95 61 96 62 97 63 98
REMARK SMILES IDX 64 99
REMARK H PARENT 17 25 17 26 17 27 88 52 56 63
REMARK Flexibility Score: inf
ROOT
ATOM      1  C   UNL A   1      39.744  21.434  25.984  1.00  0.00     0.188 C 
ENDROOT
BRANCH   1   2
ATOM      2  O   UNL A   1      39.873  22.260  27.131  1.00  0.00    -0.376 OA
BRANCH   2   3
ATOM      3  C   UNL A   1      39.151  23.482  27.151  1.00  0.00     0.202 C 
BRANCH   3   4
ATOM      4  C   UNL A   1      38.286  23.845  25.934  1.00  0.00     0.261 C 
BRANCH   4   5
ATOM      5  O   UNL A   1      36.874  23.647  26.092  1.00  0.00    -0.459 OA
BRANCH   5   6
ATOM      6  C   UNL A   1      36.206  23.447  24.917  1.00  0.00     0.369 C 
ATOM      7  O   UNL A   1      36.754  23.119  23.866  1.00  0.00    -0.245 OA
BRANCH   6   8
ATOM      8  C   UNL A   1      34.693  23.745  24.986  1.00  0.00     0.326 C 
BRANCH   8   9
ATOM      9  C   UNL A   1      33.979  22.429  24.786  1.00  0.00     0.063 A 
ATOM     10  C   UNL A   1      33.015  22.185  23.797  1.00  0.00     0.131 A 
ATOM     11  C   UNL A   1      32.577  20.875  23.556  1.00  0.00     0.072 A 
ATOM     12  C   UNL A   1      33.080  19.795  24.308  1.00  0.00     0.040 A 
ATOM     13  C   UNL A   1      34.488  21.348  25.518  1.00  0.00     0.016 A 
ATOM     14  C   UNL A   1      34.046  20.056  25.280  1.00  0.00     0.027 A 
BRANCH  10  15
ATOM     15  O   UNL A   1      32.363  23.252  23.230  1.00  0.00    -0.493 OA
BRANCH  15  16
ATOM     16  C   UNL A   1      30.961  23.342  23.515  1.00  0.00     0.226 C 
ATOM     17  C   UNL A   1      30.640  24.806  23.809  1.00  0.00     0.049 C 
ENDBRANCH  15  16
ENDBRANCH  10  15
BRANCH  12  18
ATOM     18  N   UNL A   1      32.577  18.514  24.132  1.00  0.00    -0.367 N 
ATOM     19  C   UNL A   1      32.463  17.644  25.317  1.00  0.00     0.145 C 
ATOM     20  C   UNL A   1      32.861  17.818  22.871  1.00  0.00     0.145 C 
ATOM     21  C   UNL A   1      33.588  16.596  25.369  1.00  0.00     0.181 C 
ATOM     22  C   UNL A   1      33.977  16.772  23.054  1.00  0.00     0.181 C 
ATOM     23  O   UNL A   1      33.689  15.868  24.135  1.00  0.00    -0.378 OA
ENDBRANCH  12  18
ENDBRANCH   8   9
BRANCH   8  24
ATOM     24  N   UNL A   1      34.204  24.868  24.158  1.00  0.00    -0.342 N 
ATOM     25  H   UNL A   1      33.187  24.906  24.203  1.00  0.00     0.345 HD
ATOM     26  H   UNL A   1      34.497  24.729  23.191  1.00  0.00     0.345 HD
ATOM     27  H   UNL A   1      34.593  25.743  24.509  1.00  0.00     0.345 HD
ENDBRANCH   8  24
ENDBRANCH   6   8
ENDBRANCH   5   6
ENDBRANCH   4   5
ENDBRANCH   3   4
ENDBRANCH   2   3
ENDBRANCH   1   2
BRANCH   1  28
ATOM     28  C   UNL A   1      39.925  19.925  26.137  1.00  0.00     0.188 C 
BRANCH  28  29
ATOM     29  O   UNL A   1      41.175  19.436  26.603  1.00  0.00    -0.376 OA
BRANCH  29  30
ATOM     30  C   UNL A   1      42.314  19.969  25.914  1.00  0.00     0.202 C 
BRANCH  30  31
ATOM     31  C   UNL A   1      43.294  18.931  25.320  1.00  0.00     0.261 C 
BRANCH  31  32
ATOM     32  O   UNL A   1      44.018  19.321  24.129  1.00  0.00    -0.460 OA
BRANCH  32  33
ATOM     33  C   UNL A   1      45.271  19.832  24.272  1.00  0.00     0.338 C 
ATOM     34  O   UNL A   1      46.287  19.352  23.820  1.00  0.00    -0.246 OA
BRANCH  33  35
ATOM     35  C   UNL A   1      45.154  21.221  24.825  1.00  0.00     0.060 A 
ATOM     36  C   UNL A   1      44.629  22.225  23.997  1.00  0.00     0.016 A 
ATOM     37  C   UNL A   1      45.460  21.524  26.156  1.00  0.00     0.016 A 
ATOM     38  C   UNL A   1      44.462  23.532  24.476  1.00  0.00     0.010 A 
ATOM     39  C   UNL A   1      45.298  22.833  26.633  1.00  0.00     0.010 A 
ATOM     40  C   UNL A   1      44.835  23.857  25.787  1.00  0.00    -0.014 A 
BRANCH  40  41
ATOM     41  C   UNL A   1      44.973  25.284  26.201  1.00  0.00     0.031 A 
ATOM     42  C   UNL A   1      46.348  25.902  26.142  1.00  0.00     0.074 A 
ATOM     43  C   UNL A   1      43.931  26.032  26.608  1.00  0.00     0.049 A 
ATOM     44  N   UNL A   1      46.754  27.085  26.524  1.00  0.00    -0.248 NA
ATOM     45  C   UNL A   1      47.408  25.051  25.581  1.00  0.00     0.031 C 
ATOM     46  C   UNL A   1      42.541  25.589  26.673  1.00  0.00     0.029 A 
ATOM     47  N   UNL A   1      43.889  27.333  27.062  1.00  0.00    -0.354 N 
ATOM     48  C   UNL A   1      48.119  27.120  26.253  1.00  0.00     0.074 A 
ATOM     49  C   UNL A   1      48.474  25.819  25.728  1.00  0.00     0.031 C 
ATOM     50  C   UNL A   1      41.786  26.593  27.154  1.00  0.00     0.029 A 
ATOM     51  C   UNL A   1      42.640  27.738  27.473  1.00  0.00     0.049 A 
ATOM     52  H   UNL A   1      44.680  27.918  27.087  1.00  0.00     0.167 HD
ATOM     53  C   UNL A   1      48.996  28.144  26.410  1.00  0.00     0.034 A 
ATOM     54  C   UNL A   1      42.237  28.882  28.069  1.00  0.00     0.034 A 
ATOM     55  C   UNL A   1      48.641  29.429  26.959  1.00  0.00     0.049 A 
ATOM     56  C   UNL A   1      43.248  29.975  28.342  1.00  0.00     0.074 A 
ATOM     57  C   UNL A   1      49.453  30.532  27.165  1.00  0.00     0.029 A 
ATOM     58  N   UNL A   1      47.375  29.783  27.408  1.00  0.00    -0.354 N 
ATOM     59  N   UNL A   1      44.535  29.999  28.083  1.00  0.00    -0.248 NA
ATOM     60  C   UNL A   1      42.746  31.199  28.986  1.00  0.00     0.031 C 
ATOM     61  C   UNL A   1      48.700  31.518  27.813  1.00  0.00     0.029 A 
ATOM     62  C   UNL A   1      47.393  31.071  27.925  1.00  0.00     0.049 A 
ATOM     63  H   UNL A   1      46.580  29.203  27.367  1.00  0.00     0.167 HD
ATOM     64  C   UNL A   1      44.989  31.250  28.503  1.00  0.00     0.074 A 
ATOM     65  C   UNL A   1      43.835  31.955  29.021  1.00  0.00     0.031 C 
ATOM     66  C   UNL A   1      46.243  31.769  28.455  1.00  0.00     0.034 A 
BRANCH  53  67
ATOM     67  C   UNL A   1      50.435  27.876  26.033  1.00  0.00     0.023 A 
ATOM     68  C   UNL A   1      50.872  27.939  24.698  1.00  0.00     0.031 A 
ATOM     69  C   UNL A   1      51.368  27.485  27.009  1.00  0.00     0.131 A 
ATOM     70  C   UNL A   1      52.169  27.522  24.363  1.00  0.00     0.055 A 
ATOM     71  C   UNL A   1      52.688  27.166  26.683  1.00  0.00     0.041 A 
ATOM     72  F   UNL A   1      51.007  27.380  28.299  1.00  0.00    -0.206 F 
ATOM     73  C   UNL A   1      53.089  27.162  25.350  1.00  0.00     0.022 A 
BRANCH  70  74
ATOM     74  S   UNL A   1      52.571  27.269  22.612  1.00  0.00     0.124 S 
ATOM     75  O   UNL A   1      51.239  27.191  22.013  1.00  0.00    -0.237 OA
ATOM     76  O   UNL A   1      53.347  28.461  22.293  1.00  0.00    -0.237 OA
ATOM     77  O   UNL A   1      53.320  26.015  22.610  1.00  0.00    -0.744 OA
ENDBRANCH  70  74
ENDBRANCH  53  67
BRANCH  54  78
ATOM     78  C   UNL A   1      40.817  29.042  28.510  1.00  0.00     0.023 A 
ATOM     79  C   UNL A   1      40.450  28.959  29.864  1.00  0.00     0.031 A 
ATOM     80  C   UNL A   1      39.794  29.231  27.562  1.00  0.00     0.131 A 
ATOM     81  C   UNL A   1      39.095  29.034  30.228  1.00  0.00     0.055 A 
ATOM     82  C   UNL A   1      38.454  29.359  27.934  1.00  0.00     0.041 A 
ATOM     83  F   UNL A   1      40.085  29.302  26.254  1.00  0.00    -0.206 F 
ATOM     84  C   UNL A   1      38.097  29.250  29.274  1.00  0.00     0.022 A 
BRANCH  81  85
ATOM     85  S   UNL A   1      38.639  28.769  31.965  1.00  0.00     0.124 S 
ATOM     86  O   UNL A   1      39.340  29.864  32.626  1.00  0.00    -0.237 OA
ATOM     87  O   UNL A   1      37.184  28.873  31.917  1.00  0.00    -0.237 OA
ATOM     88  O   UNL A   1      39.156  27.433  32.254  1.00  0.00    -0.744 OA
ENDBRANCH  81  85
ENDBRANCH  54  78
BRANCH  66  89
ATOM     89  C   UNL A   1      46.431  33.194  28.929  1.00  0.00     0.023 A 
ATOM     90  C   UNL A   1      46.333  34.293  28.057  1.00  0.00     0.031 A 
ATOM     91  C   UNL A   1      46.710  33.455  30.284  1.00  0.00     0.131 A 
ATOM     92  C   UNL A   1      46.565  35.593  28.537  1.00  0.00     0.055 A 
ATOM     93  C   UNL A   1      46.872  34.755  30.769  1.00  0.00     0.041 A 
ATOM     94  F   UNL A   1      46.820  32.448  31.166  1.00  0.00    -0.206 F 
ATOM     95  C   UNL A   1      46.813  35.832  29.891  1.00  0.00     0.022 A 
BRANCH  92  96
ATOM     96  S   UNL A   1      46.637  36.965  27.351  1.00  0.00     0.124 S 
ATOM     97  O   UNL A   1      46.232  36.314  26.110  1.00  0.00    -0.237 OA
ATOM     98  O   UNL A   1      45.684  37.915  27.915  1.00  0.00    -0.237 OA
ATOM     99  O   UNL A   1      48.035  37.389  27.402  1.00  0.00    -0.744 OA
ENDBRANCH  92  96
ENDBRANCH  66  89
ENDBRANCH  40  41
ENDBRANCH  33  35
ENDBRANCH  32  33
ENDBRANCH  31  32
ENDBRANCH  30  31
ENDBRANCH  29  30
ENDBRANCH  28  29
ENDBRANCH   1  28
TORSDOF 25
ENDMDL
MODEL 2
REMARK VINA RESULT:      -9.4      2.984      8.237
REMARK SMILES CCOc1cc(N2CCOCC2)ccc1[C@H]([NH3+])C(=O)OCCOCCOCCOC(=O)c1ccc(-c2c3nc(c(-c4cc(S(=O)(=O)[O-])ccc4F)c4ccc([nH]4)c(-c4cc(S(=O)(=O)[O-])ccc4F)c4nc(c(-c5cc(S(=O)(=O)[O-])ccc5F)c5ccc2[nH]5)C=C4)C=C3)cc1
REMARK SMILES IDX 24 1 23 2 22 3 21 4 20 5 18 6 19 7 16 8 15 9 4 10 5 11 6 12
REMARK SMILES IDX 14 13 13 14 3 15 2 16 1 17 7 18 8 19 12 20 9 21 11 22 10 23
REMARK SMILES IDX 17 24 25 28 26 29 27 30 28 31 29 32 30 33 31 34 32 35 33 36
REMARK SMILES IDX 94 37 34 38 93 39 35 40 36 41 37 42 87 43 38 44 92 45 86 46
REMARK SMILES IDX 88 47 39 48 91 49 85 50 84 51 40 53 72 54 52 55 71 56 53 57
REMARK SMILES IDX 56 58 70 59 89 60 54 61 55 62 69 64 90 65 57 66 41 67 42 68
REMARK SMILES IDX 50 69 43 70 49 71 51 72 48 73 44 74 45 75 46 76 47 77 73 78
REMARK SMILES IDX 74 79 82 80 75 81 81 82 83 83 80 84 76 85 77 86 78 87 79 88
REMARK SMILES IDX 58 89 59 90 67 91 60 92 66 93 68 94 65 95 61 96 62 97 63 98
REMARK SMILES IDX 64 99
REMARK H PARENT 17 25 17 26 17 27 88 52 56 63
REMARK Flexibility Score: inf
ROOT
ATOM      1  C   UNL A   1      41.963  19.856  26.497  1.00  0.00     0.188 C 
ENDROOT
BRANCH   1   2
ATOM      2  O   UNL A   1      40.676  20.036  25.926  1.00  0.00    -0.376 OA
BRANCH   2   3
ATOM      3  C   UNL A   1      40.010  21.266  26.171  1.00  0.00     0.202 C 
BRANCH   3   4
ATOM      4  C   UNL A   1      38.567  21.432  25.672  1.00  0.00     0.261 C 
BRANCH   4   5
ATOM      5  O   UNL A   1      37.886  22.614  26.118  1.00  0.00    -0.459 OA
BRANCH   5   6
ATOM      6  C   UNL A   1      36.911  23.049  25.265  1.00  0.00     0.369 C 
ATOM      7  O   UNL A   1      37.108  23.311  24.079  1.00  0.00    -0.245 OA
BRANCH   6   8
ATOM      8  C   UNL A   1      35.535  23.267  25.928  1.00  0.00     0.326 C 
BRANCH   8   9
ATOM      9  C   UNL A   1      34.754  21.987  25.744  1.00  0.00     0.063 A 
ATOM     10  C   UNL A   1      33.382  21.845  25.999  1.00  0.00     0.131 A 
ATOM     11  C   UNL A   1      32.712  20.682  25.588  1.00  0.00     0.072 A 
ATOM     12  C   UNL A   1      33.403  19.643  24.935  1.00  0.00     0.040 A 
ATOM     13  C   UNL A   1      35.431  20.956  25.079  1.00  0.00     0.016 A 
ATOM     14  C   UNL A   1      34.765  19.808  24.681  1.00  0.00     0.027 A 
BRANCH  10  15
ATOM     15  O   UNL A   1      32.765  22.746  26.830  1.00  0.00    -0.493 OA
BRANCH  15  16
ATOM     16  C   UNL A   1      31.696  23.498  26.242  1.00  0.00     0.226 C 
ATOM     17  C   UNL A   1      30.386  22.986  26.836  1.00  0.00     0.049 C 
ENDBRANCH  15  16
ENDBRANCH  10  15
BRANCH  12  18
ATOM     18  N   UNL A   1      32.758  18.457  24.614  1.00  0.00    -0.367 N 
ATOM     19  C   UNL A   1      32.568  17.458  25.682  1.00  0.00     0.145 C 
ATOM     20  C   UNL A   1      32.942  17.903  23.267  1.00  0.00     0.145 C 
ATOM     21  C   UNL A   1      33.571  16.298  25.568  1.00  0.00     0.181 C 
ATOM     22  C   UNL A   1      33.939  16.728  23.283  1.00  0.00     0.181 C 
ATOM     23  O   UNL A   1      33.570  15.728  24.248  1.00  0.00    -0.378 OA
ENDBRANCH  12  18
ENDBRANCH   8   9
BRANCH   8  24
ATOM     24  N   UNL A   1      34.819  24.509  25.566  1.00  0.00    -0.342 N 
ATOM     25  H   UNL A   1      33.860  24.461  25.909  1.00  0.00     0.345 HD
ATOM     26  H   UNL A   1      34.813  24.614  24.552  1.00  0.00     0.345 HD
ATOM     27  H   UNL A   1      35.291  25.308  25.989  1.00  0.00     0.345 HD
ENDBRANCH   8  24
ENDBRANCH   6   8
ENDBRANCH   5   6
ENDBRANCH   4   5
ENDBRANCH   3   4
ENDBRANCH   2   3
ENDBRANCH   1   2
BRANCH   1  28
ATOM     28  C   UNL A   1      42.976  18.973  25.771  1.00  0.00     0.188 C 
BRANCH  28  29
ATOM     29  O   UNL A   1      43.802  19.565  24.777  1.00  0.00    -0.376 OA
BRANCH  29  30
ATOM     30  C   UNL A   1      45.006  20.155  25.283  1.00  0.00     0.202 C 
BRANCH  30  31
ATOM     31  C   UNL A   1      45.481  21.444  24.572  1.00  0.00     0.261 C 
BRANCH  31  32
ATOM     32  O   UNL A   1      45.154  22.701  25.209  1.00  0.00    -0.460 OA
BRANCH  32  33
ATOM     33  C   UNL A   1      43.970  23.295  24.900  1.00  0.00     0.338 C 
ATOM     34  O   UNL A   1      43.070  22.793  24.265  1.00  0.00    -0.246 OA
BRANCH  33  35
ATOM     35  C   UNL A   1      43.847  24.551  25.712  1.00  0.00     0.060 A 
ATOM     36  C   UNL A   1      43.467  25.733  25.057  1.00  0.00     0.016 A 
ATOM     37  C   UNL A   1      44.007  24.561  27.101  1.00  0.00     0.016 A 
ATOM     38  C   UNL A   1      43.299  26.925  25.774  1.00  0.00     0.010 A 
ATOM     39  C   UNL A   1      43.844  25.756  27.818  1.00  0.00     0.010 A 
ATOM     40  C   UNL A   1      43.528  26.957  27.156  1.00  0.00    -0.014 A 
BRANCH  40  41
ATOM     41  C   UNL A   1      43.677  28.260  27.867  1.00  0.00     0.031 A 
ATOM     42  C   UNL A   1      42.436  28.887  28.450  1.00  0.00     0.074 A 
ATOM     43  C   UNL A   1      44.863  28.881  28.016  1.00  0.00     0.049 A 
ATOM     44  N   UNL A   1      42.276  30.046  29.037  1.00  0.00    -0.248 NA
ATOM     45  C   UNL A   1      41.205  28.091  28.342  1.00  0.00     0.031 C 
ATOM     46  C   UNL A   1      46.151  28.376  27.550  1.00  0.00     0.029 A 
ATOM     47  N   UNL A   1      45.168  30.092  28.597  1.00  0.00    -0.354 N 
ATOM     48  C   UNL A   1      40.925  30.120  29.363  1.00  0.00     0.074 A 
ATOM     49  C   UNL A   1      40.307  28.912  28.858  1.00  0.00     0.031 C 
ATOM     50  C   UNL A   1      47.105  29.276  27.846  1.00  0.00     0.029 A 
ATOM     51  C   UNL A   1      46.495  30.442  28.487  1.00  0.00     0.049 A 
ATOM     52  H   UNL A   1      44.499  30.655  29.051  1.00  0.00     0.167 HD
ATOM     53  C   UNL A   1      40.260  31.093  30.036  1.00  0.00     0.034 A 
ATOM     54  C   UNL A   1      47.136  31.582  28.829  1.00  0.00     0.034 A 
ATOM     55  C   UNL A   1      40.876  32.306  30.513  1.00  0.00     0.049 A 
ATOM     56  C   UNL A   1      46.360  32.708  29.477  1.00  0.00     0.074 A 
ATOM     57  C   UNL A   1      40.293  33.356  31.201  1.00  0.00     0.029 A 
ATOM     58  N   UNL A   1      42.213  32.643  30.338  1.00  0.00    -0.354 N 
ATOM     59  N   UNL A   1      45.084  32.768  29.781  1.00  0.00    -0.248 NA
ATOM     60  C   UNL A   1      47.115  33.918  29.833  1.00  0.00     0.031 C 
ATOM     61  C   UNL A   1      41.253  34.361  31.367  1.00  0.00     0.029 A 
ATOM     62  C   UNL A   1      42.462  33.901  30.871  1.00  0.00     0.049 A 
ATOM     63  H   UNL A   1      42.886  32.073  29.900  1.00  0.00     0.167 HD
ATOM     64  C   UNL A   1      44.892  34.008  30.392  1.00  0.00     0.074 A 
ATOM     65  C   UNL A   1      46.186  34.658  30.422  1.00  0.00     0.031 C 
ATOM     66  C   UNL A   1      43.751  34.554  30.889  1.00  0.00     0.034 A 
BRANCH  53  67
ATOM     67  C   UNL A   1      38.774  30.895  30.232  1.00  0.00     0.023 A 
ATOM     68  C   UNL A   1      37.834  31.414  29.323  1.00  0.00     0.031 A 
ATOM     69  C   UNL A   1      38.286  30.239  31.376  1.00  0.00     0.131 A 
ATOM     70  C   UNL A   1      36.465  31.358  29.622  1.00  0.00     0.055 A 
ATOM     71  C   UNL A   1      36.918  30.099  31.619  1.00  0.00     0.041 A 
ATOM     72  F   UNL A   1      39.131  29.744  32.294  1.00  0.00    -0.206 F 
ATOM     73  C   UNL A   1      35.999  30.680  30.750  1.00  0.00     0.022 A 
BRANCH  70  74
ATOM     74  S   UNL A   1      35.321  32.351  28.623  1.00  0.00     0.124 S 
ATOM     75  O   UNL A   1      36.240  33.266  27.946  1.00  0.00    -0.237 OA
ATOM     76  O   UNL A   1      34.686  31.345  27.781  1.00  0.00    -0.237 OA
ATOM     77  O   UNL A   1      34.452  32.976  29.616  1.00  0.00    -0.744 OA
ENDBRANCH  70  74
ENDBRANCH  53  67
BRANCH  54  78
ATOM     78  C   UNL A   1      48.587  31.752  28.512  1.00  0.00     0.023 A 
ATOM     79  C   UNL A   1      49.019  32.486  27.394  1.00  0.00     0.031 A 
ATOM     80  C   UNL A   1      49.568  31.133  29.309  1.00  0.00     0.131 A 
ATOM     81  C   UNL A   1      50.388  32.554  27.087  1.00  0.00     0.055 A 
ATOM     82  C   UNL A   1      50.931  31.249  29.031  1.00  0.00     0.041 A 
ATOM     83  F   UNL A   1      49.212  30.407  30.381  1.00  0.00    -0.206 F 
ATOM     84  C   UNL A   1      51.348  31.955  27.907  1.00  0.00     0.022 A 
BRANCH  81  85
ATOM     85  S   UNL A   1      50.902  33.376  25.552  1.00  0.00     0.124 S 
ATOM     86  O   UNL A   1      52.005  34.209  26.017  1.00  0.00    -0.237 OA
ATOM     87  O   UNL A   1      51.264  32.244  24.706  1.00  0.00    -0.237 OA
ATOM     88  O   UNL A   1      49.703  34.103  25.137  1.00  0.00    -0.744 OA
ENDBRANCH  81  85
ENDBRANCH  54  78
BRANCH  66  89
ATOM     89  C   UNL A   1      43.856  35.907  31.561  1.00  0.00     0.023 A 
ATOM     90  C   UNL A   1      43.835  37.108  30.831  1.00  0.00     0.031 A 
ATOM     91  C   UNL A   1      43.976  35.990  32.960  1.00  0.00     0.131 A 
ATOM     92  C   UNL A   1      43.984  38.336  31.498  1.00  0.00     0.055 A 
ATOM     93  C   UNL A   1      44.056  37.217  33.624  1.00  0.00     0.041 A 
ATOM     94  F   UNL A   1      44.006  34.878  33.712  1.00  0.00    -0.206 F 
ATOM     95  C   UNL A   1      44.074  38.398  32.891  1.00  0.00     0.022 A 
BRANCH  92  96
ATOM     96  S   UNL A   1      44.162  39.851  30.514  1.00  0.00     0.124 S 
ATOM     97  O   UNL A   1      45.278  39.514  29.638  1.00  0.00    -0.237 OA
ATOM     98  O   UNL A   1      42.856  39.960  29.871  1.00  0.00    -0.237 OA
ATOM     99  O   UNL A   1      44.446  40.879  31.514  1.00  0.00    -0.744 OA
ENDBRANCH  92  96
ENDBRANCH  66  89
ENDBRANCH  40  41
ENDBRANCH  33  35
ENDBRANCH  32  33
ENDBRANCH  31  32
ENDBRANCH  30  31
ENDBRANCH  29  30
ENDBRANCH  28  29
ENDBRANCH   1  28
TORSDOF 25
ENDMDL
MODEL 3
REMARK VINA RESULT:      -9.1      6.706     12.146
REMARK SMILES CCOc1cc(N2CCOCC2)ccc1[C@H]([NH3+])C(=O)OCCOCCOCCOC(=O)c1ccc(-c2c3nc(c(-c4cc(S(=O)(=O)[O-])ccc4F)c4ccc([nH]4)c(-c4cc(S(=O)(=O)[O-])ccc4F)c4nc(c(-c5cc(S(=O)(=O)[O-])ccc5F)c5ccc2[nH]5)C=C4)C=C3)cc1
REMARK SMILES IDX 24 1 23 2 22 3 21 4 20 5 18 6 19 7 16 8 15 9 4 10 5 11 6 12
REMARK SMILES IDX 14 13 13 14 3 15 2 16 1 17 7 18 8 19 12 20 9 21 11 22 10 23
REMARK SMILES IDX 17 24 25 28 26 29 27 30 28 31 29 32 30 33 31 34 32 35 33 36
REMARK SMILES IDX 94 37 34 38 93 39 35 40 36 41 37 42 87 43 38 44 92 45 86 46
REMARK SMILES IDX 88 47 39 48 91 49 85 50 84 51 40 53 72 54 52 55 71 56 53 57
REMARK SMILES IDX 56 58 70 59 89 60 54 61 55 62 69 64 90 65 57 66 41 67 42 68
REMARK SMILES IDX 50 69 43 70 49 71 51 72 48 73 44 74 45 75 46 76 47 77 73 78
REMARK SMILES IDX 74 79 82 80 75 81 81 82 83 83 80 84 76 85 77 86 78 87 79 88
REMARK SMILES IDX 58 89 59 90 67 91 60 92 66 93 68 94 65 95 61 96 62 97 63 98
REMARK SMILES IDX 64 99
REMARK H PARENT 17 25 17 26 17 27 88 52 56 63
REMARK Flexibility Score: inf
ROOT
ATOM      1  C   UNL A   1      33.457  29.205  25.030  1.00  0.00     0.188 C 
ENDROOT
BRANCH   1   2
ATOM      2  O   UNL A   1      33.309  29.231  23.619  1.00  0.00    -0.376 OA
BRANCH   2   3
ATOM      3  C   UNL A   1      34.412  28.810  22.830  1.00  0.00     0.202 C 
BRANCH   3   4
ATOM      4  C   UNL A   1      34.148  27.890  21.629  1.00  0.00     0.261 C 
BRANCH   4   5
ATOM      5  O   UNL A   1      34.011  26.494  21.931  1.00  0.00    -0.459 OA
BRANCH   5   6
ATOM      6  C   UNL A   1      32.742  26.014  21.779  1.00  0.00     0.369 C 
ATOM      7  O   UNL A   1      32.249  25.715  20.692  1.00  0.00    -0.245 OA
BRANCH   6   8
ATOM      8  C   UNL A   1      31.926  25.945  23.088  1.00  0.00     0.326 C 
BRANCH   8   9
ATOM      9  C   UNL A   1      30.765  26.899  22.929  1.00  0.00     0.063 A 
ATOM     10  C   UNL A   1      29.600  26.877  23.709  1.00  0.00     0.131 A 
ATOM     11  C   UNL A   1      28.685  27.937  23.629  1.00  0.00     0.072 A 
ATOM     12  C   UNL A   1      28.910  29.022  22.759  1.00  0.00     0.040 A 
ATOM     13  C   UNL A   1      30.991  27.990  22.079  1.00  0.00     0.016 A 
ATOM     14  C   UNL A   1      30.081  29.031  21.999  1.00  0.00     0.027 A 
BRANCH  10  15
ATOM     15  O   UNL A   1      29.271  25.723  24.376  1.00  0.00    -0.493 OA
BRANCH  15  16
ATOM     16  C   UNL A   1      29.519  25.732  25.787  1.00  0.00     0.226 C 
ATOM     17  C   UNL A   1      30.283  24.455  26.132  1.00  0.00     0.049 C 
ENDBRANCH  15  16
ENDBRANCH  10  15
BRANCH  12  18
ATOM     18  N   UNL A   1      27.960  30.022  22.613  1.00  0.00    -0.367 N 
ATOM     19  C   UNL A   1      27.672  30.512  21.252  1.00  0.00     0.145 C 
ATOM     20  C   UNL A   1      27.826  31.022  23.679  1.00  0.00     0.145 C 
ATOM     21  C   UNL A   1      28.337  31.872  20.980  1.00  0.00     0.181 C 
ATOM     22  C   UNL A   1      28.499  32.349  23.280  1.00  0.00     0.181 C 
ATOM     23  O   UNL A   1      28.026  32.827  22.008  1.00  0.00    -0.378 OA
ENDBRANCH  12  18
ENDBRANCH   8   9
BRANCH   8  24
ATOM     24  N   UNL A   1      32.689  26.073  24.347  1.00  0.00    -0.342 N 
ATOM     25  H   UNL A   1      32.706  25.174  24.828  1.00  0.00     0.345 HD
ATOM     26  H   UNL A   1      32.245  26.770  24.945  1.00  0.00     0.345 HD
ATOM     27  H   UNL A   1      33.644  26.364  24.137  1.00  0.00     0.345 HD
ENDBRANCH   8  24
ENDBRANCH   6   8
ENDBRANCH   5   6
ENDBRANCH   4   5
ENDBRANCH   3   4
ENDBRANCH   2   3
ENDBRANCH   1   2
BRANCH   1  28
ATOM     28  C   UNL A   1      32.289  29.657  25.904  1.00  0.00     0.188 C 
BRANCH  28  29
ATOM     29  O   UNL A   1      32.492  30.740  26.800  1.00  0.00    -0.376 OA
BRANCH  29  30
ATOM     30  C   UNL A   1      31.399  31.666  26.869  1.00  0.00     0.202 C 
BRANCH  30  31
ATOM     31  C   UNL A   1      31.778  33.165  26.874  1.00  0.00     0.261 C 
BRANCH  31  32
ATOM     32  O   UNL A   1      33.149  33.493  27.205  1.00  0.00    -0.460 OA
BRANCH  32  33
ATOM     33  C   UNL A   1      33.387  34.230  28.323  1.00  0.00     0.338 C 
ATOM     34  O   UNL A   1      32.678  35.113  28.753  1.00  0.00    -0.246 OA
BRANCH  33  35
ATOM     35  C   UNL A   1      34.505  33.583  29.085  1.00  0.00     0.060 A 
ATOM     36  C   UNL A   1      35.823  33.956  28.778  1.00  0.00     0.016 A 
ATOM     37  C   UNL A   1      34.275  32.699  30.144  1.00  0.00     0.016 A 
ATOM     38  C   UNL A   1      36.903  33.412  29.485  1.00  0.00     0.010 A 
ATOM     39  C   UNL A   1      35.356  32.150  30.848  1.00  0.00     0.010 A 
ATOM     40  C   UNL A   1      36.682  32.471  30.499  1.00  0.00    -0.014 A 
BRANCH  40  41
ATOM     41  C   UNL A   1      37.809  31.648  31.026  1.00  0.00     0.031 A 
ATOM     42  C   UNL A   1      38.308  31.949  32.417  1.00  0.00     0.074 A 
ATOM     43  C   UNL A   1      38.382  30.654  30.320  1.00  0.00     0.049 A 
ATOM     44  N   UNL A   1      39.321  31.445  33.074  1.00  0.00    -0.248 NA
ATOM     45  C   UNL A   1      37.556  32.971  33.159  1.00  0.00     0.031 C 
ATOM     46  C   UNL A   1      37.978  30.217  28.986  1.00  0.00     0.029 A 
ATOM     47  N   UNL A   1      39.446  29.836  30.633  1.00  0.00    -0.354 N 
ATOM     48  C   UNL A   1      39.332  32.093  34.305  1.00  0.00     0.074 A 
ATOM     49  C   UNL A   1      38.257  33.062  34.276  1.00  0.00     0.031 C 
ATOM     50  C   UNL A   1      38.795  29.225  28.588  1.00  0.00     0.029 A 
ATOM     51  C   UNL A   1      39.806  28.980  29.617  1.00  0.00     0.049 A 
ATOM     52  H   UNL A   1      39.905  29.862  31.503  1.00  0.00     0.167 HD
ATOM     53  C   UNL A   1      40.148  31.891  35.371  1.00  0.00     0.034 A 
ATOM     54  C   UNL A   1      40.848  28.126  29.513  1.00  0.00     0.034 A 
ATOM     55  C   UNL A   1      41.234  30.943  35.384  1.00  0.00     0.049 A 
ATOM     56  C   UNL A   1      41.819  27.991  30.667  1.00  0.00     0.074 A 
ATOM     57  C   UNL A   1      42.122  30.663  36.409  1.00  0.00     0.029 A 
ATOM     58  N   UNL A   1      41.594  30.129  34.316  1.00  0.00    -0.354 N 
ATOM     59  N   UNL A   1      41.820  28.608  31.826  1.00  0.00    -0.248 NA
ATOM     60  C   UNL A   1      42.927  27.040  30.496  1.00  0.00     0.031 C 
ATOM     61  C   UNL A   1      43.067  29.746  35.934  1.00  0.00     0.029 A 
ATOM     62  C   UNL A   1      42.714  29.377  34.646  1.00  0.00     0.049 A 
ATOM     63  H   UNL A   1      41.125  30.092  33.452  1.00  0.00     0.167 HD
ATOM     64  C   UNL A   1      42.909  28.095  32.533  1.00  0.00     0.074 A 
ATOM     65  C   UNL A   1      43.533  27.111  31.673  1.00  0.00     0.031 C 
ATOM     66  C   UNL A   1      43.345  28.405  33.782  1.00  0.00     0.034 A 
BRANCH  53  67
ATOM     67  C   UNL A   1      39.920  32.766  36.582  1.00  0.00     0.023 A 
ATOM     68  C   UNL A   1      40.763  33.853  36.877  1.00  0.00     0.031 A 
ATOM     69  C   UNL A   1      38.888  32.473  37.491  1.00  0.00     0.131 A 
ATOM     70  C   UNL A   1      40.626  34.537  38.093  1.00  0.00     0.055 A 
ATOM     71  C   UNL A   1      38.694  33.222  38.653  1.00  0.00     0.041 A 
ATOM     72  F   UNL A   1      38.064  31.434  37.280  1.00  0.00    -0.206 F 
ATOM     73  C   UNL A   1      39.579  34.248  38.971  1.00  0.00     0.022 A 
BRANCH  70  74
ATOM     74  S   UNL A   1      41.946  35.674  38.599  1.00  0.00     0.124 S 
ATOM     75  O   UNL A   1      41.689  35.805  40.032  1.00  0.00    -0.237 OA
ATOM     76  O   UNL A   1      43.151  34.941  38.230  1.00  0.00    -0.237 OA
ATOM     77  O   UNL A   1      41.681  36.878  37.815  1.00  0.00    -0.744 OA
ENDBRANCH  70  74
ENDBRANCH  53  67
BRANCH  54  78
ATOM     78  C   UNL A   1      41.074  27.365  28.246  1.00  0.00     0.023 A 
ATOM     79  C   UNL A   1      40.819  25.986  28.156  1.00  0.00     0.031 A 
ATOM     80  C   UNL A   1      41.603  28.010  27.113  1.00  0.00     0.131 A 
ATOM     81  C   UNL A   1      41.122  25.293  26.972  1.00  0.00     0.055 A 
ATOM     82  C   UNL A   1      41.851  27.328  25.920  1.00  0.00     0.041 A 
ATOM     83  F   UNL A   1      41.880  29.323  27.146  1.00  0.00    -0.206 F 
ATOM     84  C   UNL A   1      41.620  25.958  25.848  1.00  0.00     0.022 A 
BRANCH  81  85
ATOM     85  S   UNL A   1      40.927  23.489  26.938  1.00  0.00     0.124 S 
ATOM     86  O   UNL A   1      41.518  23.103  28.214  1.00  0.00    -0.237 OA
ATOM     87  O   UNL A   1      39.479  23.341  26.830  1.00  0.00    -0.237 OA
ATOM     88  O   UNL A   1      41.681  23.086  25.753  1.00  0.00    -0.744 OA
ENDBRANCH  81  85
ENDBRANCH  54  78
BRANCH  66  89
ATOM     89  C   UNL A   1      44.529  27.633  34.323  1.00  0.00     0.023 A 
ATOM     90  C   UNL A   1      44.374  26.478  35.109  1.00  0.00     0.031 A 
ATOM     91  C   UNL A   1      45.839  28.063  34.040  1.00  0.00     0.131 A 
ATOM     92  C   UNL A   1      45.505  25.825  35.627  1.00  0.00     0.055 A 
ATOM     93  C   UNL A   1      46.961  27.371  34.502  1.00  0.00     0.041 A 
ATOM     94  F   UNL A   1      46.053  29.162  33.298  1.00  0.00    -0.206 F 
ATOM     95  C   UNL A   1      46.797  26.253  35.312  1.00  0.00     0.022 A 
BRANCH  92  96
ATOM     96  S   UNL A   1      45.269  24.465  36.806  1.00  0.00     0.124 S 
ATOM     97  O   UNL A   1      46.537  24.464  37.527  1.00  0.00    -0.237 OA
ATOM     98  O   UNL A   1      44.103  24.908  37.564  1.00  0.00    -0.237 OA
ATOM     99  O   UNL A   1      45.042  23.303  35.948  1.00  0.00    -0.744 OA
ENDBRANCH  92  96
ENDBRANCH  66  89
ENDBRANCH  40  41
ENDBRANCH  33  35
ENDBRANCH  32  33
ENDBRANCH  31  32
ENDBRANCH  30  31
ENDBRANCH  29  30
ENDBRANCH  28  29
ENDBRANCH   1  28
TORSDOF 25
ENDMDL
