MODEL 1
REMARK VINA RESULT:      -9.3      0.000      0.000
REMARK SMILES Cc1cc(C(=O)N[C@H](CC(C)C)C(=O)OCCOCCOCCOC(=O)c2ccc(-c3c4nc(c(-c5cc(S(=O)(=O)[O-])ccc5F)c5ccc([nH]5)c(-c5cc(S(=O)(=O)[O-])ccc5F)c5nc(c(-c6cc(S(=O)(=O)[O-])ccc6F)c6ccc3[nH]6)C=C5)C=C4)cc2)sc1Br
REMARK SMILES IDX 20 1 19 2 18 3 17 4 16 5 15 6 13 7 14 8 8 9 7 10 5 11 6 12
REMARK SMILES IDX 4 14 1 15 2 16 3 17 91 18 90 19 92 20 9 21 10 22 11 23 12 24
REMARK SMILES IDX 21 25 22 26 23 27 24 28 25 29 26 30 27 31 28 32 89 33 29 34
REMARK SMILES IDX 88 35 30 36 31 37 32 38 82 39 33 40 87 41 81 42 83 43 34 44
REMARK SMILES IDX 86 45 80 46 79 47 35 49 67 50 47 51 66 52 48 53 51 54 65 55
REMARK SMILES IDX 84 56 49 57 50 58 64 60 85 61 52 62 36 63 37 64 45 65 38 66
REMARK SMILES IDX 44 67 46 68 43 69 39 70 40 71 41 72 42 73 68 74 69 75 77 76
REMARK SMILES IDX 70 77 76 78 78 79 75 80 71 81 72 82 73 83 74 84 53 85 54 86
REMARK SMILES IDX 62 87 55 88 61 89 63 90 60 91 56 92 57 93 58 94 59 95
REMARK H PARENT 7 13 83 48 51 59
REMARK Flexibility Score: inf
ROOT
ATOM      1  C   UNL A   1      39.397  20.391  26.091  1.00  0.00     0.188 C 
ENDROOT
BRANCH   1   2
ATOM      2  C   UNL A   1      38.536  19.443  25.247  1.00  0.00     0.188 C 
BRANCH   2   3
ATOM      3  O   UNL A   1      37.424  19.942  24.535  1.00  0.00    -0.376 OA
BRANCH   3   4
ATOM      4  C   UNL A   1      36.545  20.840  25.193  1.00  0.00     0.202 C 
BRANCH   4   5
ATOM      5  C   UNL A   1      35.067  20.940  24.761  1.00  0.00     0.261 C 
BRANCH   5   6
ATOM      6  O   UNL A   1      34.227  21.692  25.663  1.00  0.00    -0.462 OA
BRANCH   6   7
ATOM      7  C   UNL A   1      33.803  22.904  25.219  1.00  0.00     0.328 C 
ATOM      8  O   UNL A   1      34.419  23.947  25.427  1.00  0.00    -0.250 OA
BRANCH   7   9
ATOM      9  C   UNL A   1      32.604  22.836  24.229  1.00  0.00     0.192 C 
BRANCH   9  10
ATOM     10  N   UNL A   1      33.133  23.151  22.913  1.00  0.00    -0.338 N 
ATOM     11  C   UNL A   1      32.997  24.238  22.087  1.00  0.00     0.262 C 
ATOM     12  O   UNL A   1      33.389  24.024  20.932  1.00  0.00    -0.268 OA
ATOM     13  H   UNL A   1      33.703  22.441  22.537  1.00  0.00     0.164 HD
BRANCH  11  14
ATOM     14  C   UNL A   1      32.445  25.525  22.510  1.00  0.00     0.093 A 
ATOM     15  C   UNL A   1      29.965  28.374  22.854  1.00  0.00     0.046 C 
ATOM     16  C   UNL A   1      31.152  27.471  22.955  1.00  0.00    -0.025 A 
ATOM     17  C   UNL A   1      31.242  26.183  22.308  1.00  0.00     0.030 A 
ATOM     18  C   UNL A   1      32.300  27.711  23.671  1.00  0.00     0.074 A 
ATOM     19  S   UNL A   1      33.451  26.483  23.543  1.00  0.00    -0.123 S 
ATOM     20  Br  UNL A   1      32.602  29.241  24.718  1.00  0.00    -0.039 Br
ENDBRANCH  11  14
ENDBRANCH   9  10
BRANCH   9  21
ATOM     21  C   UNL A   1      31.284  23.571  24.550  1.00  0.00     0.040 C 
BRANCH  21  22
ATOM     22  C   UNL A   1      30.954  24.122  25.953  1.00  0.00    -0.015 C 
ATOM     23  C   UNL A   1      29.925  25.257  25.970  1.00  0.00     0.007 C 
ATOM     24  C   UNL A   1      30.362  22.969  26.793  1.00  0.00     0.007 C 
ENDBRANCH  21  22
ENDBRANCH   9  21
ENDBRANCH   7   9
ENDBRANCH   6   7
ENDBRANCH   5   6
ENDBRANCH   4   5
ENDBRANCH   3   4
ENDBRANCH   2   3
ENDBRANCH   1   2
BRANCH   1  25
ATOM     25  O   UNL A   1      40.591  19.974  26.719  1.00  0.00    -0.376 OA
BRANCH  25  26
ATOM     26  C   UNL A   1      41.910  20.443  26.505  1.00  0.00     0.202 C 
BRANCH  26  27
ATOM     27  C   UNL A   1      43.058  19.623  25.923  1.00  0.00     0.261 C 
BRANCH  27  28
ATOM     28  O   UNL A   1      43.478  20.022  24.647  1.00  0.00    -0.460 OA
BRANCH  28  29
ATOM     29  C   UNL A   1      44.815  20.207  24.559  1.00  0.00     0.338 C 
ATOM     30  O   UNL A   1      45.666  19.362  24.358  1.00  0.00    -0.246 OA
BRANCH  29  31
ATOM     31  C   UNL A   1      45.054  21.644  24.715  1.00  0.00     0.060 A 
ATOM     32  C   UNL A   1      46.169  22.019  25.461  1.00  0.00     0.016 A 
ATOM     33  C   UNL A   1      44.062  22.556  24.321  1.00  0.00     0.016 A 
ATOM     34  C   UNL A   1      46.150  23.258  26.049  1.00  0.00     0.010 A 
ATOM     35  C   UNL A   1      44.029  23.780  24.928  1.00  0.00     0.010 A 
ATOM     36  C   UNL A   1      45.020  24.060  25.862  1.00  0.00    -0.014 A 
BRANCH  36  37
ATOM     37  C   UNL A   1      44.884  25.229  26.689  1.00  0.00     0.031 A 
ATOM     38  C   UNL A   1      45.982  26.186  26.511  1.00  0.00     0.074 A 
ATOM     39  C   UNL A   1      43.808  25.415  27.474  1.00  0.00     0.049 A 
ATOM     40  N   UNL A   1      46.952  26.419  27.327  1.00  0.00    -0.248 NA
ATOM     41  C   UNL A   1      46.146  26.795  25.183  1.00  0.00     0.031 C 
ATOM     42  C   UNL A   1      42.561  24.646  27.491  1.00  0.00     0.029 A 
ATOM     43  N   UNL A   1      43.565  26.419  28.352  1.00  0.00    -0.354 N 
ATOM     44  C   UNL A   1      47.694  27.420  26.722  1.00  0.00     0.074 A 
ATOM     45  C   UNL A   1      47.319  27.408  25.335  1.00  0.00     0.031 C 
ATOM     46  C   UNL A   1      41.620  25.348  28.163  1.00  0.00     0.029 A 
ATOM     47  C   UNL A   1      42.231  26.546  28.719  1.00  0.00     0.049 A 
ATOM     48  H   UNL A   1      44.273  27.008  28.701  1.00  0.00     0.167 HD
ATOM     49  C   UNL A   1      48.310  28.370  27.473  1.00  0.00     0.034 A 
ATOM     50  C   UNL A   1      41.667  27.611  29.346  1.00  0.00     0.034 A 
ATOM     51  C   UNL A   1      48.447  27.932  28.848  1.00  0.00     0.049 A 
ATOM     52  C   UNL A   1      42.767  28.350  30.023  1.00  0.00     0.074 A 
ATOM     53  C   UNL A   1      49.012  26.821  29.450  1.00  0.00     0.029 A 
ATOM     54  N   UNL A   1      47.611  28.480  29.799  1.00  0.00    -0.354 N 
ATOM     55  N   UNL A   1      43.452  27.862  31.023  1.00  0.00    -0.248 NA
ATOM     56  C   UNL A   1      43.437  29.415  29.287  1.00  0.00     0.031 C 
ATOM     57  C   UNL A   1      48.130  26.486  30.518  1.00  0.00     0.029 A 
ATOM     58  C   UNL A   1      47.123  27.452  30.571  1.00  0.00     0.049 A 
ATOM     59  H   UNL A   1      47.402  29.436  29.906  1.00  0.00     0.167 HD
ATOM     60  C   UNL A   1      44.767  28.226  30.773  1.00  0.00     0.074 A 
ATOM     61  C   UNL A   1      44.682  29.268  29.753  1.00  0.00     0.031 C 
ATOM     62  C   UNL A   1      45.811  27.451  31.198  1.00  0.00     0.034 A 
BRANCH  49  63
ATOM     63  C   UNL A   1      48.419  29.821  27.060  1.00  0.00     0.023 A 
ATOM     64  C   UNL A   1      49.700  30.394  27.115  1.00  0.00     0.031 A 
ATOM     65  C   UNL A   1      47.346  30.731  26.898  1.00  0.00     0.131 A 
ATOM     66  C   UNL A   1      49.864  31.788  27.132  1.00  0.00     0.055 A 
ATOM     67  C   UNL A   1      47.522  32.115  26.839  1.00  0.00     0.041 A 
ATOM     68  F   UNL A   1      46.062  30.360  26.878  1.00  0.00    -0.206 F 
ATOM     69  C   UNL A   1      48.784  32.655  26.994  1.00  0.00     0.022 A 
BRANCH  66  70
ATOM     70  S   UNL A   1      51.500  32.442  27.535  1.00  0.00     0.124 S 
ATOM     71  O   UNL A   1      51.313  33.866  27.276  1.00  0.00    -0.237 OA
ATOM     72  O   UNL A   1      51.638  32.052  28.935  1.00  0.00    -0.237 OA
ATOM     73  O   UNL A   1      52.381  31.745  26.602  1.00  0.00    -0.744 OA
ENDBRANCH  66  70
ENDBRANCH  49  63
BRANCH  50  74
ATOM     74  C   UNL A   1      40.316  28.183  29.095  1.00  0.00     0.023 A 
ATOM     75  C   UNL A   1      39.462  28.598  30.138  1.00  0.00     0.031 A 
ATOM     76  C   UNL A   1      39.934  28.550  27.784  1.00  0.00     0.131 A 
ATOM     77  C   UNL A   1      38.292  29.340  29.850  1.00  0.00     0.055 A 
ATOM     78  C   UNL A   1      38.773  29.272  27.503  1.00  0.00     0.041 A 
ATOM     79  F   UNL A   1      40.724  28.297  26.729  1.00  0.00    -0.206 F 
ATOM     80  C   UNL A   1      37.949  29.679  28.539  1.00  0.00     0.022 A 
BRANCH  77  81
ATOM     81  S   UNL A   1      37.243  29.971  31.198  1.00  0.00     0.124 S 
ATOM     82  O   UNL A   1      36.055  30.420  30.482  1.00  0.00    -0.237 OA
ATOM     83  O   UNL A   1      37.085  28.797  32.049  1.00  0.00    -0.237 OA
ATOM     84  O   UNL A   1      38.049  31.043  31.784  1.00  0.00    -0.744 OA
ENDBRANCH  77  81
ENDBRANCH  50  74
BRANCH  62  85
ATOM     85  C   UNL A   1      45.543  26.375  32.236  1.00  0.00     0.023 A 
ATOM     86  C   UNL A   1      45.581  26.566  33.636  1.00  0.00     0.031 A 
ATOM     87  C   UNL A   1      45.127  25.116  31.766  1.00  0.00     0.131 A 
ATOM     88  C   UNL A   1      45.228  25.511  34.504  1.00  0.00     0.055 A 
ATOM     89  C   UNL A   1      44.756  24.083  32.626  1.00  0.00     0.041 A 
ATOM     90  F   UNL A   1      45.043  24.875  30.446  1.00  0.00    -0.206 F 
ATOM     91  C   UNL A   1      44.814  24.275  34.000  1.00  0.00     0.022 A 
BRANCH  88  92
ATOM     92  S   UNL A   1      45.329  25.716  36.312  1.00  0.00     0.124 S 
ATOM     93  O   UNL A   1      46.252  26.830  36.483  1.00  0.00    -0.237 OA
ATOM     94  O   UNL A   1      43.938  25.975  36.675  1.00  0.00    -0.237 OA
ATOM     95  O   UNL A   1      45.843  24.423  36.769  1.00  0.00    -0.744 OA
ENDBRANCH  88  92
ENDBRANCH  62  85
ENDBRANCH  36  37
ENDBRANCH  29  31
ENDBRANCH  28  29
ENDBRANCH  27  28
ENDBRANCH  26  27
ENDBRANCH  25  26
ENDBRANCH   1  25
TORSDOF 24
ENDMDL
MODEL 2
REMARK VINA RESULT:      -8.9      8.682     15.433
REMARK SMILES Cc1cc(C(=O)N[C@H](CC(C)C)C(=O)OCCOCCOCCOC(=O)c2ccc(-c3c4nc(c(-c5cc(S(=O)(=O)[O-])ccc5F)c5ccc([nH]5)c(-c5cc(S(=O)(=O)[O-])ccc5F)c5nc(c(-c6cc(S(=O)(=O)[O-])ccc6F)c6ccc3[nH]6)C=C5)C=C4)cc2)sc1Br
REMARK SMILES IDX 20 1 19 2 18 3 17 4 16 5 15 6 13 7 14 8 8 9 7 10 5 11 6 12
REMARK SMILES IDX 4 14 1 15 2 16 3 17 91 18 90 19 92 20 9 21 10 22 11 23 12 24
REMARK SMILES IDX 21 25 22 26 23 27 24 28 25 29 26 30 27 31 28 32 89 33 29 34
REMARK SMILES IDX 88 35 30 36 31 37 32 38 82 39 33 40 87 41 81 42 83 43 34 44
REMARK SMILES IDX 86 45 80 46 79 47 35 49 67 50 47 51 66 52 48 53 51 54 65 55
REMARK SMILES IDX 84 56 49 57 50 58 64 60 85 61 52 62 36 63 37 64 45 65 38 66
REMARK SMILES IDX 44 67 46 68 43 69 39 70 40 71 41 72 42 73 68 74 69 75 77 76
REMARK SMILES IDX 70 77 76 78 78 79 75 80 71 81 72 82 73 83 74 84 53 85 54 86
REMARK SMILES IDX 62 87 55 88 61 89 63 90 60 91 56 92 57 93 58 94 59 95
REMARK H PARENT 7 13 83 48 51 59
REMARK Flexibility Score: inf
ROOT
ATOM      1  C   UNL A   1      46.167  21.038  37.005  1.00  0.00     0.188 C 
ENDROOT
BRANCH   1   2
ATOM      2  C   UNL A   1      46.463  19.539  37.146  1.00  0.00     0.188 C 
BRANCH   2   3
ATOM      3  O   UNL A   1      47.217  19.068  38.242  1.00  0.00    -0.376 OA
BRANCH   3   4
ATOM      4  C   UNL A   1      46.566  18.276  39.223  1.00  0.00     0.202 C 
BRANCH   4   5
ATOM      5  C   UNL A   1      45.325  17.438  38.850  1.00  0.00     0.261 C 
BRANCH   5   6
ATOM      6  O   UNL A   1      45.007  16.386  39.788  1.00  0.00    -0.462 OA
BRANCH   6   7
ATOM      7  C   UNL A   1      43.865  16.545  40.504  1.00  0.00     0.328 C 
ATOM      8  O   UNL A   1      42.827  16.993  40.020  1.00  0.00    -0.250 OA
BRANCH   7   9
ATOM      9  C   UNL A   1      43.904  15.898  41.919  1.00  0.00     0.192 C 
BRANCH   9  10
ATOM     10  N   UNL A   1      42.537  15.890  42.412  1.00  0.00    -0.338 N 
ATOM     11  C   UNL A   1      41.830  15.013  43.195  1.00  0.00     0.262 C 
ATOM     12  O   UNL A   1      40.610  15.222  43.181  1.00  0.00    -0.268 OA
ATOM     13  H   UNL A   1      42.011  16.673  42.125  1.00  0.00     0.164 HD
BRANCH  11  14
ATOM     14  C   UNL A   1      42.441  13.933  43.971  1.00  0.00     0.093 A 
ATOM     15  C   UNL A   1      43.771  10.479  44.796  1.00  0.00     0.046 C 
ATOM     16  C   UNL A   1      43.375  11.920  44.825  1.00  0.00    -0.025 A 
ATOM     17  C   UNL A   1      42.752  12.606  43.718  1.00  0.00     0.030 A 
ATOM     18  C   UNL A   1      43.552  12.793  45.871  1.00  0.00     0.074 A 
ATOM     19  S   UNL A   1      42.963  14.345  45.570  1.00  0.00    -0.123 S 
ATOM     20  Br  UNL A   1      44.376  12.350  47.501  1.00  0.00    -0.039 Br
ENDBRANCH  11  14
ENDBRANCH   9  10
BRANCH   9  21
ATOM     21  C   UNL A   1      44.930  16.378  42.969  1.00  0.00     0.040 C 
BRANCH  21  22
ATOM     22  C   UNL A   1      46.408  15.937  42.956  1.00  0.00    -0.015 C 
ATOM     23  C   UNL A   1      47.418  17.082  42.833  1.00  0.00     0.007 C 
ATOM     24  C   UNL A   1      46.705  15.220  44.291  1.00  0.00     0.007 C 
ENDBRANCH  21  22
ENDBRANCH   9  21
ENDBRANCH   7   9
ENDBRANCH   6   7
ENDBRANCH   5   6
ENDBRANCH   4   5
ENDBRANCH   3   4
ENDBRANCH   2   3
ENDBRANCH   1   2
BRANCH   1  25
ATOM     25  O   UNL A   1      45.327  21.551  35.994  1.00  0.00    -0.376 OA
BRANCH  25  26
ATOM     26  C   UNL A   1      44.836  22.872  35.840  1.00  0.00     0.202 C 
BRANCH  26  27
ATOM     27  C   UNL A   1      43.556  23.260  35.107  1.00  0.00     0.261 C 
BRANCH  27  28
ATOM     28  O   UNL A   1      42.560  23.822  35.917  1.00  0.00    -0.460 OA
BRANCH  28  29
ATOM     29  C   UNL A   1      42.907  25.022  36.436  1.00  0.00     0.338 C 
ATOM     30  O   UNL A   1      43.317  25.251  37.558  1.00  0.00    -0.246 OA
BRANCH  29  31
ATOM     31  C   UNL A   1      42.732  26.011  35.369  1.00  0.00     0.060 A 
ATOM     32  C   UNL A   1      43.861  26.731  34.987  1.00  0.00     0.016 A 
ATOM     33  C   UNL A   1      41.436  26.349  34.948  1.00  0.00     0.016 A 
ATOM     34  C   UNL A   1      43.662  27.957  34.404  1.00  0.00     0.010 A 
ATOM     35  C   UNL A   1      41.236  27.581  34.392  1.00  0.00     0.010 A 
ATOM     36  C   UNL A   1      42.347  28.402  34.233  1.00  0.00    -0.014 A 
BRANCH  36  37
ATOM     37  C   UNL A   1      42.147  29.781  33.879  1.00  0.00     0.031 A 
ATOM     38  C   UNL A   1      41.917  30.643  35.045  1.00  0.00     0.074 A 
ATOM     39  C   UNL A   1      42.244  30.203  32.606  1.00  0.00     0.049 A 
ATOM     40  N   UNL A   1      40.800  31.167  35.417  1.00  0.00    -0.248 NA
ATOM     41  C   UNL A   1      43.000  30.756  36.033  1.00  0.00     0.031 C 
ATOM     42  C   UNL A   1      42.739  29.459  31.445  1.00  0.00     0.029 A 
ATOM     43  N   UNL A   1      42.020  31.444  32.107  1.00  0.00    -0.354 N 
ATOM     44  C   UNL A   1      41.114  31.913  36.542  1.00  0.00     0.074 A 
ATOM     45  C   UNL A   1      42.376  31.412  37.011  1.00  0.00     0.031 C 
ATOM     46  C   UNL A   1      42.992  30.328  30.441  1.00  0.00     0.029 A 
ATOM     47  C   UNL A   1      42.566  31.658  30.848  1.00  0.00     0.049 A 
ATOM     48  H   UNL A   1      41.514  32.134  32.594  1.00  0.00     0.167 HD
ATOM     49  C   UNL A   1      40.465  33.080  36.797  1.00  0.00     0.034 A 
ATOM     50  C   UNL A   1      42.738  32.861  30.240  1.00  0.00     0.034 A 
ATOM     51  C   UNL A   1      39.219  33.149  36.058  1.00  0.00     0.049 A 
ATOM     52  C   UNL A   1      41.798  33.815  30.889  1.00  0.00     0.074 A 
ATOM     53  C   UNL A   1      38.107  32.330  35.972  1.00  0.00     0.029 A 
ATOM     54  N   UNL A   1      39.155  33.973  34.953  1.00  0.00    -0.354 N 
ATOM     55  N   UNL A   1      40.499  33.721  30.793  1.00  0.00    -0.248 NA
ATOM     56  C   UNL A   1      42.271  34.574  32.040  1.00  0.00     0.031 C 
ATOM     57  C   UNL A   1      37.723  32.366  34.600  1.00  0.00     0.029 A 
ATOM     58  C   UNL A   1      38.560  33.266  33.936  1.00  0.00     0.049 A 
ATOM     59  H   UNL A   1      39.479  34.902  34.903  1.00  0.00     0.167 HD
ATOM     60  C   UNL A   1      40.020  34.006  32.063  1.00  0.00     0.074 A 
ATOM     61  C   UNL A   1      41.145  34.627  32.759  1.00  0.00     0.031 C 
ATOM     62  C   UNL A   1      38.858  33.452  32.526  1.00  0.00     0.034 A 
BRANCH  49  63
ATOM     63  C   UNL A   1      41.138  34.298  37.387  1.00  0.00     0.023 A 
ATOM     64  C   UNL A   1      40.486  34.914  38.467  1.00  0.00     0.031 A 
ATOM     65  C   UNL A   1      42.189  35.044  36.798  1.00  0.00     0.131 A 
ATOM     66  C   UNL A   1      40.794  36.233  38.837  1.00  0.00     0.055 A 
ATOM     67  C   UNL A   1      42.542  36.328  37.221  1.00  0.00     0.041 A 
ATOM     68  F   UNL A   1      42.878  34.630  35.731  1.00  0.00    -0.206 F 
ATOM     69  C   UNL A   1      41.819  36.946  38.222  1.00  0.00     0.022 A 
BRANCH  66  70
ATOM     70  S   UNL A   1      39.695  37.062  40.008  1.00  0.00     0.124 S 
ATOM     71  O   UNL A   1      39.140  35.926  40.736  1.00  0.00    -0.237 OA
ATOM     72  O   UNL A   1      40.631  37.907  40.744  1.00  0.00    -0.237 OA
ATOM     73  O   UNL A   1      38.757  37.773  39.144  1.00  0.00    -0.744 OA
ENDBRANCH  66  70
ENDBRANCH  49  63
BRANCH  50  74
ATOM     74  C   UNL A   1      43.890  33.278  29.395  1.00  0.00     0.023 A 
ATOM     75  C   UNL A   1      43.839  33.271  27.985  1.00  0.00     0.031 A 
ATOM     76  C   UNL A   1      45.003  33.924  29.982  1.00  0.00     0.131 A 
ATOM     77  C   UNL A   1      44.866  33.887  27.231  1.00  0.00     0.055 A 
ATOM     78  C   UNL A   1      46.020  34.519  29.233  1.00  0.00     0.041 A 
ATOM     79  F   UNL A   1      45.100  34.078  31.312  1.00  0.00    -0.206 F 
ATOM     80  C   UNL A   1      45.951  34.511  27.851  1.00  0.00     0.022 A 
BRANCH  77  81
ATOM     81  S   UNL A   1      44.752  33.976  25.415  1.00  0.00     0.124 S 
ATOM     82  O   UNL A   1      44.780  32.569  25.034  1.00  0.00    -0.237 OA
ATOM     83  O   UNL A   1      43.490  34.680  25.214  1.00  0.00    -0.237 OA
ATOM     84  O   UNL A   1      45.942  34.739  25.036  1.00  0.00    -0.744 OA
ENDBRANCH  77  81
ENDBRANCH  50  74
BRANCH  62  85
ATOM     85  C   UNL A   1      37.918  32.798  31.528  1.00  0.00     0.023 A 
ATOM     86  C   UNL A   1      36.952  33.478  30.752  1.00  0.00     0.031 A 
ATOM     87  C   UNL A   1      38.090  31.422  31.288  1.00  0.00     0.131 A 
ATOM     88  C   UNL A   1      36.193  32.774  29.793  1.00  0.00     0.055 A 
ATOM     89  C   UNL A   1      37.355  30.735  30.322  1.00  0.00     0.041 A 
ATOM     90  F   UNL A   1      39.010  30.720  31.972  1.00  0.00    -0.206 F 
ATOM     91  C   UNL A   1      36.396  31.408  29.577  1.00  0.00     0.022 A 
BRANCH  88  92
ATOM     92  S   UNL A   1      34.900  33.618  28.824  1.00  0.00     0.124 S 
ATOM     93  O   UNL A   1      35.126  33.147  27.463  1.00  0.00    -0.237 OA
ATOM     94  O   UNL A   1      33.674  33.153  29.467  1.00  0.00    -0.237 OA
ATOM     95  O   UNL A   1      35.193  35.038  29.034  1.00  0.00    -0.744 OA
ENDBRANCH  88  92
ENDBRANCH  62  85
ENDBRANCH  36  37
ENDBRANCH  29  31
ENDBRANCH  28  29
ENDBRANCH  27  28
ENDBRANCH  26  27
ENDBRANCH  25  26
ENDBRANCH   1  25
TORSDOF 24
ENDMDL
MODEL 3
REMARK VINA RESULT:      -8.9      8.326     14.573
REMARK SMILES Cc1cc(C(=O)N[C@H](CC(C)C)C(=O)OCCOCCOCCOC(=O)c2ccc(-c3c4nc(c(-c5cc(S(=O)(=O)[O-])ccc5F)c5ccc([nH]5)c(-c5cc(S(=O)(=O)[O-])ccc5F)c5nc(c(-c6cc(S(=O)(=O)[O-])ccc6F)c6ccc3[nH]6)C=C5)C=C4)cc2)sc1Br
REMARK SMILES IDX 20 1 19 2 18 3 17 4 16 5 15 6 13 7 14 8 8 9 7 10 5 11 6 12
REMARK SMILES IDX 4 14 1 15 2 16 3 17 91 18 90 19 92 20 9 21 10 22 11 23 12 24
REMARK SMILES IDX 21 25 22 26 23 27 24 28 25 29 26 30 27 31 28 32 89 33 29 34
REMARK SMILES IDX 88 35 30 36 31 37 32 38 82 39 33 40 87 41 81 42 83 43 34 44
REMARK SMILES IDX 86 45 80 46 79 47 35 49 67 50 47 51 66 52 48 53 51 54 65 55
REMARK SMILES IDX 84 56 49 57 50 58 64 60 85 61 52 62 36 63 37 64 45 65 38 66
REMARK SMILES IDX 44 67 46 68 43 69 39 70 40 71 41 72 42 73 68 74 69 75 77 76
REMARK SMILES IDX 70 77 76 78 78 79 75 80 71 81 72 82 73 83 74 84 53 85 54 86
REMARK SMILES IDX 62 87 55 88 61 89 63 90 60 91 56 92 57 93 58 94 59 95
REMARK H PARENT 7 13 83 48 51 59
REMARK Flexibility Score: inf
ROOT
ATOM      1  C   UNL A   1      46.311  41.197  25.322  1.00  0.00     0.188 C 
ENDROOT
BRANCH   1   2
ATOM      2  C   UNL A   1      45.130  41.562  26.231  1.00  0.00     0.188 C 
BRANCH   2   3
ATOM      3  O   UNL A   1      43.976  42.163  25.684  1.00  0.00    -0.376 OA
BRANCH   3   4
ATOM      4  C   UNL A   1      42.901  41.329  25.283  1.00  0.00     0.202 C 
BRANCH   4   5
ATOM      5  C   UNL A   1      41.908  41.803  24.202  1.00  0.00     0.261 C 
BRANCH   5   6
ATOM      6  O   UNL A   1      42.511  42.103  22.924  1.00  0.00    -0.462 OA
BRANCH   6   7
ATOM      7  C   UNL A   1      42.725  43.417  22.655  1.00  0.00     0.328 C 
ATOM      8  O   UNL A   1      42.301  44.325  23.368  1.00  0.00    -0.250 OA
BRANCH   7   9
ATOM      9  C   UNL A   1      43.744  43.676  21.507  1.00  0.00     0.192 C 
BRANCH   9  10
ATOM     10  N   UNL A   1      43.260  42.948  20.347  1.00  0.00    -0.338 N 
ATOM     11  C   UNL A   1      42.872  43.341  19.092  1.00  0.00     0.262 C 
ATOM     12  O   UNL A   1      42.273  42.456  18.467  1.00  0.00    -0.268 OA
ATOM     13  H   UNL A   1      43.196  41.975  20.492  1.00  0.00     0.164 HD
BRANCH  11  14
ATOM     14  C   UNL A   1      43.130  44.668  18.533  1.00  0.00     0.093 A 
ATOM     15  C   UNL A   1      45.074  47.744  17.463  1.00  0.00     0.046 C 
ATOM     16  C   UNL A   1      44.013  46.725  17.730  1.00  0.00    -0.025 A 
ATOM     17  C   UNL A   1      44.263  45.448  18.354  1.00  0.00     0.030 A 
ATOM     18  C   UNL A   1      42.680  46.836  17.417  1.00  0.00     0.074 A 
ATOM     19  S   UNL A   1      41.758  45.502  17.885  1.00  0.00    -0.123 S 
ATOM     20  Br  UNL A   1      41.909  48.309  16.540  1.00  0.00    -0.039 Br
ENDBRANCH  11  14
ENDBRANCH   9  10
BRANCH   9  21
ATOM     21  C   UNL A   1      45.259  43.496  21.754  1.00  0.00     0.040 C 
BRANCH  21  22
ATOM     22  C   UNL A   1      46.225  44.687  21.925  1.00  0.00    -0.015 C 
ATOM     23  C   UNL A   1      45.575  46.066  21.783  1.00  0.00     0.007 C 
ATOM     24  C   UNL A   1      46.822  44.618  23.347  1.00  0.00     0.007 C 
ENDBRANCH  21  22
ENDBRANCH   9  21
ENDBRANCH   7   9
ENDBRANCH   6   7
ENDBRANCH   5   6
ENDBRANCH   4   5
ENDBRANCH   3   4
ENDBRANCH   2   3
ENDBRANCH   1   2
BRANCH   1  25
ATOM     25  O   UNL A   1      46.469  39.909  24.767  1.00  0.00    -0.376 OA
BRANCH  25  26
ATOM     26  C   UNL A   1      46.972  38.737  25.384  1.00  0.00     0.202 C 
BRANCH  26  27
ATOM     27  C   UNL A   1      46.200  37.846  26.353  1.00  0.00     0.261 C 
BRANCH  27  28
ATOM     28  O   UNL A   1      46.873  36.681  26.744  1.00  0.00    -0.460 OA
BRANCH  28  29
ATOM     29  C   UNL A   1      46.337  35.554  26.224  1.00  0.00     0.338 C 
ATOM     30  O   UNL A   1      46.712  34.943  25.242  1.00  0.00    -0.246 OA
BRANCH  29  31
ATOM     31  C   UNL A   1      45.222  35.174  27.096  1.00  0.00     0.060 A 
ATOM     32  C   UNL A   1      45.496  35.072  28.458  1.00  0.00     0.016 A 
ATOM     33  C   UNL A   1      44.023  34.718  26.526  1.00  0.00     0.016 A 
ATOM     34  C   UNL A   1      44.682  34.261  29.208  1.00  0.00     0.010 A 
ATOM     35  C   UNL A   1      43.228  33.889  27.266  1.00  0.00     0.010 A 
ATOM     36  C   UNL A   1      43.638  33.594  28.561  1.00  0.00    -0.014 A 
BRANCH  36  37
ATOM     37  C   UNL A   1      42.964  32.547  29.282  1.00  0.00     0.031 A 
ATOM     38  C   UNL A   1      43.457  31.208  28.939  1.00  0.00     0.074 A 
ATOM     39  C   UNL A   1      42.035  32.820  30.215  1.00  0.00     0.049 A 
ATOM     40  N   UNL A   1      42.862  30.318  28.222  1.00  0.00    -0.248 NA
ATOM     41  C   UNL A   1      44.863  30.902  29.242  1.00  0.00     0.031 C 
ATOM     42  C   UNL A   1      41.698  34.121  30.798  1.00  0.00     0.029 A 
ATOM     43  N   UNL A   1      41.271  31.954  30.926  1.00  0.00    -0.354 N 
ATOM     44  C   UNL A   1      43.716  29.228  28.225  1.00  0.00     0.074 A 
ATOM     45  C   UNL A   1      45.002  29.732  28.620  1.00  0.00     0.031 C 
ATOM     46  C   UNL A   1      40.973  33.925  31.922  1.00  0.00     0.029 A 
ATOM     47  C   UNL A   1      40.698  32.504  32.066  1.00  0.00     0.049 A 
ATOM     48  H   UNL A   1      41.133  31.017  30.658  1.00  0.00     0.167 HD
ATOM     49  C   UNL A   1      43.218  27.963  28.211  1.00  0.00     0.034 A 
ATOM     50  C   UNL A   1      40.130  31.817  33.092  1.00  0.00     0.034 A 
ATOM     51  C   UNL A   1      41.842  27.956  27.755  1.00  0.00     0.049 A 
ATOM     52  C   UNL A   1      39.760  30.475  32.565  1.00  0.00     0.074 A 
ATOM     53  C   UNL A   1      41.205  28.422  26.618  1.00  0.00     0.029 A 
ATOM     54  N   UNL A   1      40.842  27.770  28.687  1.00  0.00    -0.354 N 
ATOM     55  N   UNL A   1      38.839  30.288  31.659  1.00  0.00    -0.248 NA
ATOM     56  C   UNL A   1      40.738  29.399  32.674  1.00  0.00     0.031 C 
ATOM     57  C   UNL A   1      39.964  28.952  27.077  1.00  0.00     0.029 A 
ATOM     58  C   UNL A   1      39.866  28.709  28.449  1.00  0.00     0.049 A 
ATOM     59  H   UNL A   1      40.830  27.086  29.395  1.00  0.00     0.167 HD
ATOM     60  C   UNL A   1      39.361  29.326  30.805  1.00  0.00     0.074 A 
ATOM     61  C   UNL A   1      40.482  28.741  31.538  1.00  0.00     0.031 C 
ATOM     62  C   UNL A   1      39.025  29.295  29.479  1.00  0.00     0.034 A 
BRANCH  49  63
ATOM     63  C   UNL A   1      43.835  26.814  28.976  1.00  0.00     0.023 A 
ATOM     64  C   UNL A   1      43.660  26.820  30.369  1.00  0.00     0.031 A 
ATOM     65  C   UNL A   1      44.797  25.898  28.483  1.00  0.00     0.131 A 
ATOM     66  C   UNL A   1      44.486  26.049  31.202  1.00  0.00     0.055 A 
ATOM     67  C   UNL A   1      45.563  25.077  29.313  1.00  0.00     0.041 A 
ATOM     68  F   UNL A   1      45.125  25.798  27.191  1.00  0.00    -0.206 F 
ATOM     69  C   UNL A   1      45.437  25.175  30.685  1.00  0.00     0.022 A 
BRANCH  66  70
ATOM     70  S   UNL A   1      44.419  26.360  32.981  1.00  0.00     0.124 S 
ATOM     71  O   UNL A   1      44.375  25.001  33.510  1.00  0.00    -0.237 OA
ATOM     72  O   UNL A   1      45.659  27.099  33.199  1.00  0.00    -0.237 OA
ATOM     73  O   UNL A   1      43.193  27.136  33.142  1.00  0.00    -0.744 OA
ENDBRANCH  66  70
ENDBRANCH  49  63
BRANCH  50  74
ATOM     74  C   UNL A   1      40.215  32.144  34.541  1.00  0.00     0.023 A 
ATOM     75  C   UNL A   1      39.088  32.134  35.389  1.00  0.00     0.031 A 
ATOM     76  C   UNL A   1      41.478  32.247  35.171  1.00  0.00     0.131 A 
ATOM     77  C   UNL A   1      39.250  32.227  36.792  1.00  0.00     0.055 A 
ATOM     78  C   UNL A   1      41.632  32.349  36.555  1.00  0.00     0.041 A 
ATOM     79  F   UNL A   1      42.618  32.162  34.469  1.00  0.00    -0.206 F 
ATOM     80  C   UNL A   1      40.516  32.330  37.374  1.00  0.00     0.022 A 
BRANCH  77  81
ATOM     81  S   UNL A   1      37.808  32.106  37.898  1.00  0.00     0.124 S 
ATOM     82  O   UNL A   1      36.909  33.112  37.345  1.00  0.00    -0.237 OA
ATOM     83  O   UNL A   1      37.404  30.714  37.737  1.00  0.00    -0.237 OA
ATOM     84  O   UNL A   1      38.359  32.433  39.214  1.00  0.00    -0.744 OA
ENDBRANCH  77  81
ENDBRANCH  50  74
BRANCH  62  85
ATOM     85  C   UNL A   1      37.822  30.097  29.016  1.00  0.00     0.023 A 
ATOM     86  C   UNL A   1      37.616  31.474  29.264  1.00  0.00     0.031 A 
ATOM     87  C   UNL A   1      36.888  29.440  28.193  1.00  0.00     0.131 A 
ATOM     88  C   UNL A   1      36.499  32.132  28.708  1.00  0.00     0.055 A 
ATOM     89  C   UNL A   1      35.798  30.100  27.626  1.00  0.00     0.041 A 
ATOM     90  F   UNL A   1      37.038  28.138  27.896  1.00  0.00    -0.206 F 
ATOM     91  C   UNL A   1      35.595  31.449  27.890  1.00  0.00     0.022 A 
BRANCH  88  92
ATOM     92  S   UNL A   1      36.180  33.891  29.063  1.00  0.00     0.124 S 
ATOM     93  O   UNL A   1      35.445  33.862  30.321  1.00  0.00    -0.237 OA
ATOM     94  O   UNL A   1      37.529  34.448  29.122  1.00  0.00    -0.237 OA
ATOM     95  O   UNL A   1      35.393  34.331  27.908  1.00  0.00    -0.744 OA
ENDBRANCH  88  92
ENDBRANCH  62  85
ENDBRANCH  36  37
ENDBRANCH  29  31
ENDBRANCH  28  29
ENDBRANCH  27  28
ENDBRANCH  26  27
ENDBRANCH  25  26
ENDBRANCH   1  25
TORSDOF 24
ENDMDL
