MODEL 1
REMARK VINA RESULT:     -10.8      0.000      0.000
REMARK SMILES CC1(C)C(C(=O)N2CCOC[C@H]2C(=O)OCCOCCOCCOC(=O)c2ccc(-c3c4nc(c(-c5cc(S(=O)(=O)[O-])ccc5F)c5ccc([nH]5)c(-c5cc(S(=O)(=O)[O-])ccc5F)c5nc(c(-c6cc(S(=O)(=O)[O-])ccc6F)c6ccc3[nH]6)C=C5)C=C4)cc2)C1(C)C
REMARK SMILES IDX 20 1 19 2 18 3 17 4 16 5 15 6 13 7 14 8 12 9 7 10 8 11 9 12
REMARK SMILES IDX 11 13 10 14 5 15 6 16 4 17 1 18 2 19 3 20 90 21 91 22 92 23
REMARK SMILES IDX 21 24 22 25 23 26 24 27 25 28 26 29 27 30 28 31 89 32 29 33
REMARK SMILES IDX 88 34 30 35 31 36 32 37 82 38 33 39 87 40 81 41 83 42 34 43
REMARK SMILES IDX 86 44 80 45 79 46 35 48 67 49 47 50 66 51 48 52 51 53 65 54
REMARK SMILES IDX 84 55 49 56 50 57 64 59 85 60 52 61 36 62 37 63 45 64 38 65
REMARK SMILES IDX 44 66 46 67 43 68 39 69 40 70 41 71 42 72 68 73 69 74 77 75
REMARK SMILES IDX 70 76 76 77 78 78 75 79 71 80 72 81 73 82 74 83 53 84 54 85
REMARK SMILES IDX 62 86 55 87 61 88 63 89 60 90 56 91 57 92 58 93 59 94
REMARK H PARENT 83 47 51 58
REMARK Flexibility Score: inf
ROOT
ATOM      1  C   UNL A   1      34.591  22.526  23.577  1.00  0.00     0.188 C 
ENDROOT
BRANCH   1   2
ATOM      2  C   UNL A   1      33.274  23.029  22.954  1.00  0.00     0.188 C 
BRANCH   2   3
ATOM      3  O   UNL A   1      32.049  22.795  23.644  1.00  0.00    -0.376 OA
BRANCH   3   4
ATOM      4  C   UNL A   1      31.013  23.764  23.570  1.00  0.00     0.202 C 
BRANCH   4   5
ATOM      5  C   UNL A   1      30.639  24.560  24.829  1.00  0.00     0.261 C 
BRANCH   5   6
ATOM      6  O   UNL A   1      30.751  25.993  24.702  1.00  0.00    -0.462 OA
BRANCH   6   7
ATOM      7  C   UNL A   1      31.988  26.484  24.425  1.00  0.00     0.331 C 
ATOM      8  O   UNL A   1      33.024  26.004  24.884  1.00  0.00    -0.250 OA
BRANCH   7   9
ATOM      9  C   UNL A   1      32.001  27.792  23.598  1.00  0.00     0.221 C 
ATOM     10  N   UNL A   1      31.056  28.934  23.779  1.00  0.00    -0.324 N 
ATOM     11  C   UNL A   1      31.163  29.607  25.062  1.00  0.00     0.149 C 
ATOM     12  C   UNL A   1      32.623  29.976  25.372  1.00  0.00     0.181 C 
ATOM     13  C   UNL A   1      33.414  28.354  23.809  1.00  0.00     0.197 C 
ATOM     14  O   UNL A   1      33.544  28.898  25.139  1.00  0.00    -0.377 OA
BRANCH  10  15
ATOM     15  C   UNL A   1      30.248  29.280  22.699  1.00  0.00     0.227 C 
ATOM     16  O   UNL A   1      30.134  28.484  21.765  1.00  0.00    -0.275 OA
BRANCH  15  17
ATOM     17  C   UNL A   1      29.514  30.585  22.505  1.00  0.00     0.091 C 
ATOM     18  C   UNL A   1      28.326  32.765  21.723  1.00  0.00     0.012 C 
ATOM     19  C   UNL A   1      28.386  31.233  21.702  1.00  0.00    -0.017 C 
ATOM     20  C   UNL A   1      27.894  30.745  20.369  1.00  0.00     0.012 C 
ATOM     21  C   UNL A   1      28.036  30.522  23.004  1.00  0.00    -0.017 C 
ATOM     22  C   UNL A   1      27.650  31.318  24.235  1.00  0.00     0.012 C 
ATOM     23  C   UNL A   1      27.306  29.195  22.986  1.00  0.00     0.012 C 
ENDBRANCH  15  17
ENDBRANCH  10  15
ENDBRANCH   7   9
ENDBRANCH   6   7
ENDBRANCH   5   6
ENDBRANCH   4   5
ENDBRANCH   3   4
ENDBRANCH   2   3
ENDBRANCH   1   2
BRANCH   1  24
ATOM     24  O   UNL A   1      34.440  21.894  24.829  1.00  0.00    -0.376 OA
BRANCH  24  25
ATOM     25  C   UNL A   1      35.152  20.697  25.073  1.00  0.00     0.202 C 
BRANCH  25  26
ATOM     26  C   UNL A   1      36.688  20.615  24.979  1.00  0.00     0.261 C 
BRANCH  26  27
ATOM     27  O   UNL A   1      37.460  21.622  25.645  1.00  0.00    -0.460 OA
BRANCH  27  28
ATOM     28  C   UNL A   1      38.739  21.314  25.968  1.00  0.00     0.338 C 
ATOM     29  O   UNL A   1      39.324  20.275  25.700  1.00  0.00    -0.246 OA
BRANCH  28  30
ATOM     30  C   UNL A   1      39.373  22.535  26.513  1.00  0.00     0.060 A 
ATOM     31  C   UNL A   1      38.868  23.794  26.153  1.00  0.00     0.016 A 
ATOM     32  C   UNL A   1      40.453  22.435  27.393  1.00  0.00     0.016 A 
ATOM     33  C   UNL A   1      39.460  24.957  26.652  1.00  0.00     0.010 A 
ATOM     34  C   UNL A   1      41.057  23.602  27.873  1.00  0.00     0.010 A 
ATOM     35  C   UNL A   1      40.583  24.869  27.482  1.00  0.00    -0.014 A 
BRANCH  35  36
ATOM     36  C   UNL A   1      41.384  26.082  27.789  1.00  0.00     0.031 A 
ATOM     37  C   UNL A   1      40.727  27.193  28.562  1.00  0.00     0.074 A 
ATOM     38  C   UNL A   1      42.662  26.207  27.387  1.00  0.00     0.049 A 
ATOM     39  N   UNL A   1      41.171  28.388  28.853  1.00  0.00    -0.248 NA
ATOM     40  C   UNL A   1      39.372  26.914  29.061  1.00  0.00     0.031 C 
ATOM     41  C   UNL A   1      43.425  25.184  26.677  1.00  0.00     0.029 A 
ATOM     42  N   UNL A   1      43.536  27.260  27.506  1.00  0.00    -0.354 N 
ATOM     43  C   UNL A   1      40.141  29.013  29.549  1.00  0.00     0.074 A 
ATOM     44  C   UNL A   1      39.042  28.075  29.604  1.00  0.00     0.031 C 
ATOM     45  C   UNL A   1      44.649  25.669  26.402  1.00  0.00     0.029 A 
ATOM     46  C   UNL A   1      44.738  27.050  26.873  1.00  0.00     0.049 A 
ATOM     47  H   UNL A   1      43.321  28.086  27.997  1.00  0.00     0.167 HD
ATOM     48  C   UNL A   1      40.120  30.255  30.093  1.00  0.00     0.034 A 
ATOM     49  C   UNL A   1      45.774  27.889  26.661  1.00  0.00     0.034 A 
ATOM     50  C   UNL A   1      41.227  31.180  30.017  1.00  0.00     0.049 A 
ATOM     51  C   UNL A   1      45.702  29.298  27.202  1.00  0.00     0.074 A 
ATOM     52  C   UNL A   1      41.326  32.449  30.561  1.00  0.00     0.029 A 
ATOM     53  N   UNL A   1      42.417  30.946  29.339  1.00  0.00    -0.354 N 
ATOM     54  N   UNL A   1      44.733  29.881  27.870  1.00  0.00    -0.248 NA
ATOM     55  C   UNL A   1      46.867  30.161  26.964  1.00  0.00     0.031 C 
ATOM     56  C   UNL A   1      42.532  33.015  30.133  1.00  0.00     0.029 A 
ATOM     57  C   UNL A   1      43.235  32.065  29.408  1.00  0.00     0.049 A 
ATOM     58  H   UNL A   1      42.646  30.108  28.876  1.00  0.00     0.167 HD
ATOM     59  C   UNL A   1      45.184  31.168  28.157  1.00  0.00     0.074 A 
ATOM     60  C   UNL A   1      46.516  31.271  27.597  1.00  0.00     0.031 C 
ATOM     61  C   UNL A   1      44.558  32.168  28.831  1.00  0.00     0.034 A 
BRANCH  48  62
ATOM     62  C   UNL A   1      38.830  30.703  30.745  1.00  0.00     0.023 A 
ATOM     63  C   UNL A   1      37.818  31.363  30.025  1.00  0.00     0.031 A 
ATOM     64  C   UNL A   1      38.638  30.518  32.126  1.00  0.00     0.131 A 
ATOM     65  C   UNL A   1      36.710  31.896  30.703  1.00  0.00     0.055 A 
ATOM     66  C   UNL A   1      37.487  30.967  32.778  1.00  0.00     0.041 A 
ATOM     67  F   UNL A   1      39.577  29.919  32.874  1.00  0.00    -0.206 F 
ATOM     68  C   UNL A   1      36.524  31.678  32.069  1.00  0.00     0.022 A 
BRANCH  65  69
ATOM     69  S   UNL A   1      35.613  33.033  29.809  1.00  0.00     0.124 S 
ATOM     70  O   UNL A   1      35.225  33.963  30.867  1.00  0.00    -0.237 OA
ATOM     71  O   UNL A   1      36.489  33.570  28.775  1.00  0.00    -0.237 OA
ATOM     72  O   UNL A   1      34.539  32.166  29.329  1.00  0.00    -0.744 OA
ENDBRANCH  65  69
ENDBRANCH  48  62
BRANCH  49  73
ATOM     73  C   UNL A   1      46.944  27.441  25.850  1.00  0.00     0.023 A 
ATOM     74  C   UNL A   1      47.104  27.825  24.510  1.00  0.00     0.031 A 
ATOM     75  C   UNL A   1      47.916  26.590  26.411  1.00  0.00     0.131 A 
ATOM     76  C   UNL A   1      48.193  27.338  23.767  1.00  0.00     0.055 A 
ATOM     77  C   UNL A   1      49.024  26.153  25.685  1.00  0.00     0.041 A 
ATOM     78  F   UNL A   1      47.807  26.184  27.687  1.00  0.00    -0.206 F 
ATOM     79  C   UNL A   1      49.162  26.520  24.351  1.00  0.00     0.022 A 
BRANCH  76  80
ATOM     80  S   UNL A   1      48.290  27.735  21.999  1.00  0.00     0.124 S 
ATOM     81  O   UNL A   1      46.996  28.362  21.762  1.00  0.00    -0.237 OA
ATOM     82  O   UNL A   1      49.450  28.618  21.948  1.00  0.00    -0.237 OA
ATOM     83  O   UNL A   1      48.477  26.430  21.367  1.00  0.00    -0.744 OA
ENDBRANCH  76  80
ENDBRANCH  49  73
BRANCH  61  84
ATOM     84  C   UNL A   1      45.328  33.453  29.043  1.00  0.00     0.023 A 
ATOM     85  C   UNL A   1      45.293  34.509  28.116  1.00  0.00     0.031 A 
ATOM     86  C   UNL A   1      46.112  33.620  30.200  1.00  0.00     0.131 A 
ATOM     87  C   UNL A   1      46.069  35.660  28.335  1.00  0.00     0.055 A 
ATOM     88  C   UNL A   1      46.826  34.793  30.446  1.00  0.00     0.041 A 
ATOM     89  F   UNL A   1      46.191  32.644  31.120  1.00  0.00    -0.206 F 
ATOM     90  C   UNL A   1      46.817  35.817  29.504  1.00  0.00     0.022 A 
BRANCH  87  91
ATOM     91  S   UNL A   1      46.169  36.910  27.024  1.00  0.00     0.124 S 
ATOM     92  O   UNL A   1      47.235  37.777  27.515  1.00  0.00    -0.237 OA
ATOM     93  O   UNL A   1      46.491  36.106  25.849  1.00  0.00    -0.237 OA
ATOM     94  O   UNL A   1      44.837  37.509  27.019  1.00  0.00    -0.744 OA
ENDBRANCH  87  91
ENDBRANCH  61  84
ENDBRANCH  35  36
ENDBRANCH  28  30
ENDBRANCH  27  28
ENDBRANCH  26  27
ENDBRANCH  25  26
ENDBRANCH  24  25
ENDBRANCH   1  24
TORSDOF 22
ENDMDL
MODEL 2
REMARK VINA RESULT:      -9.8      5.355      9.049
REMARK SMILES CC1(C)C(C(=O)N2CCOC[C@H]2C(=O)OCCOCCOCCOC(=O)c2ccc(-c3c4nc(c(-c5cc(S(=O)(=O)[O-])ccc5F)c5ccc([nH]5)c(-c5cc(S(=O)(=O)[O-])ccc5F)c5nc(c(-c6cc(S(=O)(=O)[O-])ccc6F)c6ccc3[nH]6)C=C5)C=C4)cc2)C1(C)C
REMARK SMILES IDX 20 1 19 2 18 3 17 4 16 5 15 6 13 7 14 8 12 9 7 10 8 11 9 12
REMARK SMILES IDX 11 13 10 14 5 15 6 16 4 17 1 18 2 19 3 20 90 21 91 22 92 23
REMARK SMILES IDX 21 24 22 25 23 26 24 27 25 28 26 29 27 30 28 31 89 32 29 33
REMARK SMILES IDX 88 34 30 35 31 36 32 37 82 38 33 39 87 40 81 41 83 42 34 43
REMARK SMILES IDX 86 44 80 45 79 46 35 48 67 49 47 50 66 51 48 52 51 53 65 54
REMARK SMILES IDX 84 55 49 56 50 57 64 59 85 60 52 61 36 62 37 63 45 64 38 65
REMARK SMILES IDX 44 66 46 67 43 68 39 69 40 70 41 71 42 72 68 73 69 74 77 75
REMARK SMILES IDX 70 76 76 77 78 78 75 79 71 80 72 81 73 82 74 83 53 84 54 85
REMARK SMILES IDX 62 86 55 87 61 88 63 89 60 90 56 91 57 92 58 93 59 94
REMARK H PARENT 83 47 51 58
REMARK Flexibility Score: inf
ROOT
ATOM      1  C   UNL A   1      35.149  32.996  28.394  1.00  0.00     0.188 C 
ENDROOT
BRANCH   1   2
ATOM      2  C   UNL A   1      33.909  32.436  27.669  1.00  0.00     0.188 C 
BRANCH   2   3
ATOM      3  O   UNL A   1      33.546  31.074  27.874  1.00  0.00    -0.376 OA
BRANCH   3   4
ATOM      4  C   UNL A   1      34.385  30.046  27.367  1.00  0.00     0.202 C 
BRANCH   4   5
ATOM      5  C   UNL A   1      33.757  28.879  26.591  1.00  0.00     0.261 C 
BRANCH   5   6
ATOM      6  O   UNL A   1      32.363  29.045  26.258  1.00  0.00    -0.462 OA
BRANCH   6   7
ATOM      7  C   UNL A   1      31.656  27.910  26.016  1.00  0.00     0.331 C 
ATOM      8  O   UNL A   1      31.073  27.277  26.896  1.00  0.00    -0.250 OA
BRANCH   7   9
ATOM      9  C   UNL A   1      31.750  27.378  24.566  1.00  0.00     0.221 C 
ATOM     10  N   UNL A   1      30.842  26.355  23.964  1.00  0.00    -0.324 N 
ATOM     11  C   UNL A   1      29.457  26.776  23.844  1.00  0.00     0.149 C 
ATOM     12  C   UNL A   1      29.354  28.150  23.163  1.00  0.00     0.181 C 
ATOM     13  C   UNL A   1      31.630  28.636  23.696  1.00  0.00     0.197 C 
ATOM     14  O   UNL A   1      30.270  29.120  23.698  1.00  0.00    -0.377 OA
BRANCH  10  15
ATOM     15  C   UNL A   1      31.415  25.167  23.516  1.00  0.00     0.227 C 
ATOM     16  O   UNL A   1      31.856  25.119  22.367  1.00  0.00    -0.275 OA
BRANCH  15  17
ATOM     17  C   UNL A   1      31.513  23.870  24.282  1.00  0.00     0.091 C 
ATOM     18  C   UNL A   1      31.779  21.446  25.193  1.00  0.00     0.012 C 
ATOM     19  C   UNL A   1      32.415  22.655  24.496  1.00  0.00    -0.017 C 
ATOM     20  C   UNL A   1      33.440  22.165  23.513  1.00  0.00     0.012 C 
ATOM     21  C   UNL A   1      32.645  23.892  25.356  1.00  0.00    -0.017 C 
ATOM     22  C   UNL A   1      32.256  23.892  26.822  1.00  0.00     0.012 C 
ATOM     23  C   UNL A   1      33.858  24.771  25.135  1.00  0.00     0.012 C 
ENDBRANCH  15  17
ENDBRANCH  10  15
ENDBRANCH   7   9
ENDBRANCH   6   7
ENDBRANCH   5   6
ENDBRANCH   4   5
ENDBRANCH   3   4
ENDBRANCH   2   3
ENDBRANCH   1   2
BRANCH   1  24
ATOM     24  O   UNL A   1      35.215  34.404  28.435  1.00  0.00    -0.376 OA
BRANCH  24  25
ATOM     25  C   UNL A   1      34.020  35.143  28.273  1.00  0.00     0.202 C 
BRANCH  25  26
ATOM     26  C   UNL A   1      33.013  35.347  29.422  1.00  0.00     0.261 C 
BRANCH  26  27
ATOM     27  O   UNL A   1      33.482  35.957  30.632  1.00  0.00    -0.460 OA
BRANCH  27  28
ATOM     28  C   UNL A   1      33.376  35.236  31.773  1.00  0.00     0.338 C 
ATOM     29  O   UNL A   1      32.404  35.187  32.512  1.00  0.00    -0.246 OA
BRANCH  28  30
ATOM     30  C   UNL A   1      34.559  34.350  31.857  1.00  0.00     0.060 A 
ATOM     31  C   UNL A   1      34.378  32.978  32.087  1.00  0.00     0.016 A 
ATOM     32  C   UNL A   1      35.844  34.873  31.691  1.00  0.00     0.016 A 
ATOM     33  C   UNL A   1      35.484  32.129  32.176  1.00  0.00     0.010 A 
ATOM     34  C   UNL A   1      36.950  34.025  31.803  1.00  0.00     0.010 A 
ATOM     35  C   UNL A   1      36.779  32.654  32.076  1.00  0.00    -0.014 A 
BRANCH  35  36
ATOM     36  C   UNL A   1      37.954  31.823  32.445  1.00  0.00     0.031 A 
ATOM     37  C   UNL A   1      38.657  32.121  33.742  1.00  0.00     0.074 A 
ATOM     38  C   UNL A   1      38.399  30.834  31.650  1.00  0.00     0.049 A 
ATOM     39  N   UNL A   1      39.762  31.621  34.229  1.00  0.00    -0.248 NA
ATOM     40  C   UNL A   1      38.025  33.136  34.597  1.00  0.00     0.031 C 
ATOM     41  C   UNL A   1      37.777  30.417  30.396  1.00  0.00     0.029 A 
ATOM     42  N   UNL A   1      39.493  30.013  31.775  1.00  0.00    -0.354 N 
ATOM     43  C   UNL A   1      39.973  32.277  35.438  1.00  0.00     0.074 A 
ATOM     44  C   UNL A   1      38.897  33.233  35.587  1.00  0.00     0.031 C 
ATOM     45  C   UNL A   1      38.513  29.431  29.854  1.00  0.00     0.029 A 
ATOM     46  C   UNL A   1      39.682  29.181  30.696  1.00  0.00     0.049 A 
ATOM     47  H   UNL A   1      40.085  30.019  32.562  1.00  0.00     0.167 HD
ATOM     48  C   UNL A   1      40.971  32.095  36.337  1.00  0.00     0.034 A 
ATOM     49  C   UNL A   1      40.701  28.347  30.402  1.00  0.00     0.034 A 
ATOM     50  C   UNL A   1      42.041  31.141  36.162  1.00  0.00     0.049 A 
ATOM     51  C   UNL A   1      41.849  28.215  31.376  1.00  0.00     0.074 A 
ATOM     52  C   UNL A   1      43.083  30.849  37.024  1.00  0.00     0.029 A 
ATOM     53  N   UNL A   1      42.218  30.339  35.040  1.00  0.00    -0.354 N 
ATOM     54  N   UNL A   1      42.037  28.828  32.523  1.00  0.00    -0.248 NA
ATOM     55  C   UNL A   1      42.919  27.275  31.017  1.00  0.00     0.031 C 
ATOM     56  C   UNL A   1      43.939  29.945  36.385  1.00  0.00     0.029 A 
ATOM     57  C   UNL A   1      43.380  29.590  35.167  1.00  0.00     0.049 A 
ATOM     58  H   UNL A   1      41.609  30.307  34.268  1.00  0.00     0.167 HD
ATOM     59  C   UNL A   1      43.232  28.325  33.035  1.00  0.00     0.074 A 
ATOM     60  C   UNL A   1      43.713  27.352  32.076  1.00  0.00     0.031 C 
ATOM     61  C   UNL A   1      43.865  28.633  34.197  1.00  0.00     0.034 A 
BRANCH  48  62
ATOM     62  C   UNL A   1      40.985  33.003  37.547  1.00  0.00     0.023 A 
ATOM     63  C   UNL A   1      40.284  32.691  38.725  1.00  0.00     0.031 A 
ATOM     64  C   UNL A   1      41.667  34.232  37.497  1.00  0.00     0.131 A 
ATOM     65  C   UNL A   1      40.200  33.634  39.761  1.00  0.00     0.055 A 
ATOM     66  C   UNL A   1      41.659  35.126  38.570  1.00  0.00     0.041 A 
ATOM     67  F   UNL A   1      42.334  34.600  36.392  1.00  0.00    -0.206 F 
ATOM     68  C   UNL A   1      40.906  34.837  39.703  1.00  0.00     0.022 A 
BRANCH  65  69
ATOM     69  S   UNL A   1      39.010  33.346  41.101  1.00  0.00     0.124 S 
ATOM     70  O   UNL A   1      39.885  33.298  42.270  1.00  0.00    -0.237 OA
ATOM     71  O   UNL A   1      38.136  34.509  41.003  1.00  0.00    -0.237 OA
ATOM     72  O   UNL A   1      38.393  32.070  40.742  1.00  0.00    -0.744 OA
ENDBRANCH  65  69
ENDBRANCH  48  62
BRANCH  49  73
ATOM     73  C   UNL A   1      40.714  27.614  29.102  1.00  0.00     0.023 A 
ATOM     74  C   UNL A   1      41.613  27.947  28.077  1.00  0.00     0.031 A 
ATOM     75  C   UNL A   1      39.796  26.574  28.860  1.00  0.00     0.131 A 
ATOM     76  C   UNL A   1      41.558  27.266  26.849  1.00  0.00     0.055 A 
ATOM     77  C   UNL A   1      39.781  25.865  27.659  1.00  0.00     0.041 A 
ATOM     78  F   UNL A   1      38.907  26.221  29.803  1.00  0.00    -0.206 F 
ATOM     79  C   UNL A   1      40.660  26.216  26.640  1.00  0.00     0.022 A 
BRANCH  76  80
ATOM     80  S   UNL A   1      42.633  27.817  25.496  1.00  0.00     0.124 S 
ATOM     81  O   UNL A   1      42.654  26.641  24.633  1.00  0.00    -0.237 OA
ATOM     82  O   UNL A   1      41.910  28.976  24.983  1.00  0.00    -0.237 OA
ATOM     83  O   UNL A   1      43.896  28.121  26.166  1.00  0.00    -0.744 OA
ENDBRANCH  76  80
ENDBRANCH  49  73
BRANCH  61  84
ATOM     84  C   UNL A   1      45.132  27.871  34.521  1.00  0.00     0.023 A 
ATOM     85  C   UNL A   1      46.405  28.347  34.161  1.00  0.00     0.031 A 
ATOM     86  C   UNL A   1      45.058  26.644  35.207  1.00  0.00     0.131 A 
ATOM     87  C   UNL A   1      47.545  27.575  34.440  1.00  0.00     0.055 A 
ATOM     88  C   UNL A   1      46.200  25.915  35.542  1.00  0.00     0.041 A 
ATOM     89  F   UNL A   1      43.870  26.134  35.571  1.00  0.00    -0.206 F 
ATOM     90  C   UNL A   1      47.452  26.373  35.146  1.00  0.00     0.022 A 
BRANCH  87  91
ATOM     91  S   UNL A   1      49.147  28.111  33.776  1.00  0.00     0.124 S 
ATOM     92  O   UNL A   1      49.932  28.293  34.994  1.00  0.00    -0.237 OA
ATOM     93  O   UNL A   1      49.529  26.984  32.933  1.00  0.00    -0.237 OA
ATOM     94  O   UNL A   1      48.826  29.342  33.057  1.00  0.00    -0.744 OA
ENDBRANCH  87  91
ENDBRANCH  61  84
ENDBRANCH  35  36
ENDBRANCH  28  30
ENDBRANCH  27  28
ENDBRANCH  26  27
ENDBRANCH  25  26
ENDBRANCH  24  25
ENDBRANCH   1  24
TORSDOF 22
ENDMDL
MODEL 3
REMARK VINA RESULT:      -9.7      5.006      8.558
REMARK SMILES CC1(C)C(C(=O)N2CCOC[C@H]2C(=O)OCCOCCOCCOC(=O)c2ccc(-c3c4nc(c(-c5cc(S(=O)(=O)[O-])ccc5F)c5ccc([nH]5)c(-c5cc(S(=O)(=O)[O-])ccc5F)c5nc(c(-c6cc(S(=O)(=O)[O-])ccc6F)c6ccc3[nH]6)C=C5)C=C4)cc2)C1(C)C
REMARK SMILES IDX 20 1 19 2 18 3 17 4 16 5 15 6 13 7 14 8 12 9 7 10 8 11 9 12
REMARK SMILES IDX 11 13 10 14 5 15 6 16 4 17 1 18 2 19 3 20 90 21 91 22 92 23
REMARK SMILES IDX 21 24 22 25 23 26 24 27 25 28 26 29 27 30 28 31 89 32 29 33
REMARK SMILES IDX 88 34 30 35 31 36 32 37 82 38 33 39 87 40 81 41 83 42 34 43
REMARK SMILES IDX 86 44 80 45 79 46 35 48 67 49 47 50 66 51 48 52 51 53 65 54
REMARK SMILES IDX 84 55 49 56 50 57 64 59 85 60 52 61 36 62 37 63 45 64 38 65
REMARK SMILES IDX 44 66 46 67 43 68 39 69 40 70 41 71 42 72 68 73 69 74 77 75
REMARK SMILES IDX 70 76 76 77 78 78 75 79 71 80 72 81 73 82 74 83 53 84 54 85
REMARK SMILES IDX 62 86 55 87 61 88 63 89 60 90 56 91 57 92 58 93 59 94
REMARK H PARENT 83 47 51 58
REMARK Flexibility Score: inf
ROOT
ATOM      1  C   UNL A   1      31.740  28.226  25.732  1.00  0.00     0.188 C 
ENDROOT
BRANCH   1   2
ATOM      2  C   UNL A   1      31.576  29.222  24.568  1.00  0.00     0.188 C 
BRANCH   2   3
ATOM      3  O   UNL A   1      31.428  28.718  23.243  1.00  0.00    -0.376 OA
BRANCH   3   4
ATOM      4  C   UNL A   1      32.037  27.482  22.897  1.00  0.00     0.202 C 
BRANCH   4   5
ATOM      5  C   UNL A   1      31.413  26.623  21.787  1.00  0.00     0.261 C 
BRANCH   5   6
ATOM      6  O   UNL A   1      30.914  25.339  22.214  1.00  0.00    -0.462 OA
BRANCH   6   7
ATOM      7  C   UNL A   1      30.770  25.158  23.554  1.00  0.00     0.331 C 
ATOM      8  O   UNL A   1      29.884  25.696  24.217  1.00  0.00    -0.250 OA
BRANCH   7   9
ATOM      9  C   UNL A   1      31.892  24.332  24.226  1.00  0.00     0.221 C 
ATOM     10  N   UNL A   1      32.569  24.686  25.510  1.00  0.00    -0.324 N 
ATOM     11  C   UNL A   1      31.700  24.668  26.673  1.00  0.00     0.149 C 
ATOM     12  C   UNL A   1      30.907  23.354  26.751  1.00  0.00     0.181 C 
ATOM     13  C   UNL A   1      31.269  22.944  24.427  1.00  0.00     0.197 C 
ATOM     14  O   UNL A   1      30.305  22.978  25.501  1.00  0.00    -0.377 OA
BRANCH  10  15
ATOM     15  C   UNL A   1      33.944  24.909  25.475  1.00  0.00     0.227 C 
ATOM     16  O   UNL A   1      34.391  25.937  25.985  1.00  0.00    -0.275 OA
BRANCH  15  17
ATOM     17  C   UNL A   1      34.980  24.034  24.812  1.00  0.00     0.091 C 
ATOM     18  C   UNL A   1      37.067  22.850  23.802  1.00  0.00     0.012 C 
ATOM     19  C   UNL A   1      36.344  23.383  25.045  1.00  0.00    -0.017 C 
ATOM     20  C   UNL A   1      37.367  23.867  26.032  1.00  0.00     0.012 C 
ATOM     21  C   UNL A   1      35.093  22.628  25.479  1.00  0.00    -0.017 C 
ATOM     22  C   UNL A   1      34.619  21.415  24.703  1.00  0.00     0.012 C 
ATOM     23  C   UNL A   1      34.755  22.475  26.947  1.00  0.00     0.012 C 
ENDBRANCH  15  17
ENDBRANCH  10  15
ENDBRANCH   7   9
ENDBRANCH   6   7
ENDBRANCH   5   6
ENDBRANCH   4   5
ENDBRANCH   3   4
ENDBRANCH   2   3
ENDBRANCH   1   2
BRANCH   1  24
ATOM     24  O   UNL A   1      32.521  28.704  26.805  1.00  0.00    -0.376 OA
BRANCH  24  25
ATOM     25  C   UNL A   1      33.412  29.776  26.567  1.00  0.00     0.202 C 
BRANCH  25  26
ATOM     26  C   UNL A   1      33.254  31.149  27.252  1.00  0.00     0.261 C 
BRANCH  26  27
ATOM     27  O   UNL A   1      34.110  31.453  28.360  1.00  0.00    -0.460 OA
BRANCH  27  28
ATOM     28  C   UNL A   1      35.215  32.193  28.108  1.00  0.00     0.338 C 
ATOM     29  O   UNL A   1      35.247  33.287  27.565  1.00  0.00    -0.246 OA
BRANCH  28  30
ATOM     30  C   UNL A   1      36.356  31.548  28.797  1.00  0.00     0.060 A 
ATOM     31  C   UNL A   1      37.623  32.147  28.742  1.00  0.00     0.016 A 
ATOM     32  C   UNL A   1      36.168  30.363  29.512  1.00  0.00     0.016 A 
ATOM     33  C   UNL A   1      38.712  31.547  29.380  1.00  0.00     0.010 A 
ATOM     34  C   UNL A   1      37.264  29.753  30.131  1.00  0.00     0.010 A 
ATOM     35  C   UNL A   1      38.547  30.326  30.044  1.00  0.00    -0.014 A 
BRANCH  35  36
ATOM     36  C   UNL A   1      39.734  29.545  30.480  1.00  0.00     0.031 A 
ATOM     37  C   UNL A   1      40.469  29.996  31.713  1.00  0.00     0.074 A 
ATOM     38  C   UNL A   1      40.161  28.467  29.799  1.00  0.00     0.049 A 
ATOM     39  N   UNL A   1      41.588  29.558  32.228  1.00  0.00    -0.248 NA
ATOM     40  C   UNL A   1      39.857  31.108  32.455  1.00  0.00     0.031 C 
ATOM     41  C   UNL A   1      39.507  27.901  28.621  1.00  0.00     0.029 A 
ATOM     42  N   UNL A   1      41.260  27.665  29.994  1.00  0.00    -0.354 N 
ATOM     43  C   UNL A   1      41.828  30.355  33.343  1.00  0.00     0.074 A 
ATOM     44  C   UNL A   1      40.754  31.323  33.404  1.00  0.00     0.031 C 
ATOM     45  C   UNL A   1      40.232  26.856  28.183  1.00  0.00     0.029 A 
ATOM     46  C   UNL A   1      41.422  26.710  29.019  1.00  0.00     0.049 A 
ATOM     47  H   UNL A   1      41.871  27.767  30.759  1.00  0.00     0.167 HD
ATOM     48  C   UNL A   1      42.849  30.282  34.232  1.00  0.00     0.034 A 
ATOM     49  C   UNL A   1      42.435  25.845  28.802  1.00  0.00     0.034 A 
ATOM     50  C   UNL A   1      43.916  29.313  34.146  1.00  0.00     0.049 A 
ATOM     51  C   UNL A   1      43.608  25.831  29.755  1.00  0.00     0.074 A 
ATOM     52  C   UNL A   1      44.981  29.127  35.009  1.00  0.00     0.029 A 
ATOM     53  N   UNL A   1      44.067  28.381  33.125  1.00  0.00    -0.354 N 
ATOM     54  N   UNL A   1      43.824  26.577  30.814  1.00  0.00    -0.248 NA
ATOM     55  C   UNL A   1      44.671  24.853  29.485  1.00  0.00     0.031 C 
ATOM     56  C   UNL A   1      45.822  28.151  34.463  1.00  0.00     0.029 A 
ATOM     57  C   UNL A   1      45.233  27.652  33.311  1.00  0.00     0.049 A 
ATOM     58  H   UNL A   1      43.438  28.257  32.378  1.00  0.00     0.167 HD
ATOM     59  C   UNL A   1      45.033  26.139  31.352  1.00  0.00     0.074 A 
ATOM     60  C   UNL A   1      45.491  25.057  30.506  1.00  0.00     0.031 C 
ATOM     61  C   UNL A   1      45.695  26.585  32.452  1.00  0.00     0.034 A 
BRANCH  48  62
ATOM     62  C   UNL A   1      42.893  31.330  35.322  1.00  0.00     0.023 A 
ATOM     63  C   UNL A   1      43.521  32.575  35.140  1.00  0.00     0.031 A 
ATOM     64  C   UNL A   1      42.347  31.051  36.589  1.00  0.00     0.131 A 
ATOM     65  C   UNL A   1      43.671  33.450  36.227  1.00  0.00     0.055 A 
ATOM     66  C   UNL A   1      42.416  31.967  37.640  1.00  0.00     0.041 A 
ATOM     67  F   UNL A   1      41.757  29.871  36.836  1.00  0.00    -0.206 F 
ATOM     68  C   UNL A   1      43.099  33.167  37.468  1.00  0.00     0.022 A 
BRANCH  65  69
ATOM     69  S   UNL A   1      44.783  34.873  36.045  1.00  0.00     0.124 S 
ATOM     70  O   UNL A   1      44.923  35.319  37.429  1.00  0.00    -0.237 OA
ATOM     71  O   UNL A   1      45.968  34.275  35.443  1.00  0.00    -0.237 OA
ATOM     72  O   UNL A   1      44.034  35.783  35.179  1.00  0.00    -0.744 OA
ENDBRANCH  65  69
ENDBRANCH  48  62
BRANCH  49  73
ATOM     73  C   UNL A   1      42.417  24.960  27.600  1.00  0.00     0.023 A 
ATOM     74  C   UNL A   1      41.721  23.742  27.592  1.00  0.00     0.031 A 
ATOM     75  C   UNL A   1      43.128  25.320  26.439  1.00  0.00     0.131 A 
ATOM     76  C   UNL A   1      41.772  22.914  26.457  1.00  0.00     0.055 A 
ATOM     77  C   UNL A   1      43.131  24.520  25.296  1.00  0.00     0.041 A 
ATOM     78  F   UNL A   1      43.820  26.471  26.397  1.00  0.00    -0.206 F 
ATOM     79  C   UNL A   1      42.457  23.304  25.304  1.00  0.00     0.022 A 
BRANCH  76  80
ATOM     80  S   UNL A   1      40.983  21.281  26.531  1.00  0.00     0.124 S 
ATOM     81  O   UNL A   1      41.975  20.441  25.870  1.00  0.00    -0.237 OA
ATOM     82  O   UNL A   1      40.829  21.081  27.968  1.00  0.00    -0.237 OA
ATOM     83  O   UNL A   1      39.736  21.472  25.794  1.00  0.00    -0.744 OA
ENDBRANCH  76  80
ENDBRANCH  49  73
BRANCH  61  84
ATOM     84  C   UNL A   1      46.972  25.867  32.833  1.00  0.00     0.023 A 
ATOM     85  C   UNL A   1      46.979  24.764  33.705  1.00  0.00     0.031 A 
ATOM     86  C   UNL A   1      48.205  26.299  32.310  1.00  0.00     0.131 A 
ATOM     87  C   UNL A   1      48.198  24.167  34.068  1.00  0.00     0.055 A 
ATOM     88  C   UNL A   1      49.405  25.659  32.620  1.00  0.00     0.041 A 
ATOM     89  F   UNL A   1      48.264  27.352  31.478  1.00  0.00    -0.206 F 
ATOM     90  C   UNL A   1      49.407  24.593  33.515  1.00  0.00     0.022 A 
BRANCH  87  91
ATOM     91  S   UNL A   1      48.195  22.887  35.355  1.00  0.00     0.124 S 
ATOM     92  O   UNL A   1      46.780  22.814  35.705  1.00  0.00    -0.237 OA
ATOM     93  O   UNL A   1      48.738  21.732  34.648  1.00  0.00    -0.237 OA
ATOM     94  O   UNL A   1      49.061  23.442  36.392  1.00  0.00    -0.744 OA
ENDBRANCH  87  91
ENDBRANCH  61  84
ENDBRANCH  35  36
ENDBRANCH  28  30
ENDBRANCH  27  28
ENDBRANCH  26  27
ENDBRANCH  25  26
ENDBRANCH  24  25
ENDBRANCH   1  24
TORSDOF 22
ENDMDL
