MODEL 1
REMARK VINA RESULT:     -10.4      0.000      0.000
REMARK SMILES COc1cccc(/C=C(/CC(=O)OCCOCCOCCOC(=O)c2ccc(-c3c4nc(c(-c5cc(S(=O)(=O)[O-])ccc5F)c5ccc([nH]5)c(-c5cc(S(=O)(=O)[O-])ccc5F)c5nc(c(-c6cc(S(=O)(=O)[O-])ccc6F)c6ccc3[nH]6)C=C5)C=C4)cc2)c2nc3ccccc3o2)c1
REMARK SMILES IDX 17 1 16 2 15 3 14 4 13 5 11 6 12 7 10 8 9 9 8 10 7 11 3 12
REMARK SMILES IDX 4 13 97 14 5 15 6 16 2 17 1 18 88 19 89 20 96 21 90 22 95 23
REMARK SMILES IDX 91 24 94 25 92 26 93 27 18 28 19 29 20 30 21 31 22 32 23 33
REMARK SMILES IDX 24 34 25 35 26 36 87 37 27 38 86 39 28 40 29 41 30 42 80 43
REMARK SMILES IDX 31 44 85 45 79 46 81 47 32 48 84 49 78 50 77 51 33 53 65 54
REMARK SMILES IDX 45 55 64 56 46 57 49 58 63 59 82 60 47 61 48 62 62 64 83 65
REMARK SMILES IDX 50 66 34 67 35 68 43 69 36 70 42 71 44 72 41 73 37 74 38 75
REMARK SMILES IDX 39 76 40 77 66 78 67 79 75 80 68 81 74 82 76 83 73 84 69 85
REMARK SMILES IDX 70 86 71 87 72 88 51 89 52 90 60 91 53 92 59 93 61 94 58 95
REMARK SMILES IDX 54 96 55 97 56 98 57 99
REMARK H PARENT 81 52 49 63
REMARK Flexibility Score: inf
ROOT
ATOM      1  C   UNL A   1      34.115  20.860  25.398  1.00  0.00     0.188 C 
ENDROOT
BRANCH   1   2
ATOM      2  O   UNL A   1      33.800  21.774  26.445  1.00  0.00    -0.376 OA
BRANCH   2   3
ATOM      3  C   UNL A   1      32.926  22.848  26.137  1.00  0.00     0.202 C 
BRANCH   3   4
ATOM      4  C   UNL A   1      33.585  24.068  25.478  1.00  0.00     0.261 C 
BRANCH   4   5
ATOM      5  O   UNL A   1      32.882  24.526  24.291  1.00  0.00    -0.463 OA
BRANCH   5   6
ATOM      6  C   UNL A   1      33.633  24.737  23.179  1.00  0.00     0.310 C 
ATOM      7  O   UNL A   1      34.367  23.877  22.697  1.00  0.00    -0.252 OA
BRANCH   6   8
ATOM      8  C   UNL A   1      33.380  26.080  22.450  1.00  0.00     0.163 C 
BRANCH   8   9
ATOM      9  C   UNL A   1      32.412  27.177  22.915  1.00  0.00     0.026 C 
ATOM     10  C   UNL A   1      31.251  27.345  22.236  1.00  0.00     0.018 C 
BRANCH  10  11
ATOM     11  C   UNL A   1      30.086  28.236  22.469  1.00  0.00    -0.021 A 
ATOM     12  C   UNL A   1      29.127  30.471  22.229  1.00  0.00     0.119 A 
ATOM     13  C   UNL A   1      27.964  30.048  22.866  1.00  0.00     0.046 A 
ATOM     14  C   UNL A   1      30.178  29.569  22.026  1.00  0.00     0.054 A 
ATOM     15  C   UNL A   1      27.856  28.737  23.318  1.00  0.00     0.004 A 
ATOM     16  C   UNL A   1      28.926  27.855  23.157  1.00  0.00     0.008 A 
BRANCH  12  17
ATOM     17  O   UNL A   1      29.162  31.801  21.910  1.00  0.00    -0.497 OA
ATOM     18  C   UNL A   1      28.097  32.258  21.086  1.00  0.00     0.278 C 
ENDBRANCH  12  17
ENDBRANCH  10  11
BRANCH   9  19
ATOM     19  C   UNL A   1      32.661  27.957  24.119  1.00  0.00     0.223 A 
ATOM     20  N   UNL A   1      33.732  27.837  24.895  1.00  0.00    -0.210 NA
ATOM     21  O   UNL A   1      31.831  28.988  24.569  1.00  0.00    -0.436 OA
ATOM     22  C   UNL A   1      33.656  28.864  25.815  1.00  0.00     0.110 A 
ATOM     23  C   UNL A   1      32.494  29.576  25.612  1.00  0.00     0.155 A 
ATOM     24  C   UNL A   1      34.524  29.287  26.835  1.00  0.00     0.032 A 
ATOM     25  C   UNL A   1      32.138  30.708  26.346  1.00  0.00     0.049 A 
ATOM     26  C   UNL A   1      34.199  30.401  27.611  1.00  0.00     0.003 A 
ATOM     27  C   UNL A   1      33.026  31.106  27.360  1.00  0.00     0.004 A 
ENDBRANCH   9  19
ENDBRANCH   8   9
ENDBRANCH   6   8
ENDBRANCH   5   6
ENDBRANCH   4   5
ENDBRANCH   3   4
ENDBRANCH   2   3
ENDBRANCH   1   2
BRANCH   1  28
ATOM     28  C   UNL A   1      35.594  20.471  25.170  1.00  0.00     0.188 C 
BRANCH  28  29
ATOM     29  O   UNL A   1      36.336  21.577  24.684  1.00  0.00    -0.376 OA
BRANCH  29  30
ATOM     30  C   UNL A   1      37.729  21.378  24.609  1.00  0.00     0.202 C 
BRANCH  30  31
ATOM     31  C   UNL A   1      38.525  21.507  25.921  1.00  0.00     0.261 C 
BRANCH  31  32
ATOM     32  O   UNL A   1      39.260  22.744  26.099  1.00  0.00    -0.460 OA
BRANCH  32  33
ATOM     33  C   UNL A   1      38.555  23.833  26.462  1.00  0.00     0.338 C 
ATOM     34  O   UNL A   1      37.349  23.978  26.261  1.00  0.00    -0.246 OA
BRANCH  33  35
ATOM     35  C   UNL A   1      39.333  24.911  27.153  1.00  0.00     0.060 A 
ATOM     36  C   UNL A   1      39.170  25.230  28.506  1.00  0.00     0.016 A 
ATOM     37  C   UNL A   1      39.969  25.846  26.333  1.00  0.00     0.016 A 
ATOM     38  C   UNL A   1      39.519  26.501  28.999  1.00  0.00     0.010 A 
ATOM     39  C   UNL A   1      40.378  27.089  26.838  1.00  0.00     0.010 A 
ATOM     40  C   UNL A   1      40.127  27.452  28.170  1.00  0.00    -0.014 A 
BRANCH  40  41
ATOM     41  C   UNL A   1      40.579  28.782  28.679  1.00  0.00     0.031 A 
ATOM     42  C   UNL A   1      42.035  29.088  28.931  1.00  0.00     0.074 A 
ATOM     43  C   UNL A   1      39.652  29.708  28.996  1.00  0.00     0.049 A 
ATOM     44  N   UNL A   1      42.570  30.051  29.644  1.00  0.00    -0.248 NA
ATOM     45  C   UNL A   1      43.017  28.208  28.286  1.00  0.00     0.031 C 
ATOM     46  C   UNL A   1      38.220  29.596  28.720  1.00  0.00     0.029 A 
ATOM     47  N   UNL A   1      39.772  30.908  29.656  1.00  0.00    -0.354 N 
ATOM     48  C   UNL A   1      43.950  29.879  29.561  1.00  0.00     0.074 A 
ATOM     49  C   UNL A   1      44.165  28.716  28.721  1.00  0.00     0.031 C 
ATOM     50  C   UNL A   1      37.591  30.662  29.230  1.00  0.00     0.029 A 
ATOM     51  C   UNL A   1      38.556  31.476  29.959  1.00  0.00     0.049 A 
ATOM     52  H   UNL A   1      40.637  31.319  29.888  1.00  0.00     0.167 HD
ATOM     53  C   UNL A   1      44.933  30.617  30.143  1.00  0.00     0.034 A 
ATOM     54  C   UNL A   1      38.228  32.479  30.797  1.00  0.00     0.034 A 
ATOM     55  C   UNL A   1      44.689  31.776  30.979  1.00  0.00     0.049 A 
ATOM     56  C   UNL A   1      39.315  33.189  31.555  1.00  0.00     0.074 A 
ATOM     57  C   UNL A   1      45.613  32.596  31.611  1.00  0.00     0.029 A 
ATOM     58  N   UNL A   1      43.436  32.277  31.312  1.00  0.00    -0.354 N 
ATOM     59  N   UNL A   1      40.610  32.981  31.529  1.00  0.00    -0.248 NA
ATOM     60  C   UNL A   1      38.894  34.267  32.456  1.00  0.00     0.031 C 
ATOM     61  C   UNL A   1      44.921  33.528  32.392  1.00  0.00     0.029 A 
ATOM     62  C   UNL A   1      43.564  33.360  32.175  1.00  0.00     0.049 A 
ATOM     63  H   UNL A   1      42.581  31.917  30.984  1.00  0.00     0.167 HD
ATOM     64  C   UNL A   1      41.161  33.926  32.388  1.00  0.00     0.074 A 
ATOM     65  C   UNL A   1      40.059  34.710  32.905  1.00  0.00     0.031 C 
ATOM     66  C   UNL A   1      42.465  34.129  32.711  1.00  0.00     0.034 A 
BRANCH  53  67
ATOM     67  C   UNL A   1      46.368  30.159  29.972  1.00  0.00     0.023 A 
ATOM     68  C   UNL A   1      47.166  30.556  28.885  1.00  0.00     0.031 A 
ATOM     69  C   UNL A   1      46.958  29.326  30.945  1.00  0.00     0.131 A 
ATOM     70  C   UNL A   1      48.486  30.081  28.773  1.00  0.00     0.055 A 
ATOM     71  C   UNL A   1      48.292  28.920  30.866  1.00  0.00     0.041 A 
ATOM     72  F   UNL A   1      46.245  28.896  31.998  1.00  0.00    -0.206 F 
ATOM     73  C   UNL A   1      49.061  29.289  29.768  1.00  0.00     0.022 A 
BRANCH  70  74
ATOM     74  S   UNL A   1      49.406  30.423  27.244  1.00  0.00     0.124 S 
ATOM     75  O   UNL A   1      48.797  31.689  26.812  1.00  0.00    -0.237 OA
ATOM     76  O   UNL A   1      50.770  30.490  27.697  1.00  0.00    -0.237 OA
ATOM     77  O   UNL A   1      49.075  29.275  26.386  1.00  0.00    -0.744 OA
ENDBRANCH  70  74
ENDBRANCH  53  67
BRANCH  54  78
ATOM     78  C   UNL A   1      36.793  32.808  31.027  1.00  0.00     0.023 A 
ATOM     79  C   UNL A   1      36.086  33.615  30.127  1.00  0.00     0.031 A 
ATOM     80  C   UNL A   1      36.114  32.327  32.163  1.00  0.00     0.131 A 
ATOM     81  C   UNL A   1      34.748  33.945  30.392  1.00  0.00     0.055 A 
ATOM     82  C   UNL A   1      34.766  32.604  32.387  1.00  0.00     0.041 A 
ATOM     83  F   UNL A   1      36.748  31.553  33.058  1.00  0.00    -0.206 F 
ATOM     84  C   UNL A   1      34.077  33.428  31.503  1.00  0.00     0.022 A 
BRANCH  81  85
ATOM     85  S   UNL A   1      33.922  35.132  29.301  1.00  0.00     0.124 S 
ATOM     86  O   UNL A   1      33.507  36.164  30.245  1.00  0.00    -0.237 OA
ATOM     87  O   UNL A   1      34.995  35.497  28.383  1.00  0.00    -0.237 OA
ATOM     88  O   UNL A   1      32.836  34.352  28.711  1.00  0.00    -0.744 OA
ENDBRANCH  81  85
ENDBRANCH  54  78
BRANCH  66  89
ATOM     89  C   UNL A   1      42.766  35.289  33.632  1.00  0.00     0.023 A 
ATOM     90  C   UNL A   1      43.017  36.583  33.141  1.00  0.00     0.031 A 
ATOM     91  C   UNL A   1      42.844  35.086  35.022  1.00  0.00     0.131 A 
ATOM     92  C   UNL A   1      43.396  37.606  34.025  1.00  0.00     0.055 A 
ATOM     93  C   UNL A   1      43.157  36.123  35.902  1.00  0.00     0.041 A 
ATOM     94  F   UNL A   1      42.623  33.870  35.548  1.00  0.00    -0.206 F 
ATOM     95  C   UNL A   1      43.450  37.388  35.404  1.00  0.00     0.022 A 
BRANCH  92  96
ATOM     96  S   UNL A   1      43.925  39.200  33.339  1.00  0.00     0.124 S 
ATOM     97  O   UNL A   1      42.689  39.974  33.379  1.00  0.00    -0.237 OA
ATOM     98  O   UNL A   1      44.968  39.613  34.274  1.00  0.00    -0.237 OA
ATOM     99  O   UNL A   1      44.398  38.856  31.999  1.00  0.00    -0.744 OA
ENDBRANCH  92  96
ENDBRANCH  66  89
ENDBRANCH  40  41
ENDBRANCH  33  35
ENDBRANCH  32  33
ENDBRANCH  31  32
ENDBRANCH  30  31
ENDBRANCH  29  30
ENDBRANCH  28  29
ENDBRANCH   1  28
TORSDOF 24
ENDMDL
MODEL 2
REMARK VINA RESULT:     -10.1      2.018      2.287
REMARK SMILES COc1cccc(/C=C(/CC(=O)OCCOCCOCCOC(=O)c2ccc(-c3c4nc(c(-c5cc(S(=O)(=O)[O-])ccc5F)c5ccc([nH]5)c(-c5cc(S(=O)(=O)[O-])ccc5F)c5nc(c(-c6cc(S(=O)(=O)[O-])ccc6F)c6ccc3[nH]6)C=C5)C=C4)cc2)c2nc3ccccc3o2)c1
REMARK SMILES IDX 17 1 16 2 15 3 14 4 13 5 11 6 12 7 10 8 9 9 8 10 7 11 3 12
REMARK SMILES IDX 4 13 97 14 5 15 6 16 2 17 1 18 88 19 89 20 96 21 90 22 95 23
REMARK SMILES IDX 91 24 94 25 92 26 93 27 18 28 19 29 20 30 21 31 22 32 23 33
REMARK SMILES IDX 24 34 25 35 26 36 87 37 27 38 86 39 28 40 29 41 30 42 80 43
REMARK SMILES IDX 31 44 85 45 79 46 81 47 32 48 84 49 78 50 77 51 33 53 65 54
REMARK SMILES IDX 45 55 64 56 46 57 49 58 63 59 82 60 47 61 48 62 62 64 83 65
REMARK SMILES IDX 50 66 34 67 35 68 43 69 36 70 42 71 44 72 41 73 37 74 38 75
REMARK SMILES IDX 39 76 40 77 66 78 67 79 75 80 68 81 74 82 76 83 73 84 69 85
REMARK SMILES IDX 70 86 71 87 72 88 51 89 52 90 60 91 53 92 59 93 61 94 58 95
REMARK SMILES IDX 54 96 55 97 56 98 57 99
REMARK H PARENT 81 52 49 63
REMARK Flexibility Score: inf
ROOT
ATOM      1  C   UNL A   1      33.987  20.501  24.845  1.00  0.00     0.188 C 
ENDROOT
BRANCH   1   2
ATOM      2  O   UNL A   1      33.318  21.264  25.846  1.00  0.00    -0.376 OA
BRANCH   2   3
ATOM      3  C   UNL A   1      32.489  22.330  25.415  1.00  0.00     0.202 C 
BRANCH   3   4
ATOM      4  C   UNL A   1      33.208  23.660  25.148  1.00  0.00     0.261 C 
BRANCH   4   5
ATOM      5  O   UNL A   1      32.761  24.318  23.931  1.00  0.00    -0.463 OA
BRANCH   5   6
ATOM      6  C   UNL A   1      33.725  24.693  23.050  1.00  0.00     0.310 C 
ATOM      7  O   UNL A   1      34.591  23.923  22.642  1.00  0.00    -0.252 OA
BRANCH   6   8
ATOM      8  C   UNL A   1      33.565  26.114  22.455  1.00  0.00     0.163 C 
BRANCH   8   9
ATOM      9  C   UNL A   1      32.559  27.171  22.930  1.00  0.00     0.026 C 
ATOM     10  C   UNL A   1      31.396  27.310  22.248  1.00  0.00     0.018 C 
BRANCH  10  11
ATOM     11  C   UNL A   1      30.200  28.158  22.488  1.00  0.00    -0.021 A 
ATOM     12  C   UNL A   1      29.151  30.351  22.236  1.00  0.00     0.119 A 
ATOM     13  C   UNL A   1      28.015  29.890  22.895  1.00  0.00     0.046 A 
ATOM     14  C   UNL A   1      30.234  29.488  22.028  1.00  0.00     0.054 A 
ATOM     15  C   UNL A   1      27.964  28.582  23.363  1.00  0.00     0.004 A 
ATOM     16  C   UNL A   1      29.066  27.740  23.196  1.00  0.00     0.008 A 
BRANCH  12  17
ATOM     17  O   UNL A   1      29.130  31.677  21.901  1.00  0.00    -0.497 OA
ATOM     18  C   UNL A   1      27.991  32.100  21.162  1.00  0.00     0.278 C 
ENDBRANCH  12  17
ENDBRANCH  10  11
BRANCH   9  19
ATOM     19  C   UNL A   1      32.775  27.941  24.147  1.00  0.00     0.223 A 
ATOM     20  N   UNL A   1      33.742  27.715  25.028  1.00  0.00    -0.210 NA
ATOM     21  O   UNL A   1      32.028  29.067  24.503  1.00  0.00    -0.436 OA
ATOM     22  C   UNL A   1      33.694  28.762  25.928  1.00  0.00     0.110 A 
ATOM     23  C   UNL A   1      32.647  29.597  25.604  1.00  0.00     0.155 A 
ATOM     24  C   UNL A   1      34.500  29.103  27.027  1.00  0.00     0.032 A 
ATOM     25  C   UNL A   1      32.353  30.775  26.290  1.00  0.00     0.049 A 
ATOM     26  C   UNL A   1      34.229  30.261  27.758  1.00  0.00     0.003 A 
ATOM     27  C   UNL A   1      33.176  31.090  27.384  1.00  0.00     0.004 A 
ENDBRANCH   9  19
ENDBRANCH   8   9
ENDBRANCH   6   8
ENDBRANCH   5   6
ENDBRANCH   4   5
ENDBRANCH   3   4
ENDBRANCH   2   3
ENDBRANCH   1   2
BRANCH   1  28
ATOM     28  C   UNL A   1      35.496  20.210  25.016  1.00  0.00     0.188 C 
BRANCH  28  29
ATOM     29  O   UNL A   1      36.267  21.365  24.732  1.00  0.00    -0.376 OA
BRANCH  29  30
ATOM     30  C   UNL A   1      37.660  21.158  24.684  1.00  0.00     0.202 C 
BRANCH  30  31
ATOM     31  C   UNL A   1      38.438  21.334  26.001  1.00  0.00     0.261 C 
BRANCH  31  32
ATOM     32  O   UNL A   1      39.278  22.512  26.091  1.00  0.00    -0.460 OA
BRANCH  32  33
ATOM     33  C   UNL A   1      38.662  23.699  26.246  1.00  0.00     0.338 C 
ATOM     34  O   UNL A   1      37.535  23.958  25.819  1.00  0.00    -0.246 OA
BRANCH  33  35
ATOM     35  C   UNL A   1      39.435  24.741  26.994  1.00  0.00     0.060 A 
ATOM     36  C   UNL A   1      39.243  25.015  28.353  1.00  0.00     0.016 A 
ATOM     37  C   UNL A   1      40.102  25.696  26.223  1.00  0.00     0.016 A 
ATOM     38  C   UNL A   1      39.595  26.263  28.899  1.00  0.00     0.010 A 
ATOM     39  C   UNL A   1      40.515  26.916  26.783  1.00  0.00     0.010 A 
ATOM     40  C   UNL A   1      40.235  27.235  28.120  1.00  0.00    -0.014 A 
BRANCH  40  41
ATOM     41  C   UNL A   1      40.690  28.539  28.687  1.00  0.00     0.031 A 
ATOM     42  C   UNL A   1      42.123  28.775  29.100  1.00  0.00     0.074 A 
ATOM     43  C   UNL A   1      39.779  29.508  28.910  1.00  0.00     0.049 A 
ATOM     44  N   UNL A   1      42.621  29.708  29.875  1.00  0.00    -0.248 NA
ATOM     45  C   UNL A   1      43.127  27.851  28.559  1.00  0.00     0.031 C 
ATOM     46  C   UNL A   1      38.382  29.465  28.477  1.00  0.00     0.029 A 
ATOM     47  N   UNL A   1      39.882  30.698  29.589  1.00  0.00    -0.354 N 
ATOM     48  C   UNL A   1      43.992  29.471  29.943  1.00  0.00     0.074 A 
ATOM     49  C   UNL A   1      44.243  28.302  29.121  1.00  0.00     0.031 C 
ATOM     50  C   UNL A   1      37.751  30.558  28.924  1.00  0.00     0.029 A 
ATOM     51  C   UNL A   1      38.668  31.322  29.763  1.00  0.00     0.049 A 
ATOM     52  H   UNL A   1      40.734  31.066  29.918  1.00  0.00     0.167 HD
ATOM     53  C   UNL A   1      44.939  30.159  30.636  1.00  0.00     0.034 A 
ATOM     54  C   UNL A   1      38.298  32.336  30.568  1.00  0.00     0.034 A 
ATOM     55  C   UNL A   1      44.659  31.325  31.450  1.00  0.00     0.049 A 
ATOM     56  C   UNL A   1      39.327  32.991  31.447  1.00  0.00     0.074 A 
ATOM     57  C   UNL A   1      45.546  32.098  32.186  1.00  0.00     0.029 A 
ATOM     58  N   UNL A   1      43.402  31.885  31.649  1.00  0.00    -0.354 N 
ATOM     59  N   UNL A   1      40.606  32.721  31.561  1.00  0.00    -0.248 NA
ATOM     60  C   UNL A   1      38.861  34.084  32.306  1.00  0.00     0.031 C 
ATOM     61  C   UNL A   1      44.817  33.059  32.895  1.00  0.00     0.029 A 
ATOM     62  C   UNL A   1      43.486  32.956  32.530  1.00  0.00     0.049 A 
ATOM     63  H   UNL A   1      42.572  31.567  31.225  1.00  0.00     0.167 HD
ATOM     64  C   UNL A   1      41.103  33.636  32.484  1.00  0.00     0.074 A 
ATOM     65  C   UNL A   1      39.989  34.470  32.884  1.00  0.00     0.031 C 
ATOM     66  C   UNL A   1      42.371  33.776  32.949  1.00  0.00     0.034 A 
BRANCH  53  67
ATOM     67  C   UNL A   1      46.360  29.633  30.619  1.00  0.00     0.023 A 
ATOM     68  C   UNL A   1      46.827  28.679  31.540  1.00  0.00     0.031 A 
ATOM     69  C   UNL A   1      47.260  30.082  29.631  1.00  0.00     0.131 A 
ATOM     70  C   UNL A   1      48.164  28.245  31.483  1.00  0.00     0.055 A 
ATOM     71  C   UNL A   1      48.565  29.590  29.535  1.00  0.00     0.041 A 
ATOM     72  F   UNL A   1      46.884  31.006  28.733  1.00  0.00    -0.206 F 
ATOM     73  C   UNL A   1      49.027  28.674  30.473  1.00  0.00     0.022 A 
BRANCH  70  74
ATOM     74  S   UNL A   1      48.795  27.194  32.824  1.00  0.00     0.124 S 
ATOM     75  O   UNL A   1      48.845  25.879  32.168  1.00  0.00    -0.237 OA
ATOM     76  O   UNL A   1      50.060  27.799  33.142  1.00  0.00    -0.237 OA
ATOM     77  O   UNL A   1      47.755  27.307  33.860  1.00  0.00    -0.744 OA
ENDBRANCH  70  74
ENDBRANCH  53  67
BRANCH  54  78
ATOM     78  C   UNL A   1      36.863  32.732  30.643  1.00  0.00     0.023 A 
ATOM     79  C   UNL A   1      36.249  33.418  29.587  1.00  0.00     0.031 A 
ATOM     80  C   UNL A   1      36.090  32.440  31.783  1.00  0.00     0.131 A 
ATOM     81  C   UNL A   1      34.909  33.818  29.703  1.00  0.00     0.055 A 
ATOM     82  C   UNL A   1      34.741  32.782  31.866  1.00  0.00     0.041 A 
ATOM     83  F   UNL A   1      36.632  31.789  32.824  1.00  0.00    -0.206 F 
ATOM     84  C   UNL A   1      34.145  33.486  30.824  1.00  0.00     0.022 A 
BRANCH  81  85
ATOM     85  S   UNL A   1      34.204  34.855  28.395  1.00  0.00     0.124 S 
ATOM     86  O   UNL A   1      34.749  34.230  27.195  1.00  0.00    -0.237 OA
ATOM     87  O   UNL A   1      32.772  34.685  28.613  1.00  0.00    -0.237 OA
ATOM     88  O   UNL A   1      34.727  36.185  28.699  1.00  0.00    -0.744 OA
ENDBRANCH  81  85
ENDBRANCH  54  78
BRANCH  66  89
ATOM     89  C   UNL A   1      42.624  34.916  33.908  1.00  0.00     0.023 A 
ATOM     90  C   UNL A   1      42.527  34.750  35.301  1.00  0.00     0.031 A 
ATOM     91  C   UNL A   1      42.926  36.199  33.418  1.00  0.00     0.131 A 
ATOM     92  C   UNL A   1      42.666  35.860  36.151  1.00  0.00     0.055 A 
ATOM     93  C   UNL A   1      43.128  37.285  34.270  1.00  0.00     0.041 A 
ATOM     94  F   UNL A   1      43.022  36.420  32.096  1.00  0.00    -0.206 F 
ATOM     95  C   UNL A   1      42.984  37.123  35.644  1.00  0.00     0.022 A 
BRANCH  92  96
ATOM     96  S   UNL A   1      42.318  35.655  37.919  1.00  0.00     0.124 S 
ATOM     97  O   UNL A   1      42.230  37.039  38.374  1.00  0.00    -0.237 OA
ATOM     98  O   UNL A   1      41.064  34.908  37.906  1.00  0.00    -0.237 OA
ATOM     99  O   UNL A   1      43.475  34.912  38.413  1.00  0.00    -0.744 OA
ENDBRANCH  92  96
ENDBRANCH  66  89
ENDBRANCH  40  41
ENDBRANCH  33  35
ENDBRANCH  32  33
ENDBRANCH  31  32
ENDBRANCH  30  31
ENDBRANCH  29  30
ENDBRANCH  28  29
ENDBRANCH   1  28
TORSDOF 24
ENDMDL
MODEL 3
REMARK VINA RESULT:      -9.7      2.685      8.049
REMARK SMILES COc1cccc(/C=C(/CC(=O)OCCOCCOCCOC(=O)c2ccc(-c3c4nc(c(-c5cc(S(=O)(=O)[O-])ccc5F)c5ccc([nH]5)c(-c5cc(S(=O)(=O)[O-])ccc5F)c5nc(c(-c6cc(S(=O)(=O)[O-])ccc6F)c6ccc3[nH]6)C=C5)C=C4)cc2)c2nc3ccccc3o2)c1
REMARK SMILES IDX 17 1 16 2 15 3 14 4 13 5 11 6 12 7 10 8 9 9 8 10 7 11 3 12
REMARK SMILES IDX 4 13 97 14 5 15 6 16 2 17 1 18 88 19 89 20 96 21 90 22 95 23
REMARK SMILES IDX 91 24 94 25 92 26 93 27 18 28 19 29 20 30 21 31 22 32 23 33
REMARK SMILES IDX 24 34 25 35 26 36 87 37 27 38 86 39 28 40 29 41 30 42 80 43
REMARK SMILES IDX 31 44 85 45 79 46 81 47 32 48 84 49 78 50 77 51 33 53 65 54
REMARK SMILES IDX 45 55 64 56 46 57 49 58 63 59 82 60 47 61 48 62 62 64 83 65
REMARK SMILES IDX 50 66 34 67 35 68 43 69 36 70 42 71 44 72 41 73 37 74 38 75
REMARK SMILES IDX 39 76 40 77 66 78 67 79 75 80 68 81 74 82 76 83 73 84 69 85
REMARK SMILES IDX 70 86 71 87 72 88 51 89 52 90 60 91 53 92 59 93 61 94 58 95
REMARK SMILES IDX 54 96 55 97 56 98 57 99
REMARK H PARENT 81 52 49 63
REMARK Flexibility Score: inf
ROOT
ATOM      1  C   UNL A   1      34.970  23.584  23.970  1.00  0.00     0.188 C 
ENDROOT
BRANCH   1   2
ATOM      2  O   UNL A   1      34.408  24.059  22.750  1.00  0.00    -0.376 OA
BRANCH   2   3
ATOM      3  C   UNL A   1      33.046  24.454  22.765  1.00  0.00     0.202 C 
BRANCH   3   4
ATOM      4  C   UNL A   1      32.036  23.356  22.405  1.00  0.00     0.261 C 
BRANCH   4   5
ATOM      5  O   UNL A   1      30.861  23.355  23.262  1.00  0.00    -0.463 OA
BRANCH   5   6
ATOM      6  C   UNL A   1      31.072  23.137  24.586  1.00  0.00     0.310 C 
ATOM      7  O   UNL A   1      31.753  22.205  25.008  1.00  0.00    -0.252 OA
BRANCH   6   8
ATOM      8  C   UNL A   1      30.538  24.239  25.534  1.00  0.00     0.163 C 
BRANCH   8   9
ATOM      9  C   UNL A   1      30.949  25.717  25.503  1.00  0.00     0.026 C 
ATOM     10  C   UNL A   1      31.921  26.136  26.350  1.00  0.00     0.018 C 
BRANCH  10  11
ATOM     11  C   UNL A   1      32.597  27.450  26.512  1.00  0.00    -0.021 A 
ATOM     12  C   UNL A   1      32.369  29.829  27.023  1.00  0.00     0.119 A 
ATOM     13  C   UNL A   1      33.737  30.007  26.831  1.00  0.00     0.046 A 
ATOM     14  C   UNL A   1      31.804  28.557  26.870  1.00  0.00     0.054 A 
ATOM     15  C   UNL A   1      34.535  28.927  26.470  1.00  0.00     0.004 A 
ATOM     16  C   UNL A   1      33.959  27.671  26.272  1.00  0.00     0.008 A 
BRANCH  12  17
ATOM     17  O   UNL A   1      31.666  30.973  27.283  1.00  0.00    -0.497 OA
ATOM     18  C   UNL A   1      31.098  31.610  26.146  1.00  0.00     0.278 C 
ENDBRANCH  12  17
ENDBRANCH  10  11
BRANCH   9  19
ATOM     19  C   UNL A   1      30.404  26.643  24.520  1.00  0.00     0.223 A 
ATOM     20  N   UNL A   1      29.109  26.843  24.301  1.00  0.00    -0.210 NA
ATOM     21  O   UNL A   1      31.182  27.494  23.730  1.00  0.00    -0.436 OA
ATOM     22  C   UNL A   1      29.029  27.908  23.424  1.00  0.00     0.110 A 
ATOM     23  C   UNL A   1      30.299  28.313  23.078  1.00  0.00     0.155 A 
ATOM     24  C   UNL A   1      27.938  28.611  22.886  1.00  0.00     0.032 A 
ATOM     25  C   UNL A   1      30.568  29.397  22.242  1.00  0.00     0.049 A 
ATOM     26  C   UNL A   1      28.157  29.688  22.027  1.00  0.00     0.003 A 
ATOM     27  C   UNL A   1      29.457  30.081  21.720  1.00  0.00     0.004 A 
ENDBRANCH   9  19
ENDBRANCH   8   9
ENDBRANCH   6   8
ENDBRANCH   5   6
ENDBRANCH   4   5
ENDBRANCH   3   4
ENDBRANCH   2   3
ENDBRANCH   1   2
BRANCH   1  28
ATOM     28  C   UNL A   1      34.996  22.060  24.234  1.00  0.00     0.188 C 
BRANCH  28  29
ATOM     29  O   UNL A   1      36.298  21.536  24.035  1.00  0.00    -0.376 OA
BRANCH  29  30
ATOM     30  C   UNL A   1      36.808  20.777  25.107  1.00  0.00     0.202 C 
BRANCH  30  31
ATOM     31  C   UNL A   1      38.170  21.209  25.684  1.00  0.00     0.261 C 
BRANCH  31  32
ATOM     32  O   UNL A   1      38.562  22.581  25.427  1.00  0.00    -0.460 OA
BRANCH  32  33
ATOM     33  C   UNL A   1      38.090  23.525  26.264  1.00  0.00     0.338 C 
ATOM     34  O   UNL A   1      36.897  23.699  26.512  1.00  0.00    -0.246 OA
BRANCH  33  35
ATOM     35  C   UNL A   1      39.124  24.393  26.914  1.00  0.00     0.060 A 
ATOM     36  C   UNL A   1      39.247  24.536  28.301  1.00  0.00     0.016 A 
ATOM     37  C   UNL A   1      39.734  25.351  26.102  1.00  0.00     0.016 A 
ATOM     38  C   UNL A   1      39.856  25.674  28.862  1.00  0.00     0.010 A 
ATOM     39  C   UNL A   1      40.400  26.453  26.660  1.00  0.00     0.010 A 
ATOM     40  C   UNL A   1      40.440  26.652  28.048  1.00  0.00    -0.014 A 
BRANCH  40  41
ATOM     41  C   UNL A   1      41.160  27.833  28.612  1.00  0.00     0.031 A 
ATOM     42  C   UNL A   1      40.423  29.033  29.157  1.00  0.00     0.074 A 
ATOM     43  C   UNL A   1      42.507  27.862  28.563  1.00  0.00     0.049 A 
ATOM     44  N   UNL A   1      40.868  30.244  29.395  1.00  0.00    -0.248 NA
ATOM     45  C   UNL A   1      39.006  28.842  29.492  1.00  0.00     0.031 C 
ATOM     46  C   UNL A   1      43.358  26.744  28.156  1.00  0.00     0.029 A 
ATOM     47  N   UNL A   1      43.392  28.881  28.817  1.00  0.00    -0.354 N 
ATOM     48  C   UNL A   1      39.784  30.972  29.879  1.00  0.00     0.074 A 
ATOM     49  C   UNL A   1      38.657  30.057  29.903  1.00  0.00     0.031 C 
ATOM     50  C   UNL A   1      44.636  27.143  28.159  1.00  0.00     0.029 A 
ATOM     51  C   UNL A   1      44.685  28.568  28.462  1.00  0.00     0.049 A 
ATOM     52  H   UNL A   1      43.131  29.745  29.212  1.00  0.00     0.167 HD
ATOM     53  C   UNL A   1      39.738  32.279  30.252  1.00  0.00     0.034 A 
ATOM     54  C   UNL A   1      45.775  29.344  28.305  1.00  0.00     0.034 A 
ATOM     55  C   UNL A   1      40.880  33.171  30.218  1.00  0.00     0.049 A 
ATOM     56  C   UNL A   1      45.673  30.820  28.573  1.00  0.00     0.074 A 
ATOM     57  C   UNL A   1      40.942  34.510  30.579  1.00  0.00     0.029 A 
ATOM     58  N   UNL A   1      42.157  32.828  29.788  1.00  0.00    -0.354 N 
ATOM     59  N   UNL A   1      44.632  31.517  28.964  1.00  0.00    -0.248 NA
ATOM     60  C   UNL A   1      46.893  31.611  28.378  1.00  0.00     0.031 C 
ATOM     61  C   UNL A   1      42.223  34.992  30.285  1.00  0.00     0.029 A 
ATOM     62  C   UNL A   1      42.994  33.936  29.831  1.00  0.00     0.049 A 
ATOM     63  H   UNL A   1      42.428  31.928  29.496  1.00  0.00     0.167 HD
ATOM     64  C   UNL A   1      45.083  32.827  29.091  1.00  0.00     0.074 A 
ATOM     65  C   UNL A   1      46.490  32.818  28.748  1.00  0.00     0.031 C 
ATOM     66  C   UNL A   1      44.393  33.935  29.467  1.00  0.00     0.034 A 
BRANCH  53  67
ATOM     67  C   UNL A   1      38.399  32.861  30.657  1.00  0.00     0.023 A 
ATOM     68  C   UNL A   1      38.020  33.029  32.001  1.00  0.00     0.031 A 
ATOM     69  C   UNL A   1      37.492  33.287  29.665  1.00  0.00     0.131 A 
ATOM     70  C   UNL A   1      36.754  33.559  32.312  1.00  0.00     0.055 A 
ATOM     71  C   UNL A   1      36.268  33.881  29.983  1.00  0.00     0.041 A 
ATOM     72  F   UNL A   1      37.784  33.138  28.364  1.00  0.00    -0.206 F 
ATOM     73  C   UNL A   1      35.888  34.009  31.314  1.00  0.00     0.022 A 
BRANCH  70  74
ATOM     74  S   UNL A   1      36.208  33.544  34.044  1.00  0.00     0.124 S 
ATOM     75  O   UNL A   1      37.157  32.595  34.644  1.00  0.00    -0.237 OA
ATOM     76  O   UNL A   1      36.345  34.922  34.438  1.00  0.00    -0.237 OA
ATOM     77  O   UNL A   1      34.828  33.040  33.960  1.00  0.00    -0.744 OA
ENDBRANCH  70  74
ENDBRANCH  53  67
BRANCH  54  78
ATOM     78  C   UNL A   1      47.036  28.746  27.783  1.00  0.00     0.023 A 
ATOM     79  C   UNL A   1      47.212  28.519  26.412  1.00  0.00     0.031 A 
ATOM     80  C   UNL A   1      48.078  28.379  28.656  1.00  0.00     0.131 A 
ATOM     81  C   UNL A   1      48.391  27.912  25.953  1.00  0.00     0.055 A 
ATOM     82  C   UNL A   1      49.275  27.837  28.187  1.00  0.00     0.041 A 
ATOM     83  F   UNL A   1      47.958  28.571  29.979  1.00  0.00    -0.206 F 
ATOM     84  C   UNL A   1      49.432  27.590  26.827  1.00  0.00     0.022 A 
BRANCH  81  85
ATOM     85  S   UNL A   1      48.507  27.474  24.199  1.00  0.00     0.124 S 
ATOM     86  O   UNL A   1      48.432  26.018  24.251  1.00  0.00    -0.237 OA
ATOM     87  O   UNL A   1      47.347  28.157  23.638  1.00  0.00    -0.237 OA
ATOM     88  O   UNL A   1      49.803  28.019  23.798  1.00  0.00    -0.744 OA
ENDBRANCH  81  85
ENDBRANCH  54  78
BRANCH  66  89
ATOM     89  C   UNL A   1      45.177  35.222  29.577  1.00  0.00     0.023 A 
ATOM     90  C   UNL A   1      45.797  35.614  30.777  1.00  0.00     0.031 A 
ATOM     91  C   UNL A   1      45.271  36.090  28.474  1.00  0.00     0.131 A 
ATOM     92  C   UNL A   1      46.425  36.867  30.864  1.00  0.00     0.055 A 
ATOM     93  C   UNL A   1      45.953  37.304  28.548  1.00  0.00     0.041 A 
ATOM     94  F   UNL A   1      44.691  35.773  27.305  1.00  0.00    -0.206 F 
ATOM     95  C   UNL A   1      46.523  37.706  29.752  1.00  0.00     0.022 A 
BRANCH  92  96
ATOM     96  S   UNL A   1      47.019  37.435  32.482  1.00  0.00     0.124 S 
ATOM     97  O   UNL A   1      48.031  38.417  32.107  1.00  0.00    -0.237 OA
ATOM     98  O   UNL A   1      45.805  37.970  33.091  1.00  0.00    -0.237 OA
ATOM     99  O   UNL A   1      47.537  36.218  33.104  1.00  0.00    -0.744 OA
ENDBRANCH  92  96
ENDBRANCH  66  89
ENDBRANCH  40  41
ENDBRANCH  33  35
ENDBRANCH  32  33
ENDBRANCH  31  32
ENDBRANCH  30  31
ENDBRANCH  29  30
ENDBRANCH  28  29
ENDBRANCH   1  28
TORSDOF 24
ENDMDL
