MODEL 1
REMARK VINA RESULT:      -7.9      0.000      0.000
REMARK SMILES CCCc1cc(OC(F)(F)F)cc2c1O[C@H](C(F)(F)F)C(C(=O)OCCOCCOCCOC(=O)c1ccc(-c3c4nc(c(-c5cc(S(=O)(=O)[O-])ccc5F)c5ccc([nH]5)c(-c5cc(S(=O)(=O)[O-])ccc5F)c5nc(c(-c6cc(S(=O)(=O)[O-])ccc6F)c6ccc3[nH]6)C=C5)C=C4)cc1)=C2
REMARK SMILES IDX 29 1 28 2 27 3 26 4 25 5 24 6 22 7 23 8 21 9 4 10 5 11 14 12
REMARK SMILES IDX 6 13 13 14 15 15 12 16 99 17 16 18 3 19 2 20 1 21 7 22 8 23
REMARK SMILES IDX 9 24 10 25 11 26 17 27 18 28 19 29 20 30 30 31 31 32 32 33
REMARK SMILES IDX 33 34 34 35 35 36 36 37 37 38 98 39 38 40 97 41 39 42 40 43
REMARK SMILES IDX 41 44 91 45 42 46 96 47 90 48 92 49 43 50 95 51 89 52 88 53
REMARK SMILES IDX 44 55 76 56 56 57 75 58 57 59 60 60 74 61 93 62 58 63 59 64
REMARK SMILES IDX 73 66 94 67 61 68 45 69 46 70 54 71 47 72 53 73 55 74 52 75
REMARK SMILES IDX 48 76 49 77 50 78 51 79 77 80 78 81 86 82 79 83 85 84 87 85
REMARK SMILES IDX 84 86 80 87 81 88 82 89 83 90 62 91 63 92 71 93 64 94 70 95
REMARK SMILES IDX 72 96 69 97 65 98 66 99 67 100 68 101
REMARK H PARENT 92 54 60 65
REMARK Flexibility Score: inf
ROOT
ATOM      1  C   UNL A   1      33.341  37.329  31.339  1.00  0.00     0.188 C 
ENDROOT
BRANCH   1   2
ATOM      2  C   UNL A   1      32.668  36.140  30.619  1.00  0.00     0.188 C 
BRANCH   2   3
ATOM      3  O   UNL A   1      32.379  36.217  29.229  1.00  0.00    -0.376 OA
BRANCH   3   4
ATOM      4  C   UNL A   1      33.432  36.411  28.297  1.00  0.00     0.202 C 
BRANCH   4   5
ATOM      5  C   UNL A   1      34.736  35.614  28.444  1.00  0.00     0.261 C 
BRANCH   5   6
ATOM      6  O   UNL A   1      34.908  34.518  27.525  1.00  0.00    -0.460 OA
BRANCH   6   7
ATOM      7  C   UNL A   1      34.647  33.290  28.036  1.00  0.00     0.338 C 
ATOM      8  O   UNL A   1      33.590  32.685  27.944  1.00  0.00    -0.246 OA
BRANCH   7   9
ATOM      9  C   UNL A   1      35.841  32.670  28.647  1.00  0.00     0.087 C 
ATOM     10  C   UNL A   1      38.562  30.879  31.236  1.00  0.00    -0.002 A 
ATOM     11  C   UNL A   1      39.901  31.277  31.195  1.00  0.00     0.054 A 
ATOM     12  C   UNL A   1      37.656  31.562  30.414  1.00  0.00     0.131 A 
ATOM     13  C   UNL A   1      40.304  32.377  30.427  1.00  0.00     0.130 A 
ATOM     14  C   UNL A   1      38.046  32.624  29.580  1.00  0.00     0.021 A 
ATOM     15  O   UNL A   1      36.343  31.169  30.486  1.00  0.00    -0.475 OA
ATOM     16  C   UNL A   1      39.380  33.031  29.598  1.00  0.00     0.058 A 
ATOM     17  C   UNL A   1      37.018  33.309  28.784  1.00  0.00     0.027 C 
ATOM     18  C   UNL A   1      35.640  31.287  29.230  1.00  0.00     0.316 C 
BRANCH  10  19
ATOM     19  C   UNL A   1      38.054  29.721  32.074  1.00  0.00     0.039 C 
BRANCH  19  20
ATOM     20  C   UNL A   1      38.645  28.329  31.834  1.00  0.00     0.001 C 
ATOM     21  C   UNL A   1      38.678  27.938  30.362  1.00  0.00     0.004 C 
ENDBRANCH  19  20
ENDBRANCH  10  19
BRANCH  13  22
ATOM     22  O   UNL A   1      41.572  32.893  30.408  1.00  0.00    -0.406 OA
BRANCH  22  23
ATOM     23  C   UNL A   1      41.958  33.659  31.543  1.00  0.00     0.573 C 
ATOM     24  F   UNL A   1      41.106  34.683  31.769  1.00  0.00    -0.132 F 
ATOM     25  F   UNL A   1      42.037  32.886  32.645  1.00  0.00    -0.132 F 
ATOM     26  F   UNL A   1      43.183  34.185  31.314  1.00  0.00    -0.132 F 
ENDBRANCH  22  23
ENDBRANCH  13  22
BRANCH  18  27
ATOM     27  C   UNL A   1      36.032  30.136  28.277  1.00  0.00     0.430 C 
ATOM     28  F   UNL A   1      37.220  30.359  27.669  1.00  0.00    -0.167 F 
ATOM     29  F   UNL A   1      36.147  28.963  28.939  1.00  0.00    -0.167 F 
ATOM     30  F   UNL A   1      35.117  29.936  27.295  1.00  0.00    -0.167 F 
ENDBRANCH  18  27
ENDBRANCH   7   9
ENDBRANCH   6   7
ENDBRANCH   5   6
ENDBRANCH   4   5
ENDBRANCH   3   4
ENDBRANCH   2   3
ENDBRANCH   1   2
BRANCH   1  31
ATOM     31  O   UNL A   1      32.878  37.512  32.658  1.00  0.00    -0.376 OA
BRANCH  31  32
ATOM     32  C   UNL A   1      33.736  37.158  33.726  1.00  0.00     0.202 C 
BRANCH  32  33
ATOM     33  C   UNL A   1      34.317  35.738  33.882  1.00  0.00     0.261 C 
BRANCH  33  34
ATOM     34  O   UNL A   1      35.698  35.534  33.558  1.00  0.00    -0.460 OA
BRANCH  34  35
ATOM     35  C   UNL A   1      36.016  34.418  32.867  1.00  0.00     0.338 C 
ATOM     36  O   UNL A   1      35.578  34.090  31.770  1.00  0.00    -0.246 OA
BRANCH  35  37
ATOM     37  C   UNL A   1      37.105  33.722  33.584  1.00  0.00     0.060 A 
ATOM     38  C   UNL A   1      36.815  32.564  34.316  1.00  0.00     0.016 A 
ATOM     39  C   UNL A   1      38.412  34.215  33.536  1.00  0.00     0.016 A 
ATOM     40  C   UNL A   1      37.831  31.899  35.010  1.00  0.00     0.010 A 
ATOM     41  C   UNL A   1      39.422  33.561  34.250  1.00  0.00     0.010 A 
ATOM     42  C   UNL A   1      39.137  32.410  35.008  1.00  0.00    -0.014 A 
BRANCH  42  43
ATOM     43  C   UNL A   1      40.168  31.857  35.926  1.00  0.00     0.031 A 
ATOM     44  C   UNL A   1      40.380  32.535  37.252  1.00  0.00     0.074 A 
ATOM     45  C   UNL A   1      40.908  30.782  35.597  1.00  0.00     0.049 A 
ATOM     46  N   UNL A   1      41.303  32.332  38.156  1.00  0.00    -0.248 NA
ATOM     47  C   UNL A   1      39.414  33.588  37.600  1.00  0.00     0.031 C 
ATOM     48  C   UNL A   1      40.749  29.987  34.381  1.00  0.00     0.029 A 
ATOM     49  N   UNL A   1      41.955  30.182  36.257  1.00  0.00    -0.354 N 
ATOM     50  C   UNL A   1      41.040  33.241  39.176  1.00  0.00     0.074 A 
ATOM     51  C   UNL A   1      39.885  34.011  38.763  1.00  0.00     0.031 C 
ATOM     52  C   UNL A   1      41.680  29.015  34.372  1.00  0.00     0.029 A 
ATOM     53  C   UNL A   1      42.534  29.151  35.551  1.00  0.00     0.049 A 
ATOM     54  H   UNL A   1      42.261  30.463  37.148  1.00  0.00     0.167 HD
ATOM     55  C   UNL A   1      41.700  33.415  40.347  1.00  0.00     0.034 A 
ATOM     56  C   UNL A   1      43.649  28.433  35.807  1.00  0.00     0.034 A 
ATOM     57  C   UNL A   1      42.860  32.652  40.737  1.00  0.00     0.049 A 
ATOM     58  C   UNL A   1      44.446  28.729  37.060  1.00  0.00     0.074 A 
ATOM     59  C   UNL A   1      43.609  32.752  41.896  1.00  0.00     0.029 A 
ATOM     60  N   UNL A   1      43.452  31.655  39.970  1.00  0.00    -0.354 N 
ATOM     61  N   UNL A   1      44.205  29.606  38.008  1.00  0.00    -0.248 NA
ATOM     62  C   UNL A   1      45.665  27.937  37.278  1.00  0.00     0.031 C 
ATOM     63  C   UNL A   1      44.696  31.880  41.795  1.00  0.00     0.029 A 
ATOM     64  C   UNL A   1      44.575  31.162  40.616  1.00  0.00     0.049 A 
ATOM     65  H   UNL A   1      43.121  31.345  39.096  1.00  0.00     0.167 HD
ATOM     66  C   UNL A   1      45.219  29.441  38.950  1.00  0.00     0.074 A 
ATOM     67  C   UNL A   1      46.072  28.379  38.459  1.00  0.00     0.031 C 
ATOM     68  C   UNL A   1      45.420  30.100  40.120  1.00  0.00     0.034 A 
BRANCH  55  69
ATOM     69  C   UNL A   1      41.219  34.523  41.253  1.00  0.00     0.023 A 
ATOM     70  C   UNL A   1      40.167  34.334  42.166  1.00  0.00     0.031 A 
ATOM     71  C   UNL A   1      41.802  35.801  41.176  1.00  0.00     0.131 A 
ATOM     72  C   UNL A   1      39.683  35.422  42.910  1.00  0.00     0.055 A 
ATOM     73  C   UNL A   1      41.373  36.857  41.981  1.00  0.00     0.041 A 
ATOM     74  F   UNL A   1      42.793  36.049  40.305  1.00  0.00    -0.206 F 
ATOM     75  C   UNL A   1      40.295  36.675  42.843  1.00  0.00     0.022 A 
BRANCH  72  76
ATOM     76  S   UNL A   1      38.145  35.214  43.849  1.00  0.00     0.124 S 
ATOM     77  O   UNL A   1      38.085  36.469  44.597  1.00  0.00    -0.237 OA
ATOM     78  O   UNL A   1      37.151  35.048  42.797  1.00  0.00    -0.237 OA
ATOM     79  O   UNL A   1      38.398  34.026  44.663  1.00  0.00    -0.744 OA
ENDBRANCH  72  76
ENDBRANCH  55  69
BRANCH  56  80
ATOM     80  C   UNL A   1      44.131  27.404  34.837  1.00  0.00     0.023 A 
ATOM     81  C   UNL A   1      43.688  26.074  34.902  1.00  0.00     0.031 A 
ATOM     82  C   UNL A   1      45.108  27.722  33.874  1.00  0.00     0.131 A 
ATOM     83  C   UNL A   1      44.253  25.103  34.058  1.00  0.00     0.055 A 
ATOM     84  C   UNL A   1      45.621  26.766  32.995  1.00  0.00     0.041 A 
ATOM     85  F   UNL A   1      45.580  28.975  33.774  1.00  0.00    -0.206 F 
ATOM     86  C   UNL A   1      45.204  25.444  33.094  1.00  0.00     0.022 A 
BRANCH  83  87
ATOM     87  S   UNL A   1      43.802  23.362  34.308  1.00  0.00     0.124 S 
ATOM     88  O   UNL A   1      43.464  22.947  32.952  1.00  0.00    -0.237 OA
ATOM     89  O   UNL A   1      45.032  22.806  34.862  1.00  0.00    -0.237 OA
ATOM     90  O   UNL A   1      42.677  23.432  35.239  1.00  0.00    -0.744 OA
ENDBRANCH  83  87
ENDBRANCH  56  80
BRANCH  68  91
ATOM     91  C   UNL A   1      46.569  29.646  40.991  1.00  0.00     0.023 A 
ATOM     92  C   UNL A   1      47.842  30.238  40.926  1.00  0.00     0.031 A 
ATOM     93  C   UNL A   1      46.372  28.607  41.922  1.00  0.00     0.131 A 
ATOM     94  C   UNL A   1      48.878  29.761  41.746  1.00  0.00     0.055 A 
ATOM     95  C   UNL A   1      47.388  28.179  42.776  1.00  0.00     0.041 A 
ATOM     96  F   UNL A   1      45.179  28.002  42.026  1.00  0.00    -0.206 F 
ATOM     97  C   UNL A   1      48.653  28.750  42.683  1.00  0.00     0.022 A 
BRANCH  94  98
ATOM     98  S   UNL A   1      50.552  30.425  41.520  1.00  0.00     0.124 S 
ATOM     99  O   UNL A   1      51.377  29.373  42.102  1.00  0.00    -0.237 OA
ATOM    100  O   UNL A   1      50.636  30.573  40.070  1.00  0.00    -0.237 OA
ATOM    101  O   UNL A   1      50.528  31.681  42.269  1.00  0.00    -0.744 OA
ENDBRANCH  94  98
ENDBRANCH  68  91
ENDBRANCH  42  43
ENDBRANCH  35  37
ENDBRANCH  34  35
ENDBRANCH  33  34
ENDBRANCH  32  33
ENDBRANCH  31  32
ENDBRANCH   1  31
TORSDOF 25
ENDMDL
MODEL 2
REMARK VINA RESULT:      -7.8      6.112     11.797
REMARK SMILES CCCc1cc(OC(F)(F)F)cc2c1O[C@H](C(F)(F)F)C(C(=O)OCCOCCOCCOC(=O)c1ccc(-c3c4nc(c(-c5cc(S(=O)(=O)[O-])ccc5F)c5ccc([nH]5)c(-c5cc(S(=O)(=O)[O-])ccc5F)c5nc(c(-c6cc(S(=O)(=O)[O-])ccc6F)c6ccc3[nH]6)C=C5)C=C4)cc1)=C2
REMARK SMILES IDX 29 1 28 2 27 3 26 4 25 5 24 6 22 7 23 8 21 9 4 10 5 11 14 12
REMARK SMILES IDX 6 13 13 14 15 15 12 16 99 17 16 18 3 19 2 20 1 21 7 22 8 23
REMARK SMILES IDX 9 24 10 25 11 26 17 27 18 28 19 29 20 30 30 31 31 32 32 33
REMARK SMILES IDX 33 34 34 35 35 36 36 37 37 38 98 39 38 40 97 41 39 42 40 43
REMARK SMILES IDX 41 44 91 45 42 46 96 47 90 48 92 49 43 50 95 51 89 52 88 53
REMARK SMILES IDX 44 55 76 56 56 57 75 58 57 59 60 60 74 61 93 62 58 63 59 64
REMARK SMILES IDX 73 66 94 67 61 68 45 69 46 70 54 71 47 72 53 73 55 74 52 75
REMARK SMILES IDX 48 76 49 77 50 78 51 79 77 80 78 81 86 82 79 83 85 84 87 85
REMARK SMILES IDX 84 86 80 87 81 88 82 89 83 90 62 91 63 92 71 93 64 94 70 95
REMARK SMILES IDX 72 96 69 97 65 98 66 99 67 100 68 101
REMARK H PARENT 92 54 60 65
REMARK Flexibility Score: inf
ROOT
ATOM      1  C   UNL A   1      33.213  33.796  28.611  1.00  0.00     0.188 C 
ENDROOT
BRANCH   1   2
ATOM      2  C   UNL A   1      32.408  33.858  27.295  1.00  0.00     0.188 C 
BRANCH   2   3
ATOM      3  O   UNL A   1      31.538  32.791  26.939  1.00  0.00    -0.376 OA
BRANCH   3   4
ATOM      4  C   UNL A   1      31.941  31.447  27.154  1.00  0.00     0.202 C 
BRANCH   4   5
ATOM      5  C   UNL A   1      32.133  30.508  25.954  1.00  0.00     0.261 C 
BRANCH   5   6
ATOM      6  O   UNL A   1      31.790  29.128  26.178  1.00  0.00    -0.460 OA
BRANCH   6   7
ATOM      7  C   UNL A   1      31.338  28.461  25.087  1.00  0.00     0.338 C 
ATOM      8  O   UNL A   1      30.508  28.871  24.290  1.00  0.00    -0.246 OA
BRANCH   7   9
ATOM      9  C   UNL A   1      32.049  27.184  24.875  1.00  0.00     0.087 C 
ATOM     10  C   UNL A   1      33.089  23.168  24.543  1.00  0.00    -0.002 A 
ATOM     11  C   UNL A   1      34.346  22.753  24.994  1.00  0.00     0.054 A 
ATOM     12  C   UNL A   1      32.737  24.509  24.748  1.00  0.00     0.131 A 
ATOM     13  C   UNL A   1      35.181  23.625  25.705  1.00  0.00     0.130 A 
ATOM     14  C   UNL A   1      33.585  25.423  25.397  1.00  0.00     0.021 A 
ATOM     15  O   UNL A   1      31.490  24.889  24.316  1.00  0.00    -0.475 OA
ATOM     16  C   UNL A   1      34.811  24.966  25.881  1.00  0.00     0.058 A 
ATOM     17  C   UNL A   1      33.111  26.798  25.604  1.00  0.00     0.027 C 
ATOM     18  C   UNL A   1      31.438  26.254  23.846  1.00  0.00     0.316 C 
BRANCH  10  19
ATOM     19  C   UNL A   1      32.123  22.266  23.800  1.00  0.00     0.039 C 
BRANCH  19  20
ATOM     20  C   UNL A   1      32.434  21.900  22.346  1.00  0.00     0.001 C 
ATOM     21  C   UNL A   1      31.794  20.588  21.909  1.00  0.00     0.004 C 
ENDBRANCH  19  20
ENDBRANCH  10  19
BRANCH  13  22
ATOM     22  O   UNL A   1      36.379  23.272  26.266  1.00  0.00    -0.406 OA
BRANCH  22  23
ATOM     23  C   UNL A   1      37.519  23.343  25.418  1.00  0.00     0.573 C 
ATOM     24  F   UNL A   1      38.168  22.159  25.350  1.00  0.00    -0.132 F 
ATOM     25  F   UNL A   1      37.174  23.740  24.176  1.00  0.00    -0.132 F 
ATOM     26  F   UNL A   1      38.380  24.255  25.924  1.00  0.00    -0.132 F 
ENDBRANCH  22  23
ENDBRANCH  13  22
BRANCH  18  27
ATOM     27  C   UNL A   1      32.066  26.369  22.439  1.00  0.00     0.430 C 
ATOM     28  F   UNL A   1      31.948  25.221  21.732  1.00  0.00    -0.167 F 
ATOM     29  F   UNL A   1      31.471  27.339  21.710  1.00  0.00    -0.167 F 
ATOM     30  F   UNL A   1      33.388  26.673  22.480  1.00  0.00    -0.167 F 
ENDBRANCH  18  27
ENDBRANCH   7   9
ENDBRANCH   6   7
ENDBRANCH   5   6
ENDBRANCH   4   5
ENDBRANCH   3   4
ENDBRANCH   2   3
ENDBRANCH   1   2
BRANCH   1  31
ATOM     31  O   UNL A   1      34.473  34.423  28.520  1.00  0.00    -0.376 OA
BRANCH  31  32
ATOM     32  C   UNL A   1      35.620  33.607  28.375  1.00  0.00     0.202 C 
BRANCH  32  33
ATOM     33  C   UNL A   1      35.540  32.153  27.869  1.00  0.00     0.261 C 
BRANCH  33  34
ATOM     34  O   UNL A   1      35.613  31.097  28.834  1.00  0.00    -0.460 OA
BRANCH  34  35
ATOM     35  C   UNL A   1      35.709  29.833  28.366  1.00  0.00     0.338 C 
ATOM     36  O   UNL A   1      34.813  29.177  27.846  1.00  0.00    -0.246 OA
BRANCH  35  37
ATOM     37  C   UNL A   1      37.124  29.415  28.446  1.00  0.00     0.060 A 
ATOM     38  C   UNL A   1      37.582  28.751  29.590  1.00  0.00     0.016 A 
ATOM     39  C   UNL A   1      38.000  29.681  27.389  1.00  0.00     0.016 A 
ATOM     40  C   UNL A   1      38.921  28.358  29.687  1.00  0.00     0.010 A 
ATOM     41  C   UNL A   1      39.345  29.308  27.499  1.00  0.00     0.010 A 
ATOM     42  C   UNL A   1      39.820  28.661  28.655  1.00  0.00    -0.014 A 
BRANCH  42  43
ATOM     43  C   UNL A   1      41.283  28.468  28.842  1.00  0.00     0.031 A 
ATOM     44  C   UNL A   1      41.945  27.313  28.143  1.00  0.00     0.074 A 
ATOM     45  C   UNL A   1      42.014  29.290  29.618  1.00  0.00     0.049 A 
ATOM     46  N   UNL A   1      43.164  26.854  28.258  1.00  0.00    -0.248 NA
ATOM     47  C   UNL A   1      41.110  26.574  27.184  1.00  0.00     0.031 C 
ATOM     48  C   UNL A   1      41.512  30.490  30.285  1.00  0.00     0.029 A 
ATOM     49  N   UNL A   1      43.338  29.230  29.984  1.00  0.00    -0.354 N 
ATOM     50  C   UNL A   1      43.242  25.765  27.396  1.00  0.00     0.074 A 
ATOM     51  C   UNL A   1      41.937  25.619  26.787  1.00  0.00     0.031 C 
ATOM     52  C   UNL A   1      42.511  31.041  30.998  1.00  0.00     0.029 A 
ATOM     53  C   UNL A   1      43.707  30.207  30.882  1.00  0.00     0.049 A 
ATOM     54  H   UNL A   1      43.962  28.553  29.638  1.00  0.00     0.167 HD
ATOM     55  C   UNL A   1      44.304  24.962  27.137  1.00  0.00     0.034 A 
ATOM     56  C   UNL A   1      44.861  30.379  31.562  1.00  0.00     0.034 A 
ATOM     57  C   UNL A   1      45.594  25.110  27.766  1.00  0.00     0.049 A 
ATOM     58  C   UNL A   1      45.994  29.397  31.354  1.00  0.00     0.074 A 
ATOM     59  C   UNL A   1      46.734  24.348  27.582  1.00  0.00     0.029 A 
ATOM     60  N   UNL A   1      45.913  26.075  28.712  1.00  0.00    -0.354 N 
ATOM     61  N   UNL A   1      46.052  28.355  30.557  1.00  0.00    -0.248 NA
ATOM     62  C   UNL A   1      47.218  29.615  32.139  1.00  0.00     0.031 C 
ATOM     63  C   UNL A   1      47.712  24.798  28.473  1.00  0.00     0.029 A 
ATOM     64  C   UNL A   1      47.218  25.903  29.146  1.00  0.00     0.049 A 
ATOM     65  H   UNL A   1      45.301  26.780  29.028  1.00  0.00     0.167 HD
ATOM     66  C   UNL A   1      47.330  27.821  30.716  1.00  0.00     0.074 A 
ATOM     67  C   UNL A   1      48.011  28.656  31.681  1.00  0.00     0.031 C 
ATOM     68  C   UNL A   1      47.892  26.744  30.110  1.00  0.00     0.034 A 
BRANCH  55  69
ATOM     69  C   UNL A   1      44.085  23.812  26.184  1.00  0.00     0.023 A 
ATOM     70  C   UNL A   1      43.328  22.683  26.542  1.00  0.00     0.031 A 
ATOM     71  C   UNL A   1      44.675  23.832  24.907  1.00  0.00     0.131 A 
ATOM     72  C   UNL A   1      43.243  21.592  25.663  1.00  0.00     0.055 A 
ATOM     73  C   UNL A   1      44.514  22.780  24.004  1.00  0.00     0.041 A 
ATOM     74  F   UNL A   1      45.430  24.871  24.519  1.00  0.00    -0.206 F 
ATOM     75  C   UNL A   1      43.808  21.643  24.386  1.00  0.00     0.022 A 
BRANCH  72  76
ATOM     76  S   UNL A   1      42.513  20.046  26.269  1.00  0.00     0.124 S 
ATOM     77  O   UNL A   1      43.605  19.098  26.047  1.00  0.00    -0.237 OA
ATOM     78  O   UNL A   1      42.214  20.361  27.660  1.00  0.00    -0.237 OA
ATOM     79  O   UNL A   1      41.349  19.854  25.406  1.00  0.00    -0.744 OA
ENDBRANCH  72  76
ENDBRANCH  55  69
BRANCH  56  80
ATOM     80  C   UNL A   1      45.000  31.485  32.558  1.00  0.00     0.023 A 
ATOM     81  C   UNL A   1      44.602  31.319  33.894  1.00  0.00     0.031 A 
ATOM     82  C   UNL A   1      45.462  32.755  32.166  1.00  0.00     0.131 A 
ATOM     83  C   UNL A   1      44.625  32.413  34.775  1.00  0.00     0.055 A 
ATOM     84  C   UNL A   1      45.542  33.823  33.061  1.00  0.00     0.041 A 
ATOM     85  F   UNL A   1      45.843  32.977  30.897  1.00  0.00    -0.206 F 
ATOM     86  C   UNL A   1      45.109  33.660  34.371  1.00  0.00     0.022 A 
BRANCH  83  87
ATOM     87  S   UNL A   1      43.916  32.212  36.434  1.00  0.00     0.124 S 
ATOM     88  O   UNL A   1      45.101  32.323  37.277  1.00  0.00    -0.237 OA
ATOM     89  O   UNL A   1      42.975  33.325  36.499  1.00  0.00    -0.237 OA
ATOM     90  O   UNL A   1      43.307  30.884  36.384  1.00  0.00    -0.744 OA
ENDBRANCH  83  87
ENDBRANCH  56  80
BRANCH  68  91
ATOM     91  C   UNL A   1      49.342  26.444  30.417  1.00  0.00     0.023 A 
ATOM     92  C   UNL A   1      49.727  25.465  31.348  1.00  0.00     0.031 A 
ATOM     93  C   UNL A   1      50.358  27.147  29.741  1.00  0.00     0.131 A 
ATOM     94  C   UNL A   1      51.089  25.244  31.608  1.00  0.00     0.055 A 
ATOM     95  C   UNL A   1      51.710  26.880  29.959  1.00  0.00     0.041 A 
ATOM     96  F   UNL A   1      50.051  28.097  28.843  1.00  0.00    -0.206 F 
ATOM     97  C   UNL A   1      52.082  25.932  30.906  1.00  0.00     0.022 A 
BRANCH  94  98
ATOM     98  S   UNL A   1      51.554  24.099  32.937  1.00  0.00     0.124 S 
ATOM     99  O   UNL A   1      50.824  24.645  34.077  1.00  0.00    -0.237 OA
ATOM    100  O   UNL A   1      51.074  22.818  32.428  1.00  0.00    -0.237 OA
ATOM    101  O   UNL A   1      53.008  24.230  33.011  1.00  0.00    -0.744 OA
ENDBRANCH  94  98
ENDBRANCH  68  91
ENDBRANCH  42  43
ENDBRANCH  35  37
ENDBRANCH  34  35
ENDBRANCH  33  34
ENDBRANCH  32  33
ENDBRANCH  31  32
ENDBRANCH   1  31
TORSDOF 25
ENDMDL
MODEL 3
REMARK VINA RESULT:      -7.8      5.388      8.248
REMARK SMILES CCCc1cc(OC(F)(F)F)cc2c1O[C@H](C(F)(F)F)C(C(=O)OCCOCCOCCOC(=O)c1ccc(-c3c4nc(c(-c5cc(S(=O)(=O)[O-])ccc5F)c5ccc([nH]5)c(-c5cc(S(=O)(=O)[O-])ccc5F)c5nc(c(-c6cc(S(=O)(=O)[O-])ccc6F)c6ccc3[nH]6)C=C5)C=C4)cc1)=C2
REMARK SMILES IDX 29 1 28 2 27 3 26 4 25 5 24 6 22 7 23 8 21 9 4 10 5 11 14 12
REMARK SMILES IDX 6 13 13 14 15 15 12 16 99 17 16 18 3 19 2 20 1 21 7 22 8 23
REMARK SMILES IDX 9 24 10 25 11 26 17 27 18 28 19 29 20 30 30 31 31 32 32 33
REMARK SMILES IDX 33 34 34 35 35 36 36 37 37 38 98 39 38 40 97 41 39 42 40 43
REMARK SMILES IDX 41 44 91 45 42 46 96 47 90 48 92 49 43 50 95 51 89 52 88 53
REMARK SMILES IDX 44 55 76 56 56 57 75 58 57 59 60 60 74 61 93 62 58 63 59 64
REMARK SMILES IDX 73 66 94 67 61 68 45 69 46 70 54 71 47 72 53 73 55 74 52 75
REMARK SMILES IDX 48 76 49 77 50 78 51 79 77 80 78 81 86 82 79 83 85 84 87 85
REMARK SMILES IDX 84 86 80 87 81 88 82 89 83 90 62 91 63 92 71 93 64 94 70 95
REMARK SMILES IDX 72 96 69 97 65 98 66 99 67 100 68 101
REMARK H PARENT 92 54 60 65
REMARK Flexibility Score: inf
ROOT
ATOM      1  C   UNL A   1      32.934  33.774  27.810  1.00  0.00     0.188 C 
ENDROOT
BRANCH   1   2
ATOM      2  C   UNL A   1      34.256  33.051  28.143  1.00  0.00     0.188 C 
BRANCH   2   3
ATOM      3  O   UNL A   1      34.252  31.664  28.457  1.00  0.00    -0.376 OA
BRANCH   3   4
ATOM      4  C   UNL A   1      34.311  30.702  27.415  1.00  0.00     0.202 C 
BRANCH   4   5
ATOM      5  C   UNL A   1      33.100  29.799  27.142  1.00  0.00     0.261 C 
BRANCH   5   6
ATOM      6  O   UNL A   1      33.271  28.406  27.466  1.00  0.00    -0.460 OA
BRANCH   6   7
ATOM      7  C   UNL A   1      32.259  27.594  27.074  1.00  0.00     0.338 C 
ATOM      8  O   UNL A   1      31.072  27.766  27.303  1.00  0.00    -0.246 OA
BRANCH   7   9
ATOM      9  C   UNL A   1      32.727  26.489  26.212  1.00  0.00     0.087 C 
ATOM     10  C   UNL A   1      33.330  22.809  24.366  1.00  0.00    -0.002 A 
ATOM     11  C   UNL A   1      34.630  22.428  24.019  1.00  0.00     0.054 A 
ATOM     12  C   UNL A   1      33.171  24.013  25.063  1.00  0.00     0.131 A 
ATOM     13  C   UNL A   1      35.737  23.180  24.434  1.00  0.00     0.130 A 
ATOM     14  C   UNL A   1      34.260  24.823  25.432  1.00  0.00     0.021 A 
ATOM     15  O   UNL A   1      31.888  24.357  25.412  1.00  0.00    -0.475 OA
ATOM     16  C   UNL A   1      35.548  24.391  25.116  1.00  0.00     0.058 A 
ATOM     17  C   UNL A   1      33.998  26.048  26.200  1.00  0.00     0.027 C 
ATOM     18  C   UNL A   1      31.656  25.782  25.408  1.00  0.00     0.316 C 
BRANCH  10  19
ATOM     19  C   UNL A   1      32.092  22.022  23.980  1.00  0.00     0.039 C 
BRANCH  19  20
ATOM     20  C   UNL A   1      32.271  20.680  23.264  1.00  0.00     0.001 C 
ATOM     21  C   UNL A   1      31.859  20.723  21.798  1.00  0.00     0.004 C 
ENDBRANCH  19  20
ENDBRANCH  10  19
BRANCH  13  22
ATOM     22  O   UNL A   1      37.042  22.826  24.224  1.00  0.00    -0.406 OA
BRANCH  22  23
ATOM     23  C   UNL A   1      37.526  21.721  24.978  1.00  0.00     0.573 C 
ATOM     24  F   UNL A   1      37.382  20.556  24.308  1.00  0.00    -0.132 F 
ATOM     25  F   UNL A   1      38.821  21.892  25.312  1.00  0.00    -0.132 F 
ATOM     26  F   UNL A   1      36.808  21.629  26.121  1.00  0.00    -0.132 F 
ENDBRANCH  22  23
ENDBRANCH  13  22
BRANCH  18  27
ATOM     27  C   UNL A   1      31.505  26.304  23.962  1.00  0.00     0.430 C 
ATOM     28  F   UNL A   1      32.429  25.774  23.128  1.00  0.00    -0.167 F 
ATOM     29  F   UNL A   1      30.293  25.993  23.448  1.00  0.00    -0.167 F 
ATOM     30  F   UNL A   1      31.625  27.652  23.877  1.00  0.00    -0.167 F 
ENDBRANCH  18  27
ENDBRANCH   7   9
ENDBRANCH   6   7
ENDBRANCH   5   6
ENDBRANCH   4   5
ENDBRANCH   3   4
ENDBRANCH   2   3
ENDBRANCH   1   2
BRANCH   1  31
ATOM     31  O   UNL A   1      32.573  34.742  28.771  1.00  0.00    -0.376 OA
BRANCH  31  32
ATOM     32  C   UNL A   1      33.601  35.357  29.523  1.00  0.00     0.202 C 
BRANCH  32  33
ATOM     33  C   UNL A   1      33.901  34.966  30.984  1.00  0.00     0.261 C 
BRANCH  33  34
ATOM     34  O   UNL A   1      35.097  34.225  31.253  1.00  0.00    -0.460 OA
BRANCH  34  35
ATOM     35  C   UNL A   1      34.962  33.020  31.848  1.00  0.00     0.338 C 
ATOM     36  O   UNL A   1      33.930  32.547  32.312  1.00  0.00    -0.246 OA
BRANCH  35  37
ATOM     37  C   UNL A   1      36.240  32.289  31.716  1.00  0.00     0.060 A 
ATOM     38  C   UNL A   1      36.407  31.069  32.382  1.00  0.00     0.016 A 
ATOM     39  C   UNL A   1      37.275  32.813  30.935  1.00  0.00     0.016 A 
ATOM     40  C   UNL A   1      37.614  30.370  32.276  1.00  0.00     0.010 A 
ATOM     41  C   UNL A   1      38.490  32.123  30.850  1.00  0.00     0.010 A 
ATOM     42  C   UNL A   1      38.676  30.907  31.535  1.00  0.00    -0.014 A 
BRANCH  42  43
ATOM     43  C   UNL A   1      40.033  30.303  31.607  1.00  0.00     0.031 A 
ATOM     44  C   UNL A   1      40.975  30.789  32.675  1.00  0.00     0.074 A 
ATOM     45  C   UNL A   1      40.431  29.347  30.747  1.00  0.00     0.049 A 
ATOM     46  N   UNL A   1      42.242  30.524  32.855  1.00  0.00    -0.248 NA
ATOM     47  C   UNL A   1      40.401  31.703  33.674  1.00  0.00     0.031 C 
ATOM     48  C   UNL A   1      39.593  28.733  29.719  1.00  0.00     0.029 A 
ATOM     49  N   UNL A   1      41.653  28.735  30.594  1.00  0.00    -0.354 N 
ATOM     50  C   UNL A   1      42.624  31.247  33.980  1.00  0.00     0.074 A 
ATOM     51  C   UNL A   1      41.457  31.982  34.421  1.00  0.00     0.031 C 
ATOM     52  C   UNL A   1      40.332  27.846  29.028  1.00  0.00     0.029 A 
ATOM     53  C   UNL A   1      41.707  27.868  29.526  1.00  0.00     0.049 A 
ATOM     54  H   UNL A   1      42.417  28.902  31.191  1.00  0.00     0.167 HD
ATOM     55  C   UNL A   1      43.836  31.294  34.587  1.00  0.00     0.034 A 
ATOM     56  C   UNL A   1      42.754  27.205  28.988  1.00  0.00     0.034 A 
ATOM     57  C   UNL A   1      44.994  30.570  34.124  1.00  0.00     0.049 A 
ATOM     58  C   UNL A   1      44.126  27.369  29.605  1.00  0.00     0.074 A 
ATOM     59  C   UNL A   1      46.270  30.552  34.660  1.00  0.00     0.029 A 
ATOM     60  N   UNL A   1      45.024  29.746  33.005  1.00  0.00    -0.354 N 
ATOM     61  N   UNL A   1      44.485  28.075  30.653  1.00  0.00    -0.248 NA
ATOM     62  C   UNL A   1      45.236  26.648  28.965  1.00  0.00     0.031 C 
ATOM     63  C   UNL A   1      47.088  29.788  33.822  1.00  0.00     0.029 A 
ATOM     64  C   UNL A   1      46.304  29.247  32.816  1.00  0.00     0.049 A 
ATOM     65  H   UNL A   1      44.250  29.546  32.432  1.00  0.00     0.167 HD
ATOM     66  C   UNL A   1      45.851  27.848  30.819  1.00  0.00     0.074 A 
ATOM     67  C   UNL A   1      46.250  26.938  29.767  1.00  0.00     0.031 C 
ATOM     68  C   UNL A   1      46.694  28.338  31.763  1.00  0.00     0.034 A 
BRANCH  55  69
ATOM     69  C   UNL A   1      43.979  32.215  35.775  1.00  0.00     0.023 A 
ATOM     70  C   UNL A   1      43.799  31.762  37.093  1.00  0.00     0.031 A 
ATOM     71  C   UNL A   1      44.265  33.578  35.580  1.00  0.00     0.131 A 
ATOM     72  C   UNL A   1      43.835  32.677  38.157  1.00  0.00     0.055 A 
ATOM     73  C   UNL A   1      44.385  34.467  36.649  1.00  0.00     0.041 A 
ATOM     74  F   UNL A   1      44.421  34.075  34.343  1.00  0.00    -0.206 F 
ATOM     75  C   UNL A   1      44.153  34.021  37.948  1.00  0.00     0.022 A 
BRANCH  72  76
ATOM     76  S   UNL A   1      43.310  32.116  39.801  1.00  0.00     0.124 S 
ATOM     77  O   UNL A   1      43.711  33.245  40.639  1.00  0.00    -0.237 OA
ATOM     78  O   UNL A   1      41.876  31.927  39.627  1.00  0.00    -0.237 OA
ATOM     79  O   UNL A   1      44.082  30.893  40.008  1.00  0.00    -0.744 OA
ENDBRANCH  72  76
ENDBRANCH  55  69
BRANCH  56  80
ATOM     80  C   UNL A   1      42.577  26.372  27.761  1.00  0.00     0.023 A 
ATOM     81  C   UNL A   1      42.347  24.989  27.843  1.00  0.00     0.031 A 
ATOM     82  C   UNL A   1      42.714  26.937  26.479  1.00  0.00     0.131 A 
ATOM     83  C   UNL A   1      42.311  24.212  26.673  1.00  0.00     0.055 A 
ATOM     84  C   UNL A   1      42.616  26.170  25.317  1.00  0.00     0.041 A 
ATOM     85  F   UNL A   1      42.950  28.252  26.338  1.00  0.00    -0.206 F 
ATOM     86  C   UNL A   1      42.427  24.796  25.410  1.00  0.00     0.022 A 
BRANCH  83  87
ATOM     87  S   UNL A   1      42.214  22.406  26.829  1.00  0.00     0.124 S 
ATOM     88  O   UNL A   1      41.923  22.007  25.457  1.00  0.00    -0.237 OA
ATOM     89  O   UNL A   1      43.544  22.072  27.327  1.00  0.00    -0.237 OA
ATOM     90  O   UNL A   1      41.124  22.206  27.783  1.00  0.00    -0.744 OA
ENDBRANCH  83  87
ENDBRANCH  56  80
BRANCH  68  91
ATOM     91  C   UNL A   1      48.124  27.846  31.749  1.00  0.00     0.023 A 
ATOM     92  C   UNL A   1      48.500  26.612  32.305  1.00  0.00     0.031 A 
ATOM     93  C   UNL A   1      49.126  28.629  31.143  1.00  0.00     0.131 A 
ATOM     94  C   UNL A   1      49.847  26.215  32.281  1.00  0.00     0.055 A 
ATOM     95  C   UNL A   1      50.452  28.201  31.068  1.00  0.00     0.041 A 
ATOM     96  F   UNL A   1      48.826  29.819  30.598  1.00  0.00    -0.206 F 
ATOM     97  C   UNL A   1      50.821  26.993  31.649  1.00  0.00     0.022 A 
BRANCH  94  98
ATOM     98  S   UNL A   1      50.331  24.701  33.157  1.00  0.00     0.124 S 
ATOM     99  O   UNL A   1      49.154  24.435  33.976  1.00  0.00    -0.237 OA
ATOM    100  O   UNL A   1      50.569  23.768  32.061  1.00  0.00    -0.237 OA
ATOM    101  O   UNL A   1      51.526  25.101  33.900  1.00  0.00    -0.744 OA
ENDBRANCH  94  98
ENDBRANCH  68  91
ENDBRANCH  42  43
ENDBRANCH  35  37
ENDBRANCH  34  35
ENDBRANCH  33  34
ENDBRANCH  32  33
ENDBRANCH  31  32
ENDBRANCH   1  31
TORSDOF 25
ENDMDL
