MODEL 1
REMARK VINA RESULT:      -9.5      0.000      0.000
REMARK SMILES COCc1cc(-n2cnc(C(=O)OCCOCCOCCOC(=O)c3ccc(-c4c5nc(c(-c6cc(S(=O)(=O)[O-])ccc6F)c6ccc([nH]6)c(-c6cc(S(=O)(=O)[O-])ccc6F)c6nc(c(-c7cc(S(=O)(=O)[O-])ccc7F)c7ccc4[nH]7)C=C6)C=C5)cc3)c2)nc(-c2cccnc2)n1
REMARK SMILES IDX 17 1 16 2 15 3 14 4 13 5 11 6 12 7 10 8 7 9 8 10 88 11 9 12
REMARK SMILES IDX 6 13 4 14 5 15 97 16 90 17 89 18 3 19 2 20 1 21 91 22 92 23
REMARK SMILES IDX 96 24 93 25 95 26 94 27 18 28 19 29 20 30 21 31 22 32 23 33
REMARK SMILES IDX 24 34 25 35 26 36 87 37 27 38 86 39 28 40 29 41 30 42 80 43
REMARK SMILES IDX 31 44 85 45 79 46 81 47 32 48 84 49 78 50 77 51 33 53 65 54
REMARK SMILES IDX 45 55 64 56 46 57 49 58 63 59 82 60 47 61 48 62 62 64 83 65
REMARK SMILES IDX 50 66 34 67 35 68 43 69 36 70 42 71 44 72 41 73 37 74 38 75
REMARK SMILES IDX 39 76 40 77 66 78 67 79 75 80 68 81 74 82 76 83 73 84 69 85
REMARK SMILES IDX 70 86 71 87 72 88 51 89 52 90 60 91 53 92 59 93 61 94 58 95
REMARK SMILES IDX 54 96 55 97 56 98 57 99
REMARK H PARENT 81 52 49 63
REMARK Flexibility Score: inf
ROOT
ATOM      1  C   UNL A   1      44.322  21.981  25.649  1.00  0.00     0.188 C 
ENDROOT
BRANCH   1   2
ATOM      2  O   UNL A   1      43.795  20.662  25.755  1.00  0.00    -0.376 OA
BRANCH   2   3
ATOM      3  C   UNL A   1      42.534  20.444  26.368  1.00  0.00     0.202 C 
BRANCH   3   4
ATOM      4  C   UNL A   1      41.252  20.980  25.699  1.00  0.00     0.261 C 
BRANCH   4   5
ATOM      5  O   UNL A   1      40.086  21.034  26.537  1.00  0.00    -0.458 OA
BRANCH   5   6
ATOM      6  C   UNL A   1      39.601  22.277  26.828  1.00  0.00     0.358 C 
ATOM      7  O   UNL A   1      40.234  23.155  27.409  1.00  0.00    -0.244 OA
BRANCH   6   8
ATOM      8  C   UNL A   1      38.273  22.492  26.251  1.00  0.00     0.166 A 
ATOM      9  N   UNL A   1      36.324  22.224  25.246  1.00  0.00    -0.289 N 
ATOM     10  C   UNL A   1      36.662  23.554  25.286  1.00  0.00     0.206 A 
ATOM     11  C   UNL A   1      37.361  21.538  25.843  1.00  0.00     0.130 A 
ATOM     12  N   UNL A   1      37.798  23.752  25.918  1.00  0.00    -0.229 NA
BRANCH   9  13
ATOM     13  C   UNL A   1      35.131  21.647  24.747  1.00  0.00     0.142 A 
ATOM     14  C   UNL A   1      32.985  21.776  23.805  1.00  0.00     0.072 A 
ATOM     15  C   UNL A   1      34.085  22.440  24.322  1.00  0.00     0.074 A 
ATOM     16  N   UNL A   1      32.884  20.426  23.835  1.00  0.00    -0.230 NA
ATOM     17  C   UNL A   1      33.928  19.747  24.336  1.00  0.00     0.163 A 
ATOM     18  N   UNL A   1      35.076  20.302  24.749  1.00  0.00    -0.210 NA
BRANCH  14  19
ATOM     19  C   UNL A   1      31.829  22.549  23.199  1.00  0.00     0.216 C 
BRANCH  19  20
ATOM     20  O   UNL A   1      31.627  23.834  23.790  1.00  0.00    -0.378 OA
ATOM     21  C   UNL A   1      32.058  24.927  22.991  1.00  0.00     0.195 C 
ENDBRANCH  19  20
ENDBRANCH  14  19
BRANCH  17  22
ATOM     22  C   UNL A   1      33.749  18.338  24.652  1.00  0.00     0.038 A 
ATOM     23  C   UNL A   1      32.629  17.898  25.377  1.00  0.00     0.015 A 
ATOM     24  C   UNL A   1      34.660  17.365  24.264  1.00  0.00     0.123 A 
ATOM     25  C   UNL A   1      32.470  16.549  25.681  1.00  0.00     0.021 A 
ATOM     26  N   UNL A   1      34.542  16.043  24.553  1.00  0.00    -0.264 NA
ATOM     27  C   UNL A   1      33.450  15.670  25.255  1.00  0.00     0.111 A 
ENDBRANCH  17  22
ENDBRANCH   9  13
ENDBRANCH   6   8
ENDBRANCH   5   6
ENDBRANCH   4   5
ENDBRANCH   3   4
ENDBRANCH   2   3
ENDBRANCH   1   2
BRANCH   1  28
ATOM     28  C   UNL A   1      44.017  22.877  24.424  1.00  0.00     0.188 C 
BRANCH  28  29
ATOM     29  O   UNL A   1      44.870  24.001  24.286  1.00  0.00    -0.376 OA
BRANCH  29  30
ATOM     30  C   UNL A   1      44.720  25.080  25.196  1.00  0.00     0.202 C 
BRANCH  30  31
ATOM     31  C   UNL A   1      43.472  25.961  25.122  1.00  0.00     0.261 C 
BRANCH  31  32
ATOM     32  O   UNL A   1      42.676  25.984  26.291  1.00  0.00    -0.460 OA
BRANCH  32  33
ATOM     33  C   UNL A   1      41.345  25.975  26.068  1.00  0.00     0.338 C 
ATOM     34  O   UNL A   1      40.764  25.376  25.179  1.00  0.00    -0.246 OA
BRANCH  33  35
ATOM     35  C   UNL A   1      40.706  26.879  27.031  1.00  0.00     0.060 A 
ATOM     36  C   UNL A   1      40.605  28.214  26.647  1.00  0.00     0.016 A 
ATOM     37  C   UNL A   1      40.530  26.467  28.364  1.00  0.00     0.016 A 
ATOM     38  C   UNL A   1      40.606  29.165  27.639  1.00  0.00     0.010 A 
ATOM     39  C   UNL A   1      40.542  27.420  29.355  1.00  0.00     0.010 A 
ATOM     40  C   UNL A   1      40.692  28.746  28.973  1.00  0.00    -0.014 A 
BRANCH  40  41
ATOM     41  C   UNL A   1      41.000  29.761  29.952  1.00  0.00     0.031 A 
ATOM     42  C   UNL A   1      39.824  30.470  30.471  1.00  0.00     0.074 A 
ATOM     43  C   UNL A   1      42.255  30.053  30.330  1.00  0.00     0.049 A 
ATOM     44  N   UNL A   1      39.438  31.661  30.164  1.00  0.00    -0.248 NA
ATOM     45  C   UNL A   1      38.878  29.712  31.296  1.00  0.00     0.031 C 
ATOM     46  C   UNL A   1      43.491  29.309  30.077  1.00  0.00     0.029 A 
ATOM     47  N   UNL A   1      42.666  31.085  31.113  1.00  0.00    -0.354 N 
ATOM     48  C   UNL A   1      38.305  31.893  30.927  1.00  0.00     0.074 A 
ATOM     49  C   UNL A   1      37.908  30.612  31.453  1.00  0.00     0.031 C 
ATOM     50  C   UNL A   1      44.470  29.797  30.874  1.00  0.00     0.029 A 
ATOM     51  C   UNL A   1      43.966  30.967  31.574  1.00  0.00     0.049 A 
ATOM     52  H   UNL A   1      42.088  31.850  31.334  1.00  0.00     0.167 HD
ATOM     53  C   UNL A   1      37.920  33.157  31.241  1.00  0.00     0.034 A 
ATOM     54  C   UNL A   1      44.550  31.741  32.524  1.00  0.00     0.034 A 
ATOM     55  C   UNL A   1      38.556  34.135  30.387  1.00  0.00     0.049 A 
ATOM     56  C   UNL A   1      43.830  33.040  32.529  1.00  0.00     0.074 A 
ATOM     57  C   UNL A   1      38.569  34.367  29.024  1.00  0.00     0.029 A 
ATOM     58  N   UNL A   1      39.628  34.839  30.888  1.00  0.00    -0.354 N 
ATOM     59  N   UNL A   1      43.853  33.870  31.521  1.00  0.00    -0.248 NA
ATOM     60  C   UNL A   1      42.704  33.214  33.437  1.00  0.00     0.031 C 
ATOM     61  C   UNL A   1      39.903  34.773  28.729  1.00  0.00     0.029 A 
ATOM     62  C   UNL A   1      40.615  34.815  29.930  1.00  0.00     0.049 A 
ATOM     63  H   UNL A   1      39.680  35.278  31.767  1.00  0.00     0.167 HD
ATOM     64  C   UNL A   1      42.558  34.355  31.420  1.00  0.00     0.074 A 
ATOM     65  C   UNL A   1      41.926  34.006  32.690  1.00  0.00     0.031 C 
ATOM     66  C   UNL A   1      42.036  34.746  30.219  1.00  0.00     0.034 A 
BRANCH  53  67
ATOM     67  C   UNL A   1      37.233  33.531  32.528  1.00  0.00     0.023 A 
ATOM     68  C   UNL A   1      37.979  33.428  33.713  1.00  0.00     0.031 A 
ATOM     69  C   UNL A   1      35.838  33.706  32.685  1.00  0.00     0.131 A 
ATOM     70  C   UNL A   1      37.341  33.415  34.964  1.00  0.00     0.055 A 
ATOM     71  C   UNL A   1      35.217  33.772  33.934  1.00  0.00     0.041 A 
ATOM     72  F   UNL A   1      34.988  33.719  31.651  1.00  0.00    -0.206 F 
ATOM     73  C   UNL A   1      35.965  33.595  35.084  1.00  0.00     0.022 A 
BRANCH  70  74
ATOM     74  S   UNL A   1      38.320  32.969  36.420  1.00  0.00     0.124 S 
ATOM     75  O   UNL A   1      38.817  34.271  36.853  1.00  0.00    -0.237 OA
ATOM     76  O   UNL A   1      37.317  32.344  37.275  1.00  0.00    -0.237 OA
ATOM     77  O   UNL A   1      39.332  32.065  35.880  1.00  0.00    -0.744 OA
ENDBRANCH  70  74
ENDBRANCH  53  67
BRANCH  54  78
ATOM     78  C   UNL A   1      45.404  31.244  33.635  1.00  0.00     0.023 A 
ATOM     79  C   UNL A   1      46.733  31.667  33.825  1.00  0.00     0.031 A 
ATOM     80  C   UNL A   1      44.821  30.488  34.680  1.00  0.00     0.131 A 
ATOM     81  C   UNL A   1      47.422  31.327  35.012  1.00  0.00     0.055 A 
ATOM     82  C   UNL A   1      45.509  30.147  35.844  1.00  0.00     0.041 A 
ATOM     83  F   UNL A   1      43.529  30.124  34.641  1.00  0.00    -0.206 F 
ATOM     84  C   UNL A   1      46.814  30.573  36.019  1.00  0.00     0.022 A 
BRANCH  81  85
ATOM     85  S   UNL A   1      49.109  31.947  35.303  1.00  0.00     0.124 S 
ATOM     86  O   UNL A   1      49.544  31.145  36.440  1.00  0.00    -0.237 OA
ATOM     87  O   UNL A   1      49.764  31.675  34.028  1.00  0.00    -0.237 OA
ATOM     88  O   UNL A   1      48.907  33.366  35.594  1.00  0.00    -0.744 OA
ENDBRANCH  81  85
ENDBRANCH  54  78
BRANCH  66  89
ATOM     89  C   UNL A   1      42.983  34.887  29.042  1.00  0.00     0.023 A 
ATOM     90  C   UNL A   1      43.362  33.822  28.193  1.00  0.00     0.031 A 
ATOM     91  C   UNL A   1      43.417  36.179  28.698  1.00  0.00     0.131 A 
ATOM     92  C   UNL A   1      44.161  34.070  27.059  1.00  0.00     0.055 A 
ATOM     93  C   UNL A   1      44.190  36.424  27.563  1.00  0.00     0.041 A 
ATOM     94  F   UNL A   1      43.060  37.238  29.443  1.00  0.00    -0.206 F 
ATOM     95  C   UNL A   1      44.571  35.368  26.742  1.00  0.00     0.022 A 
BRANCH  92  96
ATOM     96  S   UNL A   1      44.676  32.700  25.974  1.00  0.00     0.124 S 
ATOM     97  O   UNL A   1      44.274  33.148  24.645  1.00  0.00    -0.237 OA
ATOM     98  O   UNL A   1      46.113  32.625  26.218  1.00  0.00    -0.237 OA
ATOM     99  O   UNL A   1      43.915  31.557  26.484  1.00  0.00    -0.744 OA
ENDBRANCH  92  96
ENDBRANCH  66  89
ENDBRANCH  40  41
ENDBRANCH  33  35
ENDBRANCH  32  33
ENDBRANCH  31  32
ENDBRANCH  30  31
ENDBRANCH  29  30
ENDBRANCH  28  29
ENDBRANCH   1  28
TORSDOF 24
ENDMDL
MODEL 2
REMARK VINA RESULT:      -8.9      2.275      2.866
REMARK SMILES COCc1cc(-n2cnc(C(=O)OCCOCCOCCOC(=O)c3ccc(-c4c5nc(c(-c6cc(S(=O)(=O)[O-])ccc6F)c6ccc([nH]6)c(-c6cc(S(=O)(=O)[O-])ccc6F)c6nc(c(-c7cc(S(=O)(=O)[O-])ccc7F)c7ccc4[nH]7)C=C6)C=C5)cc3)c2)nc(-c2cccnc2)n1
REMARK SMILES IDX 17 1 16 2 15 3 14 4 13 5 11 6 12 7 10 8 7 9 8 10 88 11 9 12
REMARK SMILES IDX 6 13 4 14 5 15 97 16 90 17 89 18 3 19 2 20 1 21 91 22 92 23
REMARK SMILES IDX 96 24 93 25 95 26 94 27 18 28 19 29 20 30 21 31 22 32 23 33
REMARK SMILES IDX 24 34 25 35 26 36 87 37 27 38 86 39 28 40 29 41 30 42 80 43
REMARK SMILES IDX 31 44 85 45 79 46 81 47 32 48 84 49 78 50 77 51 33 53 65 54
REMARK SMILES IDX 45 55 64 56 46 57 49 58 63 59 82 60 47 61 48 62 62 64 83 65
REMARK SMILES IDX 50 66 34 67 35 68 43 69 36 70 42 71 44 72 41 73 37 74 38 75
REMARK SMILES IDX 39 76 40 77 66 78 67 79 75 80 68 81 74 82 76 83 73 84 69 85
REMARK SMILES IDX 70 86 71 87 72 88 51 89 52 90 60 91 53 92 59 93 61 94 58 95
REMARK SMILES IDX 54 96 55 97 56 98 57 99
REMARK H PARENT 81 52 49 63
REMARK Flexibility Score: inf
ROOT
ATOM      1  C   UNL A   1      44.403  22.034  25.659  1.00  0.00     0.188 C 
ENDROOT
BRANCH   1   2
ATOM      2  O   UNL A   1      43.843  20.724  25.696  1.00  0.00    -0.376 OA
BRANCH   2   3
ATOM      3  C   UNL A   1      42.550  20.515  26.242  1.00  0.00     0.202 C 
BRANCH   3   4
ATOM      4  C   UNL A   1      41.335  21.254  25.645  1.00  0.00     0.261 C 
BRANCH   4   5
ATOM      5  O   UNL A   1      40.175  21.333  26.488  1.00  0.00    -0.458 OA
BRANCH   5   6
ATOM      6  C   UNL A   1      39.765  22.584  26.849  1.00  0.00     0.358 C 
ATOM      7  O   UNL A   1      40.485  23.430  27.374  1.00  0.00    -0.244 OA
BRANCH   6   8
ATOM      8  C   UNL A   1      38.393  22.853  26.418  1.00  0.00     0.166 A 
ATOM      9  N   UNL A   1      36.361  22.685  25.567  1.00  0.00    -0.289 N 
ATOM     10  C   UNL A   1      36.708  24.004  25.717  1.00  0.00     0.206 A 
ATOM     11  C   UNL A   1      37.443  21.944  25.994  1.00  0.00     0.130 A 
ATOM     12  N   UNL A   1      37.896  24.140  26.263  1.00  0.00    -0.229 NA
BRANCH   9  13
ATOM     13  C   UNL A   1      35.126  22.159  25.118  1.00  0.00     0.142 A 
ATOM     14  C   UNL A   1      32.857  22.354  24.547  1.00  0.00     0.072 A 
ATOM     15  C   UNL A   1      34.001  22.954  25.047  1.00  0.00     0.074 A 
ATOM     16  N   UNL A   1      32.808  21.030  24.265  1.00  0.00    -0.230 NA
ATOM     17  C   UNL A   1      33.939  20.328  24.436  1.00  0.00     0.163 A 
ATOM     18  N   UNL A   1      35.117  20.850  24.804  1.00  0.00    -0.210 NA
BRANCH  14  19
ATOM     19  C   UNL A   1      31.597  23.165  24.313  1.00  0.00     0.216 C 
BRANCH  19  20
ATOM     20  O   UNL A   1      31.633  24.464  24.908  1.00  0.00    -0.378 OA
ATOM     21  C   UNL A   1      30.924  24.573  26.134  1.00  0.00     0.195 C 
ENDBRANCH  19  20
ENDBRANCH  14  19
BRANCH  17  22
ATOM     22  C   UNL A   1      33.857  18.874  24.427  1.00  0.00     0.038 A 
ATOM     23  C   UNL A   1      35.002  18.087  24.630  1.00  0.00     0.015 A 
ATOM     24  C   UNL A   1      32.664  18.196  24.217  1.00  0.00     0.123 A 
ATOM     25  C   UNL A   1      34.915  16.697  24.612  1.00  0.00     0.021 A 
ATOM     26  N   UNL A   1      32.546  16.843  24.181  1.00  0.00    -0.264 NA
ATOM     27  C   UNL A   1      33.676  16.129  24.379  1.00  0.00     0.111 A 
ENDBRANCH  17  22
ENDBRANCH   9  13
ENDBRANCH   6   8
ENDBRANCH   5   6
ENDBRANCH   4   5
ENDBRANCH   3   4
ENDBRANCH   2   3
ENDBRANCH   1   2
BRANCH   1  28
ATOM     28  C   UNL A   1      44.109  23.006  24.491  1.00  0.00     0.188 C 
BRANCH  28  29
ATOM     29  O   UNL A   1      44.998  24.105  24.398  1.00  0.00    -0.376 OA
BRANCH  29  30
ATOM     30  C   UNL A   1      44.856  25.170  25.327  1.00  0.00     0.202 C 
BRANCH  30  31
ATOM     31  C   UNL A   1      43.688  26.148  25.180  1.00  0.00     0.261 C 
BRANCH  31  32
ATOM     32  O   UNL A   1      42.795  26.194  26.276  1.00  0.00    -0.460 OA
BRANCH  32  33
ATOM     33  C   UNL A   1      41.497  26.337  25.939  1.00  0.00     0.338 C 
ATOM     34  O   UNL A   1      40.937  25.831  24.981  1.00  0.00    -0.246 OA
BRANCH  33  35
ATOM     35  C   UNL A   1      40.873  27.276  26.879  1.00  0.00     0.060 A 
ATOM     36  C   UNL A   1      41.429  28.551  26.932  1.00  0.00     0.016 A 
ATOM     37  C   UNL A   1      40.006  26.793  27.875  1.00  0.00     0.016 A 
ATOM     38  C   UNL A   1      41.341  29.237  28.120  1.00  0.00     0.010 A 
ATOM     39  C   UNL A   1      39.928  27.476  29.066  1.00  0.00     0.010 A 
ATOM     40  C   UNL A   1      40.689  28.630  29.200  1.00  0.00    -0.014 A 
BRANCH  40  41
ATOM     41  C   UNL A   1      40.885  29.233  30.497  1.00  0.00     0.031 A 
ATOM     42  C   UNL A   1      39.928  30.302  30.811  1.00  0.00     0.074 A 
ATOM     43  C   UNL A   1      41.874  28.871  31.330  1.00  0.00     0.049 A 
ATOM     44  N   UNL A   1      40.151  31.571  30.795  1.00  0.00    -0.248 NA
ATOM     45  C   UNL A   1      38.523  29.928  31.001  1.00  0.00     0.031 C 
ATOM     46  C   UNL A   1      42.755  27.702  31.260  1.00  0.00     0.029 A 
ATOM     47  N   UNL A   1      42.244  29.473  32.489  1.00  0.00    -0.354 N 
ATOM     48  C   UNL A   1      38.961  32.163  31.187  1.00  0.00     0.074 A 
ATOM     49  C   UNL A   1      37.959  31.130  31.118  1.00  0.00     0.031 C 
ATOM     50  C   UNL A   1      43.404  27.570  32.440  1.00  0.00     0.029 A 
ATOM     51  C   UNL A   1      43.093  28.717  33.279  1.00  0.00     0.049 A 
ATOM     52  H   UNL A   1      41.933  30.372  32.746  1.00  0.00     0.167 HD
ATOM     53  C   UNL A   1      38.946  33.399  31.748  1.00  0.00     0.034 A 
ATOM     54  C   UNL A   1      43.446  28.989  34.561  1.00  0.00     0.034 A 
ATOM     55  C   UNL A   1      40.181  34.110  31.504  1.00  0.00     0.049 A 
ATOM     56  C   UNL A   1      43.295  30.455  34.751  1.00  0.00     0.074 A 
ATOM     57  C   UNL A   1      40.851  34.522  30.367  1.00  0.00     0.029 A 
ATOM     58  N   UNL A   1      41.109  34.173  32.519  1.00  0.00    -0.354 N 
ATOM     59  N   UNL A   1      44.032  31.333  34.125  1.00  0.00    -0.248 NA
ATOM     60  C   UNL A   1      42.029  30.970  35.256  1.00  0.00     0.031 C 
ATOM     61  C   UNL A   1      42.233  34.329  30.661  1.00  0.00     0.029 A 
ATOM     62  C   UNL A   1      42.332  33.861  31.973  1.00  0.00     0.049 A 
ATOM     63  H   UNL A   1      40.931  34.399  33.460  1.00  0.00     0.167 HD
ATOM     64  C   UNL A   1      43.162  32.355  33.776  1.00  0.00     0.074 A 
ATOM     65  C   UNL A   1      41.972  32.131  34.594  1.00  0.00     0.031 C 
ATOM     66  C   UNL A   1      43.372  33.120  32.663  1.00  0.00     0.034 A 
BRANCH  53  67
ATOM     67  C   UNL A   1      37.955  33.835  32.796  1.00  0.00     0.023 A 
ATOM     68  C   UNL A   1      38.288  33.598  34.139  1.00  0.00     0.031 A 
ATOM     69  C   UNL A   1      36.613  34.202  32.544  1.00  0.00     0.131 A 
ATOM     70  C   UNL A   1      37.305  33.644  35.142  1.00  0.00     0.055 A 
ATOM     71  C   UNL A   1      35.657  34.324  33.554  1.00  0.00     0.041 A 
ATOM     72  F   UNL A   1      36.124  34.361  31.308  1.00  0.00    -0.206 F 
ATOM     73  C   UNL A   1      35.992  34.014  34.860  1.00  0.00     0.022 A 
BRANCH  70  74
ATOM     74  S   UNL A   1      37.733  33.028  36.789  1.00  0.00     0.124 S 
ATOM     75  O   UNL A   1      36.425  32.968  37.433  1.00  0.00    -0.237 OA
ATOM     76  O   UNL A   1      38.356  31.746  36.476  1.00  0.00    -0.237 OA
ATOM     77  O   UNL A   1      38.637  34.051  37.307  1.00  0.00    -0.744 OA
ENDBRANCH  70  74
ENDBRANCH  53  67
BRANCH  54  78
ATOM     78  C   UNL A   1      43.515  27.997  35.665  1.00  0.00     0.023 A 
ATOM     79  C   UNL A   1      44.532  28.006  36.639  1.00  0.00     0.031 A 
ATOM     80  C   UNL A   1      42.415  27.137  35.900  1.00  0.00     0.131 A 
ATOM     81  C   UNL A   1      44.427  27.177  37.779  1.00  0.00     0.055 A 
ATOM     82  C   UNL A   1      42.323  26.314  37.022  1.00  0.00     0.041 A 
ATOM     83  F   UNL A   1      41.349  27.130  35.085  1.00  0.00    -0.206 F 
ATOM     84  C   UNL A   1      43.329  26.336  37.974  1.00  0.00     0.022 A 
BRANCH  81  85
ATOM     85  S   UNL A   1      45.695  27.250  39.085  1.00  0.00     0.124 S 
ATOM     86  O   UNL A   1      45.718  25.877  39.574  1.00  0.00    -0.237 OA
ATOM     87  O   UNL A   1      46.873  27.698  38.350  1.00  0.00    -0.237 OA
ATOM     88  O   UNL A   1      45.156  28.230  40.029  1.00  0.00    -0.744 OA
ENDBRANCH  81  85
ENDBRANCH  54  78
BRANCH  66  89
ATOM     89  C   UNL A   1      44.713  33.004  31.962  1.00  0.00     0.023 A 
ATOM     90  C   UNL A   1      44.981  32.115  30.896  1.00  0.00     0.031 A 
ATOM     91  C   UNL A   1      45.718  33.923  32.310  1.00  0.00     0.131 A 
ATOM     92  C   UNL A   1      46.224  32.156  30.235  1.00  0.00     0.055 A 
ATOM     93  C   UNL A   1      46.941  33.975  31.639  1.00  0.00     0.041 A 
ATOM     94  F   UNL A   1      45.512  34.819  33.289  1.00  0.00    -0.206 F 
ATOM     95  C   UNL A   1      47.201  33.086  30.602  1.00  0.00     0.022 A 
BRANCH  92  96
ATOM     96  S   UNL A   1      46.587  30.996  28.877  1.00  0.00     0.124 S 
ATOM     97  O   UNL A   1      45.665  31.407  27.823  1.00  0.00    -0.237 OA
ATOM     98  O   UNL A   1      48.003  31.240  28.621  1.00  0.00    -0.237 OA
ATOM     99  O   UNL A   1      46.294  29.685  29.462  1.00  0.00    -0.744 OA
ENDBRANCH  92  96
ENDBRANCH  66  89
ENDBRANCH  40  41
ENDBRANCH  33  35
ENDBRANCH  32  33
ENDBRANCH  31  32
ENDBRANCH  30  31
ENDBRANCH  29  30
ENDBRANCH  28  29
ENDBRANCH   1  28
TORSDOF 24
ENDMDL
MODEL 3
REMARK VINA RESULT:      -8.8      3.834      6.233
REMARK SMILES COCc1cc(-n2cnc(C(=O)OCCOCCOCCOC(=O)c3ccc(-c4c5nc(c(-c6cc(S(=O)(=O)[O-])ccc6F)c6ccc([nH]6)c(-c6cc(S(=O)(=O)[O-])ccc6F)c6nc(c(-c7cc(S(=O)(=O)[O-])ccc7F)c7ccc4[nH]7)C=C6)C=C5)cc3)c2)nc(-c2cccnc2)n1
REMARK SMILES IDX 17 1 16 2 15 3 14 4 13 5 11 6 12 7 10 8 7 9 8 10 88 11 9 12
REMARK SMILES IDX 6 13 4 14 5 15 97 16 90 17 89 18 3 19 2 20 1 21 91 22 92 23
REMARK SMILES IDX 96 24 93 25 95 26 94 27 18 28 19 29 20 30 21 31 22 32 23 33
REMARK SMILES IDX 24 34 25 35 26 36 87 37 27 38 86 39 28 40 29 41 30 42 80 43
REMARK SMILES IDX 31 44 85 45 79 46 81 47 32 48 84 49 78 50 77 51 33 53 65 54
REMARK SMILES IDX 45 55 64 56 46 57 49 58 63 59 82 60 47 61 48 62 62 64 83 65
REMARK SMILES IDX 50 66 34 67 35 68 43 69 36 70 42 71 44 72 41 73 37 74 38 75
REMARK SMILES IDX 39 76 40 77 66 78 67 79 75 80 68 81 74 82 76 83 73 84 69 85
REMARK SMILES IDX 70 86 71 87 72 88 51 89 52 90 60 91 53 92 59 93 61 94 58 95
REMARK SMILES IDX 54 96 55 97 56 98 57 99
REMARK H PARENT 81 52 49 63
REMARK Flexibility Score: inf
ROOT
ATOM      1  C   UNL A   1      39.674  27.968  28.872  1.00  0.00     0.188 C 
ENDROOT
BRANCH   1   2
ATOM      2  O   UNL A   1      40.582  26.914  29.177  1.00  0.00    -0.376 OA
BRANCH   2   3
ATOM      3  C   UNL A   1      41.217  26.193  28.133  1.00  0.00     0.202 C 
BRANCH   3   4
ATOM      4  C   UNL A   1      41.175  24.651  28.127  1.00  0.00     0.261 C 
BRANCH   4   5
ATOM      5  O   UNL A   1      39.946  24.061  27.675  1.00  0.00    -0.458 OA
BRANCH   5   6
ATOM      6  C   UNL A   1      40.051  23.066  26.746  1.00  0.00     0.358 C 
ATOM      7  O   UNL A   1      41.077  22.430  26.517  1.00  0.00    -0.244 OA
BRANCH   6   8
ATOM      8  C   UNL A   1      38.758  22.751  26.137  1.00  0.00     0.166 A 
ATOM      9  N   UNL A   1      36.632  22.764  25.537  1.00  0.00    -0.289 N 
ATOM     10  C   UNL A   1      37.186  21.530  25.304  1.00  0.00     0.206 A 
ATOM     11  C   UNL A   1      37.627  23.543  26.090  1.00  0.00     0.130 A 
ATOM     12  N   UNL A   1      38.464  21.501  25.610  1.00  0.00    -0.229 NA
BRANCH   9  13
ATOM     13  C   UNL A   1      35.319  23.197  25.232  1.00  0.00     0.142 A 
ATOM     14  C   UNL A   1      33.121  22.835  24.490  1.00  0.00     0.072 A 
ATOM     15  C   UNL A   1      34.390  22.323  24.705  1.00  0.00     0.074 A 
ATOM     16  N   UNL A   1      32.841  24.149  24.661  1.00  0.00    -0.230 NA
ATOM     17  C   UNL A   1      33.835  24.931  25.110  1.00  0.00     0.163 A 
ATOM     18  N   UNL A   1      35.056  24.498  25.453  1.00  0.00    -0.210 NA
BRANCH  14  19
ATOM     19  C   UNL A   1      31.992  21.934  24.027  1.00  0.00     0.216 C 
BRANCH  19  20
ATOM     20  O   UNL A   1      32.422  20.860  23.190  1.00  0.00    -0.378 OA
ATOM     21  C   UNL A   1      32.524  19.603  23.846  1.00  0.00     0.195 C 
ENDBRANCH  19  20
ENDBRANCH  14  19
BRANCH  17  22
ATOM     22  C   UNL A   1      33.667  26.375  25.032  1.00  0.00     0.038 A 
ATOM     23  C   UNL A   1      33.488  27.144  26.194  1.00  0.00     0.015 A 
ATOM     24  C   UNL A   1      33.671  27.062  23.826  1.00  0.00     0.123 A 
ATOM     25  C   UNL A   1      33.320  28.523  26.108  1.00  0.00     0.021 A 
ATOM     26  N   UNL A   1      33.499  28.405  23.706  1.00  0.00    -0.264 NA
ATOM     27  C   UNL A   1      33.327  29.100  24.852  1.00  0.00     0.111 A 
ENDBRANCH  17  22
ENDBRANCH   9  13
ENDBRANCH   6   8
ENDBRANCH   5   6
ENDBRANCH   4   5
ENDBRANCH   3   4
ENDBRANCH   2   3
ENDBRANCH   1   2
BRANCH   1  28
ATOM     28  C   UNL A   1      38.489  28.310  29.808  1.00  0.00     0.188 C 
BRANCH  28  29
ATOM     29  O   UNL A   1      37.347  28.832  29.150  1.00  0.00    -0.376 OA
BRANCH  29  30
ATOM     30  C   UNL A   1      37.459  30.087  28.494  1.00  0.00     0.202 C 
BRANCH  30  31
ATOM     31  C   UNL A   1      36.252  30.654  27.743  1.00  0.00     0.261 C 
BRANCH  31  32
ATOM     32  O   UNL A   1      35.384  31.463  28.514  1.00  0.00    -0.460 OA
BRANCH  32  33
ATOM     33  C   UNL A   1      35.647  32.784  28.456  1.00  0.00     0.338 C 
ATOM     34  O   UNL A   1      35.518  33.507  27.483  1.00  0.00    -0.246 OA
BRANCH  33  35
ATOM     35  C   UNL A   1      36.197  33.206  29.751  1.00  0.00     0.060 A 
ATOM     36  C   UNL A   1      37.472  33.765  29.723  1.00  0.00     0.016 A 
ATOM     37  C   UNL A   1      35.601  32.755  30.942  1.00  0.00     0.016 A 
ATOM     38  C   UNL A   1      38.258  33.617  30.840  1.00  0.00     0.010 A 
ATOM     39  C   UNL A   1      36.394  32.597  32.055  1.00  0.00     0.010 A 
ATOM     40  C   UNL A   1      37.737  32.930  31.943  1.00  0.00    -0.014 A 
BRANCH  40  41
ATOM     41  C   UNL A   1      38.679  32.527  32.960  1.00  0.00     0.031 A 
ATOM     42  C   UNL A   1      38.416  33.104  34.284  1.00  0.00     0.074 A 
ATOM     43  C   UNL A   1      39.724  31.720  32.709  1.00  0.00     0.049 A 
ATOM     44  N   UNL A   1      39.055  34.069  34.850  1.00  0.00    -0.248 NA
ATOM     45  C   UNL A   1      37.203  32.674  34.988  1.00  0.00     0.031 C 
ATOM     46  C   UNL A   1      39.994  30.906  31.522  1.00  0.00     0.029 A 
ATOM     47  N   UNL A   1      40.750  31.410  33.543  1.00  0.00    -0.354 N 
ATOM     48  C   UNL A   1      38.459  34.232  36.091  1.00  0.00     0.074 A 
ATOM     49  C   UNL A   1      37.227  33.487  36.044  1.00  0.00     0.031 C 
ATOM     50  C   UNL A   1      40.993  30.036  31.804  1.00  0.00     0.029 A 
ATOM     51  C   UNL A   1      41.517  30.335  33.127  1.00  0.00     0.049 A 
ATOM     52  H   UNL A   1      40.932  31.908  34.372  1.00  0.00     0.167 HD
ATOM     53  C   UNL A   1      39.140  34.787  37.126  1.00  0.00     0.034 A 
ATOM     54  C   UNL A   1      42.463  29.696  33.861  1.00  0.00     0.034 A 
ATOM     55  C   UNL A   1      40.311  35.502  36.672  1.00  0.00     0.049 A 
ATOM     56  C   UNL A   1      42.954  30.666  34.874  1.00  0.00     0.074 A 
ATOM     57  C   UNL A   1      40.522  36.574  35.825  1.00  0.00     0.029 A 
ATOM     58  N   UNL A   1      41.539  34.893  36.802  1.00  0.00    -0.354 N 
ATOM     59  N   UNL A   1      43.610  31.751  34.561  1.00  0.00    -0.248 NA
ATOM     60  C   UNL A   1      42.316  30.696  36.184  1.00  0.00     0.031 C 
ATOM     61  C   UNL A   1      41.718  36.259  35.116  1.00  0.00     0.029 A 
ATOM     62  C   UNL A   1      42.197  35.041  35.604  1.00  0.00     0.049 A 
ATOM     63  H   UNL A   1      41.882  34.436  37.604  1.00  0.00     0.167 HD
ATOM     64  C   UNL A   1      43.114  32.733  35.404  1.00  0.00     0.074 A 
ATOM     65  C   UNL A   1      42.406  32.003  36.454  1.00  0.00     0.031 C 
ATOM     66  C   UNL A   1      43.084  34.047  35.028  1.00  0.00     0.034 A 
BRANCH  53  67
ATOM     67  C   UNL A   1      38.935  34.403  38.568  1.00  0.00     0.023 A 
ATOM     68  C   UNL A   1      38.392  33.135  38.829  1.00  0.00     0.031 A 
ATOM     69  C   UNL A   1      38.977  35.298  39.662  1.00  0.00     0.131 A 
ATOM     70  C   UNL A   1      37.850  32.832  40.089  1.00  0.00     0.055 A 
ATOM     71  C   UNL A   1      38.509  34.964  40.935  1.00  0.00     0.041 A 
ATOM     72  F   UNL A   1      39.373  36.572  39.543  1.00  0.00    -0.206 F 
ATOM     73  C   UNL A   1      37.912  33.735  41.147  1.00  0.00     0.022 A 
BRANCH  70  74
ATOM     74  S   UNL A   1      36.893  31.305  40.264  1.00  0.00     0.124 S 
ATOM     75  O   UNL A   1      37.844  30.436  40.950  1.00  0.00    -0.237 OA
ATOM     76  O   UNL A   1      35.750  31.757  41.050  1.00  0.00    -0.237 OA
ATOM     77  O   UNL A   1      36.595  30.935  38.883  1.00  0.00    -0.744 OA
ENDBRANCH  70  74
ENDBRANCH  53  67
BRANCH  54  78
ATOM     78  C   UNL A   1      42.636  28.223  33.949  1.00  0.00     0.023 A 
ATOM     79  C   UNL A   1      43.620  27.525  33.224  1.00  0.00     0.031 A 
ATOM     80  C   UNL A   1      41.949  27.498  34.952  1.00  0.00     0.131 A 
ATOM     81  C   UNL A   1      43.875  26.163  33.507  1.00  0.00     0.055 A 
ATOM     82  C   UNL A   1      42.199  26.152  35.220  1.00  0.00     0.041 A 
ATOM     83  F   UNL A   1      41.066  28.098  35.766  1.00  0.00    -0.206 F 
ATOM     84  C   UNL A   1      43.172  25.478  34.501  1.00  0.00     0.022 A 
BRANCH  81  85
ATOM     85  S   UNL A   1      45.207  25.279  32.634  1.00  0.00     0.124 S 
ATOM     86  O   UNL A   1      44.466  24.443  31.698  1.00  0.00    -0.237 OA
ATOM     87  O   UNL A   1      45.980  26.374  32.057  1.00  0.00    -0.237 OA
ATOM     88  O   UNL A   1      45.890  24.549  33.703  1.00  0.00    -0.744 OA
ENDBRANCH  81  85
ENDBRANCH  54  78
BRANCH  66  89
ATOM     89  C   UNL A   1      43.844  34.446  33.777  1.00  0.00     0.023 A 
ATOM     90  C   UNL A   1      43.335  34.326  32.463  1.00  0.00     0.031 A 
ATOM     91  C   UNL A   1      45.083  35.091  33.938  1.00  0.00     0.131 A 
ATOM     92  C   UNL A   1      44.071  34.826  31.371  1.00  0.00     0.055 A 
ATOM     93  C   UNL A   1      45.799  35.604  32.855  1.00  0.00     0.041 A 
ATOM     94  F   UNL A   1      45.603  35.270  35.163  1.00  0.00    -0.206 F 
ATOM     95  C   UNL A   1      45.297  35.466  31.565  1.00  0.00     0.022 A 
BRANCH  92  96
ATOM     96  S   UNL A   1      43.435  34.652  29.671  1.00  0.00     0.124 S 
ATOM     97  O   UNL A   1      42.418  35.694  29.580  1.00  0.00    -0.237 OA
ATOM     98  O   UNL A   1      44.633  34.851  28.862  1.00  0.00    -0.237 OA
ATOM     99  O   UNL A   1      42.907  33.285  29.644  1.00  0.00    -0.744 OA
ENDBRANCH  92  96
ENDBRANCH  66  89
ENDBRANCH  40  41
ENDBRANCH  33  35
ENDBRANCH  32  33
ENDBRANCH  31  32
ENDBRANCH  30  31
ENDBRANCH  29  30
ENDBRANCH  28  29
ENDBRANCH   1  28
TORSDOF 24
ENDMDL
