MODEL 1
REMARK VINA RESULT:      -8.9      0.000      0.000
REMARK SMILES O=C(Nc1nc(C2CC2)cs1)N[C@@H]1C=C[C@@H](C(=O)OCCOCCOCCOC(=O)c2ccc(-c3c4nc(c(-c5cc(S(=O)(=O)[O-])ccc5F)c5ccc([nH]5)c(-c5cc(S(=O)(=O)[O-])ccc5F)c5nc(c(-c6cc(S(=O)(=O)[O-])ccc6F)c6ccc3[nH]6)C=C5)C=C4)cc2)C1
REMARK SMILES IDX 23 1 22 2 21 3 20 4 19 5 17 6 18 7 16 8 13 9 14 10 94 11
REMARK SMILES IDX 15 12 12 13 1 14 2 15 3 16 4 19 5 20 11 21 6 22 10 23 7 24
REMARK SMILES IDX 8 25 9 26 24 27 25 28 26 29 27 30 28 31 29 32 30 33 31 34
REMARK SMILES IDX 32 35 93 36 33 37 92 38 34 39 35 40 36 41 86 42 37 43 91 44
REMARK SMILES IDX 85 45 87 46 38 47 90 48 84 49 83 50 39 52 71 53 51 54 70 55
REMARK SMILES IDX 52 56 55 57 69 58 88 59 53 60 54 61 68 63 89 64 56 65 40 66
REMARK SMILES IDX 41 67 49 68 42 69 48 70 50 71 47 72 43 73 44 74 45 75 46 76
REMARK SMILES IDX 72 77 73 78 81 79 74 80 80 81 82 82 79 83 75 84 76 85 77 86
REMARK SMILES IDX 78 87 57 88 58 89 66 90 59 91 65 92 67 93 64 94 60 95 61 96
REMARK SMILES IDX 62 97 63 98
REMARK H PARENT 3 17 12 18 87 51 55 62
REMARK Flexibility Score: inf
ROOT
ATOM      1  C   UNL A   1      39.167  21.645  25.521  1.00  0.00     0.188 C 
ENDROOT
BRANCH   1   2
ATOM      2  O   UNL A   1      38.154  22.543  25.963  1.00  0.00    -0.376 OA
BRANCH   2   3
ATOM      3  C   UNL A   1      36.798  22.105  25.955  1.00  0.00     0.202 C 
BRANCH   3   4
ATOM      4  C   UNL A   1      36.470  20.696  25.424  1.00  0.00     0.261 C 
BRANCH   4   5
ATOM      5  O   UNL A   1      35.219  20.592  24.711  1.00  0.00    -0.463 OA
BRANCH   5   6
ATOM      6  C   UNL A   1      34.151  21.220  25.271  1.00  0.00     0.312 C 
ATOM      7  O   UNL A   1      33.629  20.852  26.321  1.00  0.00    -0.252 OA
BRANCH   6   8
ATOM      8  C   UNL A   1      33.715  22.500  24.536  1.00  0.00     0.124 C 
ATOM      9  C   UNL A   1      33.292  23.430  22.297  1.00  0.00     0.107 C 
ATOM     10  C   UNL A   1      32.069  22.802  22.864  1.00  0.00    -0.006 C 
ATOM     11  C   UNL A   1      34.398  22.895  23.212  1.00  0.00     0.048 C 
ATOM     12  C   UNL A   1      32.287  22.315  24.089  1.00  0.00    -0.014 C 
BRANCH   9  13
ATOM     13  N   UNL A   1      33.054  24.857  22.232  1.00  0.00    -0.332 N 
ATOM     14  O   UNL A   1      32.925  25.282  19.981  1.00  0.00    -0.248 OA
ATOM     15  C   UNL A   1      32.896  25.670  21.146  1.00  0.00     0.321 C 
ATOM     16  N   UNL A   1      32.566  26.972  21.410  1.00  0.00    -0.284 N 
ATOM     17  H   UNL A   1      32.287  27.533  20.650  1.00  0.00     0.174 HD
ATOM     18  H   UNL A   1      32.999  25.311  23.104  1.00  0.00     0.165 HD
BRANCH  16  19
ATOM     19  C   UNL A   1      32.593  27.556  22.643  1.00  0.00     0.191 A 
ATOM     20  N   UNL A   1      31.718  27.406  23.609  1.00  0.00    -0.225 NA
ATOM     21  S   UNL A   1      33.877  28.636  22.932  1.00  0.00    -0.105 S 
ATOM     22  C   UNL A   1      32.076  28.217  24.666  1.00  0.00     0.057 A 
ATOM     23  C   UNL A   1      33.161  29.039  24.447  1.00  0.00     0.092 A 
BRANCH  22  24
ATOM     24  C   UNL A   1      31.315  28.183  25.984  1.00  0.00     0.039 C 
ATOM     25  C   UNL A   1      31.734  27.185  27.044  1.00  0.00     0.011 C 
ATOM     26  C   UNL A   1      32.056  28.632  27.227  1.00  0.00     0.011 C 
ENDBRANCH  22  24
ENDBRANCH  16  19
ENDBRANCH   9  13
ENDBRANCH   6   8
ENDBRANCH   5   6
ENDBRANCH   4   5
ENDBRANCH   3   4
ENDBRANCH   2   3
ENDBRANCH   1   2
BRANCH   1  27
ATOM     27  C   UNL A   1      40.049  20.956  26.576  1.00  0.00     0.188 C 
BRANCH  27  28
ATOM     28  O   UNL A   1      40.832  21.831  27.355  1.00  0.00    -0.376 OA
BRANCH  28  29
ATOM     29  C   UNL A   1      42.186  22.025  26.994  1.00  0.00     0.202 C 
BRANCH  29  30
ATOM     30  C   UNL A   1      42.555  22.899  25.781  1.00  0.00     0.261 C 
BRANCH  30  31
ATOM     31  O   UNL A   1      42.078  24.253  25.772  1.00  0.00    -0.460 OA
BRANCH  31  32
ATOM     32  C   UNL A   1      43.007  25.239  25.807  1.00  0.00     0.338 C 
ATOM     33  O   UNL A   1      43.639  25.674  24.856  1.00  0.00    -0.246 OA
BRANCH  32  34
ATOM     34  C   UNL A   1      42.965  25.849  27.156  1.00  0.00     0.060 A 
ATOM     35  C   UNL A   1      41.860  25.610  27.988  1.00  0.00     0.016 A 
ATOM     36  C   UNL A   1      44.024  26.640  27.608  1.00  0.00     0.016 A 
ATOM     37  C   UNL A   1      41.803  26.179  29.264  1.00  0.00     0.010 A 
ATOM     38  C   UNL A   1      43.953  27.228  28.875  1.00  0.00     0.010 A 
ATOM     39  C   UNL A   1      42.831  27.025  29.701  1.00  0.00    -0.014 A 
BRANCH  39  40
ATOM     40  C   UNL A   1      42.660  27.840  30.932  1.00  0.00     0.031 A 
ATOM     41  C   UNL A   1      41.708  29.008  30.888  1.00  0.00     0.074 A 
ATOM     42  C   UNL A   1      43.327  27.558  32.067  1.00  0.00     0.049 A 
ATOM     43  N   UNL A   1      41.466  29.920  31.792  1.00  0.00    -0.248 NA
ATOM     44  C   UNL A   1      40.932  29.167  29.648  1.00  0.00     0.031 C 
ATOM     45  C   UNL A   1      44.231  26.425  32.256  1.00  0.00     0.029 A 
ATOM     46  N   UNL A   1      43.356  28.216  33.274  1.00  0.00    -0.354 N 
ATOM     47  C   UNL A   1      40.519  30.768  31.229  1.00  0.00     0.074 A 
ATOM     48  C   UNL A   1      40.256  30.278  29.892  1.00  0.00     0.031 C 
ATOM     49  C   UNL A   1      44.739  26.476  33.501  1.00  0.00     0.029 A 
ATOM     50  C   UNL A   1      44.235  27.669  34.181  1.00  0.00     0.049 A 
ATOM     51  H   UNL A   1      42.800  29.003  33.470  1.00  0.00     0.167 HD
ATOM     52  C   UNL A   1      39.920  31.855  31.777  1.00  0.00     0.034 A 
ATOM     53  C   UNL A   1      44.614  28.102  35.403  1.00  0.00     0.034 A 
ATOM     54  C   UNL A   1      40.198  32.337  33.108  1.00  0.00     0.049 A 
ATOM     55  C   UNL A   1      44.005  29.373  35.955  1.00  0.00     0.074 A 
ATOM     56  C   UNL A   1      39.633  33.417  33.765  1.00  0.00     0.029 A 
ATOM     57  N   UNL A   1      41.126  31.784  33.980  1.00  0.00    -0.354 N 
ATOM     58  N   UNL A   1      43.104  30.163  35.416  1.00  0.00    -0.248 NA
ATOM     59  C   UNL A   1      44.460  29.806  37.283  1.00  0.00     0.031 C 
ATOM     60  C   UNL A   1      40.278  33.568  34.996  1.00  0.00     0.029 A 
ATOM     61  C   UNL A   1      41.178  32.526  35.151  1.00  0.00     0.049 A 
ATOM     62  H   UNL A   1      41.668  30.984  33.795  1.00  0.00     0.167 HD
ATOM     63  C   UNL A   1      42.859  31.161  36.359  1.00  0.00     0.074 A 
ATOM     64  C   UNL A   1      43.694  30.864  37.502  1.00  0.00     0.031 C 
ATOM     65  C   UNL A   1      42.017  32.224  36.288  1.00  0.00     0.034 A 
BRANCH  52  66
ATOM     66  C   UNL A   1      38.948  32.626  30.918  1.00  0.00     0.023 A 
ATOM     67  C   UNL A   1      37.562  32.405  30.979  1.00  0.00     0.031 A 
ATOM     68  C   UNL A   1      39.421  33.599  30.019  1.00  0.00     0.131 A 
ATOM     69  C   UNL A   1      36.703  33.106  30.118  1.00  0.00     0.055 A 
ATOM     70  C   UNL A   1      38.554  34.350  29.222  1.00  0.00     0.041 A 
ATOM     71  F   UNL A   1      40.737  33.835  29.897  1.00  0.00    -0.206 F 
ATOM     72  C   UNL A   1      37.187  34.096  29.261  1.00  0.00     0.022 A 
BRANCH  69  73
ATOM     73  S   UNL A   1      34.958  32.615  30.043  1.00  0.00     0.124 S 
ATOM     74  O   UNL A   1      34.994  31.545  29.048  1.00  0.00    -0.237 OA
ATOM     75  O   UNL A   1      34.686  32.202  31.415  1.00  0.00    -0.237 OA
ATOM     76  O   UNL A   1      34.277  33.835  29.613  1.00  0.00    -0.744 OA
ENDBRANCH  69  73
ENDBRANCH  52  66
BRANCH  53  77
ATOM     77  C   UNL A   1      45.660  27.372  36.182  1.00  0.00     0.023 A 
ATOM     78  C   UNL A   1      47.027  27.631  35.987  1.00  0.00     0.031 A 
ATOM     79  C   UNL A   1      45.311  26.336  37.068  1.00  0.00     0.131 A 
ATOM     80  C   UNL A   1      47.992  26.828  36.617  1.00  0.00     0.055 A 
ATOM     81  C   UNL A   1      46.273  25.586  37.746  1.00  0.00     0.041 A 
ATOM     82  F   UNL A   1      44.021  26.033  37.284  1.00  0.00    -0.206 F 
ATOM     83  C   UNL A   1      47.623  25.818  37.509  1.00  0.00     0.022 A 
BRANCH  80  84
ATOM     84  S   UNL A   1      49.734  27.039  36.157  1.00  0.00     0.124 S 
ATOM     85  O   UNL A   1      49.663  26.987  34.701  1.00  0.00    -0.237 OA
ATOM     86  O   UNL A   1      50.047  28.338  36.739  1.00  0.00    -0.237 OA
ATOM     87  O   UNL A   1      50.393  25.898  36.790  1.00  0.00    -0.744 OA
ENDBRANCH  80  84
ENDBRANCH  53  77
BRANCH  65  88
ATOM     88  C   UNL A   1      41.910  33.111  37.509  1.00  0.00     0.023 A 
ATOM     89  C   UNL A   1      41.039  32.816  38.572  1.00  0.00     0.031 A 
ATOM     90  C   UNL A   1      42.693  34.276  37.603  1.00  0.00     0.131 A 
ATOM     91  C   UNL A   1      40.927  33.706  39.653  1.00  0.00     0.055 A 
ATOM     92  C   UNL A   1      42.630  35.120  38.713  1.00  0.00     0.041 A 
ATOM     93  F   UNL A   1      43.541  34.614  36.617  1.00  0.00    -0.206 F 
ATOM     94  C   UNL A   1      41.732  34.845  39.739  1.00  0.00     0.022 A 
BRANCH  91  95
ATOM     95  S   UNL A   1      39.640  33.412  40.896  1.00  0.00     0.124 S 
ATOM     96  O   UNL A   1      38.511  34.154  40.344  1.00  0.00    -0.237 OA
ATOM     97  O   UNL A   1      39.516  31.958  40.880  1.00  0.00    -0.237 OA
ATOM     98  O   UNL A   1      40.210  33.971  42.120  1.00  0.00    -0.744 OA
ENDBRANCH  91  95
ENDBRANCH  65  88
ENDBRANCH  39  40
ENDBRANCH  32  34
ENDBRANCH  31  32
ENDBRANCH  30  31
ENDBRANCH  29  30
ENDBRANCH  28  29
ENDBRANCH  27  28
ENDBRANCH   1  27
TORSDOF 23
ENDMDL
MODEL 2
REMARK VINA RESULT:      -8.8      9.895     16.797
REMARK SMILES O=C(Nc1nc(C2CC2)cs1)N[C@@H]1C=C[C@@H](C(=O)OCCOCCOCCOC(=O)c2ccc(-c3c4nc(c(-c5cc(S(=O)(=O)[O-])ccc5F)c5ccc([nH]5)c(-c5cc(S(=O)(=O)[O-])ccc5F)c5nc(c(-c6cc(S(=O)(=O)[O-])ccc6F)c6ccc3[nH]6)C=C5)C=C4)cc2)C1
REMARK SMILES IDX 23 1 22 2 21 3 20 4 19 5 17 6 18 7 16 8 13 9 14 10 94 11
REMARK SMILES IDX 15 12 12 13 1 14 2 15 3 16 4 19 5 20 11 21 6 22 10 23 7 24
REMARK SMILES IDX 8 25 9 26 24 27 25 28 26 29 27 30 28 31 29 32 30 33 31 34
REMARK SMILES IDX 32 35 93 36 33 37 92 38 34 39 35 40 36 41 86 42 37 43 91 44
REMARK SMILES IDX 85 45 87 46 38 47 90 48 84 49 83 50 39 52 71 53 51 54 70 55
REMARK SMILES IDX 52 56 55 57 69 58 88 59 53 60 54 61 68 63 89 64 56 65 40 66
REMARK SMILES IDX 41 67 49 68 42 69 48 70 50 71 47 72 43 73 44 74 45 75 46 76
REMARK SMILES IDX 72 77 73 78 81 79 74 80 80 81 82 82 79 83 75 84 76 85 77 86
REMARK SMILES IDX 78 87 57 88 58 89 66 90 59 91 65 92 67 93 64 94 60 95 61 96
REMARK SMILES IDX 62 97 63 98
REMARK H PARENT 3 17 12 18 87 51 55 62
REMARK Flexibility Score: inf
ROOT
ATOM      1  C   UNL A   1      42.945  41.313  25.886  1.00  0.00     0.188 C 
ENDROOT
BRANCH   1   2
ATOM      2  O   UNL A   1      43.814  42.325  25.388  1.00  0.00    -0.376 OA
BRANCH   2   3
ATOM      3  C   UNL A   1      45.101  42.475  25.982  1.00  0.00     0.202 C 
BRANCH   3   4
ATOM      4  C   UNL A   1      45.859  43.803  25.800  1.00  0.00     0.261 C 
BRANCH   4   5
ATOM      5  O   UNL A   1      47.090  43.702  25.053  1.00  0.00    -0.463 OA
BRANCH   5   6
ATOM      6  C   UNL A   1      47.599  44.865  24.566  1.00  0.00     0.312 C 
ATOM      7  O   UNL A   1      48.263  45.645  25.246  1.00  0.00    -0.252 OA
BRANCH   6   8
ATOM      8  C   UNL A   1      47.366  45.075  23.060  1.00  0.00     0.124 C 
ATOM      9  C   UNL A   1      48.003  44.229  20.839  1.00  0.00     0.107 C 
ATOM     10  C   UNL A   1      46.820  43.505  21.377  1.00  0.00    -0.006 C 
ATOM     11  C   UNL A   1      48.545  44.950  22.077  1.00  0.00     0.048 C 
ATOM     12  C   UNL A   1      46.455  43.976  22.573  1.00  0.00    -0.014 C 
BRANCH   9  13
ATOM     13  N   UNL A   1      47.553  45.008  19.704  1.00  0.00    -0.332 N 
ATOM     14  O   UNL A   1      49.206  44.696  18.144  1.00  0.00    -0.248 OA
ATOM     15  C   UNL A   1      48.139  45.200  18.486  1.00  0.00     0.321 C 
ATOM     16  N   UNL A   1      47.408  45.905  17.568  1.00  0.00    -0.284 N 
ATOM     17  H   UNL A   1      47.733  45.915  16.639  1.00  0.00     0.174 HD
ATOM     18  H   UNL A   1      46.693  45.472  19.831  1.00  0.00     0.165 HD
BRANCH  16  19
ATOM     19  C   UNL A   1      46.261  46.595  17.839  1.00  0.00     0.191 A 
ATOM     20  N   UNL A   1      46.161  47.765  18.425  1.00  0.00    -0.225 NA
ATOM     21  S   UNL A   1      44.805  45.822  17.415  1.00  0.00    -0.105 S 
ATOM     22  C   UNL A   1      44.826  48.080  18.567  1.00  0.00     0.057 A 
ATOM     23  C   UNL A   1      43.937  47.103  18.174  1.00  0.00     0.092 A 
BRANCH  22  24
ATOM     24  C   UNL A   1      44.384  49.430  19.114  1.00  0.00     0.039 C 
ATOM     25  C   UNL A   1      44.278  50.604  18.163  1.00  0.00     0.011 C 
ATOM     26  C   UNL A   1      43.034  49.953  18.671  1.00  0.00     0.011 C 
ENDBRANCH  22  24
ENDBRANCH  16  19
ENDBRANCH   9  13
ENDBRANCH   6   8
ENDBRANCH   5   6
ENDBRANCH   4   5
ENDBRANCH   3   4
ENDBRANCH   2   3
ENDBRANCH   1   2
BRANCH   1  27
ATOM     27  C   UNL A   1      43.407  40.473  27.089  1.00  0.00     0.188 C 
BRANCH  27  28
ATOM     28  O   UNL A   1      42.428  40.276  28.083  1.00  0.00    -0.376 OA
BRANCH  28  29
ATOM     29  C   UNL A   1      42.690  39.338  29.109  1.00  0.00     0.202 C 
BRANCH  29  30
ATOM     30  C   UNL A   1      43.482  38.052  28.810  1.00  0.00     0.261 C 
BRANCH  30  31
ATOM     31  O   UNL A   1      44.574  37.728  29.684  1.00  0.00    -0.460 OA
BRANCH  31  32
ATOM     32  C   UNL A   1      45.653  37.123  29.133  1.00  0.00     0.338 C 
ATOM     33  O   UNL A   1      46.762  37.615  28.982  1.00  0.00    -0.246 OA
BRANCH  32  34
ATOM     34  C   UNL A   1      45.321  35.692  28.946  1.00  0.00     0.060 A 
ATOM     35  C   UNL A   1      44.813  35.256  27.713  1.00  0.00     0.016 A 
ATOM     36  C   UNL A   1      45.529  34.777  29.981  1.00  0.00     0.016 A 
ATOM     37  C   UNL A   1      44.493  33.909  27.519  1.00  0.00     0.010 A 
ATOM     38  C   UNL A   1      45.184  33.434  29.793  1.00  0.00     0.010 A 
ATOM     39  C   UNL A   1      44.638  32.996  28.571  1.00  0.00    -0.014 A 
BRANCH  39  40
ATOM     40  C   UNL A   1      44.059  31.631  28.466  1.00  0.00     0.031 A 
ATOM     41  C   UNL A   1      44.821  30.590  27.688  1.00  0.00     0.074 A 
ATOM     42  C   UNL A   1      42.885  31.313  29.044  1.00  0.00     0.049 A 
ATOM     43  N   UNL A   1      44.479  29.369  27.372  1.00  0.00    -0.248 NA
ATOM     44  C   UNL A   1      46.149  30.991  27.196  1.00  0.00     0.031 C 
ATOM     45  C   UNL A   1      42.079  32.211  29.870  1.00  0.00     0.029 A 
ATOM     46  N   UNL A   1      42.160  30.146  29.013  1.00  0.00    -0.354 N 
ATOM     47  C   UNL A   1      45.541  28.857  26.634  1.00  0.00     0.074 A 
ATOM     48  C   UNL A   1      46.525  29.914  26.525  1.00  0.00     0.031 C 
ATOM     49  C   UNL A   1      40.963  31.566  30.253  1.00  0.00     0.029 A 
ATOM     50  C   UNL A   1      40.949  30.228  29.663  1.00  0.00     0.049 A 
ATOM     51  H   UNL A   1      42.477  29.328  28.567  1.00  0.00     0.167 HD
ATOM     52  C   UNL A   1      45.684  27.619  26.101  1.00  0.00     0.034 A 
ATOM     53  C   UNL A   1      39.935  29.339  29.741  1.00  0.00     0.034 A 
ATOM     54  C   UNL A   1      44.692  26.578  26.211  1.00  0.00     0.049 A 
ATOM     55  C   UNL A   1      40.077  27.999  29.053  1.00  0.00     0.074 A 
ATOM     56  C   UNL A   1      44.747  25.284  25.723  1.00  0.00     0.029 A 
ATOM     57  N   UNL A   1      43.460  26.713  26.838  1.00  0.00    -0.354 N 
ATOM     58  N   UNL A   1      41.090  27.523  28.365  1.00  0.00    -0.248 NA
ATOM     59  C   UNL A   1      38.941  27.073  29.159  1.00  0.00     0.031 C 
ATOM     60  C   UNL A   1      43.519  24.666  25.979  1.00  0.00     0.029 A 
ATOM     61  C   UNL A   1      42.732  25.539  26.712  1.00  0.00     0.049 A 
ATOM     62  H   UNL A   1      43.149  27.522  27.303  1.00  0.00     0.167 HD
ATOM     63  C   UNL A   1      40.724  26.230  27.993  1.00  0.00     0.074 A 
ATOM     64  C   UNL A   1      39.408  25.996  28.545  1.00  0.00     0.031 C 
ATOM     65  C   UNL A   1      41.416  25.315  27.265  1.00  0.00     0.034 A 
BRANCH  52  66
ATOM     66  C   UNL A   1      46.935  27.341  25.303  1.00  0.00     0.023 A 
ATOM     67  C   UNL A   1      47.089  27.787  23.979  1.00  0.00     0.031 A 
ATOM     68  C   UNL A   1      47.992  26.614  25.880  1.00  0.00     0.131 A 
ATOM     69  C   UNL A   1      48.246  27.454  23.258  1.00  0.00     0.055 A 
ATOM     70  C   UNL A   1      49.174  26.354  25.183  1.00  0.00     0.041 A 
ATOM     71  F   UNL A   1      47.891  26.139  27.131  1.00  0.00    -0.206 F 
ATOM     72  C   UNL A   1      49.301  26.765  23.861  1.00  0.00     0.022 A 
BRANCH  69  73
ATOM     73  S   UNL A   1      48.299  27.823  21.483  1.00  0.00     0.124 S 
ATOM     74  O   UNL A   1      48.463  26.490  20.908  1.00  0.00    -0.237 OA
ATOM     75  O   UNL A   1      47.010  28.463  21.254  1.00  0.00    -0.237 OA
ATOM     76  O   UNL A   1      49.463  28.699  21.350  1.00  0.00    -0.744 OA
ENDBRANCH  69  73
ENDBRANCH  52  66
BRANCH  53  77
ATOM     77  C   UNL A   1      38.665  29.689  30.448  1.00  0.00     0.023 A 
ATOM     78  C   UNL A   1      37.673  30.463  29.824  1.00  0.00     0.031 A 
ATOM     79  C   UNL A   1      38.465  29.331  31.794  1.00  0.00     0.131 A 
ATOM     80  C   UNL A   1      36.561  30.905  30.558  1.00  0.00     0.055 A 
ATOM     81  C   UNL A   1      37.324  29.715  32.500  1.00  0.00     0.041 A 
ATOM     82  F   UNL A   1      39.385  28.604  32.448  1.00  0.00    -0.206 F 
ATOM     83  C   UNL A   1      36.372  30.521  31.888  1.00  0.00     0.022 A 
BRANCH  80  84
ATOM     84  S   UNL A   1      35.428  32.094  29.788  1.00  0.00     0.124 S 
ATOM     85  O   UNL A   1      34.902  31.321  28.669  1.00  0.00    -0.237 OA
ATOM     86  O   UNL A   1      34.493  32.369  30.873  1.00  0.00    -0.237 OA
ATOM     87  O   UNL A   1      36.300  33.208  29.422  1.00  0.00    -0.744 OA
ENDBRANCH  80  84
ENDBRANCH  53  77
BRANCH  65  88
ATOM     88  C   UNL A   1      40.786  23.953  27.077  1.00  0.00     0.023 A 
ATOM     89  C   UNL A   1      39.643  23.762  26.280  1.00  0.00     0.031 A 
ATOM     90  C   UNL A   1      41.339  22.827  27.714  1.00  0.00     0.131 A 
ATOM     91  C   UNL A   1      39.057  22.489  26.190  1.00  0.00     0.055 A 
ATOM     92  C   UNL A   1      40.793  21.551  27.564  1.00  0.00     0.041 A 
ATOM     93  F   UNL A   1      42.427  22.946  28.492  1.00  0.00    -0.206 F 
ATOM     94  C   UNL A   1      39.636  21.380  26.810  1.00  0.00     0.022 A 
BRANCH  91  95
ATOM     95  S   UNL A   1      37.464  22.320  25.337  1.00  0.00     0.124 S 
ATOM     96  O   UNL A   1      37.633  21.055  24.629  1.00  0.00    -0.237 OA
ATOM     97  O   UNL A   1      36.515  22.309  26.446  1.00  0.00    -0.237 OA
ATOM     98  O   UNL A   1      37.405  23.505  24.483  1.00  0.00    -0.744 OA
ENDBRANCH  91  95
ENDBRANCH  65  88
ENDBRANCH  39  40
ENDBRANCH  32  34
ENDBRANCH  31  32
ENDBRANCH  30  31
ENDBRANCH  29  30
ENDBRANCH  28  29
ENDBRANCH  27  28
ENDBRANCH   1  27
TORSDOF 23
ENDMDL
MODEL 3
REMARK VINA RESULT:      -8.8      0.886      7.582
REMARK SMILES O=C(Nc1nc(C2CC2)cs1)N[C@@H]1C=C[C@@H](C(=O)OCCOCCOCCOC(=O)c2ccc(-c3c4nc(c(-c5cc(S(=O)(=O)[O-])ccc5F)c5ccc([nH]5)c(-c5cc(S(=O)(=O)[O-])ccc5F)c5nc(c(-c6cc(S(=O)(=O)[O-])ccc6F)c6ccc3[nH]6)C=C5)C=C4)cc2)C1
REMARK SMILES IDX 23 1 22 2 21 3 20 4 19 5 17 6 18 7 16 8 13 9 14 10 94 11
REMARK SMILES IDX 15 12 12 13 1 14 2 15 3 16 4 19 5 20 11 21 6 22 10 23 7 24
REMARK SMILES IDX 8 25 9 26 24 27 25 28 26 29 27 30 28 31 29 32 30 33 31 34
REMARK SMILES IDX 32 35 93 36 33 37 92 38 34 39 35 40 36 41 86 42 37 43 91 44
REMARK SMILES IDX 85 45 87 46 38 47 90 48 84 49 83 50 39 52 71 53 51 54 70 55
REMARK SMILES IDX 52 56 55 57 69 58 88 59 53 60 54 61 68 63 89 64 56 65 40 66
REMARK SMILES IDX 41 67 49 68 42 69 48 70 50 71 47 72 43 73 44 74 45 75 46 76
REMARK SMILES IDX 72 77 73 78 81 79 74 80 80 81 82 82 79 83 75 84 76 85 77 86
REMARK SMILES IDX 78 87 57 88 58 89 66 90 59 91 65 92 67 93 64 94 60 95 61 96
REMARK SMILES IDX 62 97 63 98
REMARK H PARENT 3 17 12 18 87 51 55 62
REMARK Flexibility Score: inf
ROOT
ATOM      1  C   UNL A   1      39.223  21.509  25.567  1.00  0.00     0.188 C 
ENDROOT
BRANCH   1   2
ATOM      2  O   UNL A   1      38.219  22.349  26.130  1.00  0.00    -0.376 OA
BRANCH   2   3
ATOM      3  C   UNL A   1      36.854  22.092  25.814  1.00  0.00     0.202 C 
BRANCH   3   4
ATOM      4  C   UNL A   1      36.445  20.678  25.360  1.00  0.00     0.261 C 
BRANCH   4   5
ATOM      5  O   UNL A   1      35.212  20.614  24.610  1.00  0.00    -0.463 OA
BRANCH   5   6
ATOM      6  C   UNL A   1      34.119  21.169  25.197  1.00  0.00     0.312 C 
ATOM      7  O   UNL A   1      33.696  20.819  26.297  1.00  0.00    -0.252 OA
BRANCH   6   8
ATOM      8  C   UNL A   1      33.515  22.350  24.418  1.00  0.00     0.124 C 
ATOM      9  C   UNL A   1      33.370  23.354  22.175  1.00  0.00     0.107 C 
ATOM     10  C   UNL A   1      32.282  22.363  22.400  1.00  0.00    -0.006 C 
ATOM     11  C   UNL A   1      34.341  23.047  23.320  1.00  0.00     0.048 C 
ATOM     12  C   UNL A   1      32.343  21.833  23.624  1.00  0.00    -0.014 C 
BRANCH   9  13
ATOM     13  N   UNL A   1      32.754  24.662  22.099  1.00  0.00    -0.332 N 
ATOM     14  O   UNL A   1      32.926  25.211  19.878  1.00  0.00    -0.248 OA
ATOM     15  C   UNL A   1      32.575  25.483  21.023  1.00  0.00     0.321 C 
ATOM     16  N   UNL A   1      31.848  26.622  21.247  1.00  0.00    -0.284 N 
ATOM     17  H   UNL A   1      31.565  27.143  20.461  1.00  0.00     0.174 HD
ATOM     18  H   UNL A   1      32.413  25.014  22.953  1.00  0.00     0.165 HD
BRANCH  16  19
ATOM     19  C   UNL A   1      31.481  27.092  22.475  1.00  0.00     0.191 A 
ATOM     20  N   UNL A   1      31.303  26.391  23.570  1.00  0.00    -0.225 NA
ATOM     21  S   UNL A   1      31.173  28.762  22.576  1.00  0.00    -0.105 S 
ATOM     22  C   UNL A   1      30.875  27.233  24.575  1.00  0.00     0.057 A 
ATOM     23  C   UNL A   1      30.643  28.540  24.200  1.00  0.00     0.092 A 
BRANCH  22  24
ATOM     24  C   UNL A   1      30.686  26.735  26.001  1.00  0.00     0.039 C 
ATOM     25  C   UNL A   1      29.861  25.487  26.235  1.00  0.00     0.011 C 
ATOM     26  C   UNL A   1      31.346  25.424  26.374  1.00  0.00     0.011 C 
ENDBRANCH  22  24
ENDBRANCH  16  19
ENDBRANCH   9  13
ENDBRANCH   6   8
ENDBRANCH   5   6
ENDBRANCH   4   5
ENDBRANCH   3   4
ENDBRANCH   2   3
ENDBRANCH   1   2
BRANCH   1  27
ATOM     27  C   UNL A   1      40.031  20.599  26.506  1.00  0.00     0.188 C 
BRANCH  27  28
ATOM     28  O   UNL A   1      40.901  21.278  27.383  1.00  0.00    -0.376 OA
BRANCH  28  29
ATOM     29  C   UNL A   1      42.274  21.343  27.051  1.00  0.00     0.202 C 
BRANCH  29  30
ATOM     30  C   UNL A   1      42.745  22.133  25.816  1.00  0.00     0.261 C 
BRANCH  30  31
ATOM     31  O   UNL A   1      42.324  23.501  25.706  1.00  0.00    -0.460 OA
BRANCH  31  32
ATOM     32  C   UNL A   1      43.293  24.445  25.634  1.00  0.00     0.338 C 
ATOM     33  O   UNL A   1      43.969  24.717  24.652  1.00  0.00    -0.246 OA
BRANCH  32  34
ATOM     34  C   UNL A   1      43.240  25.240  26.882  1.00  0.00     0.060 A 
ATOM     35  C   UNL A   1      42.174  25.055  27.774  1.00  0.00     0.016 A 
ATOM     36  C   UNL A   1      44.253  26.154  27.182  1.00  0.00     0.016 A 
ATOM     37  C   UNL A   1      42.107  25.798  28.957  1.00  0.00     0.010 A 
ATOM     38  C   UNL A   1      44.172  26.914  28.354  1.00  0.00     0.010 A 
ATOM     39  C   UNL A   1      43.085  26.761  29.235  1.00  0.00    -0.014 A 
BRANCH  39  40
ATOM     40  C   UNL A   1      42.887  27.734  30.342  1.00  0.00     0.031 A 
ATOM     41  C   UNL A   1      43.615  27.495  31.640  1.00  0.00     0.074 A 
ATOM     42  C   UNL A   1      42.084  28.806  30.209  1.00  0.00     0.049 A 
ATOM     43  N   UNL A   1      43.529  28.138  32.775  1.00  0.00    -0.248 NA
ATOM     44  C   UNL A   1      44.564  26.370  31.655  1.00  0.00     0.031 C 
ATOM     45  C   UNL A   1      41.370  29.181  28.989  1.00  0.00     0.029 A 
ATOM     46  N   UNL A   1      41.725  29.773  31.118  1.00  0.00    -0.354 N 
ATOM     47  C   UNL A   1      44.402  27.491  33.643  1.00  0.00     0.074 A 
ATOM     48  C   UNL A   1      44.982  26.385  32.910  1.00  0.00     0.031 C 
ATOM     49  C   UNL A   1      40.645  30.287  29.232  1.00  0.00     0.029 A 
ATOM     50  C   UNL A   1      40.804  30.673  30.633  1.00  0.00     0.049 A 
ATOM     51  H   UNL A   1      42.092  29.816  32.030  1.00  0.00     0.167 HD
ATOM     52  C   UNL A   1      44.695  27.793  34.932  1.00  0.00     0.034 A 
ATOM     53  C   UNL A   1      40.141  31.671  31.259  1.00  0.00     0.034 A 
ATOM     54  C   UNL A   1      44.103  28.893  35.653  1.00  0.00     0.049 A 
ATOM     55  C   UNL A   1      40.412  31.927  32.726  1.00  0.00     0.074 A 
ATOM     56  C   UNL A   1      44.344  29.297  36.954  1.00  0.00     0.029 A 
ATOM     57  N   UNL A   1      43.141  29.756  35.143  1.00  0.00    -0.354 N 
ATOM     58  N   UNL A   1      41.246  31.313  33.535  1.00  0.00    -0.248 NA
ATOM     59  C   UNL A   1      39.657  33.015  33.361  1.00  0.00     0.031 C 
ATOM     60  C   UNL A   1      43.471  30.345  37.259  1.00  0.00     0.029 A 
ATOM     61  C   UNL A   1      42.752  30.662  36.118  1.00  0.00     0.049 A 
ATOM     62  H   UNL A   1      42.788  29.729  34.225  1.00  0.00     0.167 HD
ATOM     63  C   UNL A   1      41.140  31.970  34.760  1.00  0.00     0.074 A 
ATOM     64  C   UNL A   1      40.176  33.033  34.579  1.00  0.00     0.031 C 
ATOM     65  C   UNL A   1      41.785  31.720  35.929  1.00  0.00     0.034 A 
BRANCH  52  66
ATOM     66  C   UNL A   1      45.658  26.889  35.661  1.00  0.00     0.023 A 
ATOM     67  C   UNL A   1      47.042  27.137  35.684  1.00  0.00     0.031 A 
ATOM     68  C   UNL A   1      45.182  25.755  36.343  1.00  0.00     0.131 A 
ATOM     69  C   UNL A   1      47.904  26.235  36.326  1.00  0.00     0.055 A 
ATOM     70  C   UNL A   1      46.037  24.905  37.047  1.00  0.00     0.041 A 
ATOM     71  F   UNL A   1      43.874  25.451  36.334  1.00  0.00    -0.206 F 
ATOM     72  C   UNL A   1      47.408  25.136  37.031  1.00  0.00     0.022 A 
BRANCH  69  73
ATOM     73  S   UNL A   1      49.694  26.447  36.118  1.00  0.00     0.124 S 
ATOM     74  O   UNL A   1      49.947  27.640  36.923  1.00  0.00    -0.237 OA
ATOM     75  O   UNL A   1      50.225  25.196  36.646  1.00  0.00    -0.237 OA
ATOM     76  O   UNL A   1      49.851  26.632  34.676  1.00  0.00    -0.744 OA
ENDBRANCH  69  73
ENDBRANCH  52  66
BRANCH  53  77
ATOM     77  C   UNL A   1      39.113  32.478  30.534  1.00  0.00     0.023 A 
ATOM     78  C   UNL A   1      37.790  32.025  30.405  1.00  0.00     0.031 A 
ATOM     79  C   UNL A   1      39.462  33.672  29.877  1.00  0.00     0.131 A 
ATOM     80  C   UNL A   1      36.883  32.725  29.592  1.00  0.00     0.055 A 
ATOM     81  C   UNL A   1      38.540  34.401  29.126  1.00  0.00     0.041 A 
ATOM     82  F   UNL A   1      40.716  34.147  29.952  1.00  0.00    -0.206 F 
ATOM     83  C   UNL A   1      37.245  33.920  28.965  1.00  0.00     0.022 A 
BRANCH  80  84
ATOM     84  S   UNL A   1      35.260  31.985  29.261  1.00  0.00     0.124 S 
ATOM     85  O   UNL A   1      34.864  32.674  28.038  1.00  0.00    -0.237 OA
ATOM     86  O   UNL A   1      35.594  30.572  29.122  1.00  0.00    -0.237 OA
ATOM     87  O   UNL A   1      34.482  32.326  30.449  1.00  0.00    -0.744 OA
ENDBRANCH  80  84
ENDBRANCH  53  77
BRANCH  65  88
ATOM     88  C   UNL A   1      41.515  32.654  37.088  1.00  0.00     0.023 A 
ATOM     89  C   UNL A   1      40.534  32.377  38.057  1.00  0.00     0.031 A 
ATOM     90  C   UNL A   1      42.251  33.846  37.218  1.00  0.00     0.131 A 
ATOM     91  C   UNL A   1      40.276  33.308  39.076  1.00  0.00     0.055 A 
ATOM     92  C   UNL A   1      42.038  34.733  38.274  1.00  0.00     0.041 A 
ATOM     93  F   UNL A   1      43.198  34.168  36.322  1.00  0.00    -0.206 F 
ATOM     94  C   UNL A   1      41.035  34.473  39.203  1.00  0.00     0.022 A 
BRANCH  91  95
ATOM     95  S   UNL A   1      38.861  33.025  40.177  1.00  0.00     0.124 S 
ATOM     96  O   UNL A   1      38.144  31.962  39.481  1.00  0.00    -0.237 OA
ATOM     97  O   UNL A   1      39.510  32.644  41.428  1.00  0.00    -0.237 OA
ATOM     98  O   UNL A   1      38.182  34.319  40.201  1.00  0.00    -0.744 OA
ENDBRANCH  91  95
ENDBRANCH  65  88
ENDBRANCH  39  40
ENDBRANCH  32  34
ENDBRANCH  31  32
ENDBRANCH  30  31
ENDBRANCH  29  30
ENDBRANCH  28  29
ENDBRANCH  27  28
ENDBRANCH   1  27
TORSDOF 23
ENDMDL
