MODEL 1
REMARK VINA RESULT:     -11.2      0.000      0.000
REMARK SMILES CN1C(=O)[C@@H]2CC=CC[C@]2(C(=O)OCCOCCOCCOC(=O)c2ccc(-c3c4nc(c(-c5cc(S(=O)(=O)[O-])ccc5F)c5ccc([nH]5)c(-c5cc(S(=O)(=O)[O-])ccc5F)c5nc(c(-c6cc(S(=O)(=O)[O-])ccc6F)c6ccc3[nH]6)C=C5)C=C4)cc2)[C@H]1c1ccccc1
REMARK SMILES IDX 18 1 17 2 16 3 15 4 14 5 13 6 11 7 12 8 10 9 1 10 2 11 3 12
REMARK SMILES IDX 88 13 4 14 5 15 6 16 9 17 7 18 8 19 89 20 90 21 94 22 91 23
REMARK SMILES IDX 93 24 92 25 19 26 20 27 21 28 22 29 23 30 24 31 25 32 26 33
REMARK SMILES IDX 87 34 27 35 86 36 28 37 29 38 30 39 80 40 31 41 85 42 79 43
REMARK SMILES IDX 81 44 32 45 84 46 78 47 77 48 33 50 65 51 45 52 64 53 46 54
REMARK SMILES IDX 49 55 63 56 82 57 47 58 48 59 62 61 83 62 50 63 34 64 35 65
REMARK SMILES IDX 43 66 36 67 42 68 44 69 41 70 37 71 38 72 39 73 40 74 66 75
REMARK SMILES IDX 67 76 75 77 68 78 74 79 76 80 73 81 69 82 70 83 71 84 72 85
REMARK SMILES IDX 51 86 52 87 60 88 53 89 59 90 61 91 58 92 54 93 55 94 56 95
REMARK SMILES IDX 57 96
REMARK H PARENT 81 49 49 60
REMARK Flexibility Score: inf
ROOT
ATOM      1  C   UNL A   1      30.381  28.275  22.644  1.00  0.00     0.188 C 
ENDROOT
BRANCH   1   2
ATOM      2  C   UNL A   1      28.925  28.087  23.141  1.00  0.00     0.188 C 
BRANCH   2   3
ATOM      3  O   UNL A   1      28.664  26.872  23.858  1.00  0.00    -0.376 OA
BRANCH   3   4
ATOM      4  C   UNL A   1      29.754  25.959  23.941  1.00  0.00     0.202 C 
BRANCH   4   5
ATOM      5  C   UNL A   1      29.811  25.321  25.341  1.00  0.00     0.261 C 
BRANCH   5   6
ATOM      6  O   UNL A   1      30.677  24.177  25.283  1.00  0.00    -0.463 OA
BRANCH   6   7
ATOM      7  C   UNL A   1      31.710  23.939  26.177  1.00  0.00     0.315 C 
ATOM      8  O   UNL A   1      31.631  23.281  27.199  1.00  0.00    -0.251 OA
BRANCH   7   9
ATOM      9  C   UNL A   1      32.987  24.540  25.521  1.00  0.00     0.108 C 
ATOM     10  C   UNL A   1      35.996  22.475  24.336  1.00  0.00     0.147 C 
ATOM     11  N   UNL A   1      34.930  23.437  24.554  1.00  0.00    -0.337 N 
ATOM     12  C   UNL A   1      34.422  24.208  23.538  1.00  0.00     0.227 C 
ATOM     13  C   UNL A   1      33.971  23.288  25.610  1.00  0.00     0.133 C 
ATOM     14  O   UNL A   1      34.875  24.241  22.402  1.00  0.00    -0.275 OA
ATOM     15  C   UNL A   1      33.196  24.986  24.031  1.00  0.00     0.102 C 
ATOM     16  C   UNL A   1      33.586  26.466  23.708  1.00  0.00     0.041 C 
ATOM     17  C   UNL A   1      32.939  25.831  26.386  1.00  0.00     0.049 C 
ATOM     18  C   UNL A   1      34.027  27.337  24.839  1.00  0.00    -0.030 C 
ATOM     19  C   UNL A   1      33.762  27.013  26.098  1.00  0.00    -0.030 C 
BRANCH  13  20
ATOM     20  C   UNL A   1      33.229  21.924  25.376  1.00  0.00    -0.024 A 
ATOM     21  C   UNL A   1      33.407  20.843  26.265  1.00  0.00     0.006 A 
ATOM     22  C   UNL A   1      32.574  21.678  24.158  1.00  0.00     0.006 A 
ATOM     23  C   UNL A   1      33.133  19.536  25.867  1.00  0.00     0.000 A 
ATOM     24  C   UNL A   1      32.274  20.365  23.776  1.00  0.00     0.000 A 
ATOM     25  C   UNL A   1      32.597  19.294  24.609  1.00  0.00     0.000 A 
ENDBRANCH  13  20
ENDBRANCH   7   9
ENDBRANCH   6   7
ENDBRANCH   5   6
ENDBRANCH   4   5
ENDBRANCH   3   4
ENDBRANCH   2   3
ENDBRANCH   1   2
BRANCH   1  26
ATOM     26  O   UNL A   1      31.291  29.001  23.460  1.00  0.00    -0.376 OA
BRANCH  26  27
ATOM     27  C   UNL A   1      30.897  29.273  24.793  1.00  0.00     0.202 C 
BRANCH  27  28
ATOM     28  C   UNL A   1      31.435  30.541  25.477  1.00  0.00     0.261 C 
BRANCH  28  29
ATOM     29  O   UNL A   1      32.700  30.376  26.151  1.00  0.00    -0.460 OA
BRANCH  29  30
ATOM     30  C   UNL A   1      33.076  31.430  26.938  1.00  0.00     0.338 C 
ATOM     31  O   UNL A   1      32.383  32.367  27.255  1.00  0.00    -0.246 OA
BRANCH  30  32
ATOM     32  C   UNL A   1      34.416  31.177  27.535  1.00  0.00     0.060 A 
ATOM     33  C   UNL A   1      34.775  29.847  27.794  1.00  0.00     0.016 A 
ATOM     34  C   UNL A   1      35.291  32.209  27.880  1.00  0.00     0.016 A 
ATOM     35  C   UNL A   1      35.987  29.547  28.424  1.00  0.00     0.010 A 
ATOM     36  C   UNL A   1      36.505  31.906  28.521  1.00  0.00     0.010 A 
ATOM     37  C   UNL A   1      36.852  30.576  28.818  1.00  0.00    -0.014 A 
BRANCH  37  38
ATOM     38  C   UNL A   1      38.005  30.270  29.712  1.00  0.00     0.031 A 
ATOM     39  C   UNL A   1      39.025  29.268  29.239  1.00  0.00     0.074 A 
ATOM     40  C   UNL A   1      38.174  30.877  30.903  1.00  0.00     0.049 A 
ATOM     41  N   UNL A   1      40.086  28.804  29.849  1.00  0.00    -0.248 NA
ATOM     42  C   UNL A   1      38.814  28.717  27.892  1.00  0.00     0.031 C 
ATOM     43  C   UNL A   1      37.301  31.907  31.461  1.00  0.00     0.029 A 
ATOM     44  N   UNL A   1      39.146  30.706  31.862  1.00  0.00    -0.354 N 
ATOM     45  C   UNL A   1      40.671  27.908  28.960  1.00  0.00     0.074 A 
ATOM     46  C   UNL A   1      39.824  27.869  27.787  1.00  0.00     0.031 C 
ATOM     47  C   UNL A   1      37.772  32.268  32.669  1.00  0.00     0.029 A 
ATOM     48  C   UNL A   1      38.956  31.470  32.992  1.00  0.00     0.049 A 
ATOM     49  H   UNL A   1      39.909  30.094  31.751  1.00  0.00     0.167 HD
ATOM     50  C   UNL A   1      41.812  27.189  29.103  1.00  0.00     0.034 A 
ATOM     51  C   UNL A   1      39.637  31.501  34.158  1.00  0.00     0.034 A 
ATOM     52  C   UNL A   1      42.639  27.209  30.284  1.00  0.00     0.049 A 
ATOM     53  C   UNL A   1      40.839  30.600  34.343  1.00  0.00     0.074 A 
ATOM     54  C   UNL A   1      43.813  26.514  30.524  1.00  0.00     0.029 A 
ATOM     55  N   UNL A   1      42.377  27.946  31.431  1.00  0.00    -0.354 N 
ATOM     56  N   UNL A   1      41.384  29.759  33.493  1.00  0.00    -0.248 NA
ATOM     57  C   UNL A   1      41.521  30.655  35.645  1.00  0.00     0.031 C 
ATOM     58  C   UNL A   1      44.213  26.767  31.840  1.00  0.00     0.029 A 
ATOM     59  C   UNL A   1      43.343  27.690  32.394  1.00  0.00     0.049 A 
ATOM     60  H   UNL A   1      41.616  28.561  31.545  1.00  0.00     0.167 HD
ATOM     61  C   UNL A   1      42.493  29.218  34.147  1.00  0.00     0.074 A 
ATOM     62  C   UNL A   1      42.544  29.834  35.456  1.00  0.00     0.031 C 
ATOM     63  C   UNL A   1      43.390  28.302  33.702  1.00  0.00     0.034 A 
BRANCH  50  64
ATOM     64  C   UNL A   1      42.192  26.271  27.968  1.00  0.00     0.023 A 
ATOM     65  C   UNL A   1      41.641  24.984  27.839  1.00  0.00     0.031 A 
ATOM     66  C   UNL A   1      43.143  26.679  27.016  1.00  0.00     0.131 A 
ATOM     67  C   UNL A   1      42.098  24.126  26.827  1.00  0.00     0.055 A 
ATOM     68  C   UNL A   1      43.532  25.852  25.961  1.00  0.00     0.041 A 
ATOM     69  F   UNL A   1      43.722  27.887  27.102  1.00  0.00    -0.206 F 
ATOM     70  C   UNL A   1      43.019  24.561  25.871  1.00  0.00     0.022 A 
BRANCH  67  71
ATOM     71  S   UNL A   1      41.585  22.387  26.867  1.00  0.00     0.124 S 
ATOM     72  O   UNL A   1      42.415  21.860  27.947  1.00  0.00    -0.237 OA
ATOM     73  O   UNL A   1      40.157  22.487  27.148  1.00  0.00    -0.237 OA
ATOM     74  O   UNL A   1      41.926  21.898  25.533  1.00  0.00    -0.744 OA
ENDBRANCH  67  71
ENDBRANCH  50  64
BRANCH  51  75
ATOM     75  C   UNL A   1      39.180  32.370  35.287  1.00  0.00     0.023 A 
ATOM     76  C   UNL A   1      39.644  33.689  35.429  1.00  0.00     0.031 A 
ATOM     77  C   UNL A   1      38.346  31.856  36.297  1.00  0.00     0.131 A 
ATOM     78  C   UNL A   1      39.316  34.428  36.579  1.00  0.00     0.055 A 
ATOM     79  C   UNL A   1      37.973  32.616  37.407  1.00  0.00     0.041 A 
ATOM     80  F   UNL A   1      37.885  30.598  36.222  1.00  0.00    -0.206 F 
ATOM     81  C   UNL A   1      38.471  33.906  37.560  1.00  0.00     0.022 A 
BRANCH  78  82
ATOM     82  S   UNL A   1      40.101  36.046  36.829  1.00  0.00     0.124 S 
ATOM     83  O   UNL A   1      41.492  35.667  37.052  1.00  0.00    -0.237 OA
ATOM     84  O   UNL A   1      39.814  36.721  35.568  1.00  0.00    -0.237 OA
ATOM     85  O   UNL A   1      39.405  36.585  37.996  1.00  0.00    -0.744 OA
ENDBRANCH  78  82
ENDBRANCH  51  75
BRANCH  63  86
ATOM     86  C   UNL A   1      44.544  27.950  34.615  1.00  0.00     0.023 A 
ATOM     87  C   UNL A   1      44.574  26.757  35.359  1.00  0.00     0.031 A 
ATOM     88  C   UNL A   1      45.638  28.827  34.736  1.00  0.00     0.131 A 
ATOM     89  C   UNL A   1      45.647  26.500  36.227  1.00  0.00     0.055 A 
ATOM     90  C   UNL A   1      46.732  28.537  35.553  1.00  0.00     0.041 A 
ATOM     91  F   UNL A   1      45.667  29.983  34.052  1.00  0.00    -0.206 F 
ATOM     92  C   UNL A   1      46.734  27.373  36.315  1.00  0.00     0.022 A 
BRANCH  89  93
ATOM     93  S   UNL A   1      45.566  25.048  37.314  1.00  0.00     0.124 S 
ATOM     94  O   UNL A   1      44.900  25.588  38.495  1.00  0.00    -0.237 OA
ATOM     95  O   UNL A   1      44.786  24.105  36.518  1.00  0.00    -0.237 OA
ATOM     96  O   UNL A   1      46.968  24.682  37.506  1.00  0.00    -0.744 OA
ENDBRANCH  89  93
ENDBRANCH  63  86
ENDBRANCH  37  38
ENDBRANCH  30  32
ENDBRANCH  29  30
ENDBRANCH  28  29
ENDBRANCH  27  28
ENDBRANCH  26  27
ENDBRANCH   1  26
TORSDOF 21
ENDMDL
MODEL 2
REMARK VINA RESULT:     -11.0      0.758      2.349
REMARK SMILES CN1C(=O)[C@@H]2CC=CC[C@]2(C(=O)OCCOCCOCCOC(=O)c2ccc(-c3c4nc(c(-c5cc(S(=O)(=O)[O-])ccc5F)c5ccc([nH]5)c(-c5cc(S(=O)(=O)[O-])ccc5F)c5nc(c(-c6cc(S(=O)(=O)[O-])ccc6F)c6ccc3[nH]6)C=C5)C=C4)cc2)[C@H]1c1ccccc1
REMARK SMILES IDX 18 1 17 2 16 3 15 4 14 5 13 6 11 7 12 8 10 9 1 10 2 11 3 12
REMARK SMILES IDX 88 13 4 14 5 15 6 16 9 17 7 18 8 19 89 20 90 21 94 22 91 23
REMARK SMILES IDX 93 24 92 25 19 26 20 27 21 28 22 29 23 30 24 31 25 32 26 33
REMARK SMILES IDX 87 34 27 35 86 36 28 37 29 38 30 39 80 40 31 41 85 42 79 43
REMARK SMILES IDX 81 44 32 45 84 46 78 47 77 48 33 50 65 51 45 52 64 53 46 54
REMARK SMILES IDX 49 55 63 56 82 57 47 58 48 59 62 61 83 62 50 63 34 64 35 65
REMARK SMILES IDX 43 66 36 67 42 68 44 69 41 70 37 71 38 72 39 73 40 74 66 75
REMARK SMILES IDX 67 76 75 77 68 78 74 79 76 80 73 81 69 82 70 83 71 84 72 85
REMARK SMILES IDX 51 86 52 87 60 88 53 89 59 90 61 91 58 92 54 93 55 94 56 95
REMARK SMILES IDX 57 96
REMARK H PARENT 81 49 49 60
REMARK Flexibility Score: inf
ROOT
ATOM      1  C   UNL A   1      30.448  28.414  22.646  1.00  0.00     0.188 C 
ENDROOT
BRANCH   1   2
ATOM      2  C   UNL A   1      29.108  27.841  23.175  1.00  0.00     0.188 C 
BRANCH   2   3
ATOM      3  O   UNL A   1      29.114  26.445  23.501  1.00  0.00    -0.376 OA
BRANCH   3   4
ATOM      4  C   UNL A   1      30.397  25.827  23.545  1.00  0.00     0.202 C 
BRANCH   4   5
ATOM      5  C   UNL A   1      30.286  24.338  23.172  1.00  0.00     0.261 C 
BRANCH   5   6
ATOM      6  O   UNL A   1      31.567  23.721  23.377  1.00  0.00    -0.463 OA
BRANCH   6   7
ATOM      7  C   UNL A   1      32.041  23.309  24.612  1.00  0.00     0.315 C 
ATOM      8  O   UNL A   1      31.598  23.647  25.695  1.00  0.00    -0.251 OA
BRANCH   7   9
ATOM      9  C   UNL A   1      33.120  22.226  24.314  1.00  0.00     0.108 C 
ATOM     10  C   UNL A   1      36.681  22.988  23.107  1.00  0.00     0.147 C 
ATOM     11  N   UNL A   1      35.464  22.466  23.703  1.00  0.00    -0.337 N 
ATOM     12  C   UNL A   1      35.477  21.718  24.853  1.00  0.00     0.227 C 
ATOM     13  C   UNL A   1      34.192  23.102  23.521  1.00  0.00     0.133 C 
ATOM     14  O   UNL A   1      36.491  21.333  25.417  1.00  0.00    -0.275 OA
ATOM     15  C   UNL A   1      34.042  21.468  25.333  1.00  0.00     0.102 C 
ATOM     16  C   UNL A   1      33.984  19.907  25.423  1.00  0.00     0.041 C 
ATOM     17  C   UNL A   1      32.081  21.201  23.780  1.00  0.00     0.049 C 
ATOM     18  C   UNL A   1      33.266  19.169  24.341  1.00  0.00    -0.030 C 
ATOM     19  C   UNL A   1      32.407  19.789  23.541  1.00  0.00    -0.030 C 
BRANCH  13  20
ATOM     20  C   UNL A   1      34.314  24.560  24.089  1.00  0.00    -0.024 A 
ATOM     21  C   UNL A   1      34.448  24.786  25.476  1.00  0.00     0.006 A 
ATOM     22  C   UNL A   1      34.048  25.664  23.262  1.00  0.00     0.006 A 
ATOM     23  C   UNL A   1      34.124  26.021  26.035  1.00  0.00     0.000 A 
ATOM     24  C   UNL A   1      33.751  26.909  23.828  1.00  0.00     0.000 A 
ATOM     25  C   UNL A   1      33.744  27.074  25.214  1.00  0.00     0.000 A 
ENDBRANCH  13  20
ENDBRANCH   7   9
ENDBRANCH   6   7
ENDBRANCH   5   6
ENDBRANCH   4   5
ENDBRANCH   3   4
ENDBRANCH   2   3
ENDBRANCH   1   2
BRANCH   1  26
ATOM     26  O   UNL A   1      31.128  29.390  23.426  1.00  0.00    -0.376 OA
BRANCH  26  27
ATOM     27  C   UNL A   1      30.975  29.321  24.832  1.00  0.00     0.202 C 
BRANCH  27  28
ATOM     28  C   UNL A   1      31.443  30.514  25.684  1.00  0.00     0.261 C 
BRANCH  28  29
ATOM     29  O   UNL A   1      32.792  30.409  26.185  1.00  0.00    -0.460 OA
BRANCH  29  30
ATOM     30  C   UNL A   1      33.197  31.452  26.972  1.00  0.00     0.338 C 
ATOM     31  O   UNL A   1      32.523  32.397  27.308  1.00  0.00    -0.246 OA
BRANCH  30  32
ATOM     32  C   UNL A   1      34.543  31.175  27.544  1.00  0.00     0.060 A 
ATOM     33  C   UNL A   1      34.878  29.839  27.809  1.00  0.00     0.016 A 
ATOM     34  C   UNL A   1      35.448  32.190  27.862  1.00  0.00     0.016 A 
ATOM     35  C   UNL A   1      36.096  29.519  28.418  1.00  0.00     0.010 A 
ATOM     36  C   UNL A   1      36.667  31.867  28.481  1.00  0.00     0.010 A 
ATOM     37  C   UNL A   1      36.991  30.532  28.784  1.00  0.00    -0.014 A 
BRANCH  37  38
ATOM     38  C   UNL A   1      38.155  30.209  29.657  1.00  0.00     0.031 A 
ATOM     39  C   UNL A   1      39.176  29.227  29.147  1.00  0.00     0.074 A 
ATOM     40  C   UNL A   1      38.333  30.784  30.863  1.00  0.00     0.049 A 
ATOM     41  N   UNL A   1      40.246  28.753  29.733  1.00  0.00    -0.248 NA
ATOM     42  C   UNL A   1      38.955  28.712  27.788  1.00  0.00     0.031 C 
ATOM     43  C   UNL A   1      37.459  31.792  31.458  1.00  0.00     0.029 A 
ATOM     44  N   UNL A   1      39.316  30.593  31.807  1.00  0.00    -0.354 N 
ATOM     45  C   UNL A   1      40.828  27.886  28.814  1.00  0.00     0.074 A 
ATOM     46  C   UNL A   1      39.969  27.873  27.648  1.00  0.00     0.031 C 
ATOM     47  C   UNL A   1      37.940  32.123  32.671  1.00  0.00     0.029 A 
ATOM     48  C   UNL A   1      39.132  31.325  32.959  1.00  0.00     0.049 A 
ATOM     49  H   UNL A   1      40.081  29.989  31.672  1.00  0.00     0.167 HD
ATOM     50  C   UNL A   1      41.974  27.170  28.925  1.00  0.00     0.034 A 
ATOM     51  C   UNL A   1      39.825  31.328  34.119  1.00  0.00     0.034 A 
ATOM     52  C   UNL A   1      42.814  27.163  30.098  1.00  0.00     0.049 A 
ATOM     53  C   UNL A   1      41.035  30.429  34.266  1.00  0.00     0.074 A 
ATOM     54  C   UNL A   1      43.994  26.470  30.306  1.00  0.00     0.029 A 
ATOM     55  N   UNL A   1      42.558  27.866  31.267  1.00  0.00    -0.354 N 
ATOM     56  N   UNL A   1      41.576  29.616  33.389  1.00  0.00    -0.248 NA
ATOM     57  C   UNL A   1      41.730  30.453  35.563  1.00  0.00     0.031 C 
ATOM     58  C   UNL A   1      44.406  26.688  31.625  1.00  0.00     0.029 A 
ATOM     59  C   UNL A   1      43.536  27.591  32.213  1.00  0.00     0.049 A 
ATOM     60  H   UNL A   1      41.795  28.473  31.406  1.00  0.00     0.167 HD
ATOM     61  C   UNL A   1      42.695  29.064  34.016  1.00  0.00     0.074 A 
ATOM     62  C   UNL A   1      42.756  29.644  35.340  1.00  0.00     0.031 C 
ATOM     63  C   UNL A   1      43.593  28.166  33.537  1.00  0.00     0.034 A 
BRANCH  50  64
ATOM     64  C   UNL A   1      42.348  26.286  27.761  1.00  0.00     0.023 A 
ATOM     65  C   UNL A   1      41.830  24.987  27.621  1.00  0.00     0.031 A 
ATOM     66  C   UNL A   1      43.261  26.740  26.792  1.00  0.00     0.131 A 
ATOM     67  C   UNL A   1      42.283  24.163  26.578  1.00  0.00     0.055 A 
ATOM     68  C   UNL A   1      43.643  25.946  25.711  1.00  0.00     0.041 A 
ATOM     69  F   UNL A   1      43.809  27.962  26.888  1.00  0.00    -0.206 F 
ATOM     70  C   UNL A   1      43.164  24.643  25.607  1.00  0.00     0.022 A 
BRANCH  67  71
ATOM     71  S   UNL A   1      41.819  22.410  26.597  1.00  0.00     0.124 S 
ATOM     72  O   UNL A   1      42.407  21.963  27.857  1.00  0.00    -0.237 OA
ATOM     73  O   UNL A   1      40.362  22.469  26.555  1.00  0.00    -0.237 OA
ATOM     74  O   UNL A   1      42.457  21.875  25.396  1.00  0.00    -0.744 OA
ENDBRANCH  67  71
ENDBRANCH  50  64
BRANCH  51  75
ATOM     75  C   UNL A   1      39.375  32.162  35.276  1.00  0.00     0.023 A 
ATOM     76  C   UNL A   1      39.830  33.481  35.449  1.00  0.00     0.031 A 
ATOM     77  C   UNL A   1      38.556  31.615  36.281  1.00  0.00     0.131 A 
ATOM     78  C   UNL A   1      39.509  34.185  36.621  1.00  0.00     0.055 A 
ATOM     79  C   UNL A   1      38.190  32.341  37.415  1.00  0.00     0.041 A 
ATOM     80  F   UNL A   1      38.104  30.355  36.178  1.00  0.00    -0.206 F 
ATOM     81  C   UNL A   1      38.680  33.630  37.597  1.00  0.00     0.022 A 
BRANCH  78  82
ATOM     82  S   UNL A   1      40.285  35.802  36.907  1.00  0.00     0.124 S 
ATOM     83  O   UNL A   1      39.288  36.465  37.739  1.00  0.00    -0.237 OA
ATOM     84  O   UNL A   1      41.530  35.429  37.569  1.00  0.00    -0.237 OA
ATOM     85  O   UNL A   1      40.438  36.348  35.559  1.00  0.00    -0.744 OA
ENDBRANCH  78  82
ENDBRANCH  51  75
BRANCH  63  86
ATOM     86  C   UNL A   1      44.758  27.797  34.428  1.00  0.00     0.023 A 
ATOM     87  C   UNL A   1      44.728  26.674  35.275  1.00  0.00     0.031 A 
ATOM     88  C   UNL A   1      45.925  28.585  34.423  1.00  0.00     0.131 A 
ATOM     89  C   UNL A   1      45.819  26.402  36.116  1.00  0.00     0.055 A 
ATOM     90  C   UNL A   1      47.031  28.273  35.215  1.00  0.00     0.041 A 
ATOM     91  F   UNL A   1      46.014  29.670  33.637  1.00  0.00    -0.206 F 
ATOM     92  C   UNL A   1      46.977  27.183  36.079  1.00  0.00     0.022 A 
BRANCH  89  93
ATOM     93  S   UNL A   1      45.674  25.062  37.332  1.00  0.00     0.124 S 
ATOM     94  O   UNL A   1      47.055  24.899  37.772  1.00  0.00    -0.237 OA
ATOM     95  O   UNL A   1      44.754  25.630  38.314  1.00  0.00    -0.237 OA
ATOM     96  O   UNL A   1      45.134  23.947  36.554  1.00  0.00    -0.744 OA
ENDBRANCH  89  93
ENDBRANCH  63  86
ENDBRANCH  37  38
ENDBRANCH  30  32
ENDBRANCH  29  30
ENDBRANCH  28  29
ENDBRANCH  27  28
ENDBRANCH  26  27
ENDBRANCH   1  26
TORSDOF 21
ENDMDL
MODEL 3
REMARK VINA RESULT:     -10.5      1.686      7.746
REMARK SMILES CN1C(=O)[C@@H]2CC=CC[C@]2(C(=O)OCCOCCOCCOC(=O)c2ccc(-c3c4nc(c(-c5cc(S(=O)(=O)[O-])ccc5F)c5ccc([nH]5)c(-c5cc(S(=O)(=O)[O-])ccc5F)c5nc(c(-c6cc(S(=O)(=O)[O-])ccc6F)c6ccc3[nH]6)C=C5)C=C4)cc2)[C@H]1c1ccccc1
REMARK SMILES IDX 18 1 17 2 16 3 15 4 14 5 13 6 11 7 12 8 10 9 1 10 2 11 3 12
REMARK SMILES IDX 88 13 4 14 5 15 6 16 9 17 7 18 8 19 89 20 90 21 94 22 91 23
REMARK SMILES IDX 93 24 92 25 19 26 20 27 21 28 22 29 23 30 24 31 25 32 26 33
REMARK SMILES IDX 87 34 27 35 86 36 28 37 29 38 30 39 80 40 31 41 85 42 79 43
REMARK SMILES IDX 81 44 32 45 84 46 78 47 77 48 33 50 65 51 45 52 64 53 46 54
REMARK SMILES IDX 49 55 63 56 82 57 47 58 48 59 62 61 83 62 50 63 34 64 35 65
REMARK SMILES IDX 43 66 36 67 42 68 44 69 41 70 37 71 38 72 39 73 40 74 66 75
REMARK SMILES IDX 67 76 75 77 68 78 74 79 76 80 73 81 69 82 70 83 71 84 72 85
REMARK SMILES IDX 51 86 52 87 60 88 53 89 59 90 61 91 58 92 54 93 55 94 56 95
REMARK SMILES IDX 57 96
REMARK H PARENT 81 49 49 60
REMARK Flexibility Score: inf
ROOT
ATOM      1  C   UNL A   1      30.903  28.671  23.213  1.00  0.00     0.188 C 
ENDROOT
BRANCH   1   2
ATOM      2  C   UNL A   1      29.492  28.089  23.484  1.00  0.00     0.188 C 
BRANCH   2   3
ATOM      3  O   UNL A   1      29.417  26.660  23.581  1.00  0.00    -0.376 OA
BRANCH   3   4
ATOM      4  C   UNL A   1      30.611  25.956  23.252  1.00  0.00     0.202 C 
BRANCH   4   5
ATOM      5  C   UNL A   1      30.330  24.446  23.153  1.00  0.00     0.261 C 
BRANCH   5   6
ATOM      6  O   UNL A   1      31.566  23.740  23.343  1.00  0.00    -0.463 OA
BRANCH   6   7
ATOM      7  C   UNL A   1      32.036  23.315  24.575  1.00  0.00     0.315 C 
ATOM      8  O   UNL A   1      31.605  23.661  25.661  1.00  0.00    -0.251 OA
BRANCH   7   9
ATOM      9  C   UNL A   1      33.090  22.210  24.271  1.00  0.00     0.108 C 
ATOM     10  C   UNL A   1      36.713  22.900  23.213  1.00  0.00     0.147 C 
ATOM     11  N   UNL A   1      35.460  22.396  23.747  1.00  0.00    -0.337 N 
ATOM     12  C   UNL A   1      35.410  21.604  24.868  1.00  0.00     0.227 C 
ATOM     13  C   UNL A   1      34.215  23.079  23.549  1.00  0.00     0.133 C 
ATOM     14  O   UNL A   1      36.392  21.165  25.449  1.00  0.00    -0.275 OA
ATOM     15  C   UNL A   1      33.952  21.384  25.290  1.00  0.00     0.102 C 
ATOM     16  C   UNL A   1      33.842  19.823  25.316  1.00  0.00     0.041 C 
ATOM     17  C   UNL A   1      32.038  21.241  23.664  1.00  0.00     0.049 C 
ATOM     18  C   UNL A   1      33.139  19.150  24.183  1.00  0.00    -0.030 C 
ATOM     19  C   UNL A   1      32.328  19.828  23.380  1.00  0.00    -0.030 C 
BRANCH  13  20
ATOM     20  C   UNL A   1      34.364  24.510  24.178  1.00  0.00    -0.024 A 
ATOM     21  C   UNL A   1      34.473  24.677  25.575  1.00  0.00     0.006 A 
ATOM     22  C   UNL A   1      34.147  25.652  23.390  1.00  0.00     0.006 A 
ATOM     23  C   UNL A   1      34.169  25.897  26.176  1.00  0.00     0.000 A 
ATOM     24  C   UNL A   1      33.871  26.882  23.999  1.00  0.00     0.000 A 
ATOM     25  C   UNL A   1      33.836  26.992  25.390  1.00  0.00     0.000 A 
ENDBRANCH  13  20
ENDBRANCH   7   9
ENDBRANCH   6   7
ENDBRANCH   5   6
ENDBRANCH   4   5
ENDBRANCH   3   4
ENDBRANCH   2   3
ENDBRANCH   1   2
BRANCH   1  26
ATOM     26  O   UNL A   1      31.424  29.644  24.110  1.00  0.00    -0.376 OA
BRANCH  26  27
ATOM     27  C   UNL A   1      31.358  29.354  25.495  1.00  0.00     0.202 C 
BRANCH  27  28
ATOM     28  C   UNL A   1      31.925  30.380  26.491  1.00  0.00     0.261 C 
BRANCH  28  29
ATOM     29  O   UNL A   1      33.360  30.520  26.466  1.00  0.00    -0.460 OA
BRANCH  29  30
ATOM     30  C   UNL A   1      33.860  31.480  27.302  1.00  0.00     0.338 C 
ATOM     31  O   UNL A   1      33.271  32.457  27.701  1.00  0.00    -0.246 OA
BRANCH  30  32
ATOM     32  C   UNL A   1      35.186  31.062  27.834  1.00  0.00     0.060 A 
ATOM     33  C   UNL A   1      35.400  29.695  28.054  1.00  0.00     0.016 A 
ATOM     34  C   UNL A   1      36.188  31.980  28.159  1.00  0.00     0.016 A 
ATOM     35  C   UNL A   1      36.595  29.244  28.625  1.00  0.00     0.010 A 
ATOM     36  C   UNL A   1      37.384  31.526  28.740  1.00  0.00     0.010 A 
ATOM     37  C   UNL A   1      37.588  30.158  28.998  1.00  0.00    -0.014 A 
BRANCH  37  38
ATOM     38  C   UNL A   1      38.734  29.703  29.835  1.00  0.00     0.031 A 
ATOM     39  C   UNL A   1      38.889  30.295  31.211  1.00  0.00     0.074 A 
ATOM     40  C   UNL A   1      39.608  28.768  29.413  1.00  0.00     0.049 A 
ATOM     41  N   UNL A   1      39.822  30.095  32.107  1.00  0.00    -0.248 NA
ATOM     42  C   UNL A   1      37.845  31.242  31.629  1.00  0.00     0.031 C 
ATOM     43  C   UNL A   1      39.548  28.069  28.132  1.00  0.00     0.029 A 
ATOM     44  N   UNL A   1      40.727  28.250  30.025  1.00  0.00    -0.354 N 
ATOM     45  C   UNL A   1      39.477  30.889  33.195  1.00  0.00     0.074 A 
ATOM     46  C   UNL A   1      38.270  31.600  32.829  1.00  0.00     0.031 C 
ATOM     47  C   UNL A   1      40.590  27.220  28.050  1.00  0.00     0.029 A 
ATOM     48  C   UNL A   1      41.416  27.342  29.252  1.00  0.00     0.049 A 
ATOM     49  H   UNL A   1      41.009  28.505  30.933  1.00  0.00     0.167 HD
ATOM     50  C   UNL A   1      40.102  31.011  34.393  1.00  0.00     0.034 A 
ATOM     51  C   UNL A   1      42.587  26.708  29.475  1.00  0.00     0.034 A 
ATOM     52  C   UNL A   1      41.319  30.322  34.745  1.00  0.00     0.049 A 
ATOM     53  C   UNL A   1      43.332  26.951  30.771  1.00  0.00     0.074 A 
ATOM     54  C   UNL A   1      42.029  30.382  35.933  1.00  0.00     0.029 A 
ATOM     55  N   UNL A   1      42.021  29.462  33.911  1.00  0.00    -0.354 N 
ATOM     56  N   UNL A   1      42.994  27.703  31.794  1.00  0.00    -0.248 NA
ATOM     57  C   UNL A   1      44.618  26.257  30.943  1.00  0.00     0.031 C 
ATOM     58  C   UNL A   1      43.197  29.627  35.787  1.00  0.00     0.029 A 
ATOM     59  C   UNL A   1      43.173  29.019  34.543  1.00  0.00     0.049 A 
ATOM     60  H   UNL A   1      41.741  29.204  33.002  1.00  0.00     0.167 HD
ATOM     61  C   UNL A   1      44.005  27.537  32.742  1.00  0.00     0.074 A 
ATOM     62  C   UNL A   1      44.959  26.610  32.174  1.00  0.00     0.031 C 
ATOM     63  C   UNL A   1      44.128  28.097  33.973  1.00  0.00     0.034 A 
BRANCH  50  64
ATOM     64  C   UNL A   1      39.503  31.977  35.385  1.00  0.00     0.023 A 
ATOM     65  C   UNL A   1      39.961  33.302  35.498  1.00  0.00     0.031 A 
ATOM     66  C   UNL A   1      38.479  31.558  36.252  1.00  0.00     0.131 A 
ATOM     67  C   UNL A   1      39.446  34.136  36.502  1.00  0.00     0.055 A 
ATOM     68  C   UNL A   1      37.912  32.418  37.193  1.00  0.00     0.041 A 
ATOM     69  F   UNL A   1      38.020  30.297  36.208  1.00  0.00    -0.206 F 
ATOM     70  C   UNL A   1      38.406  33.712  37.332  1.00  0.00     0.022 A 
BRANCH  67  71
ATOM     71  S   UNL A   1      40.258  35.729  36.806  1.00  0.00     0.124 S 
ATOM     72  O   UNL A   1      39.602  36.587  35.822  1.00  0.00    -0.237 OA
ATOM     73  O   UNL A   1      39.928  35.989  38.203  1.00  0.00    -0.237 OA
ATOM     74  O   UNL A   1      41.667  35.451  36.538  1.00  0.00    -0.744 OA
ENDBRANCH  67  71
ENDBRANCH  50  64
BRANCH  51  75
ATOM     75  C   UNL A   1      43.184  25.817  28.433  1.00  0.00     0.023 A 
ATOM     76  C   UNL A   1      44.255  26.245  27.629  1.00  0.00     0.031 A 
ATOM     77  C   UNL A   1      42.625  24.555  28.160  1.00  0.00     0.131 A 
ATOM     78  C   UNL A   1      44.695  25.445  26.561  1.00  0.00     0.055 A 
ATOM     79  C   UNL A   1      43.107  23.737  27.136  1.00  0.00     0.041 A 
ATOM     80  F   UNL A   1      41.591  24.099  28.884  1.00  0.00    -0.206 F 
ATOM     81  C   UNL A   1      44.139  24.188  26.320  1.00  0.00     0.022 A 
BRANCH  78  82
ATOM     82  S   UNL A   1      45.933  26.121  25.418  1.00  0.00     0.124 S 
ATOM     83  O   UNL A   1      47.044  26.402  26.320  1.00  0.00    -0.237 OA
ATOM     84  O   UNL A   1      46.125  25.013  24.488  1.00  0.00    -0.237 OA
ATOM     85  O   UNL A   1      45.271  27.297  24.856  1.00  0.00    -0.744 OA
ENDBRANCH  78  82
ENDBRANCH  51  75
BRANCH  63  86
ATOM     86  C   UNL A   1      45.309  27.675  34.819  1.00  0.00     0.023 A 
ATOM     87  C   UNL A   1      45.287  26.512  35.610  1.00  0.00     0.031 A 
ATOM     88  C   UNL A   1      46.482  28.455  34.829  1.00  0.00     0.131 A 
ATOM     89  C   UNL A   1      46.394  26.191  36.413  1.00  0.00     0.055 A 
ATOM     90  C   UNL A   1      47.601  28.097  35.581  1.00  0.00     0.041 A 
ATOM     91  F   UNL A   1      46.563  29.577  34.096  1.00  0.00    -0.206 F 
ATOM     92  C   UNL A   1      47.556  26.965  36.390  1.00  0.00     0.022 A 
BRANCH  89  93
ATOM     93  S   UNL A   1      46.263  24.793  37.564  1.00  0.00     0.124 S 
ATOM     94  O   UNL A   1      44.852  24.441  37.457  1.00  0.00    -0.237 OA
ATOM     95  O   UNL A   1      47.205  23.833  36.995  1.00  0.00    -0.237 OA
ATOM     96  O   UNL A   1      46.665  25.365  38.848  1.00  0.00    -0.744 OA
ENDBRANCH  89  93
ENDBRANCH  63  86
ENDBRANCH  37  38
ENDBRANCH  30  32
ENDBRANCH  29  30
ENDBRANCH  28  29
ENDBRANCH  27  28
ENDBRANCH  26  27
ENDBRANCH   1  26
TORSDOF 21
ENDMDL
