MODEL 1
REMARK VINA RESULT:     -11.1      0.000      0.000
REMARK SMILES O=C(OCCOCCOCCOC(=O)c1cccc2c(C(F)(F)F)cc(Br)nc12)c1ccc(-c2c3nc(c(-c4cc(S(=O)(=O)[O-])ccc4F)c4ccc([nH]4)c(-c4cc(S(=O)(=O)[O-])ccc4F)c4nc(c(-c5cc(S(=O)(=O)[O-])ccc5F)c5ccc2[nH]5)C=C4)C=C3)cc1
REMARK SMILES IDX 7 1 6 2 5 3 4 4 3 5 2 6 1 7 30 8 31 9 92 10 32 11 91 12
REMARK SMILES IDX 33 13 34 14 35 15 85 16 36 17 90 18 84 19 86 20 37 21 89 22
REMARK SMILES IDX 83 23 82 24 38 26 70 27 50 28 69 29 51 30 54 31 68 32 87 33
REMARK SMILES IDX 52 34 53 35 67 37 88 38 55 39 39 40 40 41 48 42 41 43 47 44
REMARK SMILES IDX 49 45 46 46 42 47 43 48 44 49 45 50 71 51 72 52 80 53 73 54
REMARK SMILES IDX 79 55 81 56 78 57 74 58 75 59 76 60 77 61 56 62 57 63 65 64
REMARK SMILES IDX 58 65 64 66 66 67 63 68 59 69 60 70 61 71 62 72 8 73 9 74
REMARK SMILES IDX 10 75 11 76 12 77 13 78 14 79 15 80 16 81 29 82 17 83 19 84
REMARK SMILES IDX 28 85 18 86 20 87 26 88 25 89 27 90 21 91 22 92 23 93 24 94
REMARK H PARENT 86 25 54 36
REMARK Flexibility Score: inf
ROOT
ATOM      1  C   UNL A   1      33.475  28.803  24.947  1.00  0.00     0.188 C 
ENDROOT
BRANCH   1   2
ATOM      2  O   UNL A   1      33.153  30.029  25.598  1.00  0.00    -0.376 OA
BRANCH   2   3
ATOM      3  C   UNL A   1      31.813  30.460  25.396  1.00  0.00     0.202 C 
BRANCH   3   4
ATOM      4  C   UNL A   1      31.299  31.283  26.574  1.00  0.00     0.261 C 
BRANCH   4   5
ATOM      5  O   UNL A   1      31.948  32.563  26.683  1.00  0.00    -0.460 OA
BRANCH   5   6
ATOM      6  C   UNL A   1      32.861  33.040  27.560  1.00  0.00     0.338 C 
ATOM      7  O   UNL A   1      32.666  34.174  28.003  1.00  0.00    -0.246 OA
BRANCH   6   8
ATOM      8  C   UNL A   1      34.123  32.345  27.996  1.00  0.00     0.060 A 
ATOM      9  C   UNL A   1      35.275  33.158  28.086  1.00  0.00     0.016 A 
ATOM     10  C   UNL A   1      34.259  31.006  28.369  1.00  0.00     0.016 A 
ATOM     11  C   UNL A   1      36.494  32.662  28.568  1.00  0.00     0.010 A 
ATOM     12  C   UNL A   1      35.475  30.504  28.856  1.00  0.00     0.010 A 
ATOM     13  C   UNL A   1      36.591  31.333  28.987  1.00  0.00    -0.014 A 
BRANCH  13  14
ATOM     14  C   UNL A   1      37.762  30.860  29.760  1.00  0.00     0.031 A 
ATOM     15  C   UNL A   1      38.077  31.378  31.128  1.00  0.00     0.074 A 
ATOM     16  C   UNL A   1      38.603  30.002  29.149  1.00  0.00     0.049 A 
ATOM     17  N   UNL A   1      39.016  30.989  31.948  1.00  0.00    -0.248 NA
ATOM     18  C   UNL A   1      37.247  32.478  31.638  1.00  0.00     0.031 C 
ATOM     19  C   UNL A   1      38.434  29.502  27.783  1.00  0.00     0.029 A 
ATOM     20  N   UNL A   1      39.768  29.417  29.576  1.00  0.00    -0.354 N 
ATOM     21  C   UNL A   1      38.871  31.763  33.091  1.00  0.00     0.074 A 
ATOM     22  C   UNL A   1      37.795  32.695  32.830  1.00  0.00     0.031 C 
ATOM     23  C   UNL A   1      39.457  28.691  27.483  1.00  0.00     0.029 A 
ATOM     24  C   UNL A   1      40.357  28.613  28.630  1.00  0.00     0.049 A 
ATOM     25  H   UNL A   1      40.146  29.561  30.473  1.00  0.00     0.167 HD
ATOM     26  C   UNL A   1      39.561  31.681  34.253  1.00  0.00     0.034 A 
ATOM     27  C   UNL A   1      41.486  27.877  28.682  1.00  0.00     0.034 A 
ATOM     28  C   UNL A   1      40.667  30.782  34.468  1.00  0.00     0.049 A 
ATOM     29  C   UNL A   1      42.244  27.811  29.981  1.00  0.00     0.074 A 
ATOM     30  C   UNL A   1      41.399  30.589  35.627  1.00  0.00     0.029 A 
ATOM     31  N   UNL A   1      41.213  29.944  33.507  1.00  0.00    -0.354 N 
ATOM     32  N   UNL A   1      41.987  28.421  31.115  1.00  0.00    -0.248 NA
ATOM     33  C   UNL A   1      43.420  26.933  30.027  1.00  0.00     0.031 C 
ATOM     34  C   UNL A   1      42.420  29.679  35.351  1.00  0.00     0.029 A 
ATOM     35  C   UNL A   1      42.289  29.253  34.038  1.00  0.00     0.049 A 
ATOM     36  H   UNL A   1      40.884  29.853  32.583  1.00  0.00     0.167 HD
ATOM     37  C   UNL A   1      42.938  27.964  32.021  1.00  0.00     0.074 A 
ATOM     38  C   UNL A   1      43.773  27.022  31.304  1.00  0.00     0.031 C 
ATOM     39  C   UNL A   1      43.098  28.293  33.328  1.00  0.00     0.034 A 
BRANCH  26  40
ATOM     40  C   UNL A   1      39.129  32.530  35.419  1.00  0.00     0.023 A 
ATOM     41  C   UNL A   1      39.657  33.818  35.609  1.00  0.00     0.031 A 
ATOM     42  C   UNL A   1      38.324  31.981  36.433  1.00  0.00     0.131 A 
ATOM     43  C   UNL A   1      39.392  34.506  36.802  1.00  0.00     0.055 A 
ATOM     44  C   UNL A   1      38.039  32.683  37.605  1.00  0.00     0.041 A 
ATOM     45  F   UNL A   1      37.806  30.750  36.300  1.00  0.00    -0.206 F 
ATOM     46  C   UNL A   1      38.582  33.948  37.797  1.00  0.00     0.022 A 
BRANCH  43  47
ATOM     47  S   UNL A   1      40.138  36.124  37.141  1.00  0.00     0.124 S 
ATOM     48  O   UNL A   1      39.920  36.823  35.876  1.00  0.00    -0.237 OA
ATOM     49  O   UNL A   1      39.335  36.601  38.263  1.00  0.00    -0.237 OA
ATOM     50  O   UNL A   1      41.530  35.812  37.444  1.00  0.00    -0.744 OA
ENDBRANCH  43  47
ENDBRANCH  26  40
BRANCH  27  51
ATOM     51  C   UNL A   1      41.865  27.059  27.495  1.00  0.00     0.023 A 
ATOM     52  C   UNL A   1      41.614  25.674  27.455  1.00  0.00     0.031 A 
ATOM     53  C   UNL A   1      42.608  27.629  26.448  1.00  0.00     0.131 A 
ATOM     54  C   UNL A   1      42.154  24.900  26.418  1.00  0.00     0.055 A 
ATOM     55  C   UNL A   1      43.091  26.863  25.386  1.00  0.00     0.041 A 
ATOM     56  F   UNL A   1      42.891  28.941  26.457  1.00  0.00    -0.206 F 
ATOM     57  C   UNL A   1      42.879  25.489  25.378  1.00  0.00     0.022 A 
BRANCH  54  58
ATOM     58  S   UNL A   1      42.054  23.088  26.461  1.00  0.00     0.124 S 
ATOM     59  O   UNL A   1      43.028  22.707  25.444  1.00  0.00    -0.237 OA
ATOM     60  O   UNL A   1      42.437  22.798  27.842  1.00  0.00    -0.237 OA
ATOM     61  O   UNL A   1      40.658  22.812  26.137  1.00  0.00    -0.744 OA
ENDBRANCH  54  58
ENDBRANCH  27  51
BRANCH  39  62
ATOM     62  C   UNL A   1      44.198  27.621  34.112  1.00  0.00     0.023 A 
ATOM     63  C   UNL A   1      43.938  26.409  34.781  1.00  0.00     0.031 A 
ATOM     64  C   UNL A   1      45.439  28.245  34.323  1.00  0.00     0.131 A 
ATOM     65  C   UNL A   1      44.892  25.877  35.657  1.00  0.00     0.055 A 
ATOM     66  C   UNL A   1      46.404  27.689  35.164  1.00  0.00     0.041 A 
ATOM     67  F   UNL A   1      45.727  29.409  33.719  1.00  0.00    -0.206 F 
ATOM     68  C   UNL A   1      46.125  26.508  35.846  1.00  0.00     0.022 A 
BRANCH  65  69
ATOM     69  S   UNL A   1      44.525  24.409  36.658  1.00  0.00     0.124 S 
ATOM     70  O   UNL A   1      45.860  23.854  36.874  1.00  0.00    -0.237 OA
ATOM     71  O   UNL A   1      43.892  24.989  37.839  1.00  0.00    -0.237 OA
ATOM     72  O   UNL A   1      43.649  23.612  35.807  1.00  0.00    -0.744 OA
ENDBRANCH  65  69
ENDBRANCH  39  62
ENDBRANCH  13  14
ENDBRANCH   6   8
ENDBRANCH   5   6
ENDBRANCH   4   5
ENDBRANCH   3   4
ENDBRANCH   2   3
ENDBRANCH   1   2
BRANCH   1  73
ATOM     73  C   UNL A   1      33.024  27.508  25.642  1.00  0.00     0.188 C 
BRANCH  73  74
ATOM     74  O   UNL A   1      31.726  27.002  25.359  1.00  0.00    -0.376 OA
BRANCH  74  75
ATOM     75  C   UNL A   1      30.954  26.499  26.447  1.00  0.00     0.202 C 
BRANCH  75  76
ATOM     76  C   UNL A   1      30.119  25.241  26.209  1.00  0.00     0.261 C 
BRANCH  76  77
ATOM     77  O   UNL A   1      30.423  24.162  27.110  1.00  0.00    -0.460 OA
BRANCH  77  78
ATOM     78  C   UNL A   1      30.853  23.025  26.507  1.00  0.00     0.340 C 
ATOM     79  O   UNL A   1      30.172  22.089  26.121  1.00  0.00    -0.246 OA
BRANCH  78  80
ATOM     80  C   UNL A   1      32.316  22.958  26.522  1.00  0.00     0.086 A 
ATOM     81  C   UNL A   1      32.889  22.331  27.634  1.00  0.00     0.018 A 
ATOM     82  C   UNL A   1      33.050  23.317  25.386  1.00  0.00     0.087 A 
ATOM     83  C   UNL A   1      34.237  22.027  27.615  1.00  0.00     0.002 A 
ATOM     84  C   UNL A   1      34.425  22.974  25.362  1.00  0.00     0.013 A 
ATOM     85  N   UNL A   1      32.463  23.950  24.345  1.00  0.00    -0.240 NA
ATOM     86  C   UNL A   1      34.997  22.340  26.491  1.00  0.00     0.011 A 
ATOM     87  C   UNL A   1      35.161  23.259  24.185  1.00  0.00     0.068 A 
ATOM     88  C   UNL A   1      33.204  24.269  23.266  1.00  0.00     0.107 A 
ATOM     89  C   UNL A   1      34.534  23.940  23.135  1.00  0.00     0.049 A 
ATOM     90  Br  UNL A   1      32.345  25.198  21.855  1.00  0.00    -0.029 Br
BRANCH  87  91
ATOM     91  C   UNL A   1      36.588  22.797  24.001  1.00  0.00     0.417 C 
ATOM     92  F   UNL A   1      37.468  23.437  24.809  1.00  0.00    -0.166 F 
ATOM     93  F   UNL A   1      36.734  21.464  24.243  1.00  0.00    -0.166 F 
ATOM     94  F   UNL A   1      37.047  22.981  22.729  1.00  0.00    -0.166 F 
ENDBRANCH  87  91
ENDBRANCH  78  80
ENDBRANCH  77  78
ENDBRANCH  76  77
ENDBRANCH  75  76
ENDBRANCH  74  75
ENDBRANCH  73  74
ENDBRANCH   1  73
TORSDOF 21
ENDMDL
MODEL 2
REMARK VINA RESULT:     -10.8      4.915      9.788
REMARK SMILES O=C(OCCOCCOCCOC(=O)c1cccc2c(C(F)(F)F)cc(Br)nc12)c1ccc(-c2c3nc(c(-c4cc(S(=O)(=O)[O-])ccc4F)c4ccc([nH]4)c(-c4cc(S(=O)(=O)[O-])ccc4F)c4nc(c(-c5cc(S(=O)(=O)[O-])ccc5F)c5ccc2[nH]5)C=C4)C=C3)cc1
REMARK SMILES IDX 7 1 6 2 5 3 4 4 3 5 2 6 1 7 30 8 31 9 92 10 32 11 91 12
REMARK SMILES IDX 33 13 34 14 35 15 85 16 36 17 90 18 84 19 86 20 37 21 89 22
REMARK SMILES IDX 83 23 82 24 38 26 70 27 50 28 69 29 51 30 54 31 68 32 87 33
REMARK SMILES IDX 52 34 53 35 67 37 88 38 55 39 39 40 40 41 48 42 41 43 47 44
REMARK SMILES IDX 49 45 46 46 42 47 43 48 44 49 45 50 71 51 72 52 80 53 73 54
REMARK SMILES IDX 79 55 81 56 78 57 74 58 75 59 76 60 77 61 56 62 57 63 65 64
REMARK SMILES IDX 58 65 64 66 66 67 63 68 59 69 60 70 61 71 62 72 8 73 9 74
REMARK SMILES IDX 10 75 11 76 12 77 13 78 14 79 15 80 16 81 29 82 17 83 19 84
REMARK SMILES IDX 28 85 18 86 20 87 26 88 25 89 27 90 21 91 22 92 23 93 24 94
REMARK H PARENT 86 25 54 36
REMARK Flexibility Score: inf
ROOT
ATOM      1  C   UNL A   1      34.051  20.786  24.632  1.00  0.00     0.188 C 
ENDROOT
BRANCH   1   2
ATOM      2  O   UNL A   1      35.011  20.763  25.685  1.00  0.00    -0.376 OA
BRANCH   2   3
ATOM      3  C   UNL A   1      36.361  20.711  25.240  1.00  0.00     0.202 C 
BRANCH   3   4
ATOM      4  C   UNL A   1      37.094  22.024  25.499  1.00  0.00     0.261 C 
BRANCH   4   5
ATOM      5  O   UNL A   1      38.515  21.848  25.644  1.00  0.00    -0.460 OA
BRANCH   5   6
ATOM      6  C   UNL A   1      39.404  22.369  26.521  1.00  0.00     0.338 C 
ATOM      7  O   UNL A   1      40.081  21.567  27.168  1.00  0.00    -0.246 OA
BRANCH   6   8
ATOM      8  C   UNL A   1      39.600  23.829  26.828  1.00  0.00     0.060 A 
ATOM      9  C   UNL A   1      39.270  24.233  28.141  1.00  0.00     0.016 A 
ATOM     10  C   UNL A   1      40.119  24.805  25.974  1.00  0.00     0.016 A 
ATOM     11  C   UNL A   1      39.492  25.542  28.589  1.00  0.00     0.010 A 
ATOM     12  C   UNL A   1      40.347  26.117  26.417  1.00  0.00     0.010 A 
ATOM     13  C   UNL A   1      40.064  26.486  27.733  1.00  0.00    -0.014 A 
BRANCH  13  14
ATOM     14  C   UNL A   1      40.572  27.778  28.251  1.00  0.00     0.031 A 
ATOM     15  C   UNL A   1      42.033  28.045  28.431  1.00  0.00     0.074 A 
ATOM     16  C   UNL A   1      39.661  28.688  28.650  1.00  0.00     0.049 A 
ATOM     17  N   UNL A   1      42.618  29.157  28.791  1.00  0.00    -0.248 NA
ATOM     18  C   UNL A   1      42.957  26.927  28.192  1.00  0.00     0.031 C 
ATOM     19  C   UNL A   1      38.211  28.491  28.599  1.00  0.00     0.029 A 
ATOM     20  N   UNL A   1      39.809  29.939  29.193  1.00  0.00    -0.354 N 
ATOM     21  C   UNL A   1      43.980  28.892  28.783  1.00  0.00     0.074 A 
ATOM     22  C   UNL A   1      44.132  27.492  28.450  1.00  0.00     0.031 C 
ATOM     23  C   UNL A   1      37.604  29.579  29.092  1.00  0.00     0.029 A 
ATOM     24  C   UNL A   1      38.616  30.549  29.498  1.00  0.00     0.049 A 
ATOM     25  H   UNL A   1      40.686  30.358  29.349  1.00  0.00     0.167 HD
ATOM     26  C   UNL A   1      45.002  29.750  29.011  1.00  0.00     0.034 A 
ATOM     27  C   UNL A   1      38.360  31.762  30.028  1.00  0.00     0.034 A 
ATOM     28  C   UNL A   1      44.824  31.127  29.396  1.00  0.00     0.049 A 
ATOM     29  C   UNL A   1      39.514  32.695  30.285  1.00  0.00     0.074 A 
ATOM     30  C   UNL A   1      45.797  32.090  29.603  1.00  0.00     0.029 A 
ATOM     31  N   UNL A   1      43.603  31.732  29.652  1.00  0.00    -0.354 N 
ATOM     32  N   UNL A   1      40.797  32.484  30.103  1.00  0.00    -0.248 NA
ATOM     33  C   UNL A   1      39.192  34.039  30.782  1.00  0.00     0.031 C 
ATOM     34  C   UNL A   1      45.169  33.258  30.037  1.00  0.00     0.029 A 
ATOM     35  C   UNL A   1      43.798  33.047  30.041  1.00  0.00     0.049 A 
ATOM     36  H   UNL A   1      42.725  31.292  29.570  1.00  0.00     0.167 HD
ATOM     37  C   UNL A   1      41.430  33.683  30.416  1.00  0.00     0.074 A 
ATOM     38  C   UNL A   1      40.388  34.615  30.794  1.00  0.00     0.031 C 
ATOM     39  C   UNL A   1      42.754  33.981  30.387  1.00  0.00     0.034 A 
BRANCH  26  40
ATOM     40  C   UNL A   1      46.415  29.273  28.801  1.00  0.00     0.023 A 
ATOM     41  C   UNL A   1      46.909  29.023  27.509  1.00  0.00     0.031 A 
ATOM     42  C   UNL A   1      47.207  28.900  29.902  1.00  0.00     0.131 A 
ATOM     43  C   UNL A   1      48.151  28.394  27.351  1.00  0.00     0.055 A 
ATOM     44  C   UNL A   1      48.456  28.300  29.739  1.00  0.00     0.041 A 
ATOM     45  F   UNL A   1      46.772  29.109  31.154  1.00  0.00    -0.206 F 
ATOM     46  C   UNL A   1      48.929  28.037  28.459  1.00  0.00     0.022 A 
BRANCH  43  47
ATOM     47  S   UNL A   1      48.783  27.953  25.710  1.00  0.00     0.124 S 
ATOM     48  O   UNL A   1      47.651  28.302  24.853  1.00  0.00    -0.237 OA
ATOM     49  O   UNL A   1      49.949  28.822  25.587  1.00  0.00    -0.237 OA
ATOM     50  O   UNL A   1      49.063  26.525  25.814  1.00  0.00    -0.744 OA
ENDBRANCH  43  47
ENDBRANCH  26  40
BRANCH  27  51
ATOM     51  C   UNL A   1      36.941  32.179  30.215  1.00  0.00     0.023 A 
ATOM     52  C   UNL A   1      36.241  32.855  29.199  1.00  0.00     0.031 A 
ATOM     53  C   UNL A   1      36.316  32.029  31.465  1.00  0.00     0.131 A 
ATOM     54  C   UNL A   1      34.980  33.405  29.471  1.00  0.00     0.055 A 
ATOM     55  C   UNL A   1      35.036  32.526  31.711  1.00  0.00     0.041 A 
ATOM     56  F   UNL A   1      36.956  31.412  32.470  1.00  0.00    -0.206 F 
ATOM     57  C   UNL A   1      34.369  33.233  30.717  1.00  0.00     0.022 A 
BRANCH  54  58
ATOM     58  S   UNL A   1      34.155  34.483  28.265  1.00  0.00     0.124 S 
ATOM     59  O   UNL A   1      35.131  34.525  27.181  1.00  0.00    -0.237 OA
ATOM     60  O   UNL A   1      32.931  33.738  27.982  1.00  0.00    -0.237 OA
ATOM     61  O   UNL A   1      33.964  35.732  28.994  1.00  0.00    -0.744 OA
ENDBRANCH  54  58
ENDBRANCH  27  51
BRANCH  39  62
ATOM     62  C   UNL A   1      43.187  35.381  30.740  1.00  0.00     0.023 A 
ATOM     63  C   UNL A   1      43.279  36.360  29.731  1.00  0.00     0.031 A 
ATOM     64  C   UNL A   1      43.651  35.706  32.027  1.00  0.00     0.131 A 
ATOM     65  C   UNL A   1      43.852  37.604  30.016  1.00  0.00     0.055 A 
ATOM     66  C   UNL A   1      44.182  36.964  32.316  1.00  0.00     0.041 A 
ATOM     67  F   UNL A   1      43.598  34.802  33.018  1.00  0.00    -0.206 F 
ATOM     68  C   UNL A   1      44.298  37.913  31.305  1.00  0.00     0.022 A 
BRANCH  65  69
ATOM     69  S   UNL A   1      44.135  38.825  28.704  1.00  0.00     0.124 S 
ATOM     70  O   UNL A   1      45.564  39.092  28.846  1.00  0.00    -0.237 OA
ATOM     71  O   UNL A   1      43.754  38.084  27.504  1.00  0.00    -0.237 OA
ATOM     72  O   UNL A   1      43.255  39.934  29.058  1.00  0.00    -0.744 OA
ENDBRANCH  65  69
ENDBRANCH  39  62
ENDBRANCH  13  14
ENDBRANCH   6   8
ENDBRANCH   5   6
ENDBRANCH   4   5
ENDBRANCH   3   4
ENDBRANCH   2   3
ENDBRANCH   1   2
BRANCH   1  73
ATOM     73  C   UNL A   1      33.231  22.076  24.469  1.00  0.00     0.188 C 
BRANCH  73  74
ATOM     74  O   UNL A   1      32.324  22.170  23.378  1.00  0.00    -0.376 OA
BRANCH  74  75
ATOM     75  C   UNL A   1      31.212  23.051  23.510  1.00  0.00     0.202 C 
BRANCH  75  76
ATOM     76  C   UNL A   1      31.332  24.448  22.901  1.00  0.00     0.261 C 
BRANCH  76  77
ATOM     77  O   UNL A   1      32.505  24.631  22.089  1.00  0.00    -0.460 OA
BRANCH  77  78
ATOM     78  C   UNL A   1      33.066  25.863  22.174  1.00  0.00     0.340 C 
ATOM     79  O   UNL A   1      33.674  26.461  21.301  1.00  0.00    -0.246 OA
BRANCH  78  80
ATOM     80  C   UNL A   1      33.010  26.359  23.551  1.00  0.00     0.086 A 
ATOM     81  C   UNL A   1      33.890  25.754  24.455  1.00  0.00     0.018 A 
ATOM     82  C   UNL A   1      32.268  27.505  23.858  1.00  0.00     0.087 A 
ATOM     83  C   UNL A   1      34.059  26.314  25.707  1.00  0.00     0.002 A 
ATOM     84  C   UNL A   1      32.471  28.091  25.133  1.00  0.00     0.013 A 
ATOM     85  N   UNL A   1      31.406  28.041  22.966  1.00  0.00    -0.240 NA
ATOM     86  C   UNL A   1      33.362  27.472  26.042  1.00  0.00     0.011 A 
ATOM     87  C   UNL A   1      31.787  29.297  25.427  1.00  0.00     0.068 A 
ATOM     88  C   UNL A   1      30.718  29.150  23.298  1.00  0.00     0.107 A 
ATOM     89  C   UNL A   1      30.879  29.812  24.494  1.00  0.00     0.049 A 
ATOM     90  Br  UNL A   1      29.486  29.833  22.030  1.00  0.00    -0.029 Br
BRANCH  87  91
ATOM     91  C   UNL A   1      32.051  30.079  26.692  1.00  0.00     0.417 C 
ATOM     92  F   UNL A   1      31.377  31.255  26.747  1.00  0.00    -0.166 F 
ATOM     93  F   UNL A   1      31.709  29.382  27.811  1.00  0.00    -0.166 F 
ATOM     94  F   UNL A   1      33.368  30.396  26.857  1.00  0.00    -0.166 F 
ENDBRANCH  87  91
ENDBRANCH  78  80
ENDBRANCH  77  78
ENDBRANCH  76  77
ENDBRANCH  75  76
ENDBRANCH  74  75
ENDBRANCH  73  74
ENDBRANCH   1  73
TORSDOF 21
ENDMDL
MODEL 3
REMARK VINA RESULT:     -10.6      4.829      7.752
REMARK SMILES O=C(OCCOCCOCCOC(=O)c1cccc2c(C(F)(F)F)cc(Br)nc12)c1ccc(-c2c3nc(c(-c4cc(S(=O)(=O)[O-])ccc4F)c4ccc([nH]4)c(-c4cc(S(=O)(=O)[O-])ccc4F)c4nc(c(-c5cc(S(=O)(=O)[O-])ccc5F)c5ccc2[nH]5)C=C4)C=C3)cc1
REMARK SMILES IDX 7 1 6 2 5 3 4 4 3 5 2 6 1 7 30 8 31 9 92 10 32 11 91 12
REMARK SMILES IDX 33 13 34 14 35 15 85 16 36 17 90 18 84 19 86 20 37 21 89 22
REMARK SMILES IDX 83 23 82 24 38 26 70 27 50 28 69 29 51 30 54 31 68 32 87 33
REMARK SMILES IDX 52 34 53 35 67 37 88 38 55 39 39 40 40 41 48 42 41 43 47 44
REMARK SMILES IDX 49 45 46 46 42 47 43 48 44 49 45 50 71 51 72 52 80 53 73 54
REMARK SMILES IDX 79 55 81 56 78 57 74 58 75 59 76 60 77 61 56 62 57 63 65 64
REMARK SMILES IDX 58 65 64 66 66 67 63 68 59 69 60 70 61 71 62 72 8 73 9 74
REMARK SMILES IDX 10 75 11 76 12 77 13 78 14 79 15 80 16 81 29 82 17 83 19 84
REMARK SMILES IDX 28 85 18 86 20 87 26 88 25 89 27 90 21 91 22 92 23 93 24 94
REMARK H PARENT 86 25 54 36
REMARK Flexibility Score: inf
ROOT
ATOM      1  C   UNL A   1      33.957  20.843  24.613  1.00  0.00     0.188 C 
ENDROOT
BRANCH   1   2
ATOM      2  O   UNL A   1      35.124  20.624  25.401  1.00  0.00    -0.376 OA
BRANCH   2   3
ATOM      3  C   UNL A   1      36.152  21.585  25.197  1.00  0.00     0.202 C 
BRANCH   3   4
ATOM      4  C   UNL A   1      37.418  20.948  24.631  1.00  0.00     0.261 C 
BRANCH   4   5
ATOM      5  O   UNL A   1      38.304  20.464  25.658  1.00  0.00    -0.460 OA
BRANCH   5   6
ATOM      6  C   UNL A   1      39.495  20.918  26.110  1.00  0.00     0.338 C 
ATOM      7  O   UNL A   1      40.409  20.094  26.192  1.00  0.00    -0.246 OA
BRANCH   6   8
ATOM      8  C   UNL A   1      39.793  22.316  26.581  1.00  0.00     0.060 A 
ATOM      9  C   UNL A   1      40.841  22.440  27.520  1.00  0.00     0.016 A 
ATOM     10  C   UNL A   1      39.183  23.496  26.149  1.00  0.00     0.016 A 
ATOM     11  C   UNL A   1      41.286  23.691  27.971  1.00  0.00     0.010 A 
ATOM     12  C   UNL A   1      39.625  24.751  26.594  1.00  0.00     0.010 A 
ATOM     13  C   UNL A   1      40.696  24.859  27.483  1.00  0.00    -0.014 A 
BRANCH  13  14
ATOM     14  C   UNL A   1      41.321  26.182  27.712  1.00  0.00     0.031 A 
ATOM     15  C   UNL A   1      40.603  27.292  28.412  1.00  0.00     0.074 A 
ATOM     16  C   UNL A   1      42.543  26.391  27.183  1.00  0.00     0.049 A 
ATOM     17  N   UNL A   1      41.060  28.467  28.755  1.00  0.00    -0.248 NA
ATOM     18  C   UNL A   1      39.192  27.068  28.759  1.00  0.00     0.031 C 
ATOM     19  C   UNL A   1      43.294  25.403  26.407  1.00  0.00     0.029 A 
ATOM     20  N   UNL A   1      43.356  27.496  27.192  1.00  0.00    -0.354 N 
ATOM     21  C   UNL A   1      40.012  29.112  29.397  1.00  0.00     0.074 A 
ATOM     22  C   UNL A   1      38.872  28.223  29.333  1.00  0.00     0.031 C 
ATOM     23  C   UNL A   1      44.454  25.945  26.012  1.00  0.00     0.029 A 
ATOM     24  C   UNL A   1      44.532  27.318  26.501  1.00  0.00     0.049 A 
ATOM     25  H   UNL A   1      43.121  28.336  27.648  1.00  0.00     0.167 HD
ATOM     26  C   UNL A   1      40.018  30.324  30.001  1.00  0.00     0.034 A 
ATOM     27  C   UNL A   1      45.567  28.157  26.298  1.00  0.00     0.034 A 
ATOM     28  C   UNL A   1      41.150  31.215  30.003  1.00  0.00     0.049 A 
ATOM     29  C   UNL A   1      45.545  29.505  26.970  1.00  0.00     0.074 A 
ATOM     30  C   UNL A   1      41.270  32.444  30.629  1.00  0.00     0.029 A 
ATOM     31  N   UNL A   1      42.345  30.989  29.335  1.00  0.00    -0.354 N 
ATOM     32  N   UNL A   1      44.610  30.031  27.725  1.00  0.00    -0.248 NA
ATOM     33  C   UNL A   1      46.727  30.359  26.797  1.00  0.00     0.031 C 
ATOM     34  C   UNL A   1      42.513  32.984  30.294  1.00  0.00     0.029 A 
ATOM     35  C   UNL A   1      43.196  32.066  29.511  1.00  0.00     0.049 A 
ATOM     36  H   UNL A   1      42.556  30.181  28.813  1.00  0.00     0.167 HD
ATOM     37  C   UNL A   1      45.110  31.256  28.157  1.00  0.00     0.074 A 
ATOM     38  C   UNL A   1      46.433  31.388  27.582  1.00  0.00     0.031 C 
ATOM     39  C   UNL A   1      44.526  32.179  28.961  1.00  0.00     0.034 A 
BRANCH  26  40
ATOM     40  C   UNL A   1      38.798  30.761  30.769  1.00  0.00     0.023 A 
ATOM     41  C   UNL A   1      37.863  31.643  30.199  1.00  0.00     0.031 A 
ATOM     42  C   UNL A   1      38.665  30.435  32.131  1.00  0.00     0.131 A 
ATOM     43  C   UNL A   1      36.849  32.188  30.998  1.00  0.00     0.055 A 
ATOM     44  C   UNL A   1      37.636  30.958  32.914  1.00  0.00     0.041 A 
ATOM     45  F   UNL A   1      39.541  29.606  32.720  1.00  0.00    -0.206 F 
ATOM     46  C   UNL A   1      36.727  31.846  32.350  1.00  0.00     0.022 A 
BRANCH  43  47
ATOM     47  S   UNL A   1      35.685  33.412  30.338  1.00  0.00     0.124 S 
ATOM     48  O   UNL A   1      36.283  33.719  29.040  1.00  0.00    -0.237 OA
ATOM     49  O   UNL A   1      34.439  32.653  30.287  1.00  0.00    -0.237 OA
ATOM     50  O   UNL A   1      35.728  34.497  31.312  1.00  0.00    -0.744 OA
ENDBRANCH  43  47
ENDBRANCH  26  40
BRANCH  27  51
ATOM     51  C   UNL A   1      46.746  27.669  25.527  1.00  0.00     0.023 A 
ATOM     52  C   UNL A   1      46.965  28.075  24.197  1.00  0.00     0.031 A 
ATOM     53  C   UNL A   1      47.588  26.683  26.067  1.00  0.00     0.131 A 
ATOM     54  C   UNL A   1      47.965  27.453  23.437  1.00  0.00     0.055 A 
ATOM     55  C   UNL A   1      48.621  26.111  25.324  1.00  0.00     0.041 A 
ATOM     56  F   UNL A   1      47.402  26.249  27.323  1.00  0.00    -0.206 F 
ATOM     57  C   UNL A   1      48.802  26.483  23.997  1.00  0.00     0.022 A 
BRANCH  54  58
ATOM     58  S   UNL A   1      48.118  27.779  21.657  1.00  0.00     0.124 S 
ATOM     59  O   UNL A   1      49.148  28.812  21.627  1.00  0.00    -0.237 OA
ATOM     60  O   UNL A   1      48.521  26.471  21.145  1.00  0.00    -0.237 OA
ATOM     61  O   UNL A   1      46.778  28.208  21.269  1.00  0.00    -0.744 OA
ENDBRANCH  54  58
ENDBRANCH  27  51
BRANCH  39  62
ATOM     62  C   UNL A   1      45.302  33.423  29.315  1.00  0.00     0.023 A 
ATOM     63  C   UNL A   1      46.013  33.481  30.529  1.00  0.00     0.031 A 
ATOM     64  C   UNL A   1      45.215  34.591  28.538  1.00  0.00     0.131 A 
ATOM     65  C   UNL A   1      46.581  34.689  30.948  1.00  0.00     0.055 A 
ATOM     66  C   UNL A   1      45.820  35.783  28.940  1.00  0.00     0.041 A 
ATOM     67  F   UNL A   1      44.536  34.590  27.380  1.00  0.00    -0.206 F 
ATOM     68  C   UNL A   1      46.493  35.839  30.157  1.00  0.00     0.022 A 
BRANCH  65  69
ATOM     69  S   UNL A   1      47.361  34.839  32.580  1.00  0.00     0.124 S 
ATOM     70  O   UNL A   1      48.692  34.291  32.327  1.00  0.00    -0.237 OA
ATOM     71  O   UNL A   1      47.314  36.280  32.815  1.00  0.00    -0.237 OA
ATOM     72  O   UNL A   1      46.512  34.035  33.452  1.00  0.00    -0.744 OA
ENDBRANCH  65  69
ENDBRANCH  39  62
ENDBRANCH  13  14
ENDBRANCH   6   8
ENDBRANCH   5   6
ENDBRANCH   4   5
ENDBRANCH   3   4
ENDBRANCH   2   3
ENDBRANCH   1   2
BRANCH   1  73
ATOM     73  C   UNL A   1      33.594  22.304  24.301  1.00  0.00     0.188 C 
BRANCH  73  74
ATOM     74  O   UNL A   1      32.267  22.744  24.561  1.00  0.00    -0.376 OA
BRANCH  74  75
ATOM     75  C   UNL A   1      31.414  22.984  23.446  1.00  0.00     0.202 C 
BRANCH  75  76
ATOM     76  C   UNL A   1      31.499  24.348  22.761  1.00  0.00     0.261 C 
BRANCH  76  77
ATOM     77  O   UNL A   1      32.765  24.603  22.127  1.00  0.00    -0.460 OA
BRANCH  77  78
ATOM     78  C   UNL A   1      33.165  25.899  22.163  1.00  0.00     0.340 C 
ATOM     79  O   UNL A   1      33.652  26.549  21.252  1.00  0.00    -0.246 OA
BRANCH  78  80
ATOM     80  C   UNL A   1      33.106  26.417  23.532  1.00  0.00     0.086 A 
ATOM     81  C   UNL A   1      34.023  25.867  24.435  1.00  0.00     0.018 A 
ATOM     82  C   UNL A   1      32.318  27.534  23.830  1.00  0.00     0.087 A 
ATOM     83  C   UNL A   1      34.184  26.457  25.674  1.00  0.00     0.002 A 
ATOM     84  C   UNL A   1      32.512  28.151  25.091  1.00  0.00     0.013 A 
ATOM     85  N   UNL A   1      31.421  28.015  22.941  1.00  0.00    -0.240 NA
ATOM     86  C   UNL A   1      33.442  27.589  25.998  1.00  0.00     0.011 A 
ATOM     87  C   UNL A   1      31.779  29.331  25.374  1.00  0.00     0.068 A 
ATOM     88  C   UNL A   1      30.689  29.098  23.264  1.00  0.00     0.107 A 
ATOM     89  C   UNL A   1      30.836  29.789  24.445  1.00  0.00     0.049 A 
ATOM     90  Br  UNL A   1      29.411  29.704  22.001  1.00  0.00    -0.029 Br
BRANCH  87  91
ATOM     91  C   UNL A   1      32.024  30.147  26.621  1.00  0.00     0.417 C 
ATOM     92  F   UNL A   1      31.562  29.555  27.750  1.00  0.00    -0.166 F 
ATOM     93  F   UNL A   1      33.349  30.394  26.825  1.00  0.00    -0.166 F 
ATOM     94  F   UNL A   1      31.435  31.378  26.577  1.00  0.00    -0.166 F 
ENDBRANCH  87  91
ENDBRANCH  78  80
ENDBRANCH  77  78
ENDBRANCH  76  77
ENDBRANCH  75  76
ENDBRANCH  74  75
ENDBRANCH  73  74
ENDBRANCH   1  73
TORSDOF 21
ENDMDL
