MODEL 1
REMARK VINA RESULT:     -10.0      0.000      0.000
REMARK SMILES C/C(=N\O)[C@@H]1C[C@@H](CC(=O)OCCOCCOCCOC(=O)c2ccc(-c3c4nc(c(-c5cc(S(=O)(=O)[O-])ccc5F)c5ccc([nH]5)c(-c5cc(S(=O)(=O)[O-])ccc5F)c5nc(c(-c6cc(S(=O)(=O)[O-])ccc6F)c6ccc3[nH]6)C=C5)C=C4)cc2)C1(C)C
REMARK SMILES IDX 15 1 14 2 13 3 12 4 11 5 9 6 10 7 8 8 7 9 5 10 6 11 86 12
REMARK SMILES IDX 87 13 88 14 2 15 1 16 3 17 4 18 16 20 17 21 18 22 19 23
REMARK SMILES IDX 20 24 21 25 22 26 23 27 24 28 85 29 25 30 84 31 26 32 27 33
REMARK SMILES IDX 28 34 78 35 29 36 83 37 77 38 79 39 30 40 82 41 76 42 75 43
REMARK SMILES IDX 31 45 63 46 43 47 62 48 44 49 47 50 61 51 80 52 45 53 46 54
REMARK SMILES IDX 60 56 81 57 48 58 32 59 33 60 41 61 34 62 40 63 42 64 39 65
REMARK SMILES IDX 35 66 36 67 37 68 38 69 64 70 65 71 73 72 66 73 72 74 74 75
REMARK SMILES IDX 71 76 67 77 68 78 69 79 70 80 49 81 50 82 58 83 51 84 57 85
REMARK SMILES IDX 59 86 56 87 52 88 53 89 54 90 55 91
REMARK H PARENT 4 19 79 44 47 55
REMARK Flexibility Score: inf
ROOT
ATOM      1  C   UNL A   1      33.851  28.054  26.034  1.00  0.00     0.188 C 
ENDROOT
BRANCH   1   2
ATOM      2  O   UNL A   1      32.848  27.052  26.168  1.00  0.00    -0.376 OA
BRANCH   2   3
ATOM      3  C   UNL A   1      31.648  27.249  25.424  1.00  0.00     0.202 C 
BRANCH   3   4
ATOM      4  C   UNL A   1      30.581  26.147  25.524  1.00  0.00     0.261 C 
BRANCH   4   5
ATOM      5  O   UNL A   1      31.064  24.815  25.239  1.00  0.00    -0.463 OA
BRANCH   5   6
ATOM      6  C   UNL A   1      31.222  24.008  26.320  1.00  0.00     0.306 C 
ATOM      7  O   UNL A   1      30.401  23.891  27.226  1.00  0.00    -0.252 OA
BRANCH   6   8
ATOM      8  C   UNL A   1      32.468  23.165  26.293  1.00  0.00     0.127 C 
BRANCH   8   9
ATOM      9  C   UNL A   1      32.455  21.777  25.649  1.00  0.00     0.007 C 
ATOM     10  C   UNL A   1      33.856  20.215  25.006  1.00  0.00     0.043 C 
ATOM     11  C   UNL A   1      33.481  20.853  26.361  1.00  0.00     0.015 C 
ATOM     12  C   UNL A   1      33.172  21.441  24.290  1.00  0.00    -0.024 C 
ATOM     13  C   UNL A   1      34.163  22.503  23.810  1.00  0.00     0.012 C 
ATOM     14  C   UNL A   1      32.226  21.057  23.154  1.00  0.00     0.012 C 
BRANCH  10  15
ATOM     15  C   UNL A   1      33.321  18.752  24.745  1.00  0.00     0.058 C 
ATOM     16  C   UNL A   1      34.156  17.858  23.857  1.00  0.00     0.066 C 
ATOM     17  N   UNL A   1      32.200  18.412  25.306  1.00  0.00    -0.099 NA
BRANCH  17  18
ATOM     18  O   UNL A   1      31.810  17.111  24.979  1.00  0.00    -0.411 OA
ATOM     19  H   UNL A   1      31.095  16.970  24.390  1.00  0.00     0.330 HD
ENDBRANCH  17  18
ENDBRANCH  10  15
ENDBRANCH   8   9
ENDBRANCH   6   8
ENDBRANCH   5   6
ENDBRANCH   4   5
ENDBRANCH   3   4
ENDBRANCH   2   3
ENDBRANCH   1   2
BRANCH   1  20
ATOM     20  C   UNL A   1      34.099  28.938  27.260  1.00  0.00     0.188 C 
BRANCH  20  21
ATOM     21  O   UNL A   1      34.296  30.322  26.999  1.00  0.00    -0.376 OA
BRANCH  21  22
ATOM     22  C   UNL A   1      33.357  31.224  27.591  1.00  0.00     0.202 C 
BRANCH  22  23
ATOM     23  C   UNL A   1      33.680  32.728  27.532  1.00  0.00     0.261 C 
BRANCH  23  24
ATOM     24  O   UNL A   1      32.776  33.586  28.255  1.00  0.00    -0.460 OA
BRANCH  24  25
ATOM     25  C   UNL A   1      33.302  34.573  29.028  1.00  0.00     0.338 C 
ATOM     26  O   UNL A   1      32.816  35.660  29.243  1.00  0.00    -0.246 OA
BRANCH  25  27
ATOM     27  C   UNL A   1      34.458  33.990  29.775  1.00  0.00     0.060 A 
ATOM     28  C   UNL A   1      35.757  34.332  29.372  1.00  0.00     0.016 A 
ATOM     29  C   UNL A   1      34.274  33.181  30.902  1.00  0.00     0.016 A 
ATOM     30  C   UNL A   1      36.868  33.828  30.060  1.00  0.00     0.010 A 
ATOM     31  C   UNL A   1      35.386  32.671  31.584  1.00  0.00     0.010 A 
ATOM     32  C   UNL A   1      36.691  32.958  31.145  1.00  0.00    -0.014 A 
BRANCH  32  33
ATOM     33  C   UNL A   1      37.841  32.170  31.672  1.00  0.00     0.031 A 
ATOM     34  C   UNL A   1      38.369  32.523  33.040  1.00  0.00     0.074 A 
ATOM     35  C   UNL A   1      38.393  31.149  30.989  1.00  0.00     0.049 A 
ATOM     36  N   UNL A   1      39.391  32.036  33.695  1.00  0.00    -0.248 NA
ATOM     37  C   UNL A   1      37.637  33.577  33.763  1.00  0.00     0.031 C 
ATOM     38  C   UNL A   1      37.948  30.658  29.688  1.00  0.00     0.029 A 
ATOM     39  N   UNL A   1      39.459  30.337  31.305  1.00  0.00    -0.354 N 
ATOM     40  C   UNL A   1      39.419  32.714  34.909  1.00  0.00     0.074 A 
ATOM     41  C   UNL A   1      38.348  33.686  34.874  1.00  0.00     0.031 C 
ATOM     42  C   UNL A   1      38.735  29.630  29.316  1.00  0.00     0.029 A 
ATOM     43  C   UNL A   1      39.768  29.416  30.329  1.00  0.00     0.049 A 
ATOM     44  H   UNL A   1      39.955  30.408  32.152  1.00  0.00     0.167 HD
ATOM     45  C   UNL A   1      40.249  32.536  35.967  1.00  0.00     0.034 A 
ATOM     46  C   UNL A   1      40.780  28.524  30.253  1.00  0.00     0.034 A 
ATOM     47  C   UNL A   1      41.329  31.582  35.992  1.00  0.00     0.049 A 
ATOM     48  C   UNL A   1      41.778  28.438  31.392  1.00  0.00     0.074 A 
ATOM     49  C   UNL A   1      42.241  31.341  37.006  1.00  0.00     0.029 A 
ATOM     50  N   UNL A   1      41.652  30.716  34.956  1.00  0.00    -0.354 N 
ATOM     51  N   UNL A   1      41.801  29.095  32.529  1.00  0.00    -0.248 NA
ATOM     52  C   UNL A   1      42.884  27.481  31.236  1.00  0.00     0.031 C 
ATOM     53  C   UNL A   1      43.156  30.384  36.556  1.00  0.00     0.029 A 
ATOM     54  C   UNL A   1      42.764  29.961  35.297  1.00  0.00     0.049 A 
ATOM     55  H   UNL A   1      41.163  30.648  34.105  1.00  0.00     0.167 HD
ATOM     56  C   UNL A   1      42.893  28.592  33.238  1.00  0.00     0.074 A 
ATOM     57  C   UNL A   1      43.493  27.572  32.408  1.00  0.00     0.031 C 
ATOM     58  C   UNL A   1      43.354  28.938  34.468  1.00  0.00     0.034 A 
BRANCH  45  59
ATOM     59  C   UNL A   1      40.037  33.424  37.168  1.00  0.00     0.023 A 
ATOM     60  C   UNL A   1      39.317  32.981  38.292  1.00  0.00     0.031 A 
ATOM     61  C   UNL A   1      40.540  34.736  37.183  1.00  0.00     0.131 A 
ATOM     62  C   UNL A   1      39.063  33.863  39.353  1.00  0.00     0.055 A 
ATOM     63  C   UNL A   1      40.358  35.582  38.279  1.00  0.00     0.041 A 
ATOM     64  F   UNL A   1      41.212  35.223  36.128  1.00  0.00    -0.206 F 
ATOM     65  C   UNL A   1      39.603  35.151  39.367  1.00  0.00     0.022 A 
BRANCH  62  66
ATOM     66  S   UNL A   1      37.900  33.351  40.645  1.00  0.00     0.124 S 
ATOM     67  O   UNL A   1      36.913  32.599  39.872  1.00  0.00    -0.237 OA
ATOM     68  O   UNL A   1      38.744  32.567  41.539  1.00  0.00    -0.237 OA
ATOM     69  O   UNL A   1      37.416  34.616  41.193  1.00  0.00    -0.744 OA
ENDBRANCH  62  66
ENDBRANCH  45  59
BRANCH  46  70
ATOM     70  C   UNL A   1      40.957  27.655  29.048  1.00  0.00     0.023 A 
ATOM     71  C   UNL A   1      41.972  27.914  28.111  1.00  0.00     0.031 A 
ATOM     72  C   UNL A   1      40.043  26.627  28.755  1.00  0.00     0.131 A 
ATOM     73  C   UNL A   1      42.004  27.207  26.897  1.00  0.00     0.055 A 
ATOM     74  C   UNL A   1      40.123  25.879  27.578  1.00  0.00     0.041 A 
ATOM     75  F   UNL A   1      39.043  26.344  29.604  1.00  0.00    -0.206 F 
ATOM     76  C   UNL A   1      41.097  26.182  26.631  1.00  0.00     0.022 A 
BRANCH  73  77
ATOM     77  S   UNL A   1      43.164  27.748  25.608  1.00  0.00     0.124 S 
ATOM     78  O   UNL A   1      43.919  28.782  26.307  1.00  0.00    -0.237 OA
ATOM     79  O   UNL A   1      43.885  26.515  25.312  1.00  0.00    -0.237 OA
ATOM     80  O   UNL A   1      42.287  28.227  24.542  1.00  0.00    -0.744 OA
ENDBRANCH  73  77
ENDBRANCH  46  70
BRANCH  58  81
ATOM     81  C   UNL A   1      44.524  28.155  35.022  1.00  0.00     0.023 A 
ATOM     82  C   UNL A   1      44.362  26.899  35.634  1.00  0.00     0.031 A 
ATOM     83  C   UNL A   1      45.826  28.683  34.940  1.00  0.00     0.131 A 
ATOM     84  C   UNL A   1      45.472  26.244  36.191  1.00  0.00     0.055 A 
ATOM     85  C   UNL A   1      46.934  27.996  35.435  1.00  0.00     0.041 A 
ATOM     86  F   UNL A   1      46.043  29.879  34.368  1.00  0.00    -0.206 F 
ATOM     87  C   UNL A   1      46.759  26.775  36.078  1.00  0.00     0.022 A 
BRANCH  84  88
ATOM     88  S   UNL A   1      45.199  24.732  37.156  1.00  0.00     0.124 S 
ATOM     89  O   UNL A   1      46.558  24.228  37.323  1.00  0.00    -0.237 OA
ATOM     90  O   UNL A   1      44.557  25.243  38.363  1.00  0.00    -0.237 OA
ATOM     91  O   UNL A   1      44.339  23.923  36.294  1.00  0.00    -0.744 OA
ENDBRANCH  84  88
ENDBRANCH  58  81
ENDBRANCH  32  33
ENDBRANCH  25  27
ENDBRANCH  24  25
ENDBRANCH  23  24
ENDBRANCH  22  23
ENDBRANCH  21  22
ENDBRANCH  20  21
ENDBRANCH   1  20
TORSDOF 23
ENDMDL
MODEL 2
REMARK VINA RESULT:      -9.9      3.401      9.105
REMARK SMILES C/C(=N\O)[C@@H]1C[C@@H](CC(=O)OCCOCCOCCOC(=O)c2ccc(-c3c4nc(c(-c5cc(S(=O)(=O)[O-])ccc5F)c5ccc([nH]5)c(-c5cc(S(=O)(=O)[O-])ccc5F)c5nc(c(-c6cc(S(=O)(=O)[O-])ccc6F)c6ccc3[nH]6)C=C5)C=C4)cc2)C1(C)C
REMARK SMILES IDX 15 1 14 2 13 3 12 4 11 5 9 6 10 7 8 8 7 9 5 10 6 11 86 12
REMARK SMILES IDX 87 13 88 14 2 15 1 16 3 17 4 18 16 20 17 21 18 22 19 23
REMARK SMILES IDX 20 24 21 25 22 26 23 27 24 28 85 29 25 30 84 31 26 32 27 33
REMARK SMILES IDX 28 34 78 35 29 36 83 37 77 38 79 39 30 40 82 41 76 42 75 43
REMARK SMILES IDX 31 45 63 46 43 47 62 48 44 49 47 50 61 51 80 52 45 53 46 54
REMARK SMILES IDX 60 56 81 57 48 58 32 59 33 60 41 61 34 62 40 63 42 64 39 65
REMARK SMILES IDX 35 66 36 67 37 68 38 69 64 70 65 71 73 72 66 73 72 74 74 75
REMARK SMILES IDX 71 76 67 77 68 78 69 79 70 80 49 81 50 82 58 83 51 84 57 85
REMARK SMILES IDX 59 86 56 87 52 88 53 89 54 90 55 91
REMARK H PARENT 4 19 79 44 47 55
REMARK Flexibility Score: inf
ROOT
ATOM      1  C   UNL A   1      38.895  21.543  25.756  1.00  0.00     0.188 C 
ENDROOT
BRANCH   1   2
ATOM      2  O   UNL A   1      37.902  22.339  26.396  1.00  0.00    -0.376 OA
BRANCH   2   3
ATOM      3  C   UNL A   1      37.735  23.666  25.905  1.00  0.00     0.202 C 
BRANCH   3   4
ATOM      4  C   UNL A   1      36.326  24.059  25.431  1.00  0.00     0.261 C 
BRANCH   4   5
ATOM      5  O   UNL A   1      35.602  23.003  24.761  1.00  0.00    -0.463 OA
BRANCH   5   6
ATOM      6  C   UNL A   1      35.590  23.074  23.405  1.00  0.00     0.306 C 
ATOM      7  O   UNL A   1      36.579  22.926  22.692  1.00  0.00    -0.252 OA
BRANCH   6   8
ATOM      8  C   UNL A   1      34.223  23.259  22.801  1.00  0.00     0.127 C 
BRANCH   8   9
ATOM      9  C   UNL A   1      33.141  24.038  23.552  1.00  0.00     0.007 C 
ATOM     10  C   UNL A   1      31.218  25.026  23.171  1.00  0.00     0.043 C 
ATOM     11  C   UNL A   1      31.734  23.574  23.083  1.00  0.00     0.015 C 
ATOM     12  C   UNL A   1      32.719  25.509  23.193  1.00  0.00    -0.024 C 
ATOM     13  C   UNL A   1      33.223  26.006  21.837  1.00  0.00     0.012 C 
ATOM     14  C   UNL A   1      33.030  26.539  24.277  1.00  0.00     0.012 C 
BRANCH  10  15
ATOM     15  C   UNL A   1      30.265  25.362  24.383  1.00  0.00     0.058 C 
ATOM     16  C   UNL A   1      29.302  26.515  24.207  1.00  0.00     0.066 C 
ATOM     17  N   UNL A   1      30.369  24.633  25.453  1.00  0.00    -0.099 NA
BRANCH  17  18
ATOM     18  O   UNL A   1      29.502  25.042  26.468  1.00  0.00    -0.411 OA
ATOM     19  H   UNL A   1      28.628  25.308  26.259  1.00  0.00     0.330 HD
ENDBRANCH  17  18
ENDBRANCH  10  15
ENDBRANCH   8   9
ENDBRANCH   6   8
ENDBRANCH   5   6
ENDBRANCH   4   5
ENDBRANCH   3   4
ENDBRANCH   2   3
ENDBRANCH   1   2
BRANCH   1  20
ATOM     20  C   UNL A   1      40.222  21.381  26.501  1.00  0.00     0.188 C 
BRANCH  20  21
ATOM     21  O   UNL A   1      41.216  20.607  25.839  1.00  0.00    -0.376 OA
BRANCH  21  22
ATOM     22  C   UNL A   1      42.566  20.801  26.266  1.00  0.00     0.202 C 
BRANCH  22  23
ATOM     23  C   UNL A   1      43.516  21.546  25.310  1.00  0.00     0.261 C 
BRANCH  23  24
ATOM     24  O   UNL A   1      43.027  22.803  24.802  1.00  0.00    -0.460 OA
BRANCH  24  25
ATOM     25  C   UNL A   1      43.815  23.903  24.935  1.00  0.00     0.338 C 
ATOM     26  O   UNL A   1      44.786  24.181  24.268  1.00  0.00    -0.246 OA
BRANCH  25  27
ATOM     27  C   UNL A   1      43.126  24.838  25.876  1.00  0.00     0.060 A 
ATOM     28  C   UNL A   1      43.490  26.192  25.861  1.00  0.00     0.016 A 
ATOM     29  C   UNL A   1      42.084  24.410  26.706  1.00  0.00     0.016 A 
ATOM     30  C   UNL A   1      42.852  27.106  26.709  1.00  0.00     0.010 A 
ATOM     31  C   UNL A   1      41.452  25.323  27.560  1.00  0.00     0.010 A 
ATOM     32  C   UNL A   1      41.857  26.670  27.596  1.00  0.00    -0.014 A 
BRANCH  32  33
ATOM     33  C   UNL A   1      41.408  27.550  28.711  1.00  0.00     0.031 A 
ATOM     34  C   UNL A   1      42.238  27.572  29.970  1.00  0.00     0.074 A 
ATOM     35  C   UNL A   1      40.319  28.338  28.619  1.00  0.00     0.049 A 
ATOM     36  N   UNL A   1      42.033  28.200  31.099  1.00  0.00    -0.248 NA
ATOM     37  C   UNL A   1      43.472  26.768  29.945  1.00  0.00     0.031 C 
ATOM     38  C   UNL A   1      39.459  28.465  27.445  1.00  0.00     0.029 A 
ATOM     39  N   UNL A   1      39.750  29.185  29.543  1.00  0.00    -0.354 N 
ATOM     40  C   UNL A   1      43.113  27.876  31.913  1.00  0.00     0.074 A 
ATOM     41  C   UNL A   1      43.940  26.952  31.168  1.00  0.00     0.031 C 
ATOM     42  C   UNL A   1      38.472  29.338  27.719  1.00  0.00     0.029 A 
ATOM     43  C   UNL A   1      38.600  29.800  29.101  1.00  0.00     0.049 A 
ATOM     44  H   UNL A   1      40.130  29.337  30.437  1.00  0.00     0.167 HD
ATOM     45  C   UNL A   1      43.403  28.320  33.161  1.00  0.00     0.034 A 
ATOM     46  C   UNL A   1      37.740  30.620  29.746  1.00  0.00     0.034 A 
ATOM     47  C   UNL A   1      42.568  29.225  33.910  1.00  0.00     0.049 A 
ATOM     48  C   UNL A   1      38.015  30.993  31.190  1.00  0.00     0.074 A 
ATOM     49  C   UNL A   1      42.761  29.716  35.191  1.00  0.00     0.029 A 
ATOM     50  N   UNL A   1      41.376  29.771  33.454  1.00  0.00    -0.354 N 
ATOM     51  N   UNL A   1      39.034  30.669  31.954  1.00  0.00    -0.248 NA
ATOM     52  C   UNL A   1      37.023  31.851  31.856  1.00  0.00     0.031 C 
ATOM     53  C   UNL A   1      41.655  30.497  35.534  1.00  0.00     0.029 A 
ATOM     54  C   UNL A   1      40.812  30.570  34.437  1.00  0.00     0.049 A 
ATOM     55  H   UNL A   1      40.989  29.615  32.563  1.00  0.00     0.167 HD
ATOM     56  C   UNL A   1      38.826  31.326  33.167  1.00  0.00     0.074 A 
ATOM     57  C   UNL A   1      37.594  32.071  33.031  1.00  0.00     0.031 C 
ATOM     58  C   UNL A   1      39.587  31.319  34.292  1.00  0.00     0.034 A 
BRANCH  45  59
ATOM     59  C   UNL A   1      44.664  27.796  33.804  1.00  0.00     0.023 A 
ATOM     60  C   UNL A   1      45.894  28.462  33.662  1.00  0.00     0.031 A 
ATOM     61  C   UNL A   1      44.641  26.605  34.550  1.00  0.00     0.131 A 
ATOM     62  C   UNL A   1      47.061  27.899  34.199  1.00  0.00     0.055 A 
ATOM     63  C   UNL A   1      45.792  26.094  35.155  1.00  0.00     0.041 A 
ATOM     64  F   UNL A   1      43.502  25.911  34.698  1.00  0.00    -0.206 F 
ATOM     65  C   UNL A   1      47.014  26.735  34.969  1.00  0.00     0.022 A 
BRANCH  62  66
ATOM     66  S   UNL A   1      48.658  28.632  33.756  1.00  0.00     0.124 S 
ATOM     67  O   UNL A   1      49.576  27.527  34.031  1.00  0.00    -0.237 OA
ATOM     68  O   UNL A   1      48.472  28.974  32.351  1.00  0.00    -0.237 OA
ATOM     69  O   UNL A   1      48.778  29.770  34.665  1.00  0.00    -0.744 OA
ENDBRANCH  62  66
ENDBRANCH  45  59
BRANCH  46  70
ATOM     70  C   UNL A   1      36.502  31.125  29.075  1.00  0.00     0.023 A 
ATOM     71  C   UNL A   1      36.092  32.462  29.223  1.00  0.00     0.031 A 
ATOM     72  C   UNL A   1      35.649  30.253  28.376  1.00  0.00     0.131 A 
ATOM     73  C   UNL A   1      34.834  32.867  28.745  1.00  0.00     0.055 A 
ATOM     74  C   UNL A   1      34.431  30.679  27.840  1.00  0.00     0.041 A 
ATOM     75  F   UNL A   1      35.979  28.962  28.216  1.00  0.00    -0.206 F 
ATOM     76  C   UNL A   1      34.009  31.990  28.041  1.00  0.00     0.022 A 
BRANCH  73  77
ATOM     77  S   UNL A   1      34.232  34.524  29.183  1.00  0.00     0.124 S 
ATOM     78  O   UNL A   1      34.896  35.353  28.184  1.00  0.00    -0.237 OA
ATOM     79  O   UNL A   1      32.789  34.370  29.034  1.00  0.00    -0.237 OA
ATOM     80  O   UNL A   1      34.700  34.703  30.555  1.00  0.00    -0.744 OA
ENDBRANCH  73  77
ENDBRANCH  46  70
BRANCH  58  81
ATOM     81  C   UNL A   1      39.148  32.201  35.439  1.00  0.00     0.023 A 
ATOM     82  C   UNL A   1      39.620  33.516  35.596  1.00  0.00     0.031 A 
ATOM     83  C   UNL A   1      38.242  31.709  36.398  1.00  0.00     0.131 A 
ATOM     84  C   UNL A   1      39.233  34.270  36.716  1.00  0.00     0.055 A 
ATOM     85  C   UNL A   1      37.808  32.487  37.471  1.00  0.00     0.041 A 
ATOM     86  F   UNL A   1      37.757  30.460  36.302  1.00  0.00    -0.206 F 
ATOM     87  C   UNL A   1      38.315  33.771  37.643  1.00  0.00     0.022 A 
BRANCH  84  88
ATOM     88  S   UNL A   1      40.022  35.879  37.000  1.00  0.00     0.124 S 
ATOM     89  O   UNL A   1      39.408  36.301  38.255  1.00  0.00    -0.237 OA
ATOM     90  O   UNL A   1      41.436  35.525  37.070  1.00  0.00    -0.237 OA
ATOM     91  O   UNL A   1      39.639  36.663  35.827  1.00  0.00    -0.744 OA
ENDBRANCH  84  88
ENDBRANCH  58  81
ENDBRANCH  32  33
ENDBRANCH  25  27
ENDBRANCH  24  25
ENDBRANCH  23  24
ENDBRANCH  22  23
ENDBRANCH  21  22
ENDBRANCH  20  21
ENDBRANCH   1  20
TORSDOF 23
ENDMDL
MODEL 3
REMARK VINA RESULT:      -9.7      3.204      9.060
REMARK SMILES C/C(=N\O)[C@@H]1C[C@@H](CC(=O)OCCOCCOCCOC(=O)c2ccc(-c3c4nc(c(-c5cc(S(=O)(=O)[O-])ccc5F)c5ccc([nH]5)c(-c5cc(S(=O)(=O)[O-])ccc5F)c5nc(c(-c6cc(S(=O)(=O)[O-])ccc6F)c6ccc3[nH]6)C=C5)C=C4)cc2)C1(C)C
REMARK SMILES IDX 15 1 14 2 13 3 12 4 11 5 9 6 10 7 8 8 7 9 5 10 6 11 86 12
REMARK SMILES IDX 87 13 88 14 2 15 1 16 3 17 4 18 16 20 17 21 18 22 19 23
REMARK SMILES IDX 20 24 21 25 22 26 23 27 24 28 85 29 25 30 84 31 26 32 27 33
REMARK SMILES IDX 28 34 78 35 29 36 83 37 77 38 79 39 30 40 82 41 76 42 75 43
REMARK SMILES IDX 31 45 63 46 43 47 62 48 44 49 47 50 61 51 80 52 45 53 46 54
REMARK SMILES IDX 60 56 81 57 48 58 32 59 33 60 41 61 34 62 40 63 42 64 39 65
REMARK SMILES IDX 35 66 36 67 37 68 38 69 64 70 65 71 73 72 66 73 72 74 74 75
REMARK SMILES IDX 71 76 67 77 68 78 69 79 70 80 49 81 50 82 58 83 51 84 57 85
REMARK SMILES IDX 59 86 56 87 52 88 53 89 54 90 55 91
REMARK H PARENT 4 19 79 44 47 55
REMARK Flexibility Score: inf
ROOT
ATOM      1  C   UNL A   1      38.825  21.268  25.610  1.00  0.00     0.188 C 
ENDROOT
BRANCH   1   2
ATOM      2  O   UNL A   1      37.839  22.237  25.954  1.00  0.00    -0.376 OA
BRANCH   2   3
ATOM      3  C   UNL A   1      37.445  23.138  24.923  1.00  0.00     0.202 C 
BRANCH   3   4
ATOM      4  C   UNL A   1      35.935  23.304  24.687  1.00  0.00     0.261 C 
BRANCH   4   5
ATOM      5  O   UNL A   1      35.290  24.254  25.565  1.00  0.00    -0.463 OA
BRANCH   5   6
ATOM      6  C   UNL A   1      34.265  23.761  26.306  1.00  0.00     0.306 C 
ATOM      7  O   UNL A   1      34.371  22.849  27.121  1.00  0.00    -0.252 OA
BRANCH   6   8
ATOM      8  C   UNL A   1      32.959  24.490  26.129  1.00  0.00     0.127 C 
BRANCH   8   9
ATOM      9  C   UNL A   1      32.833  25.622  25.107  1.00  0.00     0.007 C 
ATOM     10  C   UNL A   1      31.286  26.843  24.141  1.00  0.00     0.043 C 
ATOM     11  C   UNL A   1      31.780  26.657  25.591  1.00  0.00     0.015 C 
ATOM     12  C   UNL A   1      32.020  25.499  23.767  1.00  0.00    -0.024 C 
ATOM     13  C   UNL A   1      31.087  24.289  23.694  1.00  0.00     0.012 C 
ATOM     14  C   UNL A   1      32.871  25.581  22.501  1.00  0.00     0.012 C 
BRANCH  10  15
ATOM     15  C   UNL A   1      31.694  28.189  23.425  1.00  0.00     0.058 C 
ATOM     16  C   UNL A   1      32.883  28.938  23.983  1.00  0.00     0.066 C 
ATOM     17  N   UNL A   1      30.983  28.570  22.406  1.00  0.00    -0.099 NA
BRANCH  17  18
ATOM     18  O   UNL A   1      31.414  29.787  21.875  1.00  0.00    -0.411 OA
ATOM     19  H   UNL A   1      31.981  30.342  22.374  1.00  0.00     0.330 HD
ENDBRANCH  17  18
ENDBRANCH  10  15
ENDBRANCH   8   9
ENDBRANCH   6   8
ENDBRANCH   5   6
ENDBRANCH   4   5
ENDBRANCH   3   4
ENDBRANCH   2   3
ENDBRANCH   1   2
BRANCH   1  20
ATOM     20  C   UNL A   1      40.154  21.351  26.366  1.00  0.00     0.188 C 
BRANCH  20  21
ATOM     21  O   UNL A   1      41.157  20.427  25.961  1.00  0.00    -0.376 OA
BRANCH  21  22
ATOM     22  C   UNL A   1      42.483  20.676  26.434  1.00  0.00     0.202 C 
BRANCH  22  23
ATOM     23  C   UNL A   1      43.486  21.303  25.448  1.00  0.00     0.261 C 
BRANCH  23  24
ATOM     24  O   UNL A   1      43.115  22.591  24.920  1.00  0.00    -0.460 OA
BRANCH  24  25
ATOM     25  C   UNL A   1      43.955  23.640  25.125  1.00  0.00     0.338 C 
ATOM     26  O   UNL A   1      44.984  23.869  24.530  1.00  0.00    -0.246 OA
BRANCH  25  27
ATOM     27  C   UNL A   1      43.261  24.600  26.036  1.00  0.00     0.060 A 
ATOM     28  C   UNL A   1      43.627  25.953  25.987  1.00  0.00     0.016 A 
ATOM     29  C   UNL A   1      42.212  24.197  26.869  1.00  0.00     0.016 A 
ATOM     30  C   UNL A   1      42.983  26.890  26.805  1.00  0.00     0.010 A 
ATOM     31  C   UNL A   1      41.575  25.133  27.693  1.00  0.00     0.010 A 
ATOM     32  C   UNL A   1      41.982  26.480  27.697  1.00  0.00    -0.014 A 
BRANCH  32  33
ATOM     33  C   UNL A   1      41.525  27.390  28.784  1.00  0.00     0.031 A 
ATOM     34  C   UNL A   1      42.332  27.426  30.058  1.00  0.00     0.074 A 
ATOM     35  C   UNL A   1      40.451  28.193  28.654  1.00  0.00     0.049 A 
ATOM     36  N   UNL A   1      42.115  28.080  31.169  1.00  0.00    -0.248 NA
ATOM     37  C   UNL A   1      43.553  26.602  30.073  1.00  0.00     0.031 C 
ATOM     38  C   UNL A   1      39.616  28.308  27.462  1.00  0.00     0.029 A 
ATOM     39  N   UNL A   1      39.878  29.068  29.549  1.00  0.00    -0.354 N 
ATOM     40  C   UNL A   1      43.174  27.757  32.011  1.00  0.00     0.074 A 
ATOM     41  C   UNL A   1      44.000  26.804  31.302  1.00  0.00     0.031 C 
ATOM     42  C   UNL A   1      38.638  29.203  27.699  1.00  0.00     0.029 A 
ATOM     43  C   UNL A   1      38.747  29.692  29.073  1.00  0.00     0.049 A 
ATOM     44  H   UNL A   1      40.244  29.233  30.448  1.00  0.00     0.167 HD
ATOM     45  C   UNL A   1      43.448  28.223  33.255  1.00  0.00     0.034 A 
ATOM     46  C   UNL A   1      37.888  30.538  29.684  1.00  0.00     0.034 A 
ATOM     47  C   UNL A   1      42.613  29.156  33.969  1.00  0.00     0.049 A 
ATOM     48  C   UNL A   1      38.141  30.937  31.125  1.00  0.00     0.074 A 
ATOM     49  C   UNL A   1      42.790  29.670  35.242  1.00  0.00     0.029 A 
ATOM     50  N   UNL A   1      41.439  29.711  33.478  1.00  0.00    -0.354 N 
ATOM     51  N   UNL A   1      39.140  30.614  31.914  1.00  0.00    -0.248 NA
ATOM     52  C   UNL A   1      37.151  31.825  31.753  1.00  0.00     0.031 C 
ATOM     53  C   UNL A   1      41.689  30.476  35.547  1.00  0.00     0.029 A 
ATOM     54  C   UNL A   1      40.869  30.539  34.433  1.00  0.00     0.049 A 
ATOM     55  H   UNL A   1      41.066  29.542  32.583  1.00  0.00     0.167 HD
ATOM     56  C   UNL A   1      38.920  31.299  33.110  1.00  0.00     0.074 A 
ATOM     57  C   UNL A   1      37.703  32.061  32.934  1.00  0.00     0.031 C 
ATOM     58  C   UNL A   1      39.659  31.304  34.249  1.00  0.00     0.034 A 
BRANCH  45  59
ATOM     59  C   UNL A   1      44.687  27.692  33.933  1.00  0.00     0.023 A 
ATOM     60  C   UNL A   1      44.622  26.640  34.863  1.00  0.00     0.031 A 
ATOM     61  C   UNL A   1      45.945  28.258  33.664  1.00  0.00     0.131 A 
ATOM     62  C   UNL A   1      45.782  26.231  35.540  1.00  0.00     0.055 A 
ATOM     63  C   UNL A   1      47.109  27.790  34.278  1.00  0.00     0.041 A 
ATOM     64  F   UNL A   1      46.065  29.282  32.806  1.00  0.00    -0.206 F 
ATOM     65  C   UNL A   1      47.029  26.779  35.232  1.00  0.00     0.022 A 
BRANCH  62  66
ATOM     66  S   UNL A   1      45.613  25.077  36.927  1.00  0.00     0.124 S 
ATOM     67  O   UNL A   1      46.741  25.465  37.773  1.00  0.00    -0.237 OA
ATOM     68  O   UNL A   1      44.287  25.394  37.445  1.00  0.00    -0.237 OA
ATOM     69  O   UNL A   1      45.740  23.764  36.299  1.00  0.00    -0.744 OA
ENDBRANCH  62  66
ENDBRANCH  45  59
BRANCH  46  70
ATOM     70  C   UNL A   1      36.671  31.049  28.979  1.00  0.00     0.023 A 
ATOM     71  C   UNL A   1      36.410  32.427  28.889  1.00  0.00     0.031 A 
ATOM     72  C   UNL A   1      35.693  30.165  28.489  1.00  0.00     0.131 A 
ATOM     73  C   UNL A   1      35.175  32.877  28.393  1.00  0.00     0.055 A 
ATOM     74  C   UNL A   1      34.497  30.620  27.930  1.00  0.00     0.041 A 
ATOM     75  F   UNL A   1      35.879  28.837  28.560  1.00  0.00    -0.206 F 
ATOM     76  C   UNL A   1      34.224  31.984  27.898  1.00  0.00     0.022 A 
BRANCH  73  77
ATOM     77  S   UNL A   1      34.774  34.643  28.537  1.00  0.00     0.124 S 
ATOM     78  O   UNL A   1      36.025  35.189  29.049  1.00  0.00    -0.237 OA
ATOM     79  O   UNL A   1      34.437  34.990  27.160  1.00  0.00    -0.237 OA
ATOM     80  O   UNL A   1      33.653  34.660  29.474  1.00  0.00    -0.744 OA
ENDBRANCH  73  77
ENDBRANCH  46  70
BRANCH  58  81
ATOM     81  C   UNL A   1      39.213  32.217  35.369  1.00  0.00     0.023 A 
ATOM     82  C   UNL A   1      39.658  33.546  35.475  1.00  0.00     0.031 A 
ATOM     83  C   UNL A   1      38.327  31.740  36.354  1.00  0.00     0.131 A 
ATOM     84  C   UNL A   1      39.266  34.331  36.571  1.00  0.00     0.055 A 
ATOM     85  C   UNL A   1      37.886  32.546  37.403  1.00  0.00     0.041 A 
ATOM     86  F   UNL A   1      37.868  30.478  36.307  1.00  0.00    -0.206 F 
ATOM     87  C   UNL A   1      38.368  33.846  37.525  1.00  0.00     0.022 A 
BRANCH  84  88
ATOM     88  S   UNL A   1      40.023  35.965  36.790  1.00  0.00     0.124 S 
ATOM     89  O   UNL A   1      39.331  36.465  37.974  1.00  0.00    -0.237 OA
ATOM     90  O   UNL A   1      41.433  35.634  36.969  1.00  0.00    -0.237 OA
ATOM     91  O   UNL A   1      39.705  36.662  35.545  1.00  0.00    -0.744 OA
ENDBRANCH  84  88
ENDBRANCH  58  81
ENDBRANCH  32  33
ENDBRANCH  25  27
ENDBRANCH  24  25
ENDBRANCH  23  24
ENDBRANCH  22  23
ENDBRANCH  21  22
ENDBRANCH  20  21
ENDBRANCH   1  20
TORSDOF 23
ENDMDL
