MODEL 1
REMARK VINA RESULT:     -10.7      0.000      0.000
REMARK SMILES N#C[C@H]1CN(c2cc(C(=O)OCCOCCOCCOC(=O)c3ccc(-c4c5nc(c(-c6cc(S(=O)(=O)[O-])ccc6F)c6ccc([nH]6)c(-c6cc(S(=O)(=O)[O-])ccc6F)c6nc(c(-c7cc(S(=O)(=O)[O-])ccc7F)c7ccc4[nH]7)C=C6)C=C5)cc3)c(N)cc2F)CCO1
REMARK SMILES IDX 16 1 15 2 14 3 13 4 12 5 11 6 9 7 10 8 8 9 6 10 7 11 89 12
REMARK SMILES IDX 88 13 90 14 86 15 5 16 3 17 4 18 93 19 92 20 91 21 2 22 1 23
REMARK SMILES IDX 87 24 17 27 18 28 19 29 20 30 21 31 22 32 23 33 24 34 85 35
REMARK SMILES IDX 25 36 84 37 26 38 27 39 28 40 78 41 29 42 83 43 77 44 79 45
REMARK SMILES IDX 30 46 82 47 76 48 75 49 31 51 63 52 43 53 62 54 44 55 47 56
REMARK SMILES IDX 61 57 80 58 45 59 46 60 60 62 81 63 48 64 32 65 33 66 41 67
REMARK SMILES IDX 34 68 40 69 42 70 39 71 35 72 36 73 37 74 38 75 64 76 65 77
REMARK SMILES IDX 73 78 66 79 72 80 74 81 71 82 67 83 68 84 69 85 70 86 49 87
REMARK SMILES IDX 50 88 58 89 51 90 57 91 59 92 56 93 52 94 53 95 54 96 55 97
REMARK H PARENT 87 25 87 26 79 50 47 61
REMARK Flexibility Score: inf
ROOT
ATOM      1  C   UNL A   1      33.030  19.992  24.167  1.00  0.00     0.188 C 
ENDROOT
BRANCH   1   2
ATOM      2  C   UNL A   1      32.600  21.092  25.160  1.00  0.00     0.188 C 
BRANCH   2   3
ATOM      3  O   UNL A   1      32.652  22.445  24.750  1.00  0.00    -0.376 OA
BRANCH   3   4
ATOM      4  C   UNL A   1      33.860  23.004  24.258  1.00  0.00     0.202 C 
BRANCH   4   5
ATOM      5  C   UNL A   1      34.144  23.279  22.767  1.00  0.00     0.261 C 
BRANCH   5   6
ATOM      6  O   UNL A   1      33.028  23.661  21.953  1.00  0.00    -0.460 OA
BRANCH   6   7
ATOM      7  C   UNL A   1      32.831  25.000  21.804  1.00  0.00     0.340 C 
ATOM      8  O   UNL A   1      33.035  25.644  20.789  1.00  0.00    -0.246 OA
BRANCH   7   9
ATOM      9  C   UNL A   1      32.138  25.561  22.996  1.00  0.00     0.085 A 
ATOM     10  C   UNL A   1      32.192  27.291  24.732  1.00  0.00     0.074 A 
ATOM     11  C   UNL A   1      32.718  26.714  23.573  1.00  0.00     0.047 A 
ATOM     12  C   UNL A   1      31.081  26.662  25.310  1.00  0.00     0.148 A 
ATOM     13  C   UNL A   1      30.470  25.551  24.726  1.00  0.00     0.067 A 
ATOM     14  F   UNL A   1      30.569  27.139  26.456  1.00  0.00    -0.205 F 
ATOM     15  C   UNL A   1      30.949  25.022  23.524  1.00  0.00     0.049 A 
BRANCH  10  16
ATOM     16  N   UNL A   1      32.785  28.387  25.309  1.00  0.00    -0.363 N 
ATOM     17  C   UNL A   1      32.160  30.335  26.713  1.00  0.00     0.240 C 
ATOM     18  C   UNL A   1      32.201  29.738  25.281  1.00  0.00     0.164 C 
ATOM     19  O   UNL A   1      33.450  30.244  27.357  1.00  0.00    -0.360 OA
ATOM     20  C   UNL A   1      33.876  28.876  27.450  1.00  0.00     0.183 C 
ATOM     21  C   UNL A   1      34.032  28.240  26.063  1.00  0.00     0.145 C 
BRANCH  17  22
ATOM     22  C   UNL A   1      31.699  31.731  26.670  1.00  0.00     0.096 C 
ATOM     23  N   UNL A   1      31.268  32.811  26.683  1.00  0.00    -0.195 NA
ENDBRANCH  17  22
ENDBRANCH  10  16
BRANCH  15  24
ATOM     24  N   UNL A   1      30.309  23.906  22.982  1.00  0.00    -0.398 N 
ATOM     25  H   UNL A   1      29.898  23.237  23.577  1.00  0.00     0.156 HD
ATOM     26  H   UNL A   1      30.268  23.787  22.005  1.00  0.00     0.156 HD
ENDBRANCH  15  24
ENDBRANCH   7   9
ENDBRANCH   6   7
ENDBRANCH   5   6
ENDBRANCH   4   5
ENDBRANCH   3   4
ENDBRANCH   2   3
ENDBRANCH   1   2
BRANCH   1  27
ATOM     27  O   UNL A   1      34.269  19.381  24.442  1.00  0.00    -0.376 OA
BRANCH  27  28
ATOM     28  C   UNL A   1      35.243  20.100  25.178  1.00  0.00     0.202 C 
BRANCH  28  29
ATOM     29  C   UNL A   1      36.763  20.153  24.884  1.00  0.00     0.261 C 
BRANCH  29  30
ATOM     30  O   UNL A   1      37.536  21.265  25.349  1.00  0.00    -0.460 OA
BRANCH  30  31
ATOM     31  C   UNL A   1      38.760  20.969  25.858  1.00  0.00     0.338 C 
ATOM     32  O   UNL A   1      39.349  19.908  25.753  1.00  0.00    -0.246 OA
BRANCH  31  33
ATOM     33  C   UNL A   1      39.382  22.206  26.381  1.00  0.00     0.060 A 
ATOM     34  C   UNL A   1      38.790  23.435  26.063  1.00  0.00     0.016 A 
ATOM     35  C   UNL A   1      40.558  22.165  27.133  1.00  0.00     0.016 A 
ATOM     36  C   UNL A   1      39.385  24.624  26.481  1.00  0.00     0.010 A 
ATOM     37  C   UNL A   1      41.159  23.367  27.540  1.00  0.00     0.010 A 
ATOM     38  C   UNL A   1      40.587  24.605  27.198  1.00  0.00    -0.014 A 
BRANCH  38  39
ATOM     39  C   UNL A   1      41.295  25.890  27.440  1.00  0.00     0.031 A 
ATOM     40  C   UNL A   1      40.630  26.942  28.287  1.00  0.00     0.074 A 
ATOM     41  C   UNL A   1      42.549  26.085  26.989  1.00  0.00     0.049 A 
ATOM     42  N   UNL A   1      41.051  28.135  28.624  1.00  0.00    -0.248 NA
ATOM     43  C   UNL A   1      39.300  26.603  28.811  1.00  0.00     0.031 C 
ATOM     44  C   UNL A   1      43.328  25.118  26.217  1.00  0.00     0.029 A 
ATOM     45  N   UNL A   1      43.393  27.157  27.132  1.00  0.00    -0.354 N 
ATOM     46  C   UNL A   1      40.045  28.684  29.413  1.00  0.00     0.074 A 
ATOM     47  C   UNL A   1      38.966  27.718  29.442  1.00  0.00     0.031 C 
ATOM     48  C   UNL A   1      44.543  25.638  25.969  1.00  0.00     0.029 A 
ATOM     49  C   UNL A   1      44.612  26.991  26.518  1.00  0.00     0.049 A 
ATOM     50  H   UNL A   1      43.148  27.972  27.628  1.00  0.00     0.167 HD
ATOM     51  C   UNL A   1      40.028  29.874  30.064  1.00  0.00     0.034 A 
ATOM     52  C   UNL A   1      45.654  27.839  26.394  1.00  0.00     0.034 A 
ATOM     53  C   UNL A   1      41.110  30.831  30.017  1.00  0.00     0.049 A 
ATOM     54  C   UNL A   1      45.563  29.211  27.023  1.00  0.00     0.074 A 
ATOM     55  C   UNL A   1      41.193  32.071  30.626  1.00  0.00     0.029 A 
ATOM     56  N   UNL A   1      42.298  30.660  29.315  1.00  0.00    -0.354 N 
ATOM     57  N   UNL A   1      44.596  29.733  27.742  1.00  0.00    -0.248 NA
ATOM     58  C   UNL A   1      46.711  30.103  26.824  1.00  0.00     0.031 C 
ATOM     59  C   UNL A   1      42.377  32.690  30.212  1.00  0.00     0.029 A 
ATOM     60  C   UNL A   1      43.091  31.795  29.431  1.00  0.00     0.049 A 
ATOM     61  H   UNL A   1      42.542  29.851  28.808  1.00  0.00     0.167 HD
ATOM     62  C   UNL A   1      45.038  31.002  28.111  1.00  0.00     0.074 A 
ATOM     63  C   UNL A   1      46.365  31.153  27.553  1.00  0.00     0.031 C 
ATOM     64  C   UNL A   1      44.406  31.955  28.848  1.00  0.00     0.034 A 
BRANCH  51  65
ATOM     65  C   UNL A   1      38.767  30.232  30.819  1.00  0.00     0.023 A 
ATOM     66  C   UNL A   1      37.745  31.007  30.242  1.00  0.00     0.031 A 
ATOM     67  C   UNL A   1      38.608  29.832  32.159  1.00  0.00     0.131 A 
ATOM     68  C   UNL A   1      36.660  31.431  31.026  1.00  0.00     0.055 A 
ATOM     69  C   UNL A   1      37.477  30.174  32.903  1.00  0.00     0.041 A 
ATOM     70  F   UNL A   1      39.560  29.114  32.777  1.00  0.00    -0.206 F 
ATOM     71  C   UNL A   1      36.504  30.995  32.343  1.00  0.00     0.022 A 
BRANCH  68  72
ATOM     72  S   UNL A   1      35.556  32.709  30.361  1.00  0.00     0.124 S 
ATOM     73  O   UNL A   1      34.405  32.601  31.252  1.00  0.00    -0.237 OA
ATOM     74  O   UNL A   1      36.357  33.920  30.493  1.00  0.00    -0.237 OA
ATOM     75  O   UNL A   1      35.311  32.271  28.988  1.00  0.00    -0.744 OA
ENDBRANCH  68  72
ENDBRANCH  51  65
BRANCH  52  76
ATOM     76  C   UNL A   1      46.860  27.447  25.605  1.00  0.00     0.023 A 
ATOM     77  C   UNL A   1      47.023  27.847  24.269  1.00  0.00     0.031 A 
ATOM     78  C   UNL A   1      47.842  26.610  26.165  1.00  0.00     0.131 A 
ATOM     79  C   UNL A   1      48.118  27.379  23.526  1.00  0.00     0.055 A 
ATOM     80  C   UNL A   1      48.963  26.198  25.441  1.00  0.00     0.041 A 
ATOM     81  F   UNL A   1      47.732  26.184  27.433  1.00  0.00    -0.206 F 
ATOM     82  C   UNL A   1      49.100  26.573  24.109  1.00  0.00     0.022 A 
BRANCH  79  83
ATOM     83  S   UNL A   1      48.201  27.762  21.754  1.00  0.00     0.124 S 
ATOM     84  O   UNL A   1      49.344  28.665  21.698  1.00  0.00    -0.237 OA
ATOM     85  O   UNL A   1      48.396  26.440  21.166  1.00  0.00    -0.237 OA
ATOM     86  O   UNL A   1      46.904  28.377  21.477  1.00  0.00    -0.744 OA
ENDBRANCH  79  83
ENDBRANCH  52  76
BRANCH  64  87
ATOM     87  C   UNL A   1      45.169  33.234  29.119  1.00  0.00     0.023 A 
ATOM     88  C   UNL A   1      46.141  33.316  30.133  1.00  0.00     0.031 A 
ATOM     89  C   UNL A   1      44.885  34.404  28.391  1.00  0.00     0.131 A 
ATOM     90  C   UNL A   1      46.719  34.555  30.455  1.00  0.00     0.055 A 
ATOM     91  C   UNL A   1      45.530  35.613  28.654  1.00  0.00     0.041 A 
ATOM     92  F   UNL A   1      43.966  34.396  27.413  1.00  0.00    -0.206 F 
ATOM     93  C   UNL A   1      46.436  35.700  29.707  1.00  0.00     0.022 A 
BRANCH  90  94
ATOM     94  S   UNL A   1      47.713  34.682  31.967  1.00  0.00     0.124 S 
ATOM     95  O   UNL A   1      47.061  35.787  32.664  1.00  0.00    -0.237 OA
ATOM     96  O   UNL A   1      47.543  33.363  32.565  1.00  0.00    -0.237 OA
ATOM     97  O   UNL A   1      49.057  34.970  31.471  1.00  0.00    -0.744 OA
ENDBRANCH  90  94
ENDBRANCH  64  87
ENDBRANCH  38  39
ENDBRANCH  31  33
ENDBRANCH  30  31
ENDBRANCH  29  30
ENDBRANCH  28  29
ENDBRANCH  27  28
ENDBRANCH   1  27
TORSDOF 23
ENDMDL
MODEL 2
REMARK VINA RESULT:     -10.7      1.902      2.174
REMARK SMILES N#C[C@H]1CN(c2cc(C(=O)OCCOCCOCCOC(=O)c3ccc(-c4c5nc(c(-c6cc(S(=O)(=O)[O-])ccc6F)c6ccc([nH]6)c(-c6cc(S(=O)(=O)[O-])ccc6F)c6nc(c(-c7cc(S(=O)(=O)[O-])ccc7F)c7ccc4[nH]7)C=C6)C=C5)cc3)c(N)cc2F)CCO1
REMARK SMILES IDX 16 1 15 2 14 3 13 4 12 5 11 6 9 7 10 8 8 9 6 10 7 11 89 12
REMARK SMILES IDX 88 13 90 14 86 15 5 16 3 17 4 18 93 19 92 20 91 21 2 22 1 23
REMARK SMILES IDX 87 24 17 27 18 28 19 29 20 30 21 31 22 32 23 33 24 34 85 35
REMARK SMILES IDX 25 36 84 37 26 38 27 39 28 40 78 41 29 42 83 43 77 44 79 45
REMARK SMILES IDX 30 46 82 47 76 48 75 49 31 51 63 52 43 53 62 54 44 55 47 56
REMARK SMILES IDX 61 57 80 58 45 59 46 60 60 62 81 63 48 64 32 65 33 66 41 67
REMARK SMILES IDX 34 68 40 69 42 70 39 71 35 72 36 73 37 74 38 75 64 76 65 77
REMARK SMILES IDX 73 78 66 79 72 80 74 81 71 82 67 83 68 84 69 85 70 86 49 87
REMARK SMILES IDX 50 88 58 89 51 90 57 91 59 92 56 93 52 94 53 95 54 96 55 97
REMARK H PARENT 87 25 87 26 79 50 47 61
REMARK Flexibility Score: inf
ROOT
ATOM      1  C   UNL A   1      32.983  19.944  24.140  1.00  0.00     0.188 C 
ENDROOT
BRANCH   1   2
ATOM      2  C   UNL A   1      32.585  21.001  25.191  1.00  0.00     0.188 C 
BRANCH   2   3
ATOM      3  O   UNL A   1      32.651  22.372  24.844  1.00  0.00    -0.376 OA
BRANCH   3   4
ATOM      4  C   UNL A   1      33.862  22.938  24.368  1.00  0.00     0.202 C 
BRANCH   4   5
ATOM      5  C   UNL A   1      34.178  23.180  22.877  1.00  0.00     0.261 C 
BRANCH   5   6
ATOM      6  O   UNL A   1      33.077  23.528  22.028  1.00  0.00    -0.460 OA
BRANCH   6   7
ATOM      7  C   UNL A   1      32.869  24.860  21.838  1.00  0.00     0.340 C 
ATOM      8  O   UNL A   1      33.079  25.477  20.807  1.00  0.00    -0.246 OA
BRANCH   7   9
ATOM      9  C   UNL A   1      32.160  25.450  23.007  1.00  0.00     0.085 A 
ATOM     10  C   UNL A   1      32.189  27.221  24.702  1.00  0.00     0.074 A 
ATOM     11  C   UNL A   1      32.731  26.616  23.565  1.00  0.00     0.047 A 
ATOM     12  C   UNL A   1      31.070  26.605  25.279  1.00  0.00     0.148 A 
ATOM     13  C   UNL A   1      30.469  25.480  24.713  1.00  0.00     0.067 A 
ATOM     14  F   UNL A   1      30.542  27.109  26.407  1.00  0.00    -0.205 F 
ATOM     15  C   UNL A   1      30.964  24.922  23.531  1.00  0.00     0.049 A 
BRANCH  10  16
ATOM     16  N   UNL A   1      32.773  28.331  25.261  1.00  0.00    -0.363 N 
ATOM     17  C   UNL A   1      32.143  30.273  26.671  1.00  0.00     0.240 C 
ATOM     18  C   UNL A   1      32.162  29.670  25.241  1.00  0.00     0.164 C 
ATOM     19  O   UNL A   1      33.449  30.210  27.285  1.00  0.00    -0.360 OA
ATOM     20  C   UNL A   1      33.905  28.851  27.373  1.00  0.00     0.183 C 
ATOM     21  C   UNL A   1      34.041  28.212  25.985  1.00  0.00     0.145 C 
BRANCH  17  22
ATOM     22  C   UNL A   1      31.653  31.658  26.633  1.00  0.00     0.096 C 
ATOM     23  N   UNL A   1      31.236  32.743  26.681  1.00  0.00    -0.195 NA
ENDBRANCH  17  22
ENDBRANCH  10  16
BRANCH  15  24
ATOM     24  N   UNL A   1      30.332  23.793  23.007  1.00  0.00    -0.398 N 
ATOM     25  H   UNL A   1      30.208  22.994  23.569  1.00  0.00     0.156 HD
ATOM     26  H   UNL A   1      30.010  23.795  22.077  1.00  0.00     0.156 HD
ENDBRANCH  15  24
ENDBRANCH   7   9
ENDBRANCH   6   7
ENDBRANCH   5   6
ENDBRANCH   4   5
ENDBRANCH   3   4
ENDBRANCH   2   3
ENDBRANCH   1   2
BRANCH   1  27
ATOM     27  O   UNL A   1      34.215  19.301  24.367  1.00  0.00    -0.376 OA
BRANCH  27  28
ATOM     28  C   UNL A   1      35.212  19.970  25.121  1.00  0.00     0.202 C 
BRANCH  28  29
ATOM     29  C   UNL A   1      36.730  20.003  24.812  1.00  0.00     0.261 C 
BRANCH  29  30
ATOM     30  O   UNL A   1      37.526  21.096  25.284  1.00  0.00    -0.460 OA
BRANCH  30  31
ATOM     31  C   UNL A   1      38.731  20.769  25.817  1.00  0.00     0.338 C 
ATOM     32  O   UNL A   1      39.306  19.700  25.706  1.00  0.00    -0.246 OA
BRANCH  31  33
ATOM     33  C   UNL A   1      39.362  21.986  26.376  1.00  0.00     0.060 A 
ATOM     34  C   UNL A   1      38.809  23.232  26.051  1.00  0.00     0.016 A 
ATOM     35  C   UNL A   1      40.509  21.911  27.169  1.00  0.00     0.016 A 
ATOM     36  C   UNL A   1      39.415  24.402  26.505  1.00  0.00     0.010 A 
ATOM     37  C   UNL A   1      41.121  23.094  27.611  1.00  0.00     0.010 A 
ATOM     38  C   UNL A   1      40.590  24.348  27.264  1.00  0.00    -0.014 A 
BRANCH  38  39
ATOM     39  C   UNL A   1      41.317  25.614  27.546  1.00  0.00     0.031 A 
ATOM     40  C   UNL A   1      40.627  26.691  28.341  1.00  0.00     0.074 A 
ATOM     41  C   UNL A   1      42.604  25.770  27.179  1.00  0.00     0.049 A 
ATOM     42  N   UNL A   1      41.059  27.873  28.700  1.00  0.00    -0.248 NA
ATOM     43  C   UNL A   1      39.256  26.394  28.776  1.00  0.00     0.031 C 
ATOM     44  C   UNL A   1      43.404  24.776  26.467  1.00  0.00     0.029 A 
ATOM     45  N   UNL A   1      43.467  26.819  27.373  1.00  0.00    -0.354 N 
ATOM     46  C   UNL A   1      40.019  28.456  29.417  1.00  0.00     0.074 A 
ATOM     47  C   UNL A   1      38.913  27.522  29.378  1.00  0.00     0.031 C 
ATOM     48  C   UNL A   1      44.647  25.259  26.298  1.00  0.00     0.029 A 
ATOM     49  C   UNL A   1      44.718  26.614  26.843  1.00  0.00     0.049 A 
ATOM     50  H   UNL A   1      43.213  27.643  27.847  1.00  0.00     0.167 HD
ATOM     51  C   UNL A   1      39.993  29.652  30.059  1.00  0.00     0.034 A 
ATOM     52  C   UNL A   1      45.791  27.431  26.785  1.00  0.00     0.034 A 
ATOM     53  C   UNL A   1      41.104  30.576  30.080  1.00  0.00     0.049 A 
ATOM     54  C   UNL A   1      45.698  28.809  27.399  1.00  0.00     0.074 A 
ATOM     55  C   UNL A   1      41.181  31.818  30.687  1.00  0.00     0.029 A 
ATOM     56  N   UNL A   1      42.330  30.367  29.459  1.00  0.00    -0.354 N 
ATOM     57  N   UNL A   1      44.700  29.364  28.049  1.00  0.00    -0.248 NA
ATOM     58  C   UNL A   1      46.882  29.666  27.273  1.00  0.00     0.031 C 
ATOM     59  C   UNL A   1      42.408  32.399  30.350  1.00  0.00     0.029 A 
ATOM     60  C   UNL A   1      43.146  31.480  29.623  1.00  0.00     0.049 A 
ATOM     61  H   UNL A   1      42.584  29.548  28.975  1.00  0.00     0.167 HD
ATOM     62  C   UNL A   1      45.153  30.622  28.441  1.00  0.00     0.074 A 
ATOM     63  C   UNL A   1      46.519  30.731  27.972  1.00  0.00     0.031 C 
ATOM     64  C   UNL A   1      44.501  31.597  29.129  1.00  0.00     0.034 A 
BRANCH  51  65
ATOM     65  C   UNL A   1      38.695  30.050  30.725  1.00  0.00     0.023 A 
ATOM     66  C   UNL A   1      37.743  30.861  30.083  1.00  0.00     0.031 A 
ATOM     67  C   UNL A   1      38.429  29.652  32.049  1.00  0.00     0.131 A 
ATOM     68  C   UNL A   1      36.621  31.320  30.791  1.00  0.00     0.055 A 
ATOM     69  C   UNL A   1      37.262  30.031  32.714  1.00  0.00     0.041 A 
ATOM     70  F   UNL A   1      39.310  28.901  32.729  1.00  0.00    -0.206 F 
ATOM     71  C   UNL A   1      36.359  30.887  32.092  1.00  0.00     0.022 A 
BRANCH  68  72
ATOM     72  S   UNL A   1      35.611  32.638  30.057  1.00  0.00     0.124 S 
ATOM     73  O   UNL A   1      36.420  33.822  30.334  1.00  0.00    -0.237 OA
ATOM     74  O   UNL A   1      35.526  32.233  28.660  1.00  0.00    -0.237 OA
ATOM     75  O   UNL A   1      34.357  32.566  30.805  1.00  0.00    -0.744 OA
ENDBRANCH  68  72
ENDBRANCH  51  65
BRANCH  52  76
ATOM     76  C   UNL A   1      47.035  26.999  26.081  1.00  0.00     0.023 A 
ATOM     77  C   UNL A   1      48.063  26.323  26.759  1.00  0.00     0.031 A 
ATOM     78  C   UNL A   1      47.239  27.313  24.725  1.00  0.00     0.131 A 
ATOM     79  C   UNL A   1      49.260  26.020  26.092  1.00  0.00     0.055 A 
ATOM     80  C   UNL A   1      48.406  26.954  24.049  1.00  0.00     0.041 A 
ATOM     81  F   UNL A   1      46.297  27.971  24.030  1.00  0.00    -0.206 F 
ATOM     82  C   UNL A   1      49.431  26.313  24.737  1.00  0.00     0.022 A 
BRANCH  79  83
ATOM     83  S   UNL A   1      50.636  25.316  27.043  1.00  0.00     0.124 S 
ATOM     84  O   UNL A   1      49.957  24.304  27.844  1.00  0.00    -0.237 OA
ATOM     85  O   UNL A   1      51.513  24.819  25.987  1.00  0.00    -0.237 OA
ATOM     86  O   UNL A   1      51.155  26.460  27.791  1.00  0.00    -0.744 OA
ENDBRANCH  79  83
ENDBRANCH  52  76
BRANCH  64  87
ATOM     87  C   UNL A   1      45.281  32.856  29.444  1.00  0.00     0.023 A 
ATOM     88  C   UNL A   1      45.268  33.971  28.586  1.00  0.00     0.031 A 
ATOM     89  C   UNL A   1      46.093  32.926  30.591  1.00  0.00     0.131 A 
ATOM     90  C   UNL A   1      46.120  35.059  28.833  1.00  0.00     0.055 A 
ATOM     91  C   UNL A   1      46.869  34.049  30.881  1.00  0.00     0.041 A 
ATOM     92  F   UNL A   1      46.155  31.896  31.451  1.00  0.00    -0.206 F 
ATOM     93  C   UNL A   1      46.904  35.115  29.988  1.00  0.00     0.022 A 
BRANCH  90  94
ATOM     94  S   UNL A   1      46.315  36.319  27.543  1.00  0.00     0.124 S 
ATOM     95  O   UNL A   1      47.214  37.273  28.186  1.00  0.00    -0.237 OA
ATOM     96  O   UNL A   1      46.882  35.552  26.440  1.00  0.00    -0.237 OA
ATOM     97  O   UNL A   1      44.952  36.802  27.326  1.00  0.00    -0.744 OA
ENDBRANCH  90  94
ENDBRANCH  64  87
ENDBRANCH  38  39
ENDBRANCH  31  33
ENDBRANCH  30  31
ENDBRANCH  29  30
ENDBRANCH  28  29
ENDBRANCH  27  28
ENDBRANCH   1  27
TORSDOF 23
ENDMDL
MODEL 3
REMARK VINA RESULT:     -10.4      2.216      2.746
REMARK SMILES N#C[C@H]1CN(c2cc(C(=O)OCCOCCOCCOC(=O)c3ccc(-c4c5nc(c(-c6cc(S(=O)(=O)[O-])ccc6F)c6ccc([nH]6)c(-c6cc(S(=O)(=O)[O-])ccc6F)c6nc(c(-c7cc(S(=O)(=O)[O-])ccc7F)c7ccc4[nH]7)C=C6)C=C5)cc3)c(N)cc2F)CCO1
REMARK SMILES IDX 16 1 15 2 14 3 13 4 12 5 11 6 9 7 10 8 8 9 6 10 7 11 89 12
REMARK SMILES IDX 88 13 90 14 86 15 5 16 3 17 4 18 93 19 92 20 91 21 2 22 1 23
REMARK SMILES IDX 87 24 17 27 18 28 19 29 20 30 21 31 22 32 23 33 24 34 85 35
REMARK SMILES IDX 25 36 84 37 26 38 27 39 28 40 78 41 29 42 83 43 77 44 79 45
REMARK SMILES IDX 30 46 82 47 76 48 75 49 31 51 63 52 43 53 62 54 44 55 47 56
REMARK SMILES IDX 61 57 80 58 45 59 46 60 60 62 81 63 48 64 32 65 33 66 41 67
REMARK SMILES IDX 34 68 40 69 42 70 39 71 35 72 36 73 37 74 38 75 64 76 65 77
REMARK SMILES IDX 73 78 66 79 72 80 74 81 71 82 67 83 68 84 69 85 70 86 49 87
REMARK SMILES IDX 50 88 58 89 51 90 57 91 59 92 56 93 52 94 53 95 54 96 55 97
REMARK H PARENT 87 25 87 26 79 50 47 61
REMARK Flexibility Score: inf
ROOT
ATOM      1  C   UNL A   1      34.073  21.985  25.402  1.00  0.00     0.188 C 
ENDROOT
BRANCH   1   2
ATOM      2  C   UNL A   1      34.375  22.536  23.992  1.00  0.00     0.188 C 
BRANCH   2   3
ATOM      3  O   UNL A   1      33.299  22.968  23.180  1.00  0.00    -0.376 OA
BRANCH   3   4
ATOM      4  C   UNL A   1      31.957  22.733  23.576  1.00  0.00     0.202 C 
BRANCH   4   5
ATOM      5  C   UNL A   1      30.834  23.788  23.503  1.00  0.00     0.261 C 
BRANCH   5   6
ATOM      6  O   UNL A   1      30.451  24.417  24.732  1.00  0.00    -0.460 OA
BRANCH   6   7
ATOM      7  C   UNL A   1      31.383  25.230  25.301  1.00  0.00     0.340 C 
ATOM      8  O   UNL A   1      32.071  24.960  26.271  1.00  0.00    -0.246 OA
BRANCH   7   9
ATOM      9  C   UNL A   1      31.603  26.441  24.462  1.00  0.00     0.085 A 
ATOM     10  C   UNL A   1      30.581  28.470  23.541  1.00  0.00     0.074 A 
ATOM     11  C   UNL A   1      30.512  27.333  24.352  1.00  0.00     0.047 A 
ATOM     12  C   UNL A   1      31.768  28.670  22.823  1.00  0.00     0.148 A 
ATOM     13  C   UNL A   1      32.868  27.821  22.957  1.00  0.00     0.067 A 
ATOM     14  F   UNL A   1      31.869  29.713  21.983  1.00  0.00    -0.205 F 
ATOM     15  C   UNL A   1      32.827  26.730  23.829  1.00  0.00     0.049 A 
BRANCH  10  16
ATOM     16  N   UNL A   1      29.503  29.311  23.408  1.00  0.00    -0.363 N 
ATOM     17  C   UNL A   1      28.990  31.576  22.537  1.00  0.00     0.240 C 
ATOM     18  C   UNL A   1      29.548  30.747  23.724  1.00  0.00     0.164 C 
ATOM     19  O   UNL A   1      27.698  31.087  22.116  1.00  0.00    -0.360 OA
ATOM     20  C   UNL A   1      27.783  29.713  21.707  1.00  0.00     0.183 C 
ATOM     21  C   UNL A   1      28.240  28.810  22.860  1.00  0.00     0.145 C 
BRANCH  17  22
ATOM     22  C   UNL A   1      28.913  32.999  22.901  1.00  0.00     0.096 C 
ATOM     23  N   UNL A   1      28.769  34.118  23.182  1.00  0.00    -0.195 NA
ENDBRANCH  17  22
ENDBRANCH  10  16
BRANCH  15  24
ATOM     24  N   UNL A   1      33.951  25.907  23.925  1.00  0.00    -0.398 N 
ATOM     25  H   UNL A   1      33.853  24.973  24.222  1.00  0.00     0.156 HD
ATOM     26  H   UNL A   1      34.841  26.260  23.697  1.00  0.00     0.156 HD
ENDBRANCH  15  24
ENDBRANCH   7   9
ENDBRANCH   6   7
ENDBRANCH   5   6
ENDBRANCH   4   5
ENDBRANCH   3   4
ENDBRANCH   2   3
ENDBRANCH   1   2
BRANCH   1  27
ATOM     27  O   UNL A   1      34.872  20.899  25.809  1.00  0.00    -0.376 OA
BRANCH  27  28
ATOM     28  C   UNL A   1      35.792  20.337  24.888  1.00  0.00     0.202 C 
BRANCH  28  29
ATOM     29  C   UNL A   1      37.332  20.506  24.908  1.00  0.00     0.261 C 
BRANCH  29  30
ATOM     30  O   UNL A   1      37.920  21.544  25.699  1.00  0.00    -0.460 OA
BRANCH  30  31
ATOM     31  C   UNL A   1      39.170  21.299  26.170  1.00  0.00     0.338 C 
ATOM     32  O   UNL A   1      39.802  20.265  26.042  1.00  0.00    -0.246 OA
BRANCH  31  33
ATOM     33  C   UNL A   1      39.753  22.559  26.682  1.00  0.00     0.060 A 
ATOM     34  C   UNL A   1      39.317  23.769  26.126  1.00  0.00     0.016 A 
ATOM     35  C   UNL A   1      40.749  22.554  27.661  1.00  0.00     0.016 A 
ATOM     36  C   UNL A   1      39.891  24.971  26.536  1.00  0.00     0.010 A 
ATOM     37  C   UNL A   1      41.333  23.766  28.059  1.00  0.00     0.010 A 
ATOM     38  C   UNL A   1      40.922  24.981  27.483  1.00  0.00    -0.014 A 
BRANCH  38  39
ATOM     39  C   UNL A   1      41.648  26.254  27.735  1.00  0.00     0.031 A 
ATOM     40  C   UNL A   1      40.990  27.317  28.576  1.00  0.00     0.074 A 
ATOM     41  C   UNL A   1      42.910  26.429  27.299  1.00  0.00     0.049 A 
ATOM     42  N   UNL A   1      41.427  28.502  28.920  1.00  0.00    -0.248 NA
ATOM     43  C   UNL A   1      39.649  26.999  29.084  1.00  0.00     0.031 C 
ATOM     44  C   UNL A   1      43.682  25.451  26.535  1.00  0.00     0.029 A 
ATOM     45  N   UNL A   1      43.770  27.488  27.453  1.00  0.00    -0.354 N 
ATOM     46  C   UNL A   1      40.422  29.066  29.698  1.00  0.00     0.074 A 
ATOM     47  C   UNL A   1      39.327  28.118  29.713  1.00  0.00     0.031 C 
ATOM     48  C   UNL A   1      44.907  25.951  26.301  1.00  0.00     0.029 A 
ATOM     49  C   UNL A   1      44.992  27.302  26.852  1.00  0.00     0.049 A 
ATOM     50  H   UNL A   1      43.533  28.306  27.947  1.00  0.00     0.167 HD
ATOM     51  C   UNL A   1      40.417  30.256  30.350  1.00  0.00     0.034 A 
ATOM     52  C   UNL A   1      46.049  28.133  26.741  1.00  0.00     0.034 A 
ATOM     53  C   UNL A   1      41.515  31.195  30.317  1.00  0.00     0.049 A 
ATOM     54  C   UNL A   1      45.974  29.506  27.371  1.00  0.00     0.074 A 
ATOM     55  C   UNL A   1      41.611  32.433  30.928  1.00  0.00     0.029 A 
ATOM     56  N   UNL A   1      42.708  31.006  29.627  1.00  0.00    -0.354 N 
ATOM     57  N   UNL A   1      45.007  30.043  28.080  1.00  0.00    -0.248 NA
ATOM     58  C   UNL A   1      47.139  30.379  27.186  1.00  0.00     0.031 C 
ATOM     59  C   UNL A   1      42.810  33.032  30.528  1.00  0.00     0.029 A 
ATOM     60  C   UNL A   1      43.518  32.127  29.754  1.00  0.00     0.049 A 
ATOM     61  H   UNL A   1      42.945  30.194  29.123  1.00  0.00     0.167 HD
ATOM     62  C   UNL A   1      45.466  31.304  28.456  1.00  0.00     0.074 A 
ATOM     63  C   UNL A   1      46.802  31.434  27.912  1.00  0.00     0.031 C 
ATOM     64  C   UNL A   1      44.842  32.266  29.187  1.00  0.00     0.034 A 
BRANCH  51  65
ATOM     65  C   UNL A   1      39.153  30.634  31.091  1.00  0.00     0.023 A 
ATOM     66  C   UNL A   1      38.129  31.386  30.488  1.00  0.00     0.031 A 
ATOM     67  C   UNL A   1      38.993  30.276  32.444  1.00  0.00     0.131 A 
ATOM     68  C   UNL A   1      37.042  31.831  31.256  1.00  0.00     0.055 A 
ATOM     69  C   UNL A   1      37.860  30.639  33.174  1.00  0.00     0.041 A 
ATOM     70  F   UNL A   1      39.947  29.582  33.086  1.00  0.00    -0.206 F 
ATOM     71  C   UNL A   1      36.886  31.438  32.587  1.00  0.00     0.022 A 
BRANCH  68  72
ATOM     72  S   UNL A   1      35.935  33.084  30.549  1.00  0.00     0.124 S 
ATOM     73  O   UNL A   1      36.117  34.199  31.475  1.00  0.00    -0.237 OA
ATOM     74  O   UNL A   1      36.479  33.268  29.209  1.00  0.00    -0.237 OA
ATOM     75  O   UNL A   1      34.618  32.450  30.606  1.00  0.00    -0.744 OA
ENDBRANCH  68  72
ENDBRANCH  51  65
BRANCH  52  76
ATOM     76  C   UNL A   1      47.258  27.722  25.965  1.00  0.00     0.023 A 
ATOM     77  C   UNL A   1      47.361  27.966  24.586  1.00  0.00     0.031 A 
ATOM     78  C   UNL A   1      48.306  27.021  26.588  1.00  0.00     0.131 A 
ATOM     79  C   UNL A   1      48.464  27.478  23.869  1.00  0.00     0.055 A 
ATOM     80  C   UNL A   1      49.432  26.593  25.883  1.00  0.00     0.041 A 
ATOM     81  F   UNL A   1      48.256  26.746  27.902  1.00  0.00    -0.206 F 
ATOM     82  C   UNL A   1      49.510  26.810  24.511  1.00  0.00     0.022 A 
BRANCH  79  83
ATOM     83  S   UNL A   1      48.477  27.647  22.062  1.00  0.00     0.124 S 
ATOM     84  O   UNL A   1      47.146  28.184  21.804  1.00  0.00    -0.237 OA
ATOM     85  O   UNL A   1      49.593  28.564  21.850  1.00  0.00    -0.237 OA
ATOM     86  O   UNL A   1      48.701  26.281  21.594  1.00  0.00    -0.744 OA
ENDBRANCH  79  83
ENDBRANCH  52  76
BRANCH  64  87
ATOM     87  C   UNL A   1      45.623  33.532  29.468  1.00  0.00     0.023 A 
ATOM     88  C   UNL A   1      45.642  34.608  28.562  1.00  0.00     0.031 A 
ATOM     89  C   UNL A   1      46.403  33.647  30.633  1.00  0.00     0.131 A 
ATOM     90  C   UNL A   1      46.495  35.700  28.785  1.00  0.00     0.055 A 
ATOM     91  C   UNL A   1      47.179  34.777  30.895  1.00  0.00     0.041 A 
ATOM     92  F   UNL A   1      46.433  32.655  31.538  1.00  0.00    -0.206 F 
ATOM     93  C   UNL A   1      47.248  35.802  29.957  1.00  0.00     0.022 A 
BRANCH  90  94
ATOM     94  S   UNL A   1      46.736  36.901  27.446  1.00  0.00     0.124 S 
ATOM     95  O   UNL A   1      45.920  36.330  26.379  1.00  0.00    -0.237 OA
ATOM     96  O   UNL A   1      46.235  38.135  28.040  1.00  0.00    -0.237 OA
ATOM     97  O   UNL A   1      48.177  36.867  27.209  1.00  0.00    -0.744 OA
ENDBRANCH  90  94
ENDBRANCH  64  87
ENDBRANCH  38  39
ENDBRANCH  31  33
ENDBRANCH  30  31
ENDBRANCH  29  30
ENDBRANCH  28  29
ENDBRANCH  27  28
ENDBRANCH   1  27
TORSDOF 23
ENDMDL
