MODEL 1
REMARK VINA RESULT:     -11.0      0.000      0.000
REMARK SMILES O=C(OCCOCCOCCOC(=O)C1(C/C=C/c2ccccc2)Cc2ccccc2C1)c1ccc(-c2c3nc(c(-c4cc(S(=O)(=O)[O-])ccc4F)c4ccc([nH]4)c(-c4cc(S(=O)(=O)[O-])ccc4F)c4nc(c(-c5cc(S(=O)(=O)[O-])ccc5F)c5ccc2[nH]5)C=C4)C=C3)cc1
REMARK SMILES IDX 7 1 6 2 5 3 4 4 3 5 2 6 1 7 33 8 34 9 95 10 35 11 94 12
REMARK SMILES IDX 36 13 37 14 38 15 88 16 39 17 93 18 87 19 89 20 40 21 92 22
REMARK SMILES IDX 86 23 85 24 41 26 73 27 53 28 72 29 54 30 57 31 71 32 90 33
REMARK SMILES IDX 55 34 56 35 70 37 91 38 58 39 42 40 43 41 51 42 44 43 50 44
REMARK SMILES IDX 52 45 49 46 45 47 46 48 47 49 48 50 74 51 75 52 83 53 76 54
REMARK SMILES IDX 82 55 84 56 81 57 77 58 78 59 79 60 80 61 59 62 60 63 68 64
REMARK SMILES IDX 61 65 67 66 69 67 66 68 62 69 63 70 64 71 65 72 8 73 9 74
REMARK SMILES IDX 10 75 11 76 12 77 13 78 14 79 15 80 25 81 32 82 26 83 31 84
REMARK SMILES IDX 27 85 30 86 28 87 29 88 16 89 17 90 18 91 19 92 20 93 24 94
REMARK SMILES IDX 21 95 23 96 22 97
REMARK H PARENT 89 25 57 36
REMARK Flexibility Score: inf
ROOT
ATOM      1  C   UNL A   1      35.244  21.082  25.266  1.00  0.00     0.188 C 
ENDROOT
BRANCH   1   2
ATOM      2  O   UNL A   1      36.283  20.140  24.970  1.00  0.00    -0.376 OA
BRANCH   2   3
ATOM      3  C   UNL A   1      37.598  20.696  25.064  1.00  0.00     0.202 C 
BRANCH   3   4
ATOM      4  C   UNL A   1      38.716  19.653  25.190  1.00  0.00     0.261 C 
BRANCH   4   5
ATOM      5  O   UNL A   1      39.437  19.775  26.424  1.00  0.00    -0.460 OA
BRANCH   5   6
ATOM      6  C   UNL A   1      40.638  20.368  26.641  1.00  0.00     0.338 C 
ATOM      7  O   UNL A   1      41.643  19.660  26.570  1.00  0.00    -0.246 OA
BRANCH   6   8
ATOM      8  C   UNL A   1      40.833  21.830  26.930  1.00  0.00     0.060 A 
ATOM      9  C   UNL A   1      40.299  22.897  26.203  1.00  0.00     0.016 A 
ATOM     10  C   UNL A   1      41.601  22.147  28.066  1.00  0.00     0.016 A 
ATOM     11  C   UNL A   1      40.606  24.222  26.511  1.00  0.00     0.010 A 
ATOM     12  C   UNL A   1      41.869  23.478  28.415  1.00  0.00     0.010 A 
ATOM     13  C   UNL A   1      41.402  24.526  27.611  1.00  0.00    -0.014 A 
BRANCH  13  14
ATOM     14  C   UNL A   1      41.840  25.923  27.833  1.00  0.00     0.031 A 
ATOM     15  C   UNL A   1      43.247  26.293  27.476  1.00  0.00     0.074 A 
ATOM     16  C   UNL A   1      40.979  26.863  28.271  1.00  0.00     0.049 A 
ATOM     17  N   UNL A   1      43.854  27.441  27.606  1.00  0.00    -0.248 NA
ATOM     18  C   UNL A   1      44.063  25.242  26.848  1.00  0.00     0.031 C 
ATOM     19  C   UNL A   1      39.557  26.653  28.503  1.00  0.00     0.029 A 
ATOM     20  N   UNL A   1      41.169  28.173  28.624  1.00  0.00    -0.354 N 
ATOM     21  C   UNL A   1      45.099  27.271  27.017  1.00  0.00     0.074 A 
ATOM     22  C   UNL A   1      45.195  25.885  26.615  1.00  0.00     0.031 C 
ATOM     23  C   UNL A   1      39.021  27.736  29.083  1.00  0.00     0.029 A 
ATOM     24  C   UNL A   1      40.063  28.737  29.224  1.00  0.00     0.049 A 
ATOM     25  H   UNL A   1      42.009  28.661  28.467  1.00  0.00     0.167 HD
ATOM     26  C   UNL A   1      46.053  28.206  26.792  1.00  0.00     0.034 A 
ATOM     27  C   UNL A   1      39.922  29.921  29.845  1.00  0.00     0.034 A 
ATOM     28  C   UNL A   1      45.950  29.565  27.258  1.00  0.00     0.049 A 
ATOM     29  C   UNL A   1      41.079  30.868  29.808  1.00  0.00     0.074 A 
ATOM     30  C   UNL A   1      46.864  30.595  27.140  1.00  0.00     0.029 A 
ATOM     31  N   UNL A   1      44.862  30.078  27.958  1.00  0.00    -0.354 N 
ATOM     32  N   UNL A   1      42.264  30.692  29.272  1.00  0.00    -0.248 NA
ATOM     33  C   UNL A   1      40.869  32.182  30.419  1.00  0.00     0.031 C 
ATOM     34  C   UNL A   1      46.356  31.710  27.821  1.00  0.00     0.029 A 
ATOM     35  C   UNL A   1      45.096  31.398  28.309  1.00  0.00     0.049 A 
ATOM     36  H   UNL A   1      44.042  29.575  28.172  1.00  0.00     0.167 HD
ATOM     37  C   UNL A   1      42.932  31.894  29.442  1.00  0.00     0.074 A 
ATOM     38  C   UNL A   1      42.017  32.781  30.139  1.00  0.00     0.031 C 
ATOM     39  C   UNL A   1      44.179  32.244  29.036  1.00  0.00     0.034 A 
BRANCH  26  40
ATOM     40  C   UNL A   1      47.282  27.746  26.053  1.00  0.00     0.023 A 
ATOM     41  C   UNL A   1      47.444  28.004  24.677  1.00  0.00     0.031 A 
ATOM     42  C   UNL A   1      48.258  26.972  26.700  1.00  0.00     0.131 A 
ATOM     43  C   UNL A   1      48.518  27.431  23.980  1.00  0.00     0.055 A 
ATOM     44  C   UNL A   1      49.362  26.463  26.014  1.00  0.00     0.041 A 
ATOM     45  F   UNL A   1      48.136  26.670  28.001  1.00  0.00    -0.206 F 
ATOM     46  C   UNL A   1      49.489  26.679  24.643  1.00  0.00     0.022 A 
BRANCH  43  47
ATOM     47  S   UNL A   1      48.553  27.572  22.170  1.00  0.00     0.124 S 
ATOM     48  O   UNL A   1      47.251  28.188  21.898  1.00  0.00    -0.237 OA
ATOM     49  O   UNL A   1      49.714  28.404  21.935  1.00  0.00    -0.237 OA
ATOM     50  O   UNL A   1      48.674  26.181  21.722  1.00  0.00    -0.744 OA
ENDBRANCH  43  47
ENDBRANCH  26  40
BRANCH  27  51
ATOM     51  C   UNL A   1      38.686  30.242  30.607  1.00  0.00     0.023 A 
ATOM     52  C   UNL A   1      37.851  31.317  30.271  1.00  0.00     0.031 A 
ATOM     53  C   UNL A   1      38.368  29.486  31.749  1.00  0.00     0.131 A 
ATOM     54  C   UNL A   1      36.746  31.616  31.086  1.00  0.00     0.055 A 
ATOM     55  C   UNL A   1      37.241  29.754  32.524  1.00  0.00     0.041 A 
ATOM     56  F   UNL A   1      39.180  28.494  32.142  1.00  0.00    -0.206 F 
ATOM     57  C   UNL A   1      36.425  30.832  32.198  1.00  0.00     0.022 A 
BRANCH  54  58
ATOM     58  S   UNL A   1      35.777  33.110  30.729  1.00  0.00     0.124 S 
ATOM     59  O   UNL A   1      36.368  34.076  31.646  1.00  0.00    -0.237 OA
ATOM     60  O   UNL A   1      36.054  33.318  29.311  1.00  0.00    -0.237 OA
ATOM     61  O   UNL A   1      34.406  32.710  31.040  1.00  0.00    -0.744 OA
ENDBRANCH  54  58
ENDBRANCH  27  51
BRANCH  39  62
ATOM     62  C   UNL A   1      44.579  33.664  29.317  1.00  0.00     0.023 A 
ATOM     63  C   UNL A   1      45.209  34.021  30.520  1.00  0.00     0.031 A 
ATOM     64  C   UNL A   1      44.252  34.681  28.403  1.00  0.00     0.131 A 
ATOM     65  C   UNL A   1      45.423  35.373  30.814  1.00  0.00     0.055 A 
ATOM     66  C   UNL A   1      44.530  36.019  28.673  1.00  0.00     0.041 A 
ATOM     67  F   UNL A   1      43.640  34.387  27.244  1.00  0.00    -0.206 F 
ATOM     68  C   UNL A   1      45.102  36.374  29.891  1.00  0.00     0.022 A 
BRANCH  65  69
ATOM     69  S   UNL A   1      46.014  35.812  32.470  1.00  0.00     0.124 S 
ATOM     70  O   UNL A   1      47.440  35.515  32.368  1.00  0.00    -0.237 OA
ATOM     71  O   UNL A   1      45.664  37.225  32.563  1.00  0.00    -0.237 OA
ATOM     72  O   UNL A   1      45.256  34.926  33.350  1.00  0.00    -0.744 OA
ENDBRANCH  65  69
ENDBRANCH  39  62
ENDBRANCH  13  14
ENDBRANCH   6   8
ENDBRANCH   5   6
ENDBRANCH   4   5
ENDBRANCH   3   4
ENDBRANCH   2   3
ENDBRANCH   1   2
BRANCH   1  73
ATOM     73  C   UNL A   1      33.890  20.623  24.719  1.00  0.00     0.188 C 
BRANCH  73  74
ATOM     74  O   UNL A   1      32.742  20.984  25.489  1.00  0.00    -0.376 OA
BRANCH  74  75
ATOM     75  C   UNL A   1      32.553  22.370  25.757  1.00  0.00     0.202 C 
BRANCH  75  76
ATOM     76  C   UNL A   1      32.330  23.308  24.561  1.00  0.00     0.261 C 
BRANCH  76  77
ATOM     77  O   UNL A   1      31.193  24.181  24.677  1.00  0.00    -0.463 OA
BRANCH  77  78
ATOM     78  C   UNL A   1      31.067  25.098  23.679  1.00  0.00     0.313 C 
ATOM     79  O   UNL A   1      31.437  24.903  22.523  1.00  0.00    -0.252 OA
BRANCH  78  80
ATOM     80  C   UNL A   1      30.430  26.417  24.116  1.00  0.00     0.079 C 
ATOM     81  C   UNL A   1      31.076  27.695  23.527  1.00  0.00     0.055 C 
ATOM     82  C   UNL A   1      28.998  26.400  23.505  1.00  0.00     0.055 C 
ATOM     83  C   UNL A   1      29.883  28.602  23.413  1.00  0.00    -0.044 A 
ATOM     84  C   UNL A   1      28.703  27.856  23.377  1.00  0.00    -0.044 A 
ATOM     85  C   UNL A   1      29.843  29.982  23.322  1.00  0.00     0.004 A 
ATOM     86  C   UNL A   1      27.466  28.455  23.220  1.00  0.00     0.004 A 
ATOM     87  C   UNL A   1      28.600  30.602  23.179  1.00  0.00     0.000 A 
ATOM     88  C   UNL A   1      27.420  29.844  23.132  1.00  0.00     0.000 A 
BRANCH  80  89
ATOM     89  C   UNL A   1      30.413  26.583  25.664  1.00  0.00     0.047 C 
BRANCH  89  90
ATOM     90  C   UNL A   1      31.626  27.246  26.233  1.00  0.00    -0.025 C 
ATOM     91  C   UNL A   1      31.571  28.440  26.840  1.00  0.00     0.004 C 
BRANCH  91  92
ATOM     92  C   UNL A   1      32.769  29.209  27.169  1.00  0.00    -0.026 A 
ATOM     93  C   UNL A   1      32.698  30.601  27.249  1.00  0.00     0.008 A 
ATOM     94  C   UNL A   1      34.013  28.575  27.291  1.00  0.00     0.008 A 
ATOM     95  C   UNL A   1      33.856  31.348  27.473  1.00  0.00     0.001 A 
ATOM     96  C   UNL A   1      35.167  29.320  27.515  1.00  0.00     0.001 A 
ATOM     97  C   UNL A   1      35.089  30.707  27.606  1.00  0.00     0.000 A 
ENDBRANCH  91  92
ENDBRANCH  89  90
ENDBRANCH  80  89
ENDBRANCH  78  80
ENDBRANCH  77  78
ENDBRANCH  76  77
ENDBRANCH  75  76
ENDBRANCH  74  75
ENDBRANCH  73  74
ENDBRANCH   1  73
TORSDOF 23
ENDMDL
MODEL 2
REMARK VINA RESULT:     -10.8      2.240      3.548
REMARK SMILES O=C(OCCOCCOCCOC(=O)C1(C/C=C/c2ccccc2)Cc2ccccc2C1)c1ccc(-c2c3nc(c(-c4cc(S(=O)(=O)[O-])ccc4F)c4ccc([nH]4)c(-c4cc(S(=O)(=O)[O-])ccc4F)c4nc(c(-c5cc(S(=O)(=O)[O-])ccc5F)c5ccc2[nH]5)C=C4)C=C3)cc1
REMARK SMILES IDX 7 1 6 2 5 3 4 4 3 5 2 6 1 7 33 8 34 9 95 10 35 11 94 12
REMARK SMILES IDX 36 13 37 14 38 15 88 16 39 17 93 18 87 19 89 20 40 21 92 22
REMARK SMILES IDX 86 23 85 24 41 26 73 27 53 28 72 29 54 30 57 31 71 32 90 33
REMARK SMILES IDX 55 34 56 35 70 37 91 38 58 39 42 40 43 41 51 42 44 43 50 44
REMARK SMILES IDX 52 45 49 46 45 47 46 48 47 49 48 50 74 51 75 52 83 53 76 54
REMARK SMILES IDX 82 55 84 56 81 57 77 58 78 59 79 60 80 61 59 62 60 63 68 64
REMARK SMILES IDX 61 65 67 66 69 67 66 68 62 69 63 70 64 71 65 72 8 73 9 74
REMARK SMILES IDX 10 75 11 76 12 77 13 78 14 79 15 80 25 81 32 82 26 83 31 84
REMARK SMILES IDX 27 85 30 86 28 87 29 88 16 89 17 90 18 91 19 92 20 93 24 94
REMARK SMILES IDX 21 95 23 96 22 97
REMARK H PARENT 89 25 57 36
REMARK Flexibility Score: inf
ROOT
ATOM      1  C   UNL A   1      35.656  20.478  25.036  1.00  0.00     0.188 C 
ENDROOT
BRANCH   1   2
ATOM      2  O   UNL A   1      36.803  19.619  24.987  1.00  0.00    -0.376 OA
BRANCH   2   3
ATOM      3  C   UNL A   1      38.033  20.298  25.260  1.00  0.00     0.202 C 
BRANCH   3   4
ATOM      4  C   UNL A   1      39.270  19.392  25.244  1.00  0.00     0.261 C 
BRANCH   4   5
ATOM      5  O   UNL A   1      40.214  19.742  26.266  1.00  0.00    -0.460 OA
BRANCH   5   6
ATOM      6  C   UNL A   1      41.529  20.047  26.127  1.00  0.00     0.338 C 
ATOM      7  O   UNL A   1      42.269  19.178  25.664  1.00  0.00    -0.246 OA
BRANCH   6   8
ATOM      8  C   UNL A   1      42.141  21.377  26.466  1.00  0.00     0.060 A 
ATOM      9  C   UNL A   1      42.572  21.793  27.728  1.00  0.00     0.016 A 
ATOM     10  C   UNL A   1      42.328  22.273  25.396  1.00  0.00     0.016 A 
ATOM     11  C   UNL A   1      43.056  23.082  27.951  1.00  0.00     0.010 A 
ATOM     12  C   UNL A   1      42.865  23.550  25.602  1.00  0.00     0.010 A 
ATOM     13  C   UNL A   1      43.198  23.976  26.895  1.00  0.00    -0.014 A 
BRANCH  13  14
ATOM     14  C   UNL A   1      43.569  25.383  27.172  1.00  0.00     0.031 A 
ATOM     15  C   UNL A   1      44.998  25.792  26.984  1.00  0.00     0.074 A 
ATOM     16  C   UNL A   1      42.639  26.297  27.510  1.00  0.00     0.049 A 
ATOM     17  N   UNL A   1      45.555  26.954  27.189  1.00  0.00    -0.248 NA
ATOM     18  C   UNL A   1      45.911  24.767  26.452  1.00  0.00     0.031 C 
ATOM     19  C   UNL A   1      41.206  26.048  27.573  1.00  0.00     0.029 A 
ATOM     20  N   UNL A   1      42.751  27.608  27.890  1.00  0.00    -0.354 N 
ATOM     21  C   UNL A   1      46.865  26.821  26.750  1.00  0.00     0.074 A 
ATOM     22  C   UNL A   1      47.044  25.441  26.356  1.00  0.00     0.031 C 
ATOM     23  C   UNL A   1      40.576  27.112  28.091  1.00  0.00     0.029 A 
ATOM     24  C   UNL A   1      41.568  28.139  28.358  1.00  0.00     0.049 A 
ATOM     25  H   UNL A   1      43.590  28.119  27.834  1.00  0.00     0.167 HD
ATOM     26  C   UNL A   1      47.813  27.781  26.643  1.00  0.00     0.034 A 
ATOM     27  C   UNL A   1      41.323  29.315  28.963  1.00  0.00     0.034 A 
ATOM     28  C   UNL A   1      47.620  29.135  27.099  1.00  0.00     0.049 A 
ATOM     29  C   UNL A   1      42.452  30.291  29.067  1.00  0.00     0.074 A 
ATOM     30  C   UNL A   1      48.514  30.189  27.093  1.00  0.00     0.029 A 
ATOM     31  N   UNL A   1      46.444  29.614  27.669  1.00  0.00    -0.354 N 
ATOM     32  N   UNL A   1      43.695  30.150  28.672  1.00  0.00    -0.248 NA
ATOM     33  C   UNL A   1      42.136  31.595  29.654  1.00  0.00     0.031 C 
ATOM     34  C   UNL A   1      47.900  31.285  27.715  1.00  0.00     0.029 A 
ATOM     35  C   UNL A   1      46.601  30.936  28.051  1.00  0.00     0.049 A 
ATOM     36  H   UNL A   1      45.619  29.088  27.783  1.00  0.00     0.167 HD
ATOM     37  C   UNL A   1      44.307  31.368  28.924  1.00  0.00     0.074 A 
ATOM     38  C   UNL A   1      43.293  32.225  29.513  1.00  0.00     0.031 C 
ATOM     39  C   UNL A   1      45.583  31.753  28.669  1.00  0.00     0.034 A 
BRANCH  26  40
ATOM     40  C   UNL A   1      49.132  27.359  26.050  1.00  0.00     0.023 A 
ATOM     41  C   UNL A   1      49.470  27.679  24.720  1.00  0.00     0.031 A 
ATOM     42  C   UNL A   1      50.022  26.560  26.784  1.00  0.00     0.131 A 
ATOM     43  C   UNL A   1      50.630  27.141  24.144  1.00  0.00     0.055 A 
ATOM     44  C   UNL A   1      51.211  26.086  26.227  1.00  0.00     0.041 A 
ATOM     45  F   UNL A   1      49.735  26.200  28.044  1.00  0.00    -0.206 F 
ATOM     46  C   UNL A   1      51.514  26.364  24.895  1.00  0.00     0.022 A 
BRANCH  43  47
ATOM     47  S   UNL A   1      50.899  27.364  22.363  1.00  0.00     0.124 S 
ATOM     48  O   UNL A   1      50.979  28.823  22.258  1.00  0.00    -0.237 OA
ATOM     49  O   UNL A   1      52.131  26.638  22.130  1.00  0.00    -0.237 OA
ATOM     50  O   UNL A   1      49.699  26.775  21.761  1.00  0.00    -0.744 OA
ENDBRANCH  43  47
ENDBRANCH  26  40
BRANCH  27  51
ATOM     51  C   UNL A   1      39.999  29.598  29.576  1.00  0.00     0.023 A 
ATOM     52  C   UNL A   1      39.785  29.555  30.962  1.00  0.00     0.031 A 
ATOM     53  C   UNL A   1      38.897  29.853  28.742  1.00  0.00     0.131 A 
ATOM     54  C   UNL A   1      38.488  29.748  31.468  1.00  0.00     0.055 A 
ATOM     55  C   UNL A   1      37.622  30.095  29.252  1.00  0.00     0.041 A 
ATOM     56  F   UNL A   1      39.047  29.832  27.409  1.00  0.00    -0.206 F 
ATOM     57  C   UNL A   1      37.410  30.035  30.625  1.00  0.00     0.022 A 
BRANCH  54  58
ATOM     58  S   UNL A   1      38.204  29.524  33.247  1.00  0.00     0.124 S 
ATOM     59  O   UNL A   1      37.718  30.841  33.641  1.00  0.00    -0.237 OA
ATOM     60  O   UNL A   1      37.221  28.445  33.263  1.00  0.00    -0.237 OA
ATOM     61  O   UNL A   1      39.525  29.166  33.762  1.00  0.00    -0.744 OA
ENDBRANCH  54  58
ENDBRANCH  27  51
BRANCH  39  62
ATOM     62  C   UNL A   1      45.909  33.181  29.001  1.00  0.00     0.023 A 
ATOM     63  C   UNL A   1      45.776  34.201  28.044  1.00  0.00     0.031 A 
ATOM     64  C   UNL A   1      46.434  33.508  30.262  1.00  0.00     0.131 A 
ATOM     65  C   UNL A   1      46.238  35.490  28.340  1.00  0.00     0.055 A 
ATOM     66  C   UNL A   1      46.830  34.807  30.572  1.00  0.00     0.041 A 
ATOM     67  F   UNL A   1      46.589  32.563  31.204  1.00  0.00    -0.206 F 
ATOM     68  C   UNL A   1      46.750  35.803  29.603  1.00  0.00     0.022 A 
BRANCH  65  69
ATOM     69  S   UNL A   1      46.274  36.718  27.008  1.00  0.00     0.124 S 
ATOM     70  O   UNL A   1      47.378  37.579  27.422  1.00  0.00    -0.237 OA
ATOM     71  O   UNL A   1      46.516  35.895  25.829  1.00  0.00    -0.237 OA
ATOM     72  O   UNL A   1      44.949  37.333  27.074  1.00  0.00    -0.744 OA
ENDBRANCH  65  69
ENDBRANCH  39  62
ENDBRANCH  13  14
ENDBRANCH   6   8
ENDBRANCH   5   6
ENDBRANCH   4   5
ENDBRANCH   3   4
ENDBRANCH   2   3
ENDBRANCH   1   2
BRANCH   1  73
ATOM     73  C   UNL A   1      34.362  19.711  24.750  1.00  0.00     0.188 C 
BRANCH  73  74
ATOM     74  O   UNL A   1      33.256  19.998  25.607  1.00  0.00    -0.376 OA
BRANCH  74  75
ATOM     75  C   UNL A   1      32.876  21.364  25.738  1.00  0.00     0.202 C 
BRANCH  75  76
ATOM     76  C   UNL A   1      33.056  22.031  27.110  1.00  0.00     0.261 C 
BRANCH  76  77
ATOM     77  O   UNL A   1      32.958  23.466  27.105  1.00  0.00    -0.463 OA
BRANCH  77  78
ATOM     78  C   UNL A   1      31.716  23.957  26.846  1.00  0.00     0.313 C 
ATOM     79  O   UNL A   1      30.676  23.416  27.219  1.00  0.00    -0.252 OA
BRANCH  78  80
ATOM     80  C   UNL A   1      31.709  25.250  26.030  1.00  0.00     0.079 C 
ATOM     81  C   UNL A   1      31.125  26.489  26.751  1.00  0.00     0.055 C 
ATOM     82  C   UNL A   1      33.211  25.606  25.820  1.00  0.00     0.055 C 
ATOM     83  C   UNL A   1      31.955  27.594  26.157  1.00  0.00    -0.044 A 
ATOM     84  C   UNL A   1      33.153  27.086  25.649  1.00  0.00    -0.044 A 
ATOM     85  C   UNL A   1      31.683  28.948  26.093  1.00  0.00     0.004 A 
ATOM     86  C   UNL A   1      34.116  27.910  25.097  1.00  0.00     0.004 A 
ATOM     87  C   UNL A   1      32.641  29.791  25.524  1.00  0.00     0.000 A 
ATOM     88  C   UNL A   1      33.847  29.275  25.026  1.00  0.00     0.000 A 
BRANCH  80  89
ATOM     89  C   UNL A   1      30.941  25.098  24.685  1.00  0.00     0.047 C 
BRANCH  89  90
ATOM     90  C   UNL A   1      29.941  26.176  24.412  1.00  0.00    -0.025 C 
ATOM     91  C   UNL A   1      30.043  26.996  23.357  1.00  0.00     0.004 C 
BRANCH  91  92
ATOM     92  C   UNL A   1      29.230  28.202  23.220  1.00  0.00    -0.026 A 
ATOM     93  C   UNL A   1      29.849  29.453  23.164  1.00  0.00     0.008 A 
ATOM     94  C   UNL A   1      27.831  28.128  23.260  1.00  0.00     0.008 A 
ATOM     95  C   UNL A   1      29.076  30.614  23.124  1.00  0.00     0.001 A 
ATOM     96  C   UNL A   1      27.060  29.286  23.219  1.00  0.00     0.001 A 
ATOM     97  C   UNL A   1      27.683  30.530  23.151  1.00  0.00     0.000 A 
ENDBRANCH  91  92
ENDBRANCH  89  90
ENDBRANCH  80  89
ENDBRANCH  78  80
ENDBRANCH  77  78
ENDBRANCH  76  77
ENDBRANCH  75  76
ENDBRANCH  74  75
ENDBRANCH  73  74
ENDBRANCH   1  73
TORSDOF 23
ENDMDL
MODEL 3
REMARK VINA RESULT:     -10.5      1.727      7.863
REMARK SMILES O=C(OCCOCCOCCOC(=O)C1(C/C=C/c2ccccc2)Cc2ccccc2C1)c1ccc(-c2c3nc(c(-c4cc(S(=O)(=O)[O-])ccc4F)c4ccc([nH]4)c(-c4cc(S(=O)(=O)[O-])ccc4F)c4nc(c(-c5cc(S(=O)(=O)[O-])ccc5F)c5ccc2[nH]5)C=C4)C=C3)cc1
REMARK SMILES IDX 7 1 6 2 5 3 4 4 3 5 2 6 1 7 33 8 34 9 95 10 35 11 94 12
REMARK SMILES IDX 36 13 37 14 38 15 88 16 39 17 93 18 87 19 89 20 40 21 92 22
REMARK SMILES IDX 86 23 85 24 41 26 73 27 53 28 72 29 54 30 57 31 71 32 90 33
REMARK SMILES IDX 55 34 56 35 70 37 91 38 58 39 42 40 43 41 51 42 44 43 50 44
REMARK SMILES IDX 52 45 49 46 45 47 46 48 47 49 48 50 74 51 75 52 83 53 76 54
REMARK SMILES IDX 82 55 84 56 81 57 77 58 78 59 79 60 80 61 59 62 60 63 68 64
REMARK SMILES IDX 61 65 67 66 69 67 66 68 62 69 63 70 64 71 65 72 8 73 9 74
REMARK SMILES IDX 10 75 11 76 12 77 13 78 14 79 15 80 25 81 32 82 26 83 31 84
REMARK SMILES IDX 27 85 30 86 28 87 29 88 16 89 17 90 18 91 19 92 20 93 24 94
REMARK SMILES IDX 21 95 23 96 22 97
REMARK H PARENT 89 25 57 36
REMARK Flexibility Score: inf
ROOT
ATOM      1  C   UNL A   1      34.345  20.746  24.678  1.00  0.00     0.188 C 
ENDROOT
BRANCH   1   2
ATOM      2  O   UNL A   1      35.549  20.034  24.986  1.00  0.00    -0.376 OA
BRANCH   2   3
ATOM      3  C   UNL A   1      36.725  20.646  24.445  1.00  0.00     0.202 C 
BRANCH   3   4
ATOM      4  C   UNL A   1      38.014  20.318  25.209  1.00  0.00     0.261 C 
BRANCH   4   5
ATOM      5  O   UNL A   1      38.393  21.368  26.111  1.00  0.00    -0.460 OA
BRANCH   5   6
ATOM      6  C   UNL A   1      39.643  21.750  26.478  1.00  0.00     0.338 C 
ATOM      7  O   UNL A   1      40.540  20.909  26.402  1.00  0.00    -0.246 OA
BRANCH   6   8
ATOM      8  C   UNL A   1      40.017  23.130  26.940  1.00  0.00     0.060 A 
ATOM      9  C   UNL A   1      39.502  24.334  26.453  1.00  0.00     0.016 A 
ATOM     10  C   UNL A   1      40.953  23.209  27.988  1.00  0.00     0.016 A 
ATOM     11  C   UNL A   1      39.975  25.568  26.898  1.00  0.00     0.010 A 
ATOM     12  C   UNL A   1      41.393  24.445  28.479  1.00  0.00     0.010 A 
ATOM     13  C   UNL A   1      40.932  25.637  27.906  1.00  0.00    -0.014 A 
BRANCH  13  14
ATOM     14  C   UNL A   1      41.530  26.945  28.258  1.00  0.00     0.031 A 
ATOM     15  C   UNL A   1      40.631  28.019  28.789  1.00  0.00     0.074 A 
ATOM     16  C   UNL A   1      42.860  27.148  28.182  1.00  0.00     0.049 A 
ATOM     17  N   UNL A   1      40.926  29.242  29.137  1.00  0.00    -0.248 NA
ATOM     18  C   UNL A   1      39.220  27.652  28.996  1.00  0.00     0.031 C 
ATOM     19  C   UNL A   1      43.842  26.132  27.827  1.00  0.00     0.029 A 
ATOM     20  N   UNL A   1      43.619  28.273  28.368  1.00  0.00    -0.354 N 
ATOM     21  C   UNL A   1      39.757  29.770  29.665  1.00  0.00     0.074 A 
ATOM     22  C   UNL A   1      38.726  28.768  29.506  1.00  0.00     0.031 C 
ATOM     23  C   UNL A   1      45.052  26.692  27.688  1.00  0.00     0.029 A 
ATOM     24  C   UNL A   1      44.933  28.108  27.987  1.00  0.00     0.049 A 
ATOM     25  H   UNL A   1      43.262  29.113  28.736  1.00  0.00     0.167 HD
ATOM     26  C   UNL A   1      39.579  30.967  30.273  1.00  0.00     0.034 A 
ATOM     27  C   UNL A   1      45.922  29.012  27.865  1.00  0.00     0.034 A 
ATOM     28  C   UNL A   1      40.613  31.967  30.363  1.00  0.00     0.049 A 
ATOM     29  C   UNL A   1      45.642  30.412  28.312  1.00  0.00     0.074 A 
ATOM     30  C   UNL A   1      40.548  33.236  30.907  1.00  0.00     0.029 A 
ATOM     31  N   UNL A   1      41.905  31.811  29.870  1.00  0.00    -0.354 N 
ATOM     32  N   UNL A   1      44.526  30.912  28.788  1.00  0.00    -0.248 NA
ATOM     33  C   UNL A   1      46.761  31.355  28.247  1.00  0.00     0.031 C 
ATOM     34  C   UNL A   1      41.781  33.868  30.688  1.00  0.00     0.029 A 
ATOM     35  C   UNL A   1      42.636  32.972  30.065  1.00  0.00     0.049 A 
ATOM     36  H   UNL A   1      42.250  30.992  29.446  1.00  0.00     0.167 HD
ATOM     37  C   UNL A   1      44.819  32.225  29.123  1.00  0.00     0.074 A 
ATOM     38  C   UNL A   1      46.216  32.436  28.784  1.00  0.00     0.031 C 
ATOM     39  C   UNL A   1      44.015  33.164  29.683  1.00  0.00     0.034 A 
BRANCH  26  40
ATOM     40  C   UNL A   1      38.206  31.240  30.828  1.00  0.00     0.023 A 
ATOM     41  C   UNL A   1      37.221  31.887  30.055  1.00  0.00     0.031 A 
ATOM     42  C   UNL A   1      37.901  30.934  32.164  1.00  0.00     0.131 A 
ATOM     43  C   UNL A   1      36.008  32.270  30.645  1.00  0.00     0.055 A 
ATOM     44  C   UNL A   1      36.664  31.255  32.725  1.00  0.00     0.041 A 
ATOM     45  F   UNL A   1      38.813  30.347  32.953  1.00  0.00    -0.206 F 
ATOM     46  C   UNL A   1      35.714  31.940  31.969  1.00  0.00     0.022 A 
BRANCH  43  47
ATOM     47  S   UNL A   1      34.873  33.321  29.694  1.00  0.00     0.124 S 
ATOM     48  O   UNL A   1      35.810  34.148  28.930  1.00  0.00    -0.237 OA
ATOM     49  O   UNL A   1      34.103  32.359  28.934  1.00  0.00    -0.237 OA
ATOM     50  O   UNL A   1      34.130  34.044  30.731  1.00  0.00    -0.744 OA
ENDBRANCH  43  47
ENDBRANCH  26  40
BRANCH  27  51
ATOM     51  C   UNL A   1      47.218  28.647  27.235  1.00  0.00     0.023 A 
ATOM     52  C   UNL A   1      47.344  28.396  25.861  1.00  0.00     0.031 A 
ATOM     53  C   UNL A   1      48.353  28.479  28.048  1.00  0.00     0.131 A 
ATOM     54  C   UNL A   1      48.580  27.971  25.346  1.00  0.00     0.055 A 
ATOM     55  C   UNL A   1      49.591  28.107  27.524  1.00  0.00     0.041 A 
ATOM     56  F   UNL A   1      48.256  28.641  29.375  1.00  0.00    -0.206 F 
ATOM     57  C   UNL A   1      49.708  27.842  26.164  1.00  0.00     0.022 A 
BRANCH  54  58
ATOM     58  S   UNL A   1      48.678  27.491  23.597  1.00  0.00     0.124 S 
ATOM     59  O   UNL A   1      49.821  28.272  23.137  1.00  0.00    -0.237 OA
ATOM     60  O   UNL A   1      48.881  26.049  23.690  1.00  0.00    -0.237 OA
ATOM     61  O   UNL A   1      47.384  27.902  23.057  1.00  0.00    -0.744 OA
ENDBRANCH  54  58
ENDBRANCH  27  51
BRANCH  39  62
ATOM     62  C   UNL A   1      44.670  34.480  29.989  1.00  0.00     0.023 A 
ATOM     63  C   UNL A   1      44.698  35.518  29.043  1.00  0.00     0.031 A 
ATOM     64  C   UNL A   1      45.340  34.666  31.210  1.00  0.00     0.131 A 
ATOM     65  C   UNL A   1      45.452  36.669  29.302  1.00  0.00     0.055 A 
ATOM     66  C   UNL A   1      46.033  35.843  31.489  1.00  0.00     0.041 A 
ATOM     67  F   UNL A   1      45.348  33.697  32.140  1.00  0.00    -0.206 F 
ATOM     68  C   UNL A   1      46.106  36.845  30.526  1.00  0.00     0.022 A 
BRANCH  65  69
ATOM     69  S   UNL A   1      45.665  37.879  27.970  1.00  0.00     0.124 S 
ATOM     70  O   UNL A   1      47.056  37.660  27.585  1.00  0.00    -0.237 OA
ATOM     71  O   UNL A   1      44.662  37.455  26.999  1.00  0.00    -0.237 OA
ATOM     72  O   UNL A   1      45.395  39.158  28.623  1.00  0.00    -0.744 OA
ENDBRANCH  65  69
ENDBRANCH  39  62
ENDBRANCH  13  14
ENDBRANCH   6   8
ENDBRANCH   5   6
ENDBRANCH   4   5
ENDBRANCH   3   4
ENDBRANCH   2   3
ENDBRANCH   1   2
BRANCH   1  73
ATOM     73  C   UNL A   1      33.132  19.813  24.625  1.00  0.00     0.188 C 
BRANCH  73  74
ATOM     74  O   UNL A   1      31.895  20.357  25.085  1.00  0.00    -0.376 OA
BRANCH  74  75
ATOM     75  C   UNL A   1      31.947  21.621  25.738  1.00  0.00     0.202 C 
BRANCH  75  76
ATOM     76  C   UNL A   1      31.069  22.753  25.185  1.00  0.00     0.261 C 
BRANCH  76  77
ATOM     77  O   UNL A   1      31.790  23.872  24.642  1.00  0.00    -0.463 OA
BRANCH  77  78
ATOM     78  C   UNL A   1      31.054  24.705  23.856  1.00  0.00     0.313 C 
ATOM     79  O   UNL A   1      30.625  24.392  22.747  1.00  0.00    -0.252 OA
BRANCH  78  80
ATOM     80  C   UNL A   1      30.808  26.086  24.462  1.00  0.00     0.079 C 
ATOM     81  C   UNL A   1      30.968  26.177  26.000  1.00  0.00     0.055 C 
ATOM     82  C   UNL A   1      31.953  26.984  23.907  1.00  0.00     0.055 C 
ATOM     83  C   UNL A   1      31.485  27.579  26.159  1.00  0.00    -0.044 A 
ATOM     84  C   UNL A   1      32.067  28.025  24.969  1.00  0.00    -0.044 A 
ATOM     85  C   UNL A   1      31.467  28.392  27.278  1.00  0.00     0.004 A 
ATOM     86  C   UNL A   1      32.666  29.267  24.872  1.00  0.00     0.004 A 
ATOM     87  C   UNL A   1      32.055  29.656  27.190  1.00  0.00     0.000 A 
ATOM     88  C   UNL A   1      32.647  30.091  25.995  1.00  0.00     0.000 A 
BRANCH  80  89
ATOM     89  C   UNL A   1      29.395  26.642  24.115  1.00  0.00     0.047 C 
BRANCH  89  90
ATOM     90  C   UNL A   1      29.400  27.930  23.357  1.00  0.00    -0.025 C 
ATOM     91  C   UNL A   1      28.723  29.009  23.775  1.00  0.00     0.004 C 
BRANCH  91  92
ATOM     92  C   UNL A   1      28.512  30.179  22.927  1.00  0.00    -0.026 A 
ATOM     93  C   UNL A   1      28.083  30.011  21.608  1.00  0.00     0.008 A 
ATOM     94  C   UNL A   1      28.845  31.462  23.383  1.00  0.00     0.008 A 
ATOM     95  C   UNL A   1      27.966  31.116  20.764  1.00  0.00     0.001 A 
ATOM     96  C   UNL A   1      28.727  32.564  22.541  1.00  0.00     0.001 A 
ATOM     97  C   UNL A   1      28.287  32.391  21.232  1.00  0.00     0.000 A 
ENDBRANCH  91  92
ENDBRANCH  89  90
ENDBRANCH  80  89
ENDBRANCH  78  80
ENDBRANCH  77  78
ENDBRANCH  76  77
ENDBRANCH  75  76
ENDBRANCH  74  75
ENDBRANCH  73  74
ENDBRANCH   1  73
TORSDOF 23
ENDMDL
