MODEL 1
REMARK VINA RESULT:     -10.1      0.000      0.000
REMARK SMILES COc1ccccc1CNC(=O)[C@@H]1[C@H]2CC[C@H](CC2)[C@@H]1C(=O)OCCOCCOCCOC(=O)c1ccc(-c2c3nc(c(-c4cc(S(=O)(=O)[O-])ccc4F)c4ccc([nH]4)c(-c4cc(S(=O)(=O)[O-])ccc4F)c4nc(c(-c5cc(S(=O)(=O)[O-])ccc5F)c5ccc2[nH]5)C=C4)C=C3)cc1
REMARK SMILES IDX 27 1 26 2 25 3 24 4 23 5 21 6 22 7 20 8 13 9 14 10 15 11
REMARK SMILES IDX 19 12 17 13 16 14 18 15 11 16 10 17 12 19 9 20 8 21 3 22
REMARK SMILES IDX 4 23 5 24 7 25 6 26 2 27 1 28 28 29 29 30 30 31 31 32 32 33
REMARK SMILES IDX 33 34 34 35 35 36 36 37 97 38 37 39 96 40 38 41 39 42 40 43
REMARK SMILES IDX 90 44 41 45 95 46 89 47 91 48 42 49 94 50 88 51 87 52 43 54
REMARK SMILES IDX 75 55 55 56 74 57 56 58 59 59 73 60 92 61 57 62 58 63 72 65
REMARK SMILES IDX 93 66 60 67 44 68 45 69 53 70 46 71 52 72 54 73 51 74 47 75
REMARK SMILES IDX 48 76 49 77 50 78 76 79 77 80 85 81 78 82 84 83 86 84 83 85
REMARK SMILES IDX 79 86 80 87 81 88 82 89 61 90 62 91 70 92 63 93 69 94 71 95
REMARK SMILES IDX 68 96 64 97 65 98 66 99 67 100
REMARK H PARENT 10 18 91 53 59 64
REMARK Flexibility Score: inf
ROOT
ATOM      1  C   UNL A   1      34.705  31.935  28.594  1.00  0.00     0.188 C 
ENDROOT
BRANCH   1   2
ATOM      2  O   UNL A   1      34.355  31.025  27.556  1.00  0.00    -0.376 OA
BRANCH   2   3
ATOM      3  C   UNL A   1      32.970  31.029  27.234  1.00  0.00     0.202 C 
BRANCH   3   4
ATOM      4  C   UNL A   1      32.460  29.813  26.446  1.00  0.00     0.261 C 
BRANCH   4   5
ATOM      5  O   UNL A   1      33.301  29.317  25.375  1.00  0.00    -0.463 OA
BRANCH   5   6
ATOM      6  C   UNL A   1      33.114  28.054  24.900  1.00  0.00     0.310 C 
ATOM      7  O   UNL A   1      34.027  27.360  24.481  1.00  0.00    -0.252 OA
BRANCH   6   8
ATOM      8  C   UNL A   1      31.613  27.721  24.840  1.00  0.00     0.115 C 
ATOM      9  C   UNL A   1      31.057  26.332  25.260  1.00  0.00     0.096 C 
ATOM     10  C   UNL A   1      30.261  25.682  24.103  1.00  0.00     0.002 C 
ATOM     11  C   UNL A   1      29.015  26.557  23.868  1.00  0.00     0.005 C 
ATOM     12  C   UNL A   1      31.044  25.691  22.781  1.00  0.00     0.005 C 
ATOM     13  C   UNL A   1      30.995  28.101  23.462  1.00  0.00     0.004 C 
ATOM     14  C   UNL A   1      29.451  28.002  23.564  1.00  0.00     0.005 C 
ATOM     15  C   UNL A   1      31.435  27.109  22.377  1.00  0.00     0.005 C 
BRANCH   9  16
ATOM     16  C   UNL A   1      31.863  25.391  26.143  1.00  0.00     0.224 C 
ATOM     17  N   UNL A   1      33.108  24.954  25.844  1.00  0.00    -0.352 N 
ATOM     18  H   UNL A   1      33.849  25.224  26.434  1.00  0.00     0.163 HD
ATOM     19  O   UNL A   1      31.386  25.020  27.219  1.00  0.00    -0.275 OA
BRANCH  17  20
ATOM     20  C   UNL A   1      33.412  24.113  24.710  1.00  0.00     0.155 C 
BRANCH  20  21
ATOM     21  C   UNL A   1      34.712  23.382  24.751  1.00  0.00     0.013 A 
ATOM     22  C   UNL A   1      34.774  22.004  24.523  1.00  0.00     0.123 A 
ATOM     23  C   UNL A   1      36.008  21.349  24.655  1.00  0.00     0.047 A 
ATOM     24  C   UNL A   1      37.180  22.031  24.961  1.00  0.00     0.004 A 
ATOM     25  C   UNL A   1      35.915  24.066  25.028  1.00  0.00     0.009 A 
ATOM     26  C   UNL A   1      37.138  23.403  25.120  1.00  0.00     0.001 A 
BRANCH  22  27
ATOM     27  O   UNL A   1      33.754  21.127  24.338  1.00  0.00    -0.496 OA
ATOM     28  C   UNL A   1      33.661  19.825  24.877  1.00  0.00     0.278 C 
ENDBRANCH  22  27
ENDBRANCH  20  21
ENDBRANCH  17  20
ENDBRANCH   9  16
ENDBRANCH   6   8
ENDBRANCH   5   6
ENDBRANCH   4   5
ENDBRANCH   3   4
ENDBRANCH   2   3
ENDBRANCH   1   2
BRANCH   1  29
ATOM     29  C   UNL A   1      35.313  33.221  28.021  1.00  0.00     0.188 C 
BRANCH  29  30
ATOM     30  O   UNL A   1      34.894  34.342  28.785  1.00  0.00    -0.376 OA
BRANCH  30  31
ATOM     31  C   UNL A   1      33.527  34.675  28.612  1.00  0.00     0.202 C 
BRANCH  31  32
ATOM     32  C   UNL A   1      32.900  35.737  29.541  1.00  0.00     0.261 C 
BRANCH  32  33
ATOM     33  O   UNL A   1      32.150  35.332  30.716  1.00  0.00    -0.460 OA
BRANCH  33  34
ATOM     34  C   UNL A   1      32.633  35.560  31.959  1.00  0.00     0.338 C 
ATOM     35  O   UNL A   1      32.046  36.181  32.839  1.00  0.00    -0.246 OA
BRANCH  34  36
ATOM     36  C   UNL A   1      33.978  34.904  32.118  1.00  0.00     0.060 A 
ATOM     37  C   UNL A   1      34.075  33.510  32.175  1.00  0.00     0.016 A 
ATOM     38  C   UNL A   1      35.158  35.650  32.269  1.00  0.00     0.016 A 
ATOM     39  C   UNL A   1      35.326  32.882  32.373  1.00  0.00     0.010 A 
ATOM     40  C   UNL A   1      36.405  35.017  32.503  1.00  0.00     0.010 A 
ATOM     41  C   UNL A   1      36.519  33.620  32.561  1.00  0.00    -0.014 A 
BRANCH  41  42
ATOM     42  C   UNL A   1      37.796  32.893  32.938  1.00  0.00     0.031 A 
ATOM     43  C   UNL A   1      38.323  33.044  34.342  1.00  0.00     0.074 A 
ATOM     44  C   UNL A   1      38.533  32.126  32.101  1.00  0.00     0.049 A 
ATOM     45  N   UNL A   1      39.292  32.404  34.945  1.00  0.00    -0.248 NA
ATOM     46  C   UNL A   1      37.715  34.116  35.140  1.00  0.00     0.031 C 
ATOM     47  C   UNL A   1      38.337  32.031  30.665  1.00  0.00     0.029 A 
ATOM     48  N   UNL A   1      39.563  31.220  32.344  1.00  0.00    -0.354 N 
ATOM     49  C   UNL A   1      39.466  33.044  36.165  1.00  0.00     0.074 A 
ATOM     50  C   UNL A   1      38.446  34.073  36.241  1.00  0.00     0.031 C 
ATOM     51  C   UNL A   1      39.092  31.027  30.185  1.00  0.00     0.029 A 
ATOM     52  C   UNL A   1      39.815  30.370  31.270  1.00  0.00     0.049 A 
ATOM     53  H   UNL A   1      40.063  31.183  33.191  1.00  0.00     0.167 HD
ATOM     54  C   UNL A   1      40.432  32.856  37.101  1.00  0.00     0.034 A 
ATOM     55  C   UNL A   1      40.475  29.180  31.201  1.00  0.00     0.034 A 
ATOM     56  C   UNL A   1      41.512  31.905  36.986  1.00  0.00     0.049 A 
ATOM     57  C   UNL A   1      41.403  28.840  32.350  1.00  0.00     0.074 A 
ATOM     58  C   UNL A   1      42.575  31.698  37.849  1.00  0.00     0.029 A 
ATOM     59  N   UNL A   1      41.689  31.020  35.930  1.00  0.00    -0.354 N 
ATOM     60  N   UNL A   1      41.540  29.444  33.506  1.00  0.00    -0.248 NA
ATOM     61  C   UNL A   1      42.353  27.734  32.136  1.00  0.00     0.031 C 
ATOM     62  C   UNL A   1      43.426  30.739  37.286  1.00  0.00     0.029 A 
ATOM     63  C   UNL A   1      42.848  30.278  36.116  1.00  0.00     0.049 A 
ATOM     64  H   UNL A   1      41.079  30.932  35.161  1.00  0.00     0.167 HD
ATOM     65  C   UNL A   1      42.643  28.849  34.112  1.00  0.00     0.074 A 
ATOM     66  C   UNL A   1      43.058  27.759  33.257  1.00  0.00     0.031 C 
ATOM     67  C   UNL A   1      43.298  29.222  35.240  1.00  0.00     0.034 A 
BRANCH  54  68
ATOM     68  C   UNL A   1      40.429  33.825  38.257  1.00  0.00     0.023 A 
ATOM     69  C   UNL A   1      41.232  34.977  38.252  1.00  0.00     0.031 A 
ATOM     70  C   UNL A   1      39.709  33.523  39.425  1.00  0.00     0.131 A 
ATOM     71  C   UNL A   1      41.382  35.720  39.432  1.00  0.00     0.055 A 
ATOM     72  C   UNL A   1      39.783  34.327  40.563  1.00  0.00     0.041 A 
ATOM     73  F   UNL A   1      38.952  32.416  39.497  1.00  0.00    -0.206 F 
ATOM     74  C   UNL A   1      40.641  35.421  40.579  1.00  0.00     0.022 A 
BRANCH  71  75
ATOM     75  S   UNL A   1      42.715  36.948  39.507  1.00  0.00     0.124 S 
ATOM     76  O   UNL A   1      42.830  37.337  38.103  1.00  0.00    -0.237 OA
ATOM     77  O   UNL A   1      42.166  37.956  40.405  1.00  0.00    -0.237 OA
ATOM     78  O   UNL A   1      43.848  36.190  40.033  1.00  0.00    -0.744 OA
ENDBRANCH  71  75
ENDBRANCH  54  68
BRANCH  55  79
ATOM     79  C   UNL A   1      40.362  28.204  30.044  1.00  0.00     0.023 A 
ATOM     80  C   UNL A   1      41.239  28.280  28.929  1.00  0.00     0.031 A 
ATOM     81  C   UNL A   1      39.348  27.235  29.965  1.00  0.00     0.131 A 
ATOM     82  C   UNL A   1      41.071  27.432  27.812  1.00  0.00     0.055 A 
ATOM     83  C   UNL A   1      39.261  26.318  28.908  1.00  0.00     0.041 A 
ATOM     84  F   UNL A   1      38.390  27.166  30.901  1.00  0.00    -0.206 F 
ATOM     85  C   UNL A   1      40.120  26.416  27.822  1.00  0.00     0.022 A 
BRANCH  82  86
ATOM     86  S   UNL A   1      41.973  27.777  26.263  1.00  0.00     0.124 S 
ATOM     87  O   UNL A   1      41.476  29.104  25.918  1.00  0.00    -0.237 OA
ATOM     88  O   UNL A   1      43.365  27.702  26.688  1.00  0.00    -0.237 OA
ATOM     89  O   UNL A   1      41.539  26.703  25.370  1.00  0.00    -0.744 OA
ENDBRANCH  82  86
ENDBRANCH  55  79
BRANCH  67  90
ATOM     90  C   UNL A   1      44.555  28.462  35.587  1.00  0.00     0.023 A 
ATOM     91  C   UNL A   1      44.518  27.306  36.393  1.00  0.00     0.031 A 
ATOM     92  C   UNL A   1      45.807  28.909  35.136  1.00  0.00     0.131 A 
ATOM     93  C   UNL A   1      45.714  26.680  36.779  1.00  0.00     0.055 A 
ATOM     94  C   UNL A   1      46.989  28.244  35.470  1.00  0.00     0.041 A 
ATOM     95  F   UNL A   1      45.906  30.006  34.369  1.00  0.00    -0.206 F 
ATOM     96  C   UNL A   1      46.949  27.133  36.307  1.00  0.00     0.022 A 
BRANCH  93  97
ATOM     97  S   UNL A   1      45.647  25.332  37.993  1.00  0.00     0.124 S 
ATOM     98  O   UNL A   1      45.540  26.062  39.251  1.00  0.00    -0.237 OA
ATOM     99  O   UNL A   1      44.459  24.593  37.579  1.00  0.00    -0.237 OA
ATOM    100  O   UNL A   1      46.913  24.627  37.793  1.00  0.00    -0.744 OA
ENDBRANCH  93  97
ENDBRANCH  67  90
ENDBRANCH  41  42
ENDBRANCH  34  36
ENDBRANCH  33  34
ENDBRANCH  32  33
ENDBRANCH  31  32
ENDBRANCH  30  31
ENDBRANCH  29  30
ENDBRANCH   1  29
TORSDOF 24
ENDMDL
MODEL 2
REMARK VINA RESULT:     -10.1      6.314     12.300
REMARK SMILES COc1ccccc1CNC(=O)[C@@H]1[C@H]2CC[C@H](CC2)[C@@H]1C(=O)OCCOCCOCCOC(=O)c1ccc(-c2c3nc(c(-c4cc(S(=O)(=O)[O-])ccc4F)c4ccc([nH]4)c(-c4cc(S(=O)(=O)[O-])ccc4F)c4nc(c(-c5cc(S(=O)(=O)[O-])ccc5F)c5ccc2[nH]5)C=C4)C=C3)cc1
REMARK SMILES IDX 27 1 26 2 25 3 24 4 23 5 21 6 22 7 20 8 13 9 14 10 15 11
REMARK SMILES IDX 19 12 17 13 16 14 18 15 11 16 10 17 12 19 9 20 8 21 3 22
REMARK SMILES IDX 4 23 5 24 7 25 6 26 2 27 1 28 28 29 29 30 30 31 31 32 32 33
REMARK SMILES IDX 33 34 34 35 35 36 36 37 97 38 37 39 96 40 38 41 39 42 40 43
REMARK SMILES IDX 90 44 41 45 95 46 89 47 91 48 42 49 94 50 88 51 87 52 43 54
REMARK SMILES IDX 75 55 55 56 74 57 56 58 59 59 73 60 92 61 57 62 58 63 72 65
REMARK SMILES IDX 93 66 60 67 44 68 45 69 53 70 46 71 52 72 54 73 51 74 47 75
REMARK SMILES IDX 48 76 49 77 50 78 76 79 77 80 85 81 78 82 84 83 86 84 83 85
REMARK SMILES IDX 79 86 80 87 81 88 82 89 61 90 62 91 70 92 63 93 69 94 71 95
REMARK SMILES IDX 68 96 64 97 65 98 66 99 67 100
REMARK H PARENT 10 18 91 53 59 64
REMARK Flexibility Score: inf
ROOT
ATOM      1  C   UNL A   1      39.786  21.338  26.490  1.00  0.00     0.188 C 
ENDROOT
BRANCH   1   2
ATOM      2  O   UNL A   1      39.179  22.443  25.826  1.00  0.00    -0.376 OA
BRANCH   2   3
ATOM      3  C   UNL A   1      37.771  22.516  26.007  1.00  0.00     0.202 C 
BRANCH   3   4
ATOM      4  C   UNL A   1      37.049  23.623  25.222  1.00  0.00     0.261 C 
BRANCH   4   5
ATOM      5  O   UNL A   1      35.895  24.234  25.848  1.00  0.00    -0.463 OA
BRANCH   5   6
ATOM      6  C   UNL A   1      34.814  23.468  26.164  1.00  0.00     0.310 C 
ATOM      7  O   UNL A   1      34.755  22.787  27.176  1.00  0.00    -0.252 OA
BRANCH   6   8
ATOM      8  C   UNL A   1      33.791  23.483  25.015  1.00  0.00     0.115 C 
ATOM      9  C   UNL A   1      32.265  23.621  25.267  1.00  0.00     0.096 C 
ATOM     10  C   UNL A   1      31.492  22.430  24.651  1.00  0.00     0.002 C 
ATOM     11  C   UNL A   1      31.654  22.534  23.122  1.00  0.00     0.005 C 
ATOM     12  C   UNL A   1      32.093  21.075  25.053  1.00  0.00     0.005 C 
ATOM     13  C   UNL A   1      34.021  22.302  24.026  1.00  0.00     0.004 C 
ATOM     14  C   UNL A   1      33.152  22.533  22.763  1.00  0.00     0.005 C 
ATOM     15  C   UNL A   1      33.560  20.977  24.648  1.00  0.00     0.005 C 
BRANCH   9  16
ATOM     16  C   UNL A   1      31.726  24.174  26.578  1.00  0.00     0.224 C 
ATOM     17  N   UNL A   1      31.112  25.374  26.698  1.00  0.00    -0.352 N 
ATOM     18  H   UNL A   1      30.164  25.386  26.961  1.00  0.00     0.163 HD
ATOM     19  O   UNL A   1      31.810  23.487  27.600  1.00  0.00    -0.275 OA
BRANCH  17  20
ATOM     20  C   UNL A   1      31.770  26.637  26.462  1.00  0.00     0.155 C 
BRANCH  20  21
ATOM     21  C   UNL A   1      31.229  27.473  25.350  1.00  0.00     0.013 A 
ATOM     22  C   UNL A   1      31.653  28.793  25.166  1.00  0.00     0.123 A 
ATOM     23  C   UNL A   1      31.054  29.563  24.157  1.00  0.00     0.047 A 
ATOM     24  C   UNL A   1      30.085  29.045  23.305  1.00  0.00     0.004 A 
ATOM     25  C   UNL A   1      30.270  26.951  24.457  1.00  0.00     0.009 A 
ATOM     26  C   UNL A   1      29.711  27.721  23.439  1.00  0.00     0.001 A 
BRANCH  22  27
ATOM     27  O   UNL A   1      32.481  29.536  25.944  1.00  0.00    -0.496 OA
ATOM     28  C   UNL A   1      32.116  30.652  26.728  1.00  0.00     0.278 C 
ENDBRANCH  22  27
ENDBRANCH  20  21
ENDBRANCH  17  20
ENDBRANCH   9  16
ENDBRANCH   6   8
ENDBRANCH   5   6
ENDBRANCH   4   5
ENDBRANCH   3   4
ENDBRANCH   2   3
ENDBRANCH   1   2
BRANCH   1  29
ATOM     29  C   UNL A   1      41.229  21.132  26.015  1.00  0.00     0.188 C 
BRANCH  29  30
ATOM     30  O   UNL A   1      41.392  19.815  25.509  1.00  0.00    -0.376 OA
BRANCH  30  31
ATOM     31  C   UNL A   1      42.360  19.049  26.205  1.00  0.00     0.202 C 
BRANCH  31  32
ATOM     32  C   UNL A   1      43.470  18.344  25.395  1.00  0.00     0.261 C 
BRANCH  32  33
ATOM     33  O   UNL A   1      44.697  19.048  25.068  1.00  0.00    -0.460 OA
BRANCH  33  34
ATOM     34  C   UNL A   1      44.700  20.045  24.155  1.00  0.00     0.338 C 
ATOM     35  O   UNL A   1      44.638  19.888  22.940  1.00  0.00    -0.246 OA
BRANCH  34  36
ATOM     36  C   UNL A   1      44.747  21.380  24.849  1.00  0.00     0.060 A 
ATOM     37  C   UNL A   1      44.449  22.549  24.143  1.00  0.00     0.016 A 
ATOM     38  C   UNL A   1      45.137  21.507  26.193  1.00  0.00     0.016 A 
ATOM     39  C   UNL A   1      44.537  23.813  24.770  1.00  0.00     0.010 A 
ATOM     40  C   UNL A   1      45.257  22.780  26.807  1.00  0.00     0.010 A 
ATOM     41  C   UNL A   1      44.961  23.961  26.112  1.00  0.00    -0.014 A 
BRANCH  41  42
ATOM     42  C   UNL A   1      45.196  25.351  26.672  1.00  0.00     0.031 A 
ATOM     43  C   UNL A   1      46.474  26.065  26.312  1.00  0.00     0.074 A 
ATOM     44  C   UNL A   1      44.355  26.010  27.503  1.00  0.00     0.049 A 
ATOM     45  N   UNL A   1      46.829  27.306  26.531  1.00  0.00    -0.248 NA
ATOM     46  C   UNL A   1      47.514  25.238  25.689  1.00  0.00     0.031 C 
ATOM     47  C   UNL A   1      43.194  25.426  28.151  1.00  0.00     0.029 A 
ATOM     48  N   UNL A   1      44.306  27.345  27.900  1.00  0.00    -0.354 N 
ATOM     49  C   UNL A   1      48.160  27.392  26.143  1.00  0.00     0.074 A 
ATOM     50  C   UNL A   1      48.519  26.093  25.606  1.00  0.00     0.031 C 
ATOM     51  C   UNL A   1      42.473  26.406  28.724  1.00  0.00     0.029 A 
ATOM     52  C   UNL A   1      43.088  27.706  28.471  1.00  0.00     0.049 A 
ATOM     53  H   UNL A   1      45.057  27.972  27.786  1.00  0.00     0.167 HD
ATOM     54  C   UNL A   1      49.031  28.423  26.295  1.00  0.00     0.034 A 
ATOM     55  C   UNL A   1      42.522  28.926  28.683  1.00  0.00     0.034 A 
ATOM     56  C   UNL A   1      48.709  29.683  26.923  1.00  0.00     0.049 A 
ATOM     57  C   UNL A   1      43.442  30.130  28.641  1.00  0.00     0.074 A 
ATOM     58  C   UNL A   1      49.548  30.754  27.185  1.00  0.00     0.029 A 
ATOM     59  N   UNL A   1      47.461  30.035  27.417  1.00  0.00    -0.354 N 
ATOM     60  N   UNL A   1      44.693  30.198  28.251  1.00  0.00    -0.248 NA
ATOM     61  C   UNL A   1      42.914  31.394  29.181  1.00  0.00     0.031 C 
ATOM     62  C   UNL A   1      48.824  31.722  27.893  1.00  0.00     0.029 A 
ATOM     63  C   UNL A   1      47.510  31.298  27.991  1.00  0.00     0.049 A 
ATOM     64  H   UNL A   1      46.655  29.470  27.365  1.00  0.00     0.167 HD
ATOM     65  C   UNL A   1      45.120  31.481  28.583  1.00  0.00     0.074 A 
ATOM     66  C   UNL A   1      43.966  32.193  29.086  1.00  0.00     0.031 C 
ATOM     67  C   UNL A   1      46.374  31.996  28.543  1.00  0.00     0.034 A 
BRANCH  54  68
ATOM     68  C   UNL A   1      50.460  28.143  25.901  1.00  0.00     0.023 A 
ATOM     69  C   UNL A   1      50.867  28.156  24.558  1.00  0.00     0.031 A 
ATOM     70  C   UNL A   1      51.390  27.737  26.874  1.00  0.00     0.131 A 
ATOM     71  C   UNL A   1      52.134  27.661  24.214  1.00  0.00     0.055 A 
ATOM     72  C   UNL A   1      52.685  27.344  26.533  1.00  0.00     0.041 A 
ATOM     73  F   UNL A   1      51.043  27.674  28.169  1.00  0.00    -0.206 F 
ATOM     74  C   UNL A   1      53.056  27.282  25.194  1.00  0.00     0.022 A 
BRANCH  71  75
ATOM     75  S   UNL A   1      52.475  27.319  22.467  1.00  0.00     0.124 S 
ATOM     76  O   UNL A   1      53.284  26.106  22.561  1.00  0.00    -0.237 OA
ATOM     77  O   UNL A   1      51.138  27.153  21.910  1.00  0.00    -0.237 OA
ATOM     78  O   UNL A   1      53.197  28.509  22.020  1.00  0.00    -0.744 OA
ENDBRANCH  71  75
ENDBRANCH  54  68
BRANCH  55  79
ATOM     79  C   UNL A   1      41.050  29.147  28.986  1.00  0.00     0.023 A 
ATOM     80  C   UNL A   1      40.581  29.239  30.324  1.00  0.00     0.031 A 
ATOM     81  C   UNL A   1      40.067  29.189  27.984  1.00  0.00     0.131 A 
ATOM     82  C   UNL A   1      39.201  29.348  30.605  1.00  0.00     0.055 A 
ATOM     83  C   UNL A   1      38.713  29.418  28.264  1.00  0.00     0.041 A 
ATOM     84  F   UNL A   1      40.388  28.980  26.698  1.00  0.00    -0.206 F 
ATOM     85  C   UNL A   1      38.272  29.493  29.578  1.00  0.00     0.022 A 
BRANCH  82  86
ATOM     86  S   UNL A   1      38.597  29.113  32.311  1.00  0.00     0.124 S 
ATOM     87  O   UNL A   1      37.153  29.228  32.134  1.00  0.00    -0.237 OA
ATOM     88  O   UNL A   1      39.100  27.785  32.640  1.00  0.00    -0.237 OA
ATOM     89  O   UNL A   1      39.219  30.213  33.047  1.00  0.00    -0.744 OA
ENDBRANCH  82  86
ENDBRANCH  55  79
BRANCH  67  90
ATOM     90  C   UNL A   1      46.561  33.389  29.096  1.00  0.00     0.023 A 
ATOM     91  C   UNL A   1      46.122  34.527  28.388  1.00  0.00     0.031 A 
ATOM     92  C   UNL A   1      47.210  33.588  30.325  1.00  0.00     0.131 A 
ATOM     93  C   UNL A   1      46.401  35.811  28.883  1.00  0.00     0.055 A 
ATOM     94  C   UNL A   1      47.426  34.867  30.843  1.00  0.00     0.041 A 
ATOM     95  F   UNL A   1      47.653  32.543  31.041  1.00  0.00    -0.206 F 
ATOM     96  C   UNL A   1      47.035  35.987  30.115  1.00  0.00     0.022 A 
BRANCH  93  97
ATOM     97  S   UNL A   1      46.021  37.252  27.845  1.00  0.00     0.124 S 
ATOM     98  O   UNL A   1      47.121  38.155  28.168  1.00  0.00    -0.237 OA
ATOM     99  O   UNL A   1      46.033  36.685  26.501  1.00  0.00    -0.237 OA
ATOM    100  O   UNL A   1      44.707  37.682  28.323  1.00  0.00    -0.744 OA
ENDBRANCH  93  97
ENDBRANCH  67  90
ENDBRANCH  41  42
ENDBRANCH  34  36
ENDBRANCH  33  34
ENDBRANCH  32  33
ENDBRANCH  31  32
ENDBRANCH  30  31
ENDBRANCH  29  30
ENDBRANCH   1  29
TORSDOF 24
ENDMDL
MODEL 3
REMARK VINA RESULT:     -10.0      3.831      5.870
REMARK SMILES COc1ccccc1CNC(=O)[C@@H]1[C@H]2CC[C@H](CC2)[C@@H]1C(=O)OCCOCCOCCOC(=O)c1ccc(-c2c3nc(c(-c4cc(S(=O)(=O)[O-])ccc4F)c4ccc([nH]4)c(-c4cc(S(=O)(=O)[O-])ccc4F)c4nc(c(-c5cc(S(=O)(=O)[O-])ccc5F)c5ccc2[nH]5)C=C4)C=C3)cc1
REMARK SMILES IDX 27 1 26 2 25 3 24 4 23 5 21 6 22 7 20 8 13 9 14 10 15 11
REMARK SMILES IDX 19 12 17 13 16 14 18 15 11 16 10 17 12 19 9 20 8 21 3 22
REMARK SMILES IDX 4 23 5 24 7 25 6 26 2 27 1 28 28 29 29 30 30 31 31 32 32 33
REMARK SMILES IDX 33 34 34 35 35 36 36 37 97 38 37 39 96 40 38 41 39 42 40 43
REMARK SMILES IDX 90 44 41 45 95 46 89 47 91 48 42 49 94 50 88 51 87 52 43 54
REMARK SMILES IDX 75 55 55 56 74 57 56 58 59 59 73 60 92 61 57 62 58 63 72 65
REMARK SMILES IDX 93 66 60 67 44 68 45 69 53 70 46 71 52 72 54 73 51 74 47 75
REMARK SMILES IDX 48 76 49 77 50 78 76 79 77 80 85 81 78 82 84 83 86 84 83 85
REMARK SMILES IDX 79 86 80 87 81 88 82 89 61 90 62 91 70 92 63 93 69 94 71 95
REMARK SMILES IDX 68 96 64 97 65 98 66 99 67 100
REMARK H PARENT 10 18 91 53 59 64
REMARK Flexibility Score: inf
ROOT
ATOM      1  C   UNL A   1      31.276  28.799  22.856  1.00  0.00     0.188 C 
ENDROOT
BRANCH   1   2
ATOM      2  O   UNL A   1      31.184  27.392  22.662  1.00  0.00    -0.376 OA
BRANCH   2   3
ATOM      3  C   UNL A   1      31.717  26.629  23.737  1.00  0.00     0.202 C 
BRANCH   3   4
ATOM      4  C   UNL A   1      31.932  25.133  23.459  1.00  0.00     0.261 C 
BRANCH   4   5
ATOM      5  O   UNL A   1      33.278  24.619  23.608  1.00  0.00    -0.463 OA
BRANCH   5   6
ATOM      6  C   UNL A   1      33.726  23.645  22.767  1.00  0.00     0.310 C 
ATOM      7  O   UNL A   1      33.275  23.478  21.645  1.00  0.00    -0.252 OA
BRANCH   6   8
ATOM      8  C   UNL A   1      34.740  22.740  23.487  1.00  0.00     0.115 C 
ATOM      9  C   UNL A   1      34.297  21.554  24.387  1.00  0.00     0.096 C 
ATOM     10  C   UNL A   1      34.870  21.699  25.817  1.00  0.00     0.002 C 
ATOM     11  C   UNL A   1      36.400  21.563  25.702  1.00  0.00     0.005 C 
ATOM     12  C   UNL A   1      34.609  23.091  26.410  1.00  0.00     0.005 C 
ATOM     13  C   UNL A   1      35.804  23.573  24.262  1.00  0.00     0.004 C 
ATOM     14  C   UNL A   1      36.939  22.623  24.725  1.00  0.00     0.005 C 
ATOM     15  C   UNL A   1      35.194  24.189  25.528  1.00  0.00     0.005 C 
BRANCH   9  16
ATOM     16  C   UNL A   1      32.905  20.950  24.271  1.00  0.00     0.224 C 
ATOM     17  N   UNL A   1      32.621  19.650  24.514  1.00  0.00    -0.352 N 
ATOM     18  H   UNL A   1      32.031  19.437  25.273  1.00  0.00     0.163 HD
ATOM     19  O   UNL A   1      31.955  21.681  23.975  1.00  0.00    -0.275 OA
BRANCH  17  20
ATOM     20  C   UNL A   1      33.136  18.556  23.724  1.00  0.00     0.155 C 
BRANCH  20  21
ATOM     21  C   UNL A   1      34.203  17.723  24.353  1.00  0.00     0.013 A 
ATOM     22  C   UNL A   1      33.965  16.392  24.709  1.00  0.00     0.123 A 
ATOM     23  C   UNL A   1      34.975  15.677  25.372  1.00  0.00     0.047 A 
ATOM     24  C   UNL A   1      36.219  16.233  25.647  1.00  0.00     0.004 A 
ATOM     25  C   UNL A   1      35.482  18.263  24.608  1.00  0.00     0.009 A 
ATOM     26  C   UNL A   1      36.484  17.526  25.236  1.00  0.00     0.001 A 
BRANCH  22  27
ATOM     27  O   UNL A   1      32.803  15.693  24.653  1.00  0.00    -0.496 OA
ATOM     28  C   UNL A   1      32.153  15.062  25.737  1.00  0.00     0.278 C 
ENDBRANCH  22  27
ENDBRANCH  20  21
ENDBRANCH  17  20
ENDBRANCH   9  16
ENDBRANCH   6   8
ENDBRANCH   5   6
ENDBRANCH   4   5
ENDBRANCH   3   4
ENDBRANCH   2   3
ENDBRANCH   1   2
BRANCH   1  29
ATOM     29  C   UNL A   1      30.317  29.271  23.956  1.00  0.00     0.188 C 
BRANCH  29  30
ATOM     30  O   UNL A   1      30.728  30.535  24.453  1.00  0.00    -0.376 OA
BRANCH  30  31
ATOM     31  C   UNL A   1      31.230  30.495  25.778  1.00  0.00     0.202 C 
BRANCH  31  32
ATOM     32  C   UNL A   1      32.698  30.069  26.002  1.00  0.00     0.261 C 
BRANCH  32  33
ATOM     33  O   UNL A   1      33.304  30.191  27.316  1.00  0.00    -0.460 OA
BRANCH  33  34
ATOM     34  C   UNL A   1      34.063  31.265  27.632  1.00  0.00     0.338 C 
ATOM     35  O   UNL A   1      33.661  32.423  27.674  1.00  0.00    -0.246 OA
BRANCH  34  36
ATOM     36  C   UNL A   1      35.463  30.826  27.968  1.00  0.00     0.060 A 
ATOM     37  C   UNL A   1      35.756  29.466  28.109  1.00  0.00     0.016 A 
ATOM     38  C   UNL A   1      36.496  31.748  28.204  1.00  0.00     0.016 A 
ATOM     39  C   UNL A   1      37.055  29.043  28.473  1.00  0.00     0.010 A 
ATOM     40  C   UNL A   1      37.788  31.320  28.603  1.00  0.00     0.010 A 
ATOM     41  C   UNL A   1      38.098  29.959  28.747  1.00  0.00    -0.014 A 
BRANCH  41  42
ATOM     42  C   UNL A   1      39.416  29.448  29.295  1.00  0.00     0.031 A 
ATOM     43  C   UNL A   1      39.766  29.754  30.730  1.00  0.00     0.074 A 
ATOM     44  C   UNL A   1      40.338  28.750  28.590  1.00  0.00     0.049 A 
ATOM     45  N   UNL A   1      40.747  29.297  31.467  1.00  0.00    -0.248 NA
ATOM     46  C   UNL A   1      38.935  30.769  31.387  1.00  0.00     0.031 C 
ATOM     47  C   UNL A   1      40.309  28.547  27.152  1.00  0.00     0.029 A 
ATOM     48  N   UNL A   1      41.452  28.019  28.995  1.00  0.00    -0.354 N 
ATOM     49  C   UNL A   1      40.700  30.024  32.650  1.00  0.00     0.074 A 
ATOM     50  C   UNL A   1      39.544  30.896  32.554  1.00  0.00     0.031 C 
ATOM     51  C   UNL A   1      41.243  27.638  26.820  1.00  0.00     0.029 A 
ATOM     52  C   UNL A   1      41.931  27.155  28.013  1.00  0.00     0.049 A 
ATOM     53  H   UNL A   1      41.860  28.104  29.887  1.00  0.00     0.167 HD
ATOM     54  C   UNL A   1      41.579  30.032  33.685  1.00  0.00     0.034 A 
ATOM     55  C   UNL A   1      42.754  26.073  28.093  1.00  0.00     0.034 A 
ATOM     56  C   UNL A   1      42.786  29.243  33.742  1.00  0.00     0.049 A 
ATOM     57  C   UNL A   1      43.595  25.938  29.347  1.00  0.00     0.074 A 
ATOM     58  C   UNL A   1      43.771  29.243  34.717  1.00  0.00     0.029 A 
ATOM     59  N   UNL A   1      43.195  28.336  32.774  1.00  0.00    -0.354 N 
ATOM     60  N   UNL A   1      43.524  26.619  30.466  1.00  0.00    -0.248 NA
ATOM     61  C   UNL A   1      44.706  24.971  29.305  1.00  0.00     0.031 C 
ATOM     62  C   UNL A   1      44.801  28.388  34.308  1.00  0.00     0.029 A 
ATOM     63  C   UNL A   1      44.420  27.782  33.123  1.00  0.00     0.049 A 
ATOM     64  H   UNL A   1      42.688  28.116  31.959  1.00  0.00     0.167 HD
ATOM     65  C   UNL A   1      44.629  26.227  31.216  1.00  0.00     0.074 A 
ATOM     66  C   UNL A   1      45.279  25.162  30.484  1.00  0.00     0.031 C 
ATOM     67  C   UNL A   1      45.102  26.755  32.372  1.00  0.00     0.034 A 
BRANCH  54  68
ATOM     68  C   UNL A   1      41.319  31.055  34.763  1.00  0.00     0.023 A 
ATOM     69  C   UNL A   1      40.169  30.999  35.567  1.00  0.00     0.031 A 
ATOM     70  C   UNL A   1      42.171  32.165  34.900  1.00  0.00     0.131 A 
ATOM     71  C   UNL A   1      39.844  32.089  36.387  1.00  0.00     0.055 A 
ATOM     72  C   UNL A   1      41.894  33.198  35.795  1.00  0.00     0.041 A 
ATOM     73  F   UNL A   1      43.266  32.285  34.133  1.00  0.00    -0.206 F 
ATOM     74  C   UNL A   1      40.713  33.175  36.529  1.00  0.00     0.022 A 
BRANCH  71  75
ATOM     75  S   UNL A   1      38.177  32.162  37.095  1.00  0.00     0.124 S 
ATOM     76  O   UNL A   1      38.473  32.346  38.515  1.00  0.00    -0.237 OA
ATOM     77  O   UNL A   1      37.592  33.309  36.412  1.00  0.00    -0.237 OA
ATOM     78  O   UNL A   1      37.601  30.865  36.749  1.00  0.00    -0.744 OA
ENDBRANCH  71  75
ENDBRANCH  54  68
BRANCH  55  79
ATOM     79  C   UNL A   1      42.901  25.026  27.004  1.00  0.00     0.023 A 
ATOM     80  C   UNL A   1      42.135  23.829  27.026  1.00  0.00     0.031 A 
ATOM     81  C   UNL A   1      43.845  25.133  25.970  1.00  0.00     0.131 A 
ATOM     82  C   UNL A   1      42.342  22.815  26.065  1.00  0.00     0.055 A 
ATOM     83  C   UNL A   1      43.961  24.178  24.951  1.00  0.00     0.041 A 
ATOM     84  F   UNL A   1      44.707  26.160  25.933  1.00  0.00    -0.206 F 
ATOM     85  C   UNL A   1      43.213  23.010  24.997  1.00  0.00     0.022 A 
BRANCH  82  86
ATOM     86  S   UNL A   1      41.610  21.162  26.313  1.00  0.00     0.124 S 
ATOM     87  O   UNL A   1      40.191  21.430  26.105  1.00  0.00    -0.237 OA
ATOM     88  O   UNL A   1      42.273  20.369  25.285  1.00  0.00    -0.237 OA
ATOM     89  O   UNL A   1      41.981  20.828  27.689  1.00  0.00    -0.744 OA
ENDBRANCH  82  86
ENDBRANCH  55  79
BRANCH  67  90
ATOM     90  C   UNL A   1      46.410  26.206  32.891  1.00  0.00     0.023 A 
ATOM     91  C   UNL A   1      47.647  26.639  32.373  1.00  0.00     0.031 A 
ATOM     92  C   UNL A   1      46.423  25.220  33.891  1.00  0.00     0.131 A 
ATOM     93  C   UNL A   1      48.839  26.036  32.807  1.00  0.00     0.055 A 
ATOM     94  C   UNL A   1      47.617  24.671  34.365  1.00  0.00     0.041 A 
ATOM     95  F   UNL A   1      45.276  24.766  34.419  1.00  0.00    -0.206 F 
ATOM     96  C   UNL A   1      48.832  25.067  33.813  1.00  0.00     0.022 A 
BRANCH  93  97
ATOM     97  S   UNL A   1      50.392  26.457  31.964  1.00  0.00     0.124 S 
ATOM     98  O   UNL A   1      50.056  26.203  30.567  1.00  0.00    -0.237 OA
ATOM     99  O   UNL A   1      50.582  27.856  32.332  1.00  0.00    -0.237 OA
ATOM    100  O   UNL A   1      51.360  25.528  32.547  1.00  0.00    -0.744 OA
ENDBRANCH  93  97
ENDBRANCH  67  90
ENDBRANCH  41  42
ENDBRANCH  34  36
ENDBRANCH  33  34
ENDBRANCH  32  33
ENDBRANCH  31  32
ENDBRANCH  30  31
ENDBRANCH  29  30
ENDBRANCH   1  29
TORSDOF 24
ENDMDL
