MODEL 1
REMARK VINA RESULT:     -10.6      0.000      0.000
REMARK SMILES O=C(CC[C@]12C[C@H]3C[C@H](C[C@H](C3)C1)C2)OCCOCCOCCOC(=O)c1ccc(-c2c3nc(c(-c4cc(S(=O)(=O)[O-])ccc4F)c4ccc([nH]4)c(-c4cc(S(=O)(=O)[O-])ccc4F)c4nc(c(-c5cc(S(=O)(=O)[O-])ccc5F)c5ccc2[nH]5)C=C4)C=C3)cc1
REMARK SMILES IDX 20 1 19 2 18 3 17 4 16 5 15 6 2 7 1 8 3 9 4 10 5 11 6 12
REMARK SMILES IDX 13 13 14 14 7 15 11 16 9 17 8 18 12 19 10 20 21 21 22 22
REMARK SMILES IDX 23 23 24 24 25 25 26 26 27 27 28 28 89 29 29 30 88 31 30 32
REMARK SMILES IDX 31 33 32 34 82 35 33 36 87 37 81 38 83 39 34 40 86 41 80 42
REMARK SMILES IDX 79 43 35 45 67 46 47 47 66 48 48 49 51 50 65 51 84 52 49 53
REMARK SMILES IDX 50 54 64 56 85 57 52 58 36 59 37 60 45 61 38 62 44 63 46 64
REMARK SMILES IDX 43 65 39 66 40 67 41 68 42 69 68 70 69 71 77 72 70 73 76 74
REMARK SMILES IDX 78 75 75 76 71 77 72 78 73 79 74 80 53 81 54 82 62 83 55 84
REMARK SMILES IDX 61 85 63 86 60 87 56 88 57 89 58 90 59 91
REMARK H PARENT 83 44 51 55
REMARK Flexibility Score: inf
ROOT
ATOM      1  C   UNL A   1      35.523  23.410  26.006  1.00  0.00     0.188 C 
ENDROOT
BRANCH   1   2
ATOM      2  C   UNL A   1      34.414  23.184  27.038  1.00  0.00     0.188 C 
BRANCH   2   3
ATOM      3  O   UNL A   1      33.144  23.719  26.746  1.00  0.00    -0.376 OA
BRANCH   3   4
ATOM      4  C   UNL A   1      32.018  22.964  27.130  1.00  0.00     0.202 C 
BRANCH   4   5
ATOM      5  C   UNL A   1      30.718  23.118  26.374  1.00  0.00     0.261 C 
BRANCH   5   6
ATOM      6  O   UNL A   1      30.709  22.948  24.928  1.00  0.00    -0.463 OA
BRANCH   6   7
ATOM      7  C   UNL A   1      31.186  23.629  23.866  1.00  0.00     0.305 C 
ATOM      8  O   UNL A   1      32.204  23.205  23.317  1.00  0.00    -0.252 OA
BRANCH   7   9
ATOM      9  C   UNL A   1      30.584  24.940  23.403  1.00  0.00     0.123 C 
BRANCH   9  10
ATOM     10  C   UNL A   1      30.139  25.915  24.520  1.00  0.00     0.019 C 
BRANCH  10  11
ATOM     11  C   UNL A   1      31.206  26.928  25.016  1.00  0.00    -0.028 C 
ATOM     12  C   UNL A   1      30.916  28.307  24.396  1.00  0.00     0.010 C 
ATOM     13  C   UNL A   1      32.652  26.578  24.558  1.00  0.00     0.010 C 
ATOM     14  C   UNL A   1      31.282  26.942  26.567  1.00  0.00     0.010 C 
ATOM     15  C   UNL A   1      31.842  29.394  24.929  1.00  0.00    -0.010 C 
ATOM     16  C   UNL A   1      33.651  27.664  25.057  1.00  0.00    -0.010 C 
ATOM     17  C   UNL A   1      32.187  28.081  27.060  1.00  0.00    -0.010 C 
ATOM     18  C   UNL A   1      31.782  29.441  26.463  1.00  0.00     0.007 C 
ATOM     19  C   UNL A   1      33.262  29.040  24.484  1.00  0.00     0.007 C 
ATOM     20  C   UNL A   1      33.614  27.761  26.596  1.00  0.00     0.007 C 
ENDBRANCH  10  11
ENDBRANCH   9  10
ENDBRANCH   7   9
ENDBRANCH   6   7
ENDBRANCH   5   6
ENDBRANCH   4   5
ENDBRANCH   3   4
ENDBRANCH   2   3
ENDBRANCH   1   2
BRANCH   1  21
ATOM     21  O   UNL A   1      35.602  22.579  24.855  1.00  0.00    -0.376 OA
BRANCH  21  22
ATOM     22  C   UNL A   1      35.725  21.167  24.971  1.00  0.00     0.202 C 
BRANCH  22  23
ATOM     23  C   UNL A   1      37.101  20.507  25.018  1.00  0.00     0.261 C 
BRANCH  23  24
ATOM     24  O   UNL A   1      38.190  21.436  25.032  1.00  0.00    -0.460 OA
BRANCH  24  25
ATOM     25  C   UNL A   1      39.221  21.105  25.843  1.00  0.00     0.338 C 
ATOM     26  O   UNL A   1      39.821  20.041  25.877  1.00  0.00    -0.246 OA
BRANCH  25  27
ATOM     27  C   UNL A   1      39.632  22.297  26.598  1.00  0.00     0.060 A 
ATOM     28  C   UNL A   1      39.123  23.552  26.226  1.00  0.00     0.016 A 
ATOM     29  C   UNL A   1      40.541  22.171  27.647  1.00  0.00     0.016 A 
ATOM     30  C   UNL A   1      39.562  24.700  26.876  1.00  0.00     0.010 A 
ATOM     31  C   UNL A   1      41.014  23.321  28.269  1.00  0.00     0.010 A 
ATOM     32  C   UNL A   1      40.563  24.587  27.847  1.00  0.00    -0.014 A 
BRANCH  32  33
ATOM     33  C   UNL A   1      41.388  25.760  28.199  1.00  0.00     0.031 A 
ATOM     34  C   UNL A   1      40.689  26.895  28.890  1.00  0.00     0.074 A 
ATOM     35  C   UNL A   1      42.680  25.841  27.849  1.00  0.00     0.049 A 
ATOM     36  N   UNL A   1      41.095  28.115  29.111  1.00  0.00    -0.248 NA
ATOM     37  C   UNL A   1      39.325  26.614  29.369  1.00  0.00     0.031 C 
ATOM     38  C   UNL A   1      43.455  24.771  27.227  1.00  0.00     0.029 A 
ATOM     39  N   UNL A   1      43.552  26.894  27.933  1.00  0.00    -0.354 N 
ATOM     40  C   UNL A   1      40.027  28.756  29.730  1.00  0.00     0.074 A 
ATOM     41  C   UNL A   1      38.947  27.798  29.816  1.00  0.00     0.031 C 
ATOM     42  C   UNL A   1      44.685  25.237  26.949  1.00  0.00     0.029 A 
ATOM     43  C   UNL A   1      44.758  26.649  27.323  1.00  0.00     0.049 A 
ATOM     44  H   UNL A   1      43.336  27.741  28.387  1.00  0.00     0.167 HD
ATOM     45  C   UNL A   1      39.957  30.032  30.178  1.00  0.00     0.034 A 
ATOM     46  C   UNL A   1      45.776  27.491  27.054  1.00  0.00     0.034 A 
ATOM     47  C   UNL A   1      41.045  30.968  30.040  1.00  0.00     0.049 A 
ATOM     48  C   UNL A   1      45.654  28.936  27.478  1.00  0.00     0.074 A 
ATOM     49  C   UNL A   1      41.109  32.284  30.458  1.00  0.00     0.029 A 
ATOM     50  N   UNL A   1      42.254  30.688  29.411  1.00  0.00    -0.354 N 
ATOM     51  N   UNL A   1      44.646  29.545  28.062  1.00  0.00    -0.248 NA
ATOM     52  C   UNL A   1      46.806  29.806  27.210  1.00  0.00     0.031 C 
ATOM     53  C   UNL A   1      42.318  32.823  30.005  1.00  0.00     0.029 A 
ATOM     54  C   UNL A   1      43.055  31.818  29.398  1.00  0.00     0.049 A 
ATOM     55  H   UNL A   1      42.503  29.815  29.031  1.00  0.00     0.167 HD
ATOM     56  C   UNL A   1      45.059  30.858  28.270  1.00  0.00     0.074 A 
ATOM     57  C   UNL A   1      46.406  30.954  27.742  1.00  0.00     0.031 C 
ATOM     58  C   UNL A   1      44.397  31.888  28.860  1.00  0.00     0.034 A 
BRANCH  45  59
ATOM     59  C   UNL A   1      38.644  30.485  30.772  1.00  0.00     0.023 A 
ATOM     60  C   UNL A   1      37.656  31.116  29.994  1.00  0.00     0.031 A 
ATOM     61  C   UNL A   1      38.410  30.361  32.153  1.00  0.00     0.131 A 
ATOM     62  C   UNL A   1      36.536  31.689  30.614  1.00  0.00     0.055 A 
ATOM     63  C   UNL A   1      37.243  30.844  32.749  1.00  0.00     0.041 A 
ATOM     64  F   UNL A   1      39.326  29.798  32.955  1.00  0.00    -0.206 F 
ATOM     65  C   UNL A   1      36.308  31.533  31.983  1.00  0.00     0.022 A 
BRANCH  62  66
ATOM     66  S   UNL A   1      35.489  32.809  29.643  1.00  0.00     0.124 S 
ATOM     67  O   UNL A   1      34.231  32.753  30.384  1.00  0.00    -0.237 OA
ATOM     68  O   UNL A   1      36.219  34.069  29.721  1.00  0.00    -0.237 OA
ATOM     69  O   UNL A   1      35.454  32.186  28.322  1.00  0.00    -0.744 OA
ENDBRANCH  62  66
ENDBRANCH  45  59
BRANCH  46  70
ATOM     70  C   UNL A   1      46.970  26.999  26.312  1.00  0.00     0.023 A 
ATOM     71  C   UNL A   1      48.051  26.411  26.984  1.00  0.00     0.031 A 
ATOM     72  C   UNL A   1      47.045  27.109  24.911  1.00  0.00     0.131 A 
ATOM     73  C   UNL A   1      49.174  25.979  26.259  1.00  0.00     0.055 A 
ATOM     74  C   UNL A   1      48.141  26.633  24.190  1.00  0.00     0.041 A 
ATOM     75  F   UNL A   1      46.038  27.664  24.218  1.00  0.00    -0.206 F 
ATOM     76  C   UNL A   1      49.219  26.070  24.866  1.00  0.00     0.022 A 
BRANCH  73  77
ATOM     77  S   UNL A   1      50.608  25.347  27.172  1.00  0.00     0.124 S 
ATOM     78  O   UNL A   1      51.004  26.517  27.948  1.00  0.00    -0.237 OA
ATOM     79  O   UNL A   1      50.026  24.243  27.926  1.00  0.00    -0.237 OA
ATOM     80  O   UNL A   1      51.538  24.955  26.115  1.00  0.00    -0.744 OA
ENDBRANCH  73  77
ENDBRANCH  46  70
BRANCH  58  81
ATOM     81  C   UNL A   1      45.144  33.188  29.039  1.00  0.00     0.023 A 
ATOM     82  C   UNL A   1      45.135  34.200  28.064  1.00  0.00     0.031 A 
ATOM     83  C   UNL A   1      45.848  33.425  30.235  1.00  0.00     0.131 A 
ATOM     84  C   UNL A   1      45.851  35.387  28.288  1.00  0.00     0.055 A 
ATOM     85  C   UNL A   1      46.501  34.632  30.478  1.00  0.00     0.041 A 
ATOM     86  F   UNL A   1      45.892  32.490  31.198  1.00  0.00    -0.206 F 
ATOM     87  C   UNL A   1      46.514  35.619  29.497  1.00  0.00     0.022 A 
BRANCH  84  88
ATOM     88  S   UNL A   1      45.973  36.601  26.947  1.00  0.00     0.124 S 
ATOM     89  O   UNL A   1      46.164  35.745  25.780  1.00  0.00    -0.237 OA
ATOM     90  O   UNL A   1      44.689  37.290  27.029  1.00  0.00    -0.237 OA
ATOM     91  O   UNL A   1      47.133  37.409  27.318  1.00  0.00    -0.744 OA
ENDBRANCH  84  88
ENDBRANCH  58  81
ENDBRANCH  32  33
ENDBRANCH  25  27
ENDBRANCH  24  25
ENDBRANCH  23  24
ENDBRANCH  22  23
ENDBRANCH  21  22
ENDBRANCH   1  21
TORSDOF 22
ENDMDL
MODEL 2
REMARK VINA RESULT:     -10.4      1.688      7.806
REMARK SMILES O=C(CC[C@]12C[C@H]3C[C@H](C[C@H](C3)C1)C2)OCCOCCOCCOC(=O)c1ccc(-c2c3nc(c(-c4cc(S(=O)(=O)[O-])ccc4F)c4ccc([nH]4)c(-c4cc(S(=O)(=O)[O-])ccc4F)c4nc(c(-c5cc(S(=O)(=O)[O-])ccc5F)c5ccc2[nH]5)C=C4)C=C3)cc1
REMARK SMILES IDX 20 1 19 2 18 3 17 4 16 5 15 6 2 7 1 8 3 9 4 10 5 11 6 12
REMARK SMILES IDX 13 13 14 14 7 15 11 16 9 17 8 18 12 19 10 20 21 21 22 22
REMARK SMILES IDX 23 23 24 24 25 25 26 26 27 27 28 28 89 29 29 30 88 31 30 32
REMARK SMILES IDX 31 33 32 34 82 35 33 36 87 37 81 38 83 39 34 40 86 41 80 42
REMARK SMILES IDX 79 43 35 45 67 46 47 47 66 48 48 49 51 50 65 51 84 52 49 53
REMARK SMILES IDX 50 54 64 56 85 57 52 58 36 59 37 60 45 61 38 62 44 63 46 64
REMARK SMILES IDX 43 65 39 66 40 67 41 68 42 69 68 70 69 71 77 72 70 73 76 74
REMARK SMILES IDX 78 75 75 76 71 77 72 78 73 79 74 80 53 81 54 82 62 83 55 84
REMARK SMILES IDX 61 85 63 86 60 87 56 88 57 89 58 90 59 91
REMARK H PARENT 83 44 51 55
REMARK Flexibility Score: inf
ROOT
ATOM      1  C   UNL A   1      37.035  21.717  25.096  1.00  0.00     0.188 C 
ENDROOT
BRANCH   1   2
ATOM      2  C   UNL A   1      35.523  21.599  24.875  1.00  0.00     0.188 C 
BRANCH   2   3
ATOM      3  O   UNL A   1      34.713  21.475  26.021  1.00  0.00    -0.376 OA
BRANCH   3   4
ATOM      4  C   UNL A   1      33.643  20.561  25.963  1.00  0.00     0.202 C 
BRANCH   4   5
ATOM      5  C   UNL A   1      32.581  20.713  24.897  1.00  0.00     0.261 C 
BRANCH   5   6
ATOM      6  O   UNL A   1      31.814  21.948  24.826  1.00  0.00    -0.463 OA
BRANCH   6   7
ATOM      7  C   UNL A   1      31.344  22.853  25.708  1.00  0.00     0.305 C 
ATOM      8  O   UNL A   1      30.295  22.593  26.300  1.00  0.00    -0.252 OA
BRANCH   7   9
ATOM      9  C   UNL A   1      31.992  24.208  25.909  1.00  0.00     0.123 C 
BRANCH   9  10
ATOM     10  C   UNL A   1      31.069  25.437  25.729  1.00  0.00     0.019 C 
BRANCH  10  11
ATOM     11  C   UNL A   1      31.751  26.830  25.827  1.00  0.00    -0.028 C 
ATOM     12  C   UNL A   1      33.256  26.673  25.546  1.00  0.00     0.010 C 
ATOM     13  C   UNL A   1      31.671  27.459  27.249  1.00  0.00     0.010 C 
ATOM     14  C   UNL A   1      31.045  27.860  24.905  1.00  0.00     0.010 C 
ATOM     15  C   UNL A   1      33.983  28.011  25.496  1.00  0.00    -0.010 C 
ATOM     16  C   UNL A   1      32.415  28.828  27.272  1.00  0.00    -0.010 C 
ATOM     17  C   UNL A   1      31.837  29.175  24.848  1.00  0.00    -0.010 C 
ATOM     18  C   UNL A   1      33.313  28.945  24.478  1.00  0.00     0.007 C 
ATOM     19  C   UNL A   1      33.895  28.629  26.892  1.00  0.00     0.007 C 
ATOM     20  C   UNL A   1      31.787  29.797  26.250  1.00  0.00     0.007 C 
ENDBRANCH  10  11
ENDBRANCH   9  10
ENDBRANCH   7   9
ENDBRANCH   6   7
ENDBRANCH   5   6
ENDBRANCH   4   5
ENDBRANCH   3   4
ENDBRANCH   2   3
ENDBRANCH   1   2
BRANCH   1  21
ATOM     21  O   UNL A   1      37.905  20.706  24.604  1.00  0.00    -0.376 OA
BRANCH  21  22
ATOM     22  C   UNL A   1      38.199  19.548  25.374  1.00  0.00     0.202 C 
BRANCH  22  23
ATOM     23  C   UNL A   1      39.644  19.186  25.714  1.00  0.00     0.261 C 
BRANCH  23  24
ATOM     24  O   UNL A   1      40.518  20.315  25.807  1.00  0.00    -0.460 OA
BRANCH  24  25
ATOM     25  C   UNL A   1      41.169  20.445  26.986  1.00  0.00     0.338 C 
ATOM     26  O   UNL A   1      41.821  19.590  27.567  1.00  0.00    -0.246 OA
BRANCH  25  27
ATOM     27  C   UNL A   1      41.108  21.851  27.409  1.00  0.00     0.060 A 
ATOM     28  C   UNL A   1      40.206  22.719  26.771  1.00  0.00     0.016 A 
ATOM     29  C   UNL A   1      41.965  22.310  28.409  1.00  0.00     0.016 A 
ATOM     30  C   UNL A   1      40.191  24.070  27.102  1.00  0.00     0.010 A 
ATOM     31  C   UNL A   1      41.981  23.666  28.709  1.00  0.00     0.010 A 
ATOM     32  C   UNL A   1      41.131  24.553  28.019  1.00  0.00    -0.014 A 
BRANCH  32  33
ATOM     33  C   UNL A   1      41.480  25.987  28.035  1.00  0.00     0.031 A 
ATOM     34  C   UNL A   1      42.832  26.359  27.500  1.00  0.00     0.074 A 
ATOM     35  C   UNL A   1      40.663  26.903  28.575  1.00  0.00     0.049 A 
ATOM     36  N   UNL A   1      43.486  27.485  27.593  1.00  0.00    -0.248 NA
ATOM     37  C   UNL A   1      43.556  25.295  26.785  1.00  0.00     0.031 C 
ATOM     38  C   UNL A   1      39.312  26.645  29.068  1.00  0.00     0.029 A 
ATOM     39  N   UNL A   1      40.875  28.232  28.832  1.00  0.00    -0.354 N 
ATOM     40  C   UNL A   1      44.710  27.255  26.973  1.00  0.00     0.074 A 
ATOM     41  C   UNL A   1      44.717  25.876  26.540  1.00  0.00     0.031 C 
ATOM     42  C   UNL A   1      38.828  27.777  29.607  1.00  0.00     0.029 A 
ATOM     43  C   UNL A   1      39.856  28.816  29.544  1.00  0.00     0.049 A 
ATOM     44  H   UNL A   1      41.677  28.720  28.536  1.00  0.00     0.167 HD
ATOM     45  C   UNL A   1      45.736  28.121  26.790  1.00  0.00     0.034 A 
ATOM     46  C   UNL A   1      39.791  30.032  30.121  1.00  0.00     0.034 A 
ATOM     47  C   UNL A   1      45.704  29.480  27.271  1.00  0.00     0.049 A 
ATOM     48  C   UNL A   1      40.977  30.961  29.990  1.00  0.00     0.074 A 
ATOM     49  C   UNL A   1      46.669  30.463  27.144  1.00  0.00     0.029 A 
ATOM     50  N   UNL A   1      44.655  30.039  27.994  1.00  0.00    -0.354 N 
ATOM     51  N   UNL A   1      42.135  30.747  29.405  1.00  0.00    -0.248 NA
ATOM     52  C   UNL A   1      40.845  32.293  30.590  1.00  0.00     0.031 C 
ATOM     53  C   UNL A   1      46.242  31.583  27.865  1.00  0.00     0.029 A 
ATOM     54  C   UNL A   1      44.966  31.340  28.351  1.00  0.00     0.049 A 
ATOM     55  H   UNL A   1      43.816  29.578  28.218  1.00  0.00     0.167 HD
ATOM     56  C   UNL A   1      42.853  31.933  29.531  1.00  0.00     0.074 A 
ATOM     57  C   UNL A   1      41.999  32.855  30.254  1.00  0.00     0.031 C 
ATOM     58  C   UNL A   1      44.096  32.242  29.077  1.00  0.00     0.034 A 
BRANCH  45  59
ATOM     59  C   UNL A   1      46.980  27.586  26.122  1.00  0.00     0.023 A 
ATOM     60  C   UNL A   1      47.324  27.936  24.804  1.00  0.00     0.031 A 
ATOM     61  C   UNL A   1      47.790  26.645  26.782  1.00  0.00     0.131 A 
ATOM     62  C   UNL A   1      48.378  27.275  24.155  1.00  0.00     0.055 A 
ATOM     63  C   UNL A   1      48.901  26.067  26.164  1.00  0.00     0.041 A 
ATOM     64  F   UNL A   1      47.498  26.245  28.029  1.00  0.00    -0.206 F 
ATOM     65  C   UNL A   1      49.187  26.363  24.835  1.00  0.00     0.022 A 
BRANCH  62  66
ATOM     66  S   UNL A   1      48.549  27.475  22.359  1.00  0.00     0.124 S 
ATOM     67  O   UNL A   1      49.802  28.220  22.264  1.00  0.00    -0.237 OA
ATOM     68  O   UNL A   1      48.589  26.096  21.891  1.00  0.00    -0.237 OA
ATOM     69  O   UNL A   1      47.355  28.230  21.983  1.00  0.00    -0.744 OA
ENDBRANCH  62  66
ENDBRANCH  45  59
BRANCH  46  70
ATOM     70  C   UNL A   1      38.588  30.419  30.908  1.00  0.00     0.023 A 
ATOM     71  C   UNL A   1      37.539  31.141  30.323  1.00  0.00     0.031 A 
ATOM     72  C   UNL A   1      38.469  30.066  32.265  1.00  0.00     0.131 A 
ATOM     73  C   UNL A   1      36.427  31.512  31.097  1.00  0.00     0.055 A 
ATOM     74  C   UNL A   1      37.341  30.393  33.019  1.00  0.00     0.041 A 
ATOM     75  F   UNL A   1      39.445  29.374  32.876  1.00  0.00    -0.206 F 
ATOM     76  C   UNL A   1      36.313  31.128  32.436  1.00  0.00     0.022 A 
BRANCH  73  77
ATOM     77  S   UNL A   1      35.153  32.561  30.344  1.00  0.00     0.124 S 
ATOM     78  O   UNL A   1      34.210  32.718  31.445  1.00  0.00    -0.237 OA
ATOM     79  O   UNL A   1      35.916  33.749  29.977  1.00  0.00    -0.237 OA
ATOM     80  O   UNL A   1      34.675  31.759  29.220  1.00  0.00    -0.744 OA
ENDBRANCH  73  77
ENDBRANCH  46  70
BRANCH  58  81
ATOM     81  C   UNL A   1      44.581  33.657  29.276  1.00  0.00     0.023 A 
ATOM     82  C   UNL A   1      44.173  34.716  28.447  1.00  0.00     0.031 A 
ATOM     83  C   UNL A   1      45.444  33.950  30.350  1.00  0.00     0.131 A 
ATOM     84  C   UNL A   1      44.661  36.011  28.683  1.00  0.00     0.055 A 
ATOM     85  C   UNL A   1      45.871  35.250  30.618  1.00  0.00     0.041 A 
ATOM     86  F   UNL A   1      45.868  32.976  31.171  1.00  0.00    -0.206 F 
ATOM     87  C   UNL A   1      45.487  36.289  29.776  1.00  0.00     0.022 A 
BRANCH  84  88
ATOM     88  S   UNL A   1      44.263  37.324  27.496  1.00  0.00     0.124 S 
ATOM     89  O   UNL A   1      43.268  36.675  26.649  1.00  0.00    -0.237 OA
ATOM     90  O   UNL A   1      43.768  38.390  28.361  1.00  0.00    -0.237 OA
ATOM     91  O   UNL A   1      45.544  37.599  26.847  1.00  0.00    -0.744 OA
ENDBRANCH  84  88
ENDBRANCH  58  81
ENDBRANCH  32  33
ENDBRANCH  25  27
ENDBRANCH  24  25
ENDBRANCH  23  24
ENDBRANCH  22  23
ENDBRANCH  21  22
ENDBRANCH   1  21
TORSDOF 22
ENDMDL
MODEL 3
REMARK VINA RESULT:     -10.4      1.566      8.042
REMARK SMILES O=C(CC[C@]12C[C@H]3C[C@H](C[C@H](C3)C1)C2)OCCOCCOCCOC(=O)c1ccc(-c2c3nc(c(-c4cc(S(=O)(=O)[O-])ccc4F)c4ccc([nH]4)c(-c4cc(S(=O)(=O)[O-])ccc4F)c4nc(c(-c5cc(S(=O)(=O)[O-])ccc5F)c5ccc2[nH]5)C=C4)C=C3)cc1
REMARK SMILES IDX 20 1 19 2 18 3 17 4 16 5 15 6 2 7 1 8 3 9 4 10 5 11 6 12
REMARK SMILES IDX 13 13 14 14 7 15 11 16 9 17 8 18 12 19 10 20 21 21 22 22
REMARK SMILES IDX 23 23 24 24 25 25 26 26 27 27 28 28 89 29 29 30 88 31 30 32
REMARK SMILES IDX 31 33 32 34 82 35 33 36 87 37 81 38 83 39 34 40 86 41 80 42
REMARK SMILES IDX 79 43 35 45 67 46 47 47 66 48 48 49 51 50 65 51 84 52 49 53
REMARK SMILES IDX 50 54 64 56 85 57 52 58 36 59 37 60 45 61 38 62 44 63 46 64
REMARK SMILES IDX 43 65 39 66 40 67 41 68 42 69 68 70 69 71 77 72 70 73 76 74
REMARK SMILES IDX 78 75 75 76 71 77 72 78 73 79 74 80 53 81 54 82 62 83 55 84
REMARK SMILES IDX 61 85 63 86 60 87 56 88 57 89 58 90 59 91
REMARK H PARENT 83 44 51 55
REMARK Flexibility Score: inf
ROOT
ATOM      1  C   UNL A   1      36.453  22.011  24.970  1.00  0.00     0.188 C 
ENDROOT
BRANCH   1   2
ATOM      2  C   UNL A   1      34.993  21.588  24.776  1.00  0.00     0.188 C 
BRANCH   2   3
ATOM      3  O   UNL A   1      34.164  22.453  24.036  1.00  0.00    -0.376 OA
BRANCH   3   4
ATOM      4  C   UNL A   1      32.795  22.134  23.960  1.00  0.00     0.202 C 
BRANCH   4   5
ATOM      5  C   UNL A   1      32.145  21.341  25.071  1.00  0.00     0.261 C 
BRANCH   5   6
ATOM      6  O   UNL A   1      31.169  21.991  25.934  1.00  0.00    -0.463 OA
BRANCH   6   7
ATOM      7  C   UNL A   1      31.043  23.199  26.522  1.00  0.00     0.305 C 
ATOM      8  O   UNL A   1      30.197  23.326  27.408  1.00  0.00    -0.252 OA
BRANCH   7   9
ATOM      9  C   UNL A   1      31.817  24.415  26.056  1.00  0.00     0.123 C 
BRANCH   9  10
ATOM     10  C   UNL A   1      30.977  25.677  25.740  1.00  0.00     0.019 C 
BRANCH  10  11
ATOM     11  C   UNL A   1      31.713  27.040  25.855  1.00  0.00    -0.028 C 
ATOM     12  C   UNL A   1      33.227  26.808  25.698  1.00  0.00     0.010 C 
ATOM     13  C   UNL A   1      31.552  27.714  27.249  1.00  0.00     0.010 C 
ATOM     14  C   UNL A   1      31.131  28.072  24.853  1.00  0.00     0.010 C 
ATOM     15  C   UNL A   1      34.017  28.110  25.670  1.00  0.00    -0.010 C 
ATOM     16  C   UNL A   1      32.356  29.048  27.295  1.00  0.00    -0.010 C 
ATOM     17  C   UNL A   1      31.985  29.349  24.824  1.00  0.00    -0.010 C 
ATOM     18  C   UNL A   1      33.473  29.042  24.578  1.00  0.00     0.007 C 
ATOM     19  C   UNL A   1      33.850  28.773  27.039  1.00  0.00     0.007 C 
ATOM     20  C   UNL A   1      31.854  30.014  26.201  1.00  0.00     0.007 C 
ENDBRANCH  10  11
ENDBRANCH   9  10
ENDBRANCH   7   9
ENDBRANCH   6   7
ENDBRANCH   5   6
ENDBRANCH   4   5
ENDBRANCH   3   4
ENDBRANCH   2   3
ENDBRANCH   1   2
BRANCH   1  21
ATOM     21  O   UNL A   1      37.502  21.192  24.471  1.00  0.00    -0.376 OA
BRANCH  21  22
ATOM     22  C   UNL A   1      37.665  19.850  24.911  1.00  0.00     0.202 C 
BRANCH  22  23
ATOM     23  C   UNL A   1      39.015  19.357  25.426  1.00  0.00     0.261 C 
BRANCH  23  24
ATOM     24  O   UNL A   1      39.982  20.398  25.603  1.00  0.00    -0.460 OA
BRANCH  24  25
ATOM     25  C   UNL A   1      40.566  20.441  26.823  1.00  0.00     0.338 C 
ATOM     26  O   UNL A   1      41.089  19.514  27.425  1.00  0.00    -0.246 OA
BRANCH  25  27
ATOM     27  C   UNL A   1      40.619  21.839  27.274  1.00  0.00     0.060 A 
ATOM     28  C   UNL A   1      39.749  22.778  26.696  1.00  0.00     0.016 A 
ATOM     29  C   UNL A   1      41.549  22.218  28.241  1.00  0.00     0.016 A 
ATOM     30  C   UNL A   1      39.840  24.120  27.051  1.00  0.00     0.010 A 
ATOM     31  C   UNL A   1      41.671  23.564  28.565  1.00  0.00     0.010 A 
ATOM     32  C   UNL A   1      40.852  24.519  27.931  1.00  0.00    -0.014 A 
BRANCH  32  33
ATOM     33  C   UNL A   1      41.297  25.927  27.956  1.00  0.00     0.031 A 
ATOM     34  C   UNL A   1      42.675  26.209  27.432  1.00  0.00     0.074 A 
ATOM     35  C   UNL A   1      40.540  26.894  28.495  1.00  0.00     0.049 A 
ATOM     36  N   UNL A   1      43.403  27.287  27.535  1.00  0.00    -0.248 NA
ATOM     37  C   UNL A   1      43.330  25.101  26.716  1.00  0.00     0.031 C 
ATOM     38  C   UNL A   1      39.172  26.725  28.978  1.00  0.00     0.029 A 
ATOM     39  N   UNL A   1      40.840  28.204  28.760  1.00  0.00    -0.354 N 
ATOM     40  C   UNL A   1      44.613  26.978  26.922  1.00  0.00     0.074 A 
ATOM     41  C   UNL A   1      44.529  25.602  26.483  1.00  0.00     0.031 C 
ATOM     42  C   UNL A   1      38.762  27.885  29.519  1.00  0.00     0.029 A 
ATOM     43  C   UNL A   1      39.858  28.852  29.468  1.00  0.00     0.049 A 
ATOM     44  H   UNL A   1      41.676  28.638  28.471  1.00  0.00     0.167 HD
ATOM     45  C   UNL A   1      45.696  27.773  26.750  1.00  0.00     0.034 A 
ATOM     46  C   UNL A   1      39.872  30.068  30.051  1.00  0.00     0.034 A 
ATOM     47  C   UNL A   1      45.754  29.128  27.237  1.00  0.00     0.049 A 
ATOM     48  C   UNL A   1      41.118  30.915  29.932  1.00  0.00     0.074 A 
ATOM     49  C   UNL A   1      46.783  30.044  27.121  1.00  0.00     0.029 A 
ATOM     50  N   UNL A   1      44.740  29.754  27.955  1.00  0.00    -0.354 N 
ATOM     51  N   UNL A   1      42.263  30.625  29.354  1.00  0.00    -0.248 NA
ATOM     52  C   UNL A   1      41.074  32.250  30.538  1.00  0.00     0.031 C 
ATOM     53  C   UNL A   1      46.429  31.187  27.845  1.00  0.00     0.029 A 
ATOM     54  C   UNL A   1      45.136  31.030  28.322  1.00  0.00     0.049 A 
ATOM     55  H   UNL A   1      43.870  29.350  28.172  1.00  0.00     0.167 HD
ATOM     56  C   UNL A   1      43.060  31.760  29.490  1.00  0.00     0.074 A 
ATOM     57  C   UNL A   1      42.265  32.734  30.212  1.00  0.00     0.031 C 
ATOM     58  C   UNL A   1      44.324  31.985  29.046  1.00  0.00     0.034 A 
BRANCH  45  59
ATOM     59  C   UNL A   1      46.906  27.158  26.088  1.00  0.00     0.023 A 
ATOM     60  C   UNL A   1      47.840  26.392  26.810  1.00  0.00     0.031 A 
ATOM     61  C   UNL A   1      47.178  27.411  24.732  1.00  0.00     0.131 A 
ATOM     62  C   UNL A   1      49.043  25.998  26.205  1.00  0.00     0.055 A 
ATOM     63  C   UNL A   1      48.330  26.928  24.107  1.00  0.00     0.041 A 
ATOM     64  F   UNL A   1      46.344  28.162  23.995  1.00  0.00    -0.206 F 
ATOM     65  C   UNL A   1      49.282  26.237  24.850  1.00  0.00     0.022 A 
BRANCH  62  66
ATOM     66  S   UNL A   1      50.370  25.351  27.259  1.00  0.00     0.124 S 
ATOM     67  O   UNL A   1      50.634  26.492  28.133  1.00  0.00    -0.237 OA
ATOM     68  O   UNL A   1      49.739  24.198  27.889  1.00  0.00    -0.237 OA
ATOM     69  O   UNL A   1      51.439  25.041  26.313  1.00  0.00    -0.744 OA
ENDBRANCH  62  66
ENDBRANCH  45  59
BRANCH  46  70
ATOM     70  C   UNL A   1      38.692  30.531  30.832  1.00  0.00     0.023 A 
ATOM     71  C   UNL A   1      37.647  31.237  30.218  1.00  0.00     0.031 A 
ATOM     72  C   UNL A   1      38.592  30.272  32.211  1.00  0.00     0.131 A 
ATOM     73  C   UNL A   1      36.559  31.683  30.986  1.00  0.00     0.055 A 
ATOM     74  C   UNL A   1      37.485  30.673  32.961  1.00  0.00     0.041 A 
ATOM     75  F   UNL A   1      39.565  29.600  32.849  1.00  0.00    -0.206 F 
ATOM     76  C   UNL A   1      36.463  31.390  32.349  1.00  0.00     0.022 A 
BRANCH  73  77
ATOM     77  S   UNL A   1      35.293  32.707  30.188  1.00  0.00     0.124 S 
ATOM     78  O   UNL A   1      34.513  33.159  31.333  1.00  0.00    -0.237 OA
ATOM     79  O   UNL A   1      36.100  33.721  29.518  1.00  0.00    -0.237 OA
ATOM     80  O   UNL A   1      34.610  31.771  29.298  1.00  0.00    -0.744 OA
ENDBRANCH  73  77
ENDBRANCH  46  70
BRANCH  58  81
ATOM     81  C   UNL A   1      44.902  33.363  29.255  1.00  0.00     0.023 A 
ATOM     82  C   UNL A   1      45.558  33.732  30.442  1.00  0.00     0.031 A 
ATOM     83  C   UNL A   1      44.824  34.313  28.219  1.00  0.00     0.131 A 
ATOM     84  C   UNL A   1      46.074  35.031  30.577  1.00  0.00     0.055 A 
ATOM     85  C   UNL A   1      45.397  35.579  28.335  1.00  0.00     0.041 A 
ATOM     86  F   UNL A   1      44.206  34.015  27.064  1.00  0.00    -0.206 F 
ATOM     87  C   UNL A   1      46.019  35.947  29.524  1.00  0.00     0.022 A 
BRANCH  84  88
ATOM     88  S   UNL A   1      46.754  35.539  32.180  1.00  0.00     0.124 S 
ATOM     89  O   UNL A   1      46.495  34.363  33.005  1.00  0.00    -0.237 OA
ATOM     90  O   UNL A   1      48.155  35.796  31.859  1.00  0.00    -0.237 OA
ATOM     91  O   UNL A   1      45.970  36.723  32.526  1.00  0.00    -0.744 OA
ENDBRANCH  84  88
ENDBRANCH  58  81
ENDBRANCH  32  33
ENDBRANCH  25  27
ENDBRANCH  24  25
ENDBRANCH  23  24
ENDBRANCH  22  23
ENDBRANCH  21  22
ENDBRANCH   1  21
TORSDOF 22
ENDMDL
