MODEL 1
REMARK VINA RESULT:     -10.0      0.000      0.000
REMARK SMILES CCCc1cc(OC(F)(F)F)cc2c1O[C@@H](C(F)(F)F)C(C(=O)OCCOCCOCCOC(=O)c1ccc(-c3c4nc(c(-c5cc(S(=O)(=O)[O-])ccc5F)c5ccc([nH]5)c(-c5cc(S(=O)(=O)[O-])ccc5F)c5nc(c(-c6cc(S(=O)(=O)[O-])ccc6F)c6ccc3[nH]6)C=C5)C=C4)cc1)=C2
REMARK SMILES IDX 29 1 28 2 27 3 26 4 25 5 24 6 22 7 23 8 21 9 4 10 5 11 14 12
REMARK SMILES IDX 6 13 13 14 15 15 12 16 99 17 16 18 3 19 2 20 1 21 7 22 8 23
REMARK SMILES IDX 9 24 10 25 11 26 17 27 18 28 19 29 20 30 30 31 31 32 32 33
REMARK SMILES IDX 33 34 34 35 35 36 36 37 37 38 98 39 38 40 97 41 39 42 40 43
REMARK SMILES IDX 41 44 91 45 42 46 96 47 90 48 92 49 43 50 95 51 89 52 88 53
REMARK SMILES IDX 44 55 76 56 56 57 75 58 57 59 60 60 74 61 93 62 58 63 59 64
REMARK SMILES IDX 73 66 94 67 61 68 45 69 46 70 54 71 47 72 53 73 55 74 52 75
REMARK SMILES IDX 48 76 49 77 50 78 51 79 77 80 78 81 86 82 79 83 85 84 87 85
REMARK SMILES IDX 84 86 80 87 81 88 82 89 83 90 62 91 63 92 71 93 64 94 70 95
REMARK SMILES IDX 72 96 69 97 65 98 66 99 67 100 68 101
REMARK H PARENT 92 54 60 65
REMARK Flexibility Score: inf
ROOT
ATOM      1  C   UNL A   1      32.845  29.675  26.437  1.00  0.00     0.188 C 
ENDROOT
BRANCH   1   2
ATOM      2  C   UNL A   1      33.767  28.793  25.571  1.00  0.00     0.188 C 
BRANCH   2   3
ATOM      3  O   UNL A   1      33.590  28.979  24.174  1.00  0.00    -0.376 OA
BRANCH   3   4
ATOM      4  C   UNL A   1      34.377  28.146  23.335  1.00  0.00     0.202 C 
BRANCH   4   5
ATOM      5  C   UNL A   1      33.666  27.772  22.032  1.00  0.00     0.261 C 
BRANCH   5   6
ATOM      6  O   UNL A   1      32.262  27.512  22.192  1.00  0.00    -0.460 OA
BRANCH   6   7
ATOM      7  C   UNL A   1      31.786  26.364  21.660  1.00  0.00     0.338 C 
ATOM      8  O   UNL A   1      31.466  26.199  20.496  1.00  0.00    -0.246 OA
BRANCH   7   9
ATOM      9  C   UNL A   1      31.790  25.304  22.687  1.00  0.00     0.087 C 
ATOM     10  C   UNL A   1      32.074  22.796  26.029  1.00  0.00    -0.002 A 
ATOM     11  C   UNL A   1      32.876  21.647  25.939  1.00  0.00     0.054 A 
ATOM     12  C   UNL A   1      31.998  23.639  24.907  1.00  0.00     0.131 A 
ATOM     13  C   UNL A   1      33.655  21.394  24.804  1.00  0.00     0.130 A 
ATOM     14  C   UNL A   1      32.768  23.394  23.761  1.00  0.00     0.021 A 
ATOM     15  O   UNL A   1      31.194  24.751  24.990  1.00  0.00    -0.475 OA
ATOM     16  C   UNL A   1      33.586  22.263  23.711  1.00  0.00     0.058 A 
ATOM     17  C   UNL A   1      32.770  24.383  22.683  1.00  0.00     0.027 C 
ATOM     18  C   UNL A   1      30.684  25.218  23.712  1.00  0.00     0.316 C 
BRANCH  10  19
ATOM     19  C   UNL A   1      31.261  23.114  27.270  1.00  0.00     0.039 C 
BRANCH  19  20
ATOM     20  C   UNL A   1      29.766  23.412  27.087  1.00  0.00     0.001 C 
ATOM     21  C   UNL A   1      28.862  22.246  27.470  1.00  0.00     0.004 C 
ENDBRANCH  19  20
ENDBRANCH  10  19
BRANCH  13  22
ATOM     22  O   UNL A   1      34.512  20.340  24.649  1.00  0.00    -0.406 OA
BRANCH  22  23
ATOM     23  C   UNL A   1      35.875  20.569  24.971  1.00  0.00     0.573 C 
ATOM     24  F   UNL A   1      36.475  21.364  24.059  1.00  0.00    -0.132 F 
ATOM     25  F   UNL A   1      36.000  21.115  26.199  1.00  0.00    -0.132 F 
ATOM     26  F   UNL A   1      36.524  19.381  24.974  1.00  0.00    -0.132 F 
ENDBRANCH  22  23
ENDBRANCH  13  22
BRANCH  18  27
ATOM     27  C   UNL A   1      29.815  26.462  23.954  1.00  0.00     0.430 C 
ATOM     28  F   UNL A   1      29.331  26.947  22.785  1.00  0.00    -0.167 F 
ATOM     29  F   UNL A   1      28.731  26.137  24.703  1.00  0.00    -0.167 F 
ATOM     30  F   UNL A   1      30.474  27.446  24.596  1.00  0.00    -0.167 F 
ENDBRANCH  18  27
ENDBRANCH   7   9
ENDBRANCH   6   7
ENDBRANCH   5   6
ENDBRANCH   4   5
ENDBRANCH   3   4
ENDBRANCH   2   3
ENDBRANCH   1   2
BRANCH   1  31
ATOM     31  O   UNL A   1      32.031  30.674  25.833  1.00  0.00    -0.376 OA
BRANCH  31  32
ATOM     32  C   UNL A   1      31.217  31.497  26.655  1.00  0.00     0.202 C 
BRANCH  32  33
ATOM     33  C   UNL A   1      31.733  32.897  27.008  1.00  0.00     0.261 C 
BRANCH  33  34
ATOM     34  O   UNL A   1      33.163  33.026  26.982  1.00  0.00    -0.460 OA
BRANCH  34  35
ATOM     35  C   UNL A   1      33.704  33.635  28.067  1.00  0.00     0.338 C 
ATOM     36  O   UNL A   1      33.198  34.513  28.744  1.00  0.00    -0.246 OA
BRANCH  35  37
ATOM     37  C   UNL A   1      34.965  32.963  28.442  1.00  0.00     0.060 A 
ATOM     38  C   UNL A   1      34.892  31.680  29.002  1.00  0.00     0.016 A 
ATOM     39  C   UNL A   1      36.194  33.613  28.318  1.00  0.00     0.016 A 
ATOM     40  C   UNL A   1      36.048  31.051  29.469  1.00  0.00     0.010 A 
ATOM     41  C   UNL A   1      37.347  32.993  28.810  1.00  0.00     0.010 A 
ATOM     42  C   UNL A   1      37.275  31.723  29.414  1.00  0.00    -0.014 A 
BRANCH  42  43
ATOM     43  C   UNL A   1      38.450  31.203  30.156  1.00  0.00     0.031 A 
ATOM     44  C   UNL A   1      39.294  30.144  29.500  1.00  0.00     0.074 A 
ATOM     45  C   UNL A   1      38.748  31.640  31.392  1.00  0.00     0.049 A 
ATOM     46  N   UNL A   1      40.265  29.427  30.000  1.00  0.00    -0.248 NA
ATOM     47  C   UNL A   1      38.991  29.857  28.090  1.00  0.00     0.031 C 
ATOM     48  C   UNL A   1      38.049  32.710  32.101  1.00  0.00     0.029 A 
ATOM     49  N   UNL A   1      39.707  31.216  32.279  1.00  0.00    -0.354 N 
ATOM     50  C   UNL A   1      40.685  28.592  28.969  1.00  0.00     0.074 A 
ATOM     51  C   UNL A   1      39.847  28.881  27.825  1.00  0.00     0.031 C 
ATOM     52  C   UNL A   1      38.584  32.837  33.329  1.00  0.00     0.029 A 
ATOM     53  C   UNL A   1      39.625  31.827  33.508  1.00  0.00     0.049 A 
ATOM     54  H   UNL A   1      40.386  30.540  32.056  1.00  0.00     0.167 HD
ATOM     55  C   UNL A   1      41.676  27.668  28.979  1.00  0.00     0.034 A 
ATOM     56  C   UNL A   1      40.285  31.567  34.657  1.00  0.00     0.034 A 
ATOM     57  C   UNL A   1      42.487  27.374  30.136  1.00  0.00     0.049 A 
ATOM     58  C   UNL A   1      41.308  30.454  34.681  1.00  0.00     0.074 A 
ATOM     59  C   UNL A   1      43.511  26.454  30.261  1.00  0.00     0.029 A 
ATOM     60  N   UNL A   1      42.350  27.989  31.373  1.00  0.00    -0.354 N 
ATOM     61  N   UNL A   1      41.685  29.655  33.708  1.00  0.00    -0.248 NA
ATOM     62  C   UNL A   1      41.992  30.205  35.958  1.00  0.00     0.031 C 
ATOM     63  C   UNL A   1      43.949  26.464  31.590  1.00  0.00     0.029 A 
ATOM     64  C   UNL A   1      43.251  27.446  32.275  1.00  0.00     0.049 A 
ATOM     65  H   UNL A   1      41.707  28.705  31.581  1.00  0.00     0.167 HD
ATOM     66  C   UNL A   1      42.677  28.839  34.248  1.00  0.00     0.074 A 
ATOM     67  C   UNL A   1      42.837  29.237  35.631  1.00  0.00     0.031 C 
ATOM     68  C   UNL A   1      43.400  27.858  33.651  1.00  0.00     0.034 A 
BRANCH  55  69
ATOM     69  C   UNL A   1      41.885  26.867  27.718  1.00  0.00     0.023 A 
ATOM     70  C   UNL A   1      41.481  25.524  27.620  1.00  0.00     0.031 A 
ATOM     71  C   UNL A   1      42.537  27.443  26.614  1.00  0.00     0.131 A 
ATOM     72  C   UNL A   1      41.795  24.783  26.470  1.00  0.00     0.055 A 
ATOM     73  C   UNL A   1      42.777  26.722  25.444  1.00  0.00     0.041 A 
ATOM     74  F   UNL A   1      42.966  28.714  26.660  1.00  0.00    -0.206 F 
ATOM     75  C   UNL A   1      42.420  25.378  25.372  1.00  0.00     0.022 A 
BRANCH  72  76
ATOM     76  S   UNL A   1      41.504  22.992  26.487  1.00  0.00     0.124 S 
ATOM     77  O   UNL A   1      42.255  22.559  25.312  1.00  0.00    -0.237 OA
ATOM     78  O   UNL A   1      42.053  22.595  27.778  1.00  0.00    -0.237 OA
ATOM     79  O   UNL A   1      40.052  22.880  26.365  1.00  0.00    -0.744 OA
ENDBRANCH  72  76
ENDBRANCH  55  69
BRANCH  56  80
ATOM     80  C   UNL A   1      39.960  32.320  35.902  1.00  0.00     0.023 A 
ATOM     81  C   UNL A   1      38.958  31.875  36.780  1.00  0.00     0.031 A 
ATOM     82  C   UNL A   1      40.606  33.534  36.199  1.00  0.00     0.131 A 
ATOM     83  C   UNL A   1      38.602  32.658  37.890  1.00  0.00     0.055 A 
ATOM     84  C   UNL A   1      40.284  34.283  37.332  1.00  0.00     0.041 A 
ATOM     85  F   UNL A   1      41.565  34.009  35.389  1.00  0.00    -0.206 F 
ATOM     86  C   UNL A   1      39.268  33.853  38.179  1.00  0.00     0.022 A 
BRANCH  83  87
ATOM     87  S   UNL A   1      37.192  32.138  38.905  1.00  0.00     0.124 S 
ATOM     88  O   UNL A   1      36.102  32.908  38.314  1.00  0.00    -0.237 OA
ATOM     89  O   UNL A   1      37.163  30.699  38.669  1.00  0.00    -0.237 OA
ATOM     90  O   UNL A   1      37.578  32.540  40.256  1.00  0.00    -0.744 OA
ENDBRANCH  83  87
ENDBRANCH  56  80
BRANCH  68  91
ATOM     91  C   UNL A   1      44.481  27.195  34.468  1.00  0.00     0.023 A 
ATOM     92  C   UNL A   1      45.793  27.694  34.516  1.00  0.00     0.031 A 
ATOM     93  C   UNL A   1      44.174  26.056  35.234  1.00  0.00     0.131 A 
ATOM     94  C   UNL A   1      46.760  27.036  35.292  1.00  0.00     0.055 A 
ATOM     95  C   UNL A   1      45.128  25.435  36.040  1.00  0.00     0.041 A 
ATOM     96  F   UNL A   1      42.935  25.540  35.225  1.00  0.00    -0.206 F 
ATOM     97  C   UNL A   1      46.432  25.920  36.067  1.00  0.00     0.022 A 
BRANCH  94  98
ATOM     98  S   UNL A   1      48.476  27.628  35.244  1.00  0.00     0.124 S 
ATOM     99  O   UNL A   1      48.377  28.768  34.338  1.00  0.00    -0.237 OA
ATOM    100  O   UNL A   1      48.736  27.947  36.643  1.00  0.00    -0.237 OA
ATOM    101  O   UNL A   1      49.219  26.484  34.723  1.00  0.00    -0.744 OA
ENDBRANCH  94  98
ENDBRANCH  68  91
ENDBRANCH  42  43
ENDBRANCH  35  37
ENDBRANCH  34  35
ENDBRANCH  33  34
ENDBRANCH  32  33
ENDBRANCH  31  32
ENDBRANCH   1  31
TORSDOF 25
ENDMDL
MODEL 2
REMARK VINA RESULT:      -9.2      1.660      7.316
REMARK SMILES CCCc1cc(OC(F)(F)F)cc2c1O[C@@H](C(F)(F)F)C(C(=O)OCCOCCOCCOC(=O)c1ccc(-c3c4nc(c(-c5cc(S(=O)(=O)[O-])ccc5F)c5ccc([nH]5)c(-c5cc(S(=O)(=O)[O-])ccc5F)c5nc(c(-c6cc(S(=O)(=O)[O-])ccc6F)c6ccc3[nH]6)C=C5)C=C4)cc1)=C2
REMARK SMILES IDX 29 1 28 2 27 3 26 4 25 5 24 6 22 7 23 8 21 9 4 10 5 11 14 12
REMARK SMILES IDX 6 13 13 14 15 15 12 16 99 17 16 18 3 19 2 20 1 21 7 22 8 23
REMARK SMILES IDX 9 24 10 25 11 26 17 27 18 28 19 29 20 30 30 31 31 32 32 33
REMARK SMILES IDX 33 34 34 35 35 36 36 37 37 38 98 39 38 40 97 41 39 42 40 43
REMARK SMILES IDX 41 44 91 45 42 46 96 47 90 48 92 49 43 50 95 51 89 52 88 53
REMARK SMILES IDX 44 55 76 56 56 57 75 58 57 59 60 60 74 61 93 62 58 63 59 64
REMARK SMILES IDX 73 66 94 67 61 68 45 69 46 70 54 71 47 72 53 73 55 74 52 75
REMARK SMILES IDX 48 76 49 77 50 78 51 79 77 80 78 81 86 82 79 83 85 84 87 85
REMARK SMILES IDX 84 86 80 87 81 88 82 89 83 90 62 91 63 92 71 93 64 94 70 95
REMARK SMILES IDX 72 96 69 97 65 98 66 99 67 100 68 101
REMARK H PARENT 92 54 60 65
REMARK Flexibility Score: inf
ROOT
ATOM      1  C   UNL A   1      32.923  29.140  25.851  1.00  0.00     0.188 C 
ENDROOT
BRANCH   1   2
ATOM      2  C   UNL A   1      33.674  28.247  24.845  1.00  0.00     0.188 C 
BRANCH   2   3
ATOM      3  O   UNL A   1      34.257  28.964  23.766  1.00  0.00    -0.376 OA
BRANCH   3   4
ATOM      4  C   UNL A   1      33.889  28.531  22.464  1.00  0.00     0.202 C 
BRANCH   4   5
ATOM      5  C   UNL A   1      32.415  28.792  22.146  1.00  0.00     0.261 C 
BRANCH   5   6
ATOM      6  O   UNL A   1      31.532  27.754  22.600  1.00  0.00    -0.460 OA
BRANCH   6   7
ATOM      7  C   UNL A   1      31.628  26.554  21.984  1.00  0.00     0.338 C 
ATOM      8  O   UNL A   1      31.337  26.323  20.824  1.00  0.00    -0.246 OA
BRANCH   7   9
ATOM      9  C   UNL A   1      32.223  25.570  22.910  1.00  0.00     0.087 C 
ATOM     10  C   UNL A   1      34.044  23.341  25.952  1.00  0.00    -0.002 A 
ATOM     11  C   UNL A   1      35.196  22.599  25.643  1.00  0.00     0.054 A 
ATOM     12  C   UNL A   1      33.450  24.097  24.928  1.00  0.00     0.131 A 
ATOM     13  C   UNL A   1      35.794  22.683  24.381  1.00  0.00     0.130 A 
ATOM     14  C   UNL A   1      34.035  24.185  23.656  1.00  0.00     0.021 A 
ATOM     15  O   UNL A   1      32.310  24.805  25.228  1.00  0.00    -0.475 OA
ATOM     16  C   UNL A   1      35.201  23.466  23.386  1.00  0.00     0.058 A 
ATOM     17  C   UNL A   1      33.463  25.106  22.674  1.00  0.00     0.027 C 
ATOM     18  C   UNL A   1      31.438  25.048  24.091  1.00  0.00     0.316 C 
BRANCH  10  19
ATOM     19  C   UNL A   1      33.409  23.303  27.330  1.00  0.00     0.039 C 
BRANCH  19  20
ATOM     20  C   UNL A   1      33.406  21.962  28.078  1.00  0.00     0.001 C 
ATOM     21  C   UNL A   1      33.214  20.757  27.165  1.00  0.00     0.004 C 
ENDBRANCH  19  20
ENDBRANCH  10  19
BRANCH  13  22
ATOM     22  O   UNL A   1      36.946  22.050  24.005  1.00  0.00    -0.406 OA
BRANCH  22  23
ATOM     23  C   UNL A   1      37.388  20.981  24.827  1.00  0.00     0.573 C 
ATOM     24  F   UNL A   1      36.350  20.324  25.389  1.00  0.00    -0.132 F 
ATOM     25  F   UNL A   1      38.149  20.112  24.129  1.00  0.00    -0.132 F 
ATOM     26  F   UNL A   1      38.144  21.488  25.828  1.00  0.00    -0.132 F 
ENDBRANCH  22  23
ENDBRANCH  13  22
BRANCH  18  27
ATOM     27  C   UNL A   1      30.218  25.850  24.568  1.00  0.00     0.430 C 
ATOM     28  F   UNL A   1      29.206  25.767  23.671  1.00  0.00    -0.167 F 
ATOM     29  F   UNL A   1      29.738  25.327  25.725  1.00  0.00    -0.167 F 
ATOM     30  F   UNL A   1      30.498  27.148  24.794  1.00  0.00    -0.167 F 
ENDBRANCH  18  27
ENDBRANCH   7   9
ENDBRANCH   6   7
ENDBRANCH   5   6
ENDBRANCH   4   5
ENDBRANCH   3   4
ENDBRANCH   2   3
ENDBRANCH   1   2
BRANCH   1  31
ATOM     31  O   UNL A   1      31.985  30.107  25.393  1.00  0.00    -0.376 OA
BRANCH  31  32
ATOM     32  C   UNL A   1      31.229  30.845  26.341  1.00  0.00     0.202 C 
BRANCH  32  33
ATOM     33  C   UNL A   1      31.781  32.198  26.806  1.00  0.00     0.261 C 
BRANCH  33  34
ATOM     34  O   UNL A   1      33.208  32.321  26.710  1.00  0.00    -0.460 OA
BRANCH  34  35
ATOM     35  C   UNL A   1      33.795  32.995  27.731  1.00  0.00     0.338 C 
ATOM     36  O   UNL A   1      33.354  33.966  28.320  1.00  0.00    -0.246 OA
BRANCH  35  37
ATOM     37  C   UNL A   1      35.011  32.279  28.169  1.00  0.00     0.060 A 
ATOM     38  C   UNL A   1      34.900  30.919  28.492  1.00  0.00     0.016 A 
ATOM     39  C   UNL A   1      36.224  32.949  28.335  1.00  0.00     0.016 A 
ATOM     40  C   UNL A   1      35.997  30.229  29.012  1.00  0.00     0.010 A 
ATOM     41  C   UNL A   1      37.314  32.264  28.881  1.00  0.00     0.010 A 
ATOM     42  C   UNL A   1      37.197  30.910  29.249  1.00  0.00    -0.014 A 
BRANCH  42  43
ATOM     43  C   UNL A   1      38.270  30.281  30.058  1.00  0.00     0.031 A 
ATOM     44  C   UNL A   1      38.462  30.751  31.474  1.00  0.00     0.074 A 
ATOM     45  C   UNL A   1      39.072  29.333  29.542  1.00  0.00     0.049 A 
ATOM     46  N   UNL A   1      39.418  30.474  32.320  1.00  0.00    -0.248 NA
ATOM     47  C   UNL A   1      37.433  31.662  31.999  1.00  0.00     0.031 C 
ATOM     48  C   UNL A   1      38.939  28.747  28.211  1.00  0.00     0.029 A 
ATOM     49  N   UNL A   1      40.176  28.714  30.075  1.00  0.00    -0.354 N 
ATOM     50  C   UNL A   1      39.116  31.186  33.476  1.00  0.00     0.074 A 
ATOM     51  C   UNL A   1      37.898  31.921  33.212  1.00  0.00     0.031 C 
ATOM     52  C   UNL A   1      39.945  27.875  28.018  1.00  0.00     0.029 A 
ATOM     53  C   UNL A   1      40.817  27.879  29.192  1.00  0.00     0.049 A 
ATOM     54  H   UNL A   1      40.479  28.855  31.001  1.00  0.00     0.167 HD
ATOM     55  C   UNL A   1      39.795  31.224  34.649  1.00  0.00     0.034 A 
ATOM     56  C   UNL A   1      41.996  27.231  29.303  1.00  0.00     0.034 A 
ATOM     57  C   UNL A   1      41.022  30.504  34.888  1.00  0.00     0.049 A 
ATOM     58  C   UNL A   1      42.798  27.376  30.576  1.00  0.00     0.074 A 
ATOM     59  C   UNL A   1      41.797  30.477  36.033  1.00  0.00     0.029 A 
ATOM     60  N   UNL A   1      41.660  29.697  33.956  1.00  0.00    -0.354 N 
ATOM     61  N   UNL A   1      42.515  28.067  31.657  1.00  0.00    -0.248 NA
ATOM     62  C   UNL A   1      44.079  26.658  30.644  1.00  0.00     0.031 C 
ATOM     63  C   UNL A   1      42.937  29.707  35.772  1.00  0.00     0.029 A 
ATOM     64  C   UNL A   1      42.834  29.191  34.490  1.00  0.00     0.049 A 
ATOM     65  H   UNL A   1      41.327  29.511  33.048  1.00  0.00     0.167 HD
ATOM     66  C   UNL A   1      43.564  27.833  32.545  1.00  0.00     0.074 A 
ATOM     67  C   UNL A   1      44.486  26.942  31.873  1.00  0.00     0.031 C 
ATOM     68  C   UNL A   1      43.741  28.300  33.806  1.00  0.00     0.034 A 
BRANCH  55  69
ATOM     69  C   UNL A   1      39.254  32.127  35.729  1.00  0.00     0.023 A 
ATOM     70  C   UNL A   1      39.695  33.454  35.875  1.00  0.00     0.031 A 
ATOM     71  C   UNL A   1      38.316  31.638  36.655  1.00  0.00     0.131 A 
ATOM     72  C   UNL A   1      39.251  34.223  36.961  1.00  0.00     0.055 A 
ATOM     73  C   UNL A   1      37.819  32.434  37.688  1.00  0.00     0.041 A 
ATOM     74  F   UNL A   1      37.878  30.372  36.580  1.00  0.00    -0.206 F 
ATOM     75  C   UNL A   1      38.299  33.730  37.856  1.00  0.00     0.022 A 
BRANCH  72  76
ATOM     76  S   UNL A   1      40.043  35.825  37.270  1.00  0.00     0.124 S 
ATOM     77  O   UNL A   1      39.331  36.283  38.460  1.00  0.00    -0.237 OA
ATOM     78  O   UNL A   1      41.440  35.454  37.464  1.00  0.00    -0.237 OA
ATOM     79  O   UNL A   1      39.763  36.587  36.054  1.00  0.00    -0.744 OA
ENDBRANCH  72  76
ENDBRANCH  55  69
BRANCH  56  80
ATOM     80  C   UNL A   1      42.534  26.439  28.159  1.00  0.00     0.023 A 
ATOM     81  C   UNL A   1      42.271  25.064  28.040  1.00  0.00     0.031 A 
ATOM     82  C   UNL A   1      43.371  27.036  27.200  1.00  0.00     0.131 A 
ATOM     83  C   UNL A   1      42.875  24.324  27.011  1.00  0.00     0.055 A 
ATOM     84  C   UNL A   1      43.928  26.306  26.148  1.00  0.00     0.041 A 
ATOM     85  F   UNL A   1      43.661  28.345  27.272  1.00  0.00    -0.206 F 
ATOM     86  C   UNL A   1      43.690  24.938  26.056  1.00  0.00     0.022 A 
BRANCH  83  87
ATOM     87  S   UNL A   1      42.651  22.525  26.988  1.00  0.00     0.124 S 
ATOM     88  O   UNL A   1      41.423  22.389  26.211  1.00  0.00    -0.237 OA
ATOM     89  O   UNL A   1      43.875  22.075  26.335  1.00  0.00    -0.237 OA
ATOM     90  O   UNL A   1      42.535  22.177  28.402  1.00  0.00    -0.744 OA
ENDBRANCH  83  87
ENDBRANCH  56  80
BRANCH  68  91
ATOM     91  C   UNL A   1      44.941  27.800  34.571  1.00  0.00     0.023 A 
ATOM     92  C   UNL A   1      46.164  28.491  34.578  1.00  0.00     0.031 A 
ATOM     93  C   UNL A   1      44.841  26.620  35.330  1.00  0.00     0.131 A 
ATOM     94  C   UNL A   1      47.250  27.979  35.306  1.00  0.00     0.055 A 
ATOM     95  C   UNL A   1      45.909  26.141  36.089  1.00  0.00     0.041 A 
ATOM     96  F   UNL A   1      43.694  25.922  35.358  1.00  0.00    -0.206 F 
ATOM     97  C   UNL A   1      47.125  26.818  36.074  1.00  0.00     0.022 A 
BRANCH  94  98
ATOM     98  S   UNL A   1      48.852  28.825  35.203  1.00  0.00     0.124 S 
ATOM     99  O   UNL A   1      49.431  28.233  34.001  1.00  0.00    -0.237 OA
ATOM    100  O   UNL A   1      48.461  30.226  35.098  1.00  0.00    -0.237 OA
ATOM    101  O   UNL A   1      49.514  28.461  36.454  1.00  0.00    -0.744 OA
ENDBRANCH  94  98
ENDBRANCH  68  91
ENDBRANCH  42  43
ENDBRANCH  35  37
ENDBRANCH  34  35
ENDBRANCH  33  34
ENDBRANCH  32  33
ENDBRANCH  31  32
ENDBRANCH   1  31
TORSDOF 25
ENDMDL
MODEL 3
REMARK VINA RESULT:      -9.1      2.608      3.190
REMARK SMILES CCCc1cc(OC(F)(F)F)cc2c1O[C@@H](C(F)(F)F)C(C(=O)OCCOCCOCCOC(=O)c1ccc(-c3c4nc(c(-c5cc(S(=O)(=O)[O-])ccc5F)c5ccc([nH]5)c(-c5cc(S(=O)(=O)[O-])ccc5F)c5nc(c(-c6cc(S(=O)(=O)[O-])ccc6F)c6ccc3[nH]6)C=C5)C=C4)cc1)=C2
REMARK SMILES IDX 29 1 28 2 27 3 26 4 25 5 24 6 22 7 23 8 21 9 4 10 5 11 14 12
REMARK SMILES IDX 6 13 13 14 15 15 12 16 99 17 16 18 3 19 2 20 1 21 7 22 8 23
REMARK SMILES IDX 9 24 10 25 11 26 17 27 18 28 19 29 20 30 30 31 31 32 32 33
REMARK SMILES IDX 33 34 34 35 35 36 36 37 37 38 98 39 38 40 97 41 39 42 40 43
REMARK SMILES IDX 41 44 91 45 42 46 96 47 90 48 92 49 43 50 95 51 89 52 88 53
REMARK SMILES IDX 44 55 76 56 56 57 75 58 57 59 60 60 74 61 93 62 58 63 59 64
REMARK SMILES IDX 73 66 94 67 61 68 45 69 46 70 54 71 47 72 53 73 55 74 52 75
REMARK SMILES IDX 48 76 49 77 50 78 51 79 77 80 78 81 86 82 79 83 85 84 87 85
REMARK SMILES IDX 84 86 80 87 81 88 82 89 83 90 62 91 63 92 71 93 64 94 70 95
REMARK SMILES IDX 72 96 69 97 65 98 66 99 67 100 68 101
REMARK H PARENT 92 54 60 65
REMARK Flexibility Score: inf
ROOT
ATOM      1  C   UNL A   1      32.978  28.050  26.367  1.00  0.00     0.188 C 
ENDROOT
BRANCH   1   2
ATOM      2  C   UNL A   1      33.904  27.324  25.373  1.00  0.00     0.188 C 
BRANCH   2   3
ATOM      3  O   UNL A   1      34.370  28.150  24.315  1.00  0.00    -0.376 OA
BRANCH   3   4
ATOM      4  C   UNL A   1      34.173  27.645  23.003  1.00  0.00     0.202 C 
BRANCH   4   5
ATOM      5  C   UNL A   1      32.968  28.271  22.299  1.00  0.00     0.261 C 
BRANCH   5   6
ATOM      6  O   UNL A   1      31.733  27.576  22.536  1.00  0.00    -0.460 OA
BRANCH   6   7
ATOM      7  C   UNL A   1      31.546  26.414  21.871  1.00  0.00     0.338 C 
ATOM      8  O   UNL A   1      31.478  26.288  20.661  1.00  0.00    -0.246 OA
BRANCH   7   9
ATOM      9  C   UNL A   1      31.519  25.294  22.833  1.00  0.00     0.087 C 
ATOM     10  C   UNL A   1      31.700  22.589  26.025  1.00  0.00    -0.002 A 
ATOM     11  C   UNL A   1      32.506  21.446  25.890  1.00  0.00     0.054 A 
ATOM     12  C   UNL A   1      31.659  23.498  24.954  1.00  0.00     0.131 A 
ATOM     13  C   UNL A   1      33.320  21.262  24.767  1.00  0.00     0.130 A 
ATOM     14  C   UNL A   1      32.464  23.321  23.819  1.00  0.00     0.021 A 
ATOM     15  O   UNL A   1      30.852  24.604  25.078  1.00  0.00    -0.475 OA
ATOM     16  C   UNL A   1      33.284  22.195  23.727  1.00  0.00     0.058 A 
ATOM     17  C   UNL A   1      32.499  24.373  22.803  1.00  0.00     0.027 C 
ATOM     18  C   UNL A   1      30.381  25.148  23.816  1.00  0.00     0.316 C 
BRANCH  10  19
ATOM     19  C   UNL A   1      30.849  22.833  27.257  1.00  0.00     0.039 C 
BRANCH  19  20
ATOM     20  C   UNL A   1      29.368  23.177  27.044  1.00  0.00     0.001 C 
ATOM     21  C   UNL A   1      28.415  22.111  27.571  1.00  0.00     0.004 C 
ENDBRANCH  19  20
ENDBRANCH  10  19
BRANCH  13  22
ATOM     22  O   UNL A   1      34.182  20.218  24.575  1.00  0.00    -0.406 OA
BRANCH  22  23
ATOM     23  C   UNL A   1      33.605  18.933  24.403  1.00  0.00     0.573 C 
ATOM     24  F   UNL A   1      33.173  18.421  25.576  1.00  0.00    -0.132 F 
ATOM     25  F   UNL A   1      32.583  18.972  23.522  1.00  0.00    -0.132 F 
ATOM     26  F   UNL A   1      34.549  18.097  23.911  1.00  0.00    -0.132 F 
ENDBRANCH  22  23
ENDBRANCH  13  22
BRANCH  18  27
ATOM     27  C   UNL A   1      29.505  26.376  24.105  1.00  0.00     0.430 C 
ATOM     28  F   UNL A   1      28.420  26.033  24.841  1.00  0.00    -0.167 F 
ATOM     29  F   UNL A   1      30.194  27.277  24.850  1.00  0.00    -0.167 F 
ATOM     30  F   UNL A   1      29.094  27.003  22.987  1.00  0.00    -0.167 F 
ENDBRANCH  18  27
ENDBRANCH   7   9
ENDBRANCH   6   7
ENDBRANCH   5   6
ENDBRANCH   4   5
ENDBRANCH   3   4
ENDBRANCH   2   3
ENDBRANCH   1   2
BRANCH   1  31
ATOM     31  O   UNL A   1      32.206  29.169  25.945  1.00  0.00    -0.376 OA
BRANCH  31  32
ATOM     32  C   UNL A   1      31.783  30.123  26.907  1.00  0.00     0.202 C 
BRANCH  32  33
ATOM     33  C   UNL A   1      32.676  31.345  27.152  1.00  0.00     0.261 C 
BRANCH  33  34
ATOM     34  O   UNL A   1      34.075  31.042  27.273  1.00  0.00    -0.460 OA
BRANCH  34  35
ATOM     35  C   UNL A   1      34.680  31.558  28.371  1.00  0.00     0.338 C 
ATOM     36  O   UNL A   1      34.213  32.364  29.157  1.00  0.00    -0.246 OA
BRANCH  35  37
ATOM     37  C   UNL A   1      35.969  30.872  28.602  1.00  0.00     0.060 A 
ATOM     38  C   UNL A   1      35.998  29.803  29.508  1.00  0.00     0.016 A 
ATOM     39  C   UNL A   1      37.144  31.321  27.998  1.00  0.00     0.016 A 
ATOM     40  C   UNL A   1      37.211  29.195  29.837  1.00  0.00     0.010 A 
ATOM     41  C   UNL A   1      38.362  30.728  28.348  1.00  0.00     0.010 A 
ATOM     42  C   UNL A   1      38.404  29.683  29.291  1.00  0.00    -0.014 A 
BRANCH  42  43
ATOM     43  C   UNL A   1      39.713  29.251  29.839  1.00  0.00     0.031 A 
ATOM     44  C   UNL A   1      40.395  28.070  29.204  1.00  0.00     0.074 A 
ATOM     45  C   UNL A   1      40.274  29.874  30.890  1.00  0.00     0.049 A 
ATOM     46  N   UNL A   1      41.453  27.410  29.595  1.00  0.00    -0.248 NA
ATOM     47  C   UNL A   1      39.792  27.565  27.961  1.00  0.00     0.031 C 
ATOM     48  C   UNL A   1      39.746  31.070  31.543  1.00  0.00     0.029 A 
ATOM     49  N   UNL A   1      41.404  29.568  31.608  1.00  0.00    -0.354 N 
ATOM     50  C   UNL A   1      41.639  26.403  28.654  1.00  0.00     0.074 A 
ATOM     51  C   UNL A   1      40.570  26.529  27.686  1.00  0.00     0.031 C 
ATOM     52  C   UNL A   1      40.535  31.378  32.587  1.00  0.00     0.029 A 
ATOM     53  C   UNL A   1      41.592  30.375  32.705  1.00  0.00     0.049 A 
ATOM     54  H   UNL A   1      42.019  28.841  31.360  1.00  0.00     0.167 HD
ATOM     55  C   UNL A   1      42.609  25.458  28.605  1.00  0.00     0.034 A 
ATOM     56  C   UNL A   1      42.487  30.283  33.711  1.00  0.00     0.034 A 
ATOM     57  C   UNL A   1      43.653  25.330  29.591  1.00  0.00     0.049 A 
ATOM     58  C   UNL A   1      43.492  29.155  33.701  1.00  0.00     0.074 A 
ATOM     59  C   UNL A   1      44.682  24.407  29.646  1.00  0.00     0.029 A 
ATOM     60  N   UNL A   1      43.789  26.144  30.708  1.00  0.00    -0.354 N 
ATOM     61  N   UNL A   1      43.649  28.194  32.818  1.00  0.00    -0.248 NA
ATOM     62  C   UNL A   1      44.440  29.094  34.823  1.00  0.00     0.031 C 
ATOM     63  C   UNL A   1      45.400  24.620  30.828  1.00  0.00     0.029 A 
ATOM     64  C   UNL A   1      44.867  25.725  31.473  1.00  0.00     0.049 A 
ATOM     65  H   UNL A   1      43.207  26.907  30.926  1.00  0.00     0.167 HD
ATOM     66  C   UNL A   1      44.736  27.443  33.260  1.00  0.00     0.074 A 
ATOM     67  C   UNL A   1      45.193  28.056  34.489  1.00  0.00     0.031 C 
ATOM     68  C   UNL A   1      45.312  26.352  32.695  1.00  0.00     0.034 A 
BRANCH  55  69
ATOM     69  C   UNL A   1      42.538  24.454  27.482  1.00  0.00     0.023 A 
ATOM     70  C   UNL A   1      41.591  23.416  27.476  1.00  0.00     0.031 A 
ATOM     71  C   UNL A   1      43.461  24.511  26.422  1.00  0.00     0.131 A 
ATOM     72  C   UNL A   1      41.632  22.438  26.471  1.00  0.00     0.055 A 
ATOM     73  C   UNL A   1      43.447  23.580  25.384  1.00  0.00     0.041 A 
ATOM     74  F   UNL A   1      44.404  25.466  26.388  1.00  0.00    -0.206 F 
ATOM     75  C   UNL A   1      42.539  22.525  25.412  1.00  0.00     0.022 A 
BRANCH  72  76
ATOM     76  S   UNL A   1      40.578  20.972  26.644  1.00  0.00     0.124 S 
ATOM     77  O   UNL A   1      40.987  20.175  25.490  1.00  0.00    -0.237 OA
ATOM     78  O   UNL A   1      40.970  20.454  27.950  1.00  0.00    -0.237 OA
ATOM     79  O   UNL A   1      39.222  21.513  26.568  1.00  0.00    -0.744 OA
ENDBRANCH  72  76
ENDBRANCH  55  69
BRANCH  56  80
ATOM     80  C   UNL A   1      42.441  31.242  34.852  1.00  0.00     0.023 A 
ATOM     81  C   UNL A   1      43.159  32.449  34.818  1.00  0.00     0.031 A 
ATOM     82  C   UNL A   1      41.724  30.934  36.023  1.00  0.00     0.131 A 
ATOM     83  C   UNL A   1      43.179  33.282  35.948  1.00  0.00     0.055 A 
ATOM     84  C   UNL A   1      41.706  31.791  37.125  1.00  0.00     0.041 A 
ATOM     85  F   UNL A   1      41.028  29.790  36.111  1.00  0.00    -0.206 F 
ATOM     86  C   UNL A   1      42.447  32.968  37.096  1.00  0.00     0.022 A 
BRANCH  83  87
ATOM     87  S   UNL A   1      44.252  34.745  35.930  1.00  0.00     0.124 S 
ATOM     88  O   UNL A   1      43.623  35.586  36.943  1.00  0.00    -0.237 OA
ATOM     89  O   UNL A   1      45.547  34.175  36.282  1.00  0.00    -0.237 OA
ATOM     90  O   UNL A   1      44.139  35.234  34.557  1.00  0.00    -0.744 OA
ENDBRANCH  83  87
ENDBRANCH  56  80
BRANCH  68  91
ATOM     91  C   UNL A   1      46.546  25.795  33.358  1.00  0.00     0.023 A 
ATOM     92  C   UNL A   1      46.480  24.783  34.331  1.00  0.00     0.031 A 
ATOM     93  C   UNL A   1      47.815  26.273  32.983  1.00  0.00     0.131 A 
ATOM     94  C   UNL A   1      47.661  24.302  34.918  1.00  0.00     0.055 A 
ATOM     95  C   UNL A   1      48.988  25.758  33.536  1.00  0.00     0.041 A 
ATOM     96  F   UNL A   1      47.934  27.238  32.057  1.00  0.00    -0.206 F 
ATOM     97  C   UNL A   1      48.915  24.771  34.514  1.00  0.00     0.022 A 
BRANCH  94  98
ATOM     98  S   UNL A   1      47.542  23.081  36.256  1.00  0.00     0.124 S 
ATOM     99  O   UNL A   1      46.987  21.924  35.561  1.00  0.00    -0.237 OA
ATOM    100  O   UNL A   1      48.929  22.958  36.692  1.00  0.00    -0.237 OA
ATOM    101  O   UNL A   1      46.646  23.715  37.220  1.00  0.00    -0.744 OA
ENDBRANCH  94  98
ENDBRANCH  68  91
ENDBRANCH  42  43
ENDBRANCH  35  37
ENDBRANCH  34  35
ENDBRANCH  33  34
ENDBRANCH  32  33
ENDBRANCH  31  32
ENDBRANCH   1  31
TORSDOF 25
ENDMDL
