MODEL 1
REMARK VINA RESULT:     -10.3      0.000      0.000
REMARK SMILES CC[NH+]1CCC2(CC1)OC[C@H](C(=O)OCCOCCOCCOC(=O)c1ccc(-c3c4nc(c(-c5cc(S(=O)(=O)[O-])ccc5F)c5ccc([nH]5)c(-c5cc(S(=O)(=O)[O-])ccc5F)c5nc(c(-c6cc(S(=O)(=O)[O-])ccc6F)c6ccc3[nH]6)C=C5)C=C4)cc1)N2C(=O)c1ccccc1
REMARK SMILES IDX 19 1 18 2 17 3 16 4 15 5 14 6 12 7 13 8 11 9 3 10 4 11 8 12
REMARK SMILES IDX 5 14 7 15 6 16 9 17 89 18 10 19 2 20 1 21 90 22 91 23 92 24
REMARK SMILES IDX 93 25 97 26 94 27 96 28 95 29 20 30 21 31 22 32 23 33 24 34
REMARK SMILES IDX 25 35 26 36 27 37 88 38 28 39 87 40 29 41 30 42 31 43 81 44
REMARK SMILES IDX 32 45 86 46 80 47 82 48 33 49 85 50 79 51 78 52 34 54 66 55
REMARK SMILES IDX 46 56 65 57 47 58 50 59 64 60 83 61 48 62 49 63 63 65 84 66
REMARK SMILES IDX 51 67 35 68 36 69 44 70 37 71 43 72 45 73 42 74 38 75 39 76
REMARK SMILES IDX 40 77 41 78 67 79 68 80 76 81 69 82 75 83 77 84 74 85 70 86
REMARK SMILES IDX 71 87 72 88 73 89 52 90 53 91 61 92 54 93 60 94 62 95 59 96
REMARK SMILES IDX 55 97 56 98 57 99 58 100
REMARK H PARENT 3 13 82 53 50 64
REMARK Flexibility Score: inf
ROOT
ATOM      1  C   UNL A   1      37.625  22.845  25.290  1.00  0.00     0.188 C 
ENDROOT
BRANCH   1   2
ATOM      2  C   UNL A   1      36.931  22.234  24.055  1.00  0.00     0.188 C 
BRANCH   2   3
ATOM      3  O   UNL A   1      35.519  22.059  24.122  1.00  0.00    -0.376 OA
BRANCH   3   4
ATOM      4  C   UNL A   1      35.040  21.151  25.108  1.00  0.00     0.202 C 
BRANCH   4   5
ATOM      5  C   UNL A   1      33.517  21.106  25.241  1.00  0.00     0.261 C 
BRANCH   5   6
ATOM      6  O   UNL A   1      33.002  22.272  25.920  1.00  0.00    -0.462 OA
BRANCH   6   7
ATOM      7  C   UNL A   1      32.171  23.031  25.163  1.00  0.00     0.331 C 
ATOM      8  O   UNL A   1      31.025  22.684  24.875  1.00  0.00    -0.250 OA
BRANCH   7   9
ATOM      9  C   UNL A   1      32.740  24.387  24.704  1.00  0.00     0.224 C 
ATOM     10  N   UNL A   1      30.086  28.748  23.295  1.00  0.00    -0.335 N 
ATOM     11  C   UNL A   1      29.565  27.439  23.621  1.00  0.00     0.267 C 
ATOM     12  C   UNL A   1      31.540  28.883  23.194  1.00  0.00     0.267 C 
ATOM     13  H   UNL A   1      29.847  29.224  24.164  1.00  0.00     0.348 HD
ATOM     14  C   UNL A   1      30.368  26.295  23.057  1.00  0.00     0.120 C 
ATOM     15  C   UNL A   1      32.453  27.641  23.172  1.00  0.00     0.120 C 
ATOM     16  C   UNL A   1      31.818  26.289  23.505  1.00  0.00     0.155 C 
ATOM     17  O   UNL A   1      32.429  25.363  22.563  1.00  0.00    -0.352 OA
ATOM     18  N   UNL A   1      32.068  25.681  24.831  1.00  0.00    -0.293 N 
ATOM     19  C   UNL A   1      33.037  24.263  23.229  1.00  0.00     0.200 C 
BRANCH  10  20
ATOM     20  C   UNL A   1      29.380  29.495  22.243  1.00  0.00     0.258 C 
ATOM     21  C   UNL A   1      27.939  29.883  22.575  1.00  0.00     0.071 C 
ENDBRANCH  10  20
BRANCH  18  22
ATOM     22  C   UNL A   1      31.975  26.174  26.128  1.00  0.00     0.256 C 
ATOM     23  O   UNL A   1      31.482  25.510  27.042  1.00  0.00    -0.269 OA
BRANCH  22  24
ATOM     24  C   UNL A   1      32.544  27.474  26.515  1.00  0.00     0.040 A 
ATOM     25  C   UNL A   1      31.689  28.544  26.800  1.00  0.00     0.014 A 
ATOM     26  C   UNL A   1      33.923  27.683  26.446  1.00  0.00     0.014 A 
ATOM     27  C   UNL A   1      32.223  29.782  27.162  1.00  0.00     0.001 A 
ATOM     28  C   UNL A   1      34.456  28.916  26.825  1.00  0.00     0.001 A 
ATOM     29  C   UNL A   1      33.607  29.957  27.203  1.00  0.00     0.000 A 
ENDBRANCH  22  24
ENDBRANCH  18  22
ENDBRANCH   7   9
ENDBRANCH   6   7
ENDBRANCH   5   6
ENDBRANCH   4   5
ENDBRANCH   3   4
ENDBRANCH   2   3
ENDBRANCH   1   2
BRANCH   1  30
ATOM     30  O   UNL A   1      38.933  22.389  25.610  1.00  0.00    -0.376 OA
BRANCH  30  31
ATOM     31  C   UNL A   1      39.008  21.142  26.289  1.00  0.00     0.202 C 
BRANCH  31  32
ATOM     32  C   UNL A   1      39.746  20.038  25.524  1.00  0.00     0.261 C 
BRANCH  32  33
ATOM     33  O   UNL A   1      40.594  19.256  26.387  1.00  0.00    -0.460 OA
BRANCH  33  34
ATOM     34  C   UNL A   1      41.914  19.364  26.099  1.00  0.00     0.338 C 
ATOM     35  O   UNL A   1      42.618  18.445  25.684  1.00  0.00    -0.246 OA
BRANCH  34  36
ATOM     36  C   UNL A   1      42.430  20.744  26.300  1.00  0.00     0.060 A 
ATOM     37  C   UNL A   1      42.486  21.355  27.554  1.00  0.00     0.016 A 
ATOM     38  C   UNL A   1      42.760  21.502  25.175  1.00  0.00     0.016 A 
ATOM     39  C   UNL A   1      42.757  22.727  27.673  1.00  0.00     0.010 A 
ATOM     40  C   UNL A   1      43.120  22.849  25.306  1.00  0.00     0.010 A 
ATOM     41  C   UNL A   1      43.083  23.500  26.553  1.00  0.00    -0.014 A 
BRANCH  41  42
ATOM     42  C   UNL A   1      43.336  24.976  26.629  1.00  0.00     0.031 A 
ATOM     43  C   UNL A   1      44.688  25.518  26.224  1.00  0.00     0.074 A 
ATOM     44  C   UNL A   1      42.408  25.847  27.081  1.00  0.00     0.049 A 
ATOM     45  N   UNL A   1      45.269  26.645  26.547  1.00  0.00    -0.248 NA
ATOM     46  C   UNL A   1      45.498  24.657  25.349  1.00  0.00     0.031 C 
ATOM     47  C   UNL A   1      41.021  25.525  27.414  1.00  0.00     0.029 A 
ATOM     48  N   UNL A   1      42.508  27.193  27.360  1.00  0.00    -0.354 N 
ATOM     49  C   UNL A   1      46.545  26.591  25.992  1.00  0.00     0.074 A 
ATOM     50  C   UNL A   1      46.641  25.325  25.294  1.00  0.00     0.031 C 
ATOM     51  C   UNL A   1      40.399  26.636  27.837  1.00  0.00     0.029 A 
ATOM     52  C   UNL A   1      41.370  27.719  27.932  1.00  0.00     0.049 A 
ATOM     53  H   UNL A   1      43.313  27.727  27.170  1.00  0.00     0.167 HD
ATOM     54  C   UNL A   1      47.545  27.505  26.078  1.00  0.00     0.034 A 
ATOM     55  C   UNL A   1      41.146  28.901  28.545  1.00  0.00     0.034 A 
ATOM     56  C   UNL A   1      47.409  28.789  26.728  1.00  0.00     0.049 A 
ATOM     57  C   UNL A   1      42.284  29.879  28.692  1.00  0.00     0.074 A 
ATOM     58  C   UNL A   1      48.356  29.789  26.873  1.00  0.00     0.029 A 
ATOM     59  N   UNL A   1      46.247  29.258  27.326  1.00  0.00    -0.354 N 
ATOM     60  N   UNL A   1      43.527  29.770  28.285  1.00  0.00    -0.248 NA
ATOM     61  C   UNL A   1      41.992  31.130  29.406  1.00  0.00     0.031 C 
ATOM     62  C   UNL A   1      47.785  30.835  27.607  1.00  0.00     0.029 A 
ATOM     63  C   UNL A   1      46.460  30.521  27.859  1.00  0.00     0.049 A 
ATOM     64  H   UNL A   1      45.396  28.765  27.366  1.00  0.00     0.167 HD
ATOM     65  C   UNL A   1      44.161  30.943  28.686  1.00  0.00     0.074 A 
ATOM     66  C   UNL A   1      43.159  31.754  29.345  1.00  0.00     0.031 C 
ATOM     67  C   UNL A   1      45.457  31.314  28.528  1.00  0.00     0.034 A 
BRANCH  54  68
ATOM     68  C   UNL A   1      48.898  27.116  25.530  1.00  0.00     0.023 A 
ATOM     69  C   UNL A   1      49.896  26.528  26.325  1.00  0.00     0.031 A 
ATOM     70  C   UNL A   1      49.198  27.363  24.177  1.00  0.00     0.131 A 
ATOM     71  C   UNL A   1      51.163  26.267  25.777  1.00  0.00     0.055 A 
ATOM     72  C   UNL A   1      50.434  27.030  23.619  1.00  0.00     0.041 A 
ATOM     73  F   UNL A   1      48.292  27.942  23.372  1.00  0.00    -0.206 F 
ATOM     74  C   UNL A   1      51.431  26.491  24.424  1.00  0.00     0.022 A 
BRANCH  71  75
ATOM     75  S   UNL A   1      52.502  25.755  26.889  1.00  0.00     0.124 S 
ATOM     76  O   UNL A   1      51.755  25.215  28.023  1.00  0.00    -0.237 OA
ATOM     77  O   UNL A   1      53.228  24.781  26.082  1.00  0.00    -0.237 OA
ATOM     78  O   UNL A   1      53.219  26.999  27.162  1.00  0.00    -0.744 OA
ENDBRANCH  71  75
ENDBRANCH  54  68
BRANCH  55  79
ATOM     79  C   UNL A   1      39.822  29.182  29.176  1.00  0.00     0.023 A 
ATOM     80  C   UNL A   1      39.614  28.990  30.551  1.00  0.00     0.031 A 
ATOM     81  C   UNL A   1      38.730  29.610  28.398  1.00  0.00     0.131 A 
ATOM     82  C   UNL A   1      38.339  29.200  31.100  1.00  0.00     0.055 A 
ATOM     83  C   UNL A   1      37.480  29.875  28.959  1.00  0.00     0.041 A 
ATOM     84  F   UNL A   1      38.869  29.798  27.076  1.00  0.00    -0.206 F 
ATOM     85  C   UNL A   1      37.276  29.659  30.318  1.00  0.00     0.022 A 
BRANCH  82  86
ATOM     86  S   UNL A   1      38.062  28.785  32.845  1.00  0.00     0.124 S 
ATOM     87  O   UNL A   1      36.730  29.335  33.073  1.00  0.00    -0.237 OA
ATOM     88  O   UNL A   1      38.160  27.329  32.829  1.00  0.00    -0.237 OA
ATOM     89  O   UNL A   1      39.149  29.474  33.536  1.00  0.00    -0.744 OA
ENDBRANCH  82  86
ENDBRANCH  55  79
BRANCH  67  90
ATOM     90  C   UNL A   1      45.841  32.680  29.040  1.00  0.00     0.023 A 
ATOM     91  C   UNL A   1      45.753  33.826  28.229  1.00  0.00     0.031 A 
ATOM     92  C   UNL A   1      46.331  32.831  30.350  1.00  0.00     0.131 A 
ATOM     93  C   UNL A   1      46.205  35.062  28.716  1.00  0.00     0.055 A 
ATOM     94  C   UNL A   1      46.727  34.074  30.847  1.00  0.00     0.041 A 
ATOM     95  F   UNL A   1      46.438  31.770  31.166  1.00  0.00    -0.206 F 
ATOM     96  C   UNL A   1      46.678  35.196  30.024  1.00  0.00     0.022 A 
BRANCH  93  97
ATOM     97  S   UNL A   1      46.254  36.480  27.585  1.00  0.00     0.124 S 
ATOM     98  O   UNL A   1      47.688  36.651  27.375  1.00  0.00    -0.237 OA
ATOM     99  O   UNL A   1      45.495  35.991  26.438  1.00  0.00    -0.237 OA
ATOM    100  O   UNL A   1      45.607  37.548  28.345  1.00  0.00    -0.744 OA
ENDBRANCH  93  97
ENDBRANCH  67  90
ENDBRANCH  41  42
ENDBRANCH  34  36
ENDBRANCH  33  34
ENDBRANCH  32  33
ENDBRANCH  31  32
ENDBRANCH  30  31
ENDBRANCH   1  30
TORSDOF 23
ENDMDL
MODEL 2
REMARK VINA RESULT:     -10.2      1.625      7.400
REMARK SMILES CC[NH+]1CCC2(CC1)OC[C@H](C(=O)OCCOCCOCCOC(=O)c1ccc(-c3c4nc(c(-c5cc(S(=O)(=O)[O-])ccc5F)c5ccc([nH]5)c(-c5cc(S(=O)(=O)[O-])ccc5F)c5nc(c(-c6cc(S(=O)(=O)[O-])ccc6F)c6ccc3[nH]6)C=C5)C=C4)cc1)N2C(=O)c1ccccc1
REMARK SMILES IDX 19 1 18 2 17 3 16 4 15 5 14 6 12 7 13 8 11 9 3 10 4 11 8 12
REMARK SMILES IDX 5 14 7 15 6 16 9 17 89 18 10 19 2 20 1 21 90 22 91 23 92 24
REMARK SMILES IDX 93 25 97 26 94 27 96 28 95 29 20 30 21 31 22 32 23 33 24 34
REMARK SMILES IDX 25 35 26 36 27 37 88 38 28 39 87 40 29 41 30 42 31 43 81 44
REMARK SMILES IDX 32 45 86 46 80 47 82 48 33 49 85 50 79 51 78 52 34 54 66 55
REMARK SMILES IDX 46 56 65 57 47 58 50 59 64 60 83 61 48 62 49 63 63 65 84 66
REMARK SMILES IDX 51 67 35 68 36 69 44 70 37 71 43 72 45 73 42 74 38 75 39 76
REMARK SMILES IDX 40 77 41 78 67 79 68 80 76 81 69 82 75 83 77 84 74 85 70 86
REMARK SMILES IDX 71 87 72 88 73 89 52 90 53 91 61 92 54 93 60 94 62 95 59 96
REMARK SMILES IDX 55 97 56 98 57 99 58 100
REMARK H PARENT 3 13 82 53 50 64
REMARK Flexibility Score: inf
ROOT
ATOM      1  C   UNL A   1      38.049  24.013  26.227  1.00  0.00     0.188 C 
ENDROOT
BRANCH   1   2
ATOM      2  C   UNL A   1      37.319  23.654  24.916  1.00  0.00     0.188 C 
BRANCH   2   3
ATOM      3  O   UNL A   1      36.287  22.677  24.992  1.00  0.00    -0.376 OA
BRANCH   3   4
ATOM      4  C   UNL A   1      35.629  22.546  26.248  1.00  0.00     0.202 C 
BRANCH   4   5
ATOM      5  C   UNL A   1      34.238  21.916  26.173  1.00  0.00     0.261 C 
BRANCH   5   6
ATOM      6  O   UNL A   1      33.212  22.820  26.639  1.00  0.00    -0.462 OA
BRANCH   6   7
ATOM      7  C   UNL A   1      32.131  22.897  25.823  1.00  0.00     0.331 C 
ATOM      8  O   UNL A   1      31.047  22.382  26.099  1.00  0.00    -0.250 OA
BRANCH   7   9
ATOM      9  C   UNL A   1      32.330  23.706  24.527  1.00  0.00     0.224 C 
ATOM     10  N   UNL A   1      30.195  28.372  23.216  1.00  0.00    -0.335 N 
ATOM     11  C   UNL A   1      29.932  27.552  24.378  1.00  0.00     0.267 C 
ATOM     12  C   UNL A   1      31.054  27.802  22.176  1.00  0.00     0.267 C 
ATOM     13  H   UNL A   1      30.775  29.081  23.662  1.00  0.00     0.348 HD
ATOM     14  C   UNL A   1      29.846  26.076  24.086  1.00  0.00     0.120 C 
ATOM     15  C   UNL A   1      31.439  26.309  22.194  1.00  0.00     0.120 C 
ATOM     16  C   UNL A   1      31.102  25.506  23.452  1.00  0.00     0.155 C 
ATOM     17  O   UNL A   1      30.638  24.223  22.946  1.00  0.00    -0.352 OA
ATOM     18  N   UNL A   1      32.186  25.157  24.397  1.00  0.00    -0.293 N 
ATOM     19  C   UNL A   1      31.374  23.142  23.504  1.00  0.00     0.200 C 
BRANCH  10  20
ATOM     20  C   UNL A   1      29.052  29.109  22.656  1.00  0.00     0.258 C 
ATOM     21  C   UNL A   1      29.399  30.105  21.549  1.00  0.00     0.071 C 
ENDBRANCH  10  20
BRANCH  18  22
ATOM     22  C   UNL A   1      33.186  25.907  25.005  1.00  0.00     0.256 C 
ATOM     23  O   UNL A   1      34.381  25.654  24.840  1.00  0.00    -0.269 OA
BRANCH  22  24
ATOM     24  C   UNL A   1      32.890  27.108  25.802  1.00  0.00     0.040 A 
ATOM     25  C   UNL A   1      33.623  28.280  25.581  1.00  0.00     0.014 A 
ATOM     26  C   UNL A   1      31.998  27.034  26.874  1.00  0.00     0.014 A 
ATOM     27  C   UNL A   1      33.351  29.421  26.339  1.00  0.00     0.001 A 
ATOM     28  C   UNL A   1      31.716  28.181  27.618  1.00  0.00     0.001 A 
ATOM     29  C   UNL A   1      32.376  29.378  27.336  1.00  0.00     0.000 A 
ENDBRANCH  22  24
ENDBRANCH  18  22
ENDBRANCH   7   9
ENDBRANCH   6   7
ENDBRANCH   5   6
ENDBRANCH   4   5
ENDBRANCH   3   4
ENDBRANCH   2   3
ENDBRANCH   1   2
BRANCH   1  30
ATOM     30  O   UNL A   1      39.331  23.443  26.452  1.00  0.00    -0.376 OA
BRANCH  30  31
ATOM     31  C   UNL A   1      39.343  22.093  26.902  1.00  0.00     0.202 C 
BRANCH  31  32
ATOM     32  C   UNL A   1      39.728  21.064  25.835  1.00  0.00     0.261 C 
BRANCH  32  33
ATOM     33  O   UNL A   1      40.571  20.023  26.367  1.00  0.00    -0.460 OA
BRANCH  33  34
ATOM     34  C   UNL A   1      41.850  20.077  25.923  1.00  0.00     0.338 C 
ATOM     35  O   UNL A   1      42.346  19.292  25.117  1.00  0.00    -0.246 OA
BRANCH  34  36
ATOM     36  C   UNL A   1      42.601  21.229  26.489  1.00  0.00     0.060 A 
ATOM     37  C   UNL A   1      42.804  21.400  27.860  1.00  0.00     0.016 A 
ATOM     38  C   UNL A   1      43.017  22.242  25.624  1.00  0.00     0.016 A 
ATOM     39  C   UNL A   1      43.310  22.608  28.366  1.00  0.00     0.010 A 
ATOM     40  C   UNL A   1      43.607  23.409  26.126  1.00  0.00     0.010 A 
ATOM     41  C   UNL A   1      43.725  23.634  27.510  1.00  0.00    -0.014 A 
BRANCH  41  42
ATOM     42  C   UNL A   1      44.229  24.955  28.009  1.00  0.00     0.031 A 
ATOM     43  C   UNL A   1      43.239  25.995  28.481  1.00  0.00     0.074 A 
ATOM     44  C   UNL A   1      45.542  25.270  28.025  1.00  0.00     0.049 A 
ATOM     45  N   UNL A   1      43.375  27.292  28.587  1.00  0.00    -0.248 NA
ATOM     46  C   UNL A   1      41.908  25.500  28.865  1.00  0.00     0.031 C 
ATOM     47  C   UNL A   1      46.645  24.362  27.711  1.00  0.00     0.029 A 
ATOM     48  N   UNL A   1      46.171  26.465  28.301  1.00  0.00    -0.354 N 
ATOM     49  C   UNL A   1      42.126  27.779  28.963  1.00  0.00     0.074 A 
ATOM     50  C   UNL A   1      41.252  26.630  29.086  1.00  0.00     0.031 C 
ATOM     51  C   UNL A   1      47.807  25.023  27.822  1.00  0.00     0.029 A 
ATOM     52  C   UNL A   1      47.532  26.429  28.086  1.00  0.00     0.049 A 
ATOM     53  H   UNL A   1      45.694  27.266  28.618  1.00  0.00     0.167 HD
ATOM     54  C   UNL A   1      41.744  29.066  29.165  1.00  0.00     0.034 A 
ATOM     55  C   UNL A   1      48.448  27.418  28.019  1.00  0.00     0.034 A 
ATOM     56  C   UNL A   1      42.645  30.194  29.097  1.00  0.00     0.049 A 
ATOM     57  C   UNL A   1      47.999  28.848  28.179  1.00  0.00     0.074 A 
ATOM     58  C   UNL A   1      42.366  31.537  29.284  1.00  0.00     0.029 A 
ATOM     59  N   UNL A   1      44.007  30.109  28.838  1.00  0.00    -0.354 N 
ATOM     60  N   UNL A   1      46.793  29.317  28.400  1.00  0.00    -0.248 NA
ATOM     61  C   UNL A   1      49.034  29.885  28.052  1.00  0.00     0.031 C 
ATOM     62  C   UNL A   1      43.543  32.266  29.081  1.00  0.00     0.029 A 
ATOM     63  C   UNL A   1      44.574  31.374  28.839  1.00  0.00     0.049 A 
ATOM     64  H   UNL A   1      44.498  29.270  28.677  1.00  0.00     0.167 HD
ATOM     65  C   UNL A   1      46.928  30.702  28.449  1.00  0.00     0.074 A 
ATOM     66  C   UNL A   1      48.334  30.991  28.258  1.00  0.00     0.031 C 
ATOM     67  C   UNL A   1      45.975  31.651  28.631  1.00  0.00     0.034 A 
BRANCH  54  68
ATOM     68  C   UNL A   1      40.274  29.333  29.394  1.00  0.00     0.023 A 
ATOM     69  C   UNL A   1      39.719  29.462  30.677  1.00  0.00     0.031 A 
ATOM     70  C   UNL A   1      39.407  29.440  28.290  1.00  0.00     0.131 A 
ATOM     71  C   UNL A   1      38.331  29.626  30.826  1.00  0.00     0.055 A 
ATOM     72  C   UNL A   1      38.040  29.680  28.442  1.00  0.00     0.041 A 
ATOM     73  F   UNL A   1      39.875  29.305  27.038  1.00  0.00    -0.206 F 
ATOM     74  C   UNL A   1      37.492  29.760  29.716  1.00  0.00     0.022 A 
BRANCH  71  75
ATOM     75  S   UNL A   1      37.618  29.526  32.491  1.00  0.00     0.124 S 
ATOM     76  O   UNL A   1      38.549  30.346  33.262  1.00  0.00    -0.237 OA
ATOM     77  O   UNL A   1      36.285  30.086  32.298  1.00  0.00    -0.237 OA
ATOM     78  O   UNL A   1      37.657  28.097  32.798  1.00  0.00    -0.744 OA
ENDBRANCH  71  75
ENDBRANCH  54  68
BRANCH  55  79
ATOM     79  C   UNL A   1      49.866  27.107  27.667  1.00  0.00     0.023 A 
ATOM     80  C   UNL A   1      50.341  27.248  26.354  1.00  0.00     0.031 A 
ATOM     81  C   UNL A   1      50.759  26.622  28.642  1.00  0.00     0.131 A 
ATOM     82  C   UNL A   1      51.661  26.883  26.046  1.00  0.00     0.055 A 
ATOM     83  C   UNL A   1      52.087  26.316  28.343  1.00  0.00     0.041 A 
ATOM     84  F   UNL A   1      50.355  26.455  29.912  1.00  0.00    -0.206 F 
ATOM     85  C   UNL A   1      52.542  26.436  27.034  1.00  0.00     0.022 A 
BRANCH  82  86
ATOM     86  S   UNL A   1      52.194  26.920  24.312  1.00  0.00     0.124 S 
ATOM     87  O   UNL A   1      50.921  26.807  23.608  1.00  0.00    -0.237 OA
ATOM     88  O   UNL A   1      52.860  28.216  24.228  1.00  0.00    -0.237 OA
ATOM     89  O   UNL A   1      53.075  25.760  24.200  1.00  0.00    -0.744 OA
ENDBRANCH  82  86
ENDBRANCH  55  79
BRANCH  67  90
ATOM     90  C   UNL A   1      46.442  33.085  28.677  1.00  0.00     0.023 A 
ATOM     91  C   UNL A   1      46.686  33.821  27.504  1.00  0.00     0.031 A 
ATOM     92  C   UNL A   1      46.677  33.712  29.914  1.00  0.00     0.131 A 
ATOM     93  C   UNL A   1      47.205  35.122  27.592  1.00  0.00     0.055 A 
ATOM     94  C   UNL A   1      47.140  35.026  29.995  1.00  0.00     0.041 A 
ATOM     95  F   UNL A   1      46.462  33.053  31.065  1.00  0.00    -0.206 F 
ATOM     96  C   UNL A   1      47.420  35.734  28.830  1.00  0.00     0.022 A 
BRANCH  93  97
ATOM     97  S   UNL A   1      47.685  35.975  26.064  1.00  0.00     0.124 S 
ATOM     98  O   UNL A   1      49.035  36.430  26.381  1.00  0.00    -0.237 OA
ATOM     99  O   UNL A   1      47.587  34.912  25.069  1.00  0.00    -0.237 OA
ATOM    100  O   UNL A   1      46.687  37.036  25.936  1.00  0.00    -0.744 OA
ENDBRANCH  93  97
ENDBRANCH  67  90
ENDBRANCH  41  42
ENDBRANCH  34  36
ENDBRANCH  33  34
ENDBRANCH  32  33
ENDBRANCH  31  32
ENDBRANCH  30  31
ENDBRANCH   1  30
TORSDOF 23
ENDMDL
MODEL 3
REMARK VINA RESULT:     -10.2      1.811      2.103
REMARK SMILES CC[NH+]1CCC2(CC1)OC[C@H](C(=O)OCCOCCOCCOC(=O)c1ccc(-c3c4nc(c(-c5cc(S(=O)(=O)[O-])ccc5F)c5ccc([nH]5)c(-c5cc(S(=O)(=O)[O-])ccc5F)c5nc(c(-c6cc(S(=O)(=O)[O-])ccc6F)c6ccc3[nH]6)C=C5)C=C4)cc1)N2C(=O)c1ccccc1
REMARK SMILES IDX 19 1 18 2 17 3 16 4 15 5 14 6 12 7 13 8 11 9 3 10 4 11 8 12
REMARK SMILES IDX 5 14 7 15 6 16 9 17 89 18 10 19 2 20 1 21 90 22 91 23 92 24
REMARK SMILES IDX 93 25 97 26 94 27 96 28 95 29 20 30 21 31 22 32 23 33 24 34
REMARK SMILES IDX 25 35 26 36 27 37 88 38 28 39 87 40 29 41 30 42 31 43 81 44
REMARK SMILES IDX 32 45 86 46 80 47 82 48 33 49 85 50 79 51 78 52 34 54 66 55
REMARK SMILES IDX 46 56 65 57 47 58 50 59 64 60 83 61 48 62 49 63 63 65 84 66
REMARK SMILES IDX 51 67 35 68 36 69 44 70 37 71 43 72 45 73 42 74 38 75 39 76
REMARK SMILES IDX 40 77 41 78 67 79 68 80 76 81 69 82 75 83 77 84 74 85 70 86
REMARK SMILES IDX 71 87 72 88 73 89 52 90 53 91 61 92 54 93 60 94 62 95 59 96
REMARK SMILES IDX 55 97 56 98 57 99 58 100
REMARK H PARENT 3 13 82 53 50 64
REMARK Flexibility Score: inf
ROOT
ATOM      1  C   UNL A   1      37.515  22.904  25.409  1.00  0.00     0.188 C 
ENDROOT
BRANCH   1   2
ATOM      2  C   UNL A   1      36.887  22.216  24.178  1.00  0.00     0.188 C 
BRANCH   2   3
ATOM      3  O   UNL A   1      35.545  21.758  24.304  1.00  0.00    -0.376 OA
BRANCH   3   4
ATOM      4  C   UNL A   1      35.170  21.234  25.573  1.00  0.00     0.202 C 
BRANCH   4   5
ATOM      5  C   UNL A   1      33.667  21.258  25.849  1.00  0.00     0.261 C 
BRANCH   5   6
ATOM      6  O   UNL A   1      33.182  22.601  26.073  1.00  0.00    -0.462 OA
BRANCH   6   7
ATOM      7  C   UNL A   1      32.622  23.176  24.980  1.00  0.00     0.331 C 
ATOM      8  O   UNL A   1      31.710  22.650  24.340  1.00  0.00    -0.250 OA
BRANCH   7   9
ATOM      9  C   UNL A   1      33.177  24.562  24.598  1.00  0.00     0.224 C 
ATOM     10  N   UNL A   1      30.491  28.861  23.068  1.00  0.00    -0.335 N 
ATOM     11  C   UNL A   1      29.993  27.528  23.322  1.00  0.00     0.267 C 
ATOM     12  C   UNL A   1      31.943  29.048  23.090  1.00  0.00     0.267 C 
ATOM     13  H   UNL A   1      30.165  29.308  23.924  1.00  0.00     0.348 HD
ATOM     14  C   UNL A   1      30.881  26.426  22.802  1.00  0.00     0.120 C 
ATOM     15  C   UNL A   1      32.899  27.840  23.117  1.00  0.00     0.120 C 
ATOM     16  C   UNL A   1      32.288  26.459  23.368  1.00  0.00     0.155 C 
ATOM     17  O   UNL A   1      33.008  25.578  22.460  1.00  0.00    -0.352 OA
ATOM     18  N   UNL A   1      32.451  25.828  24.696  1.00  0.00    -0.293 N 
ATOM     19  C   UNL A   1      33.598  24.484  23.150  1.00  0.00     0.200 C 
BRANCH  10  20
ATOM     20  C   UNL A   1      29.847  29.609  21.977  1.00  0.00     0.258 C 
ATOM     21  C   UNL A   1      29.013  30.812  22.416  1.00  0.00     0.071 C 
ENDBRANCH  10  20
BRANCH  18  22
ATOM     22  C   UNL A   1      32.234  26.286  25.991  1.00  0.00     0.256 C 
ATOM     23  O   UNL A   1      31.696  25.583  26.849  1.00  0.00    -0.269 OA
BRANCH  22  24
ATOM     24  C   UNL A   1      32.719  27.597  26.450  1.00  0.00     0.040 A 
ATOM     25  C   UNL A   1      31.799  28.618  26.716  1.00  0.00     0.014 A 
ATOM     26  C   UNL A   1      34.088  27.870  26.469  1.00  0.00     0.014 A 
ATOM     27  C   UNL A   1      32.253  29.866  27.146  1.00  0.00     0.001 A 
ATOM     28  C   UNL A   1      34.539  29.114  26.916  1.00  0.00     0.001 A 
ATOM     29  C   UNL A   1      33.622  30.102  27.274  1.00  0.00     0.000 A 
ENDBRANCH  22  24
ENDBRANCH  18  22
ENDBRANCH   7   9
ENDBRANCH   6   7
ENDBRANCH   5   6
ENDBRANCH   4   5
ENDBRANCH   3   4
ENDBRANCH   2   3
ENDBRANCH   1   2
BRANCH   1  30
ATOM     30  O   UNL A   1      38.881  22.636  25.695  1.00  0.00    -0.376 OA
BRANCH  30  31
ATOM     31  C   UNL A   1      39.138  21.470  26.469  1.00  0.00     0.202 C 
BRANCH  31  32
ATOM     32  C   UNL A   1      39.724  20.294  25.682  1.00  0.00     0.261 C 
BRANCH  32  33
ATOM     33  O   UNL A   1      40.628  19.506  26.482  1.00  0.00    -0.460 OA
BRANCH  33  34
ATOM     34  C   UNL A   1      41.923  19.603  26.097  1.00  0.00     0.338 C 
ATOM     35  O   UNL A   1      42.576  18.688  25.598  1.00  0.00    -0.246 OA
BRANCH  34  36
ATOM     36  C   UNL A   1      42.479  20.967  26.306  1.00  0.00     0.060 A 
ATOM     37  C   UNL A   1      42.701  21.507  27.574  1.00  0.00     0.016 A 
ATOM     38  C   UNL A   1      42.674  21.783  25.191  1.00  0.00     0.016 A 
ATOM     39  C   UNL A   1      43.003  22.869  27.731  1.00  0.00     0.010 A 
ATOM     40  C   UNL A   1      43.066  23.119  25.348  1.00  0.00     0.010 A 
ATOM     41  C   UNL A   1      43.195  23.700  26.623  1.00  0.00    -0.014 A 
BRANCH  41  42
ATOM     42  C   UNL A   1      43.475  25.168  26.746  1.00  0.00     0.031 A 
ATOM     43  C   UNL A   1      44.853  25.690  26.409  1.00  0.00     0.074 A 
ATOM     44  C   UNL A   1      42.548  26.048  27.182  1.00  0.00     0.049 A 
ATOM     45  N   UNL A   1      45.443  26.796  26.784  1.00  0.00    -0.248 NA
ATOM     46  C   UNL A   1      45.680  24.833  25.546  1.00  0.00     0.031 C 
ATOM     47  C   UNL A   1      41.142  25.748  27.452  1.00  0.00     0.029 A 
ATOM     48  N   UNL A   1      42.664  27.384  27.499  1.00  0.00    -0.354 N 
ATOM     49  C   UNL A   1      46.740  26.728  26.278  1.00  0.00     0.074 A 
ATOM     50  C   UNL A   1      46.838  25.478  25.553  1.00  0.00     0.031 C 
ATOM     51  C   UNL A   1      40.527  26.861  27.878  1.00  0.00     0.029 A 
ATOM     52  C   UNL A   1      41.515  27.921  28.038  1.00  0.00     0.049 A 
ATOM     53  H   UNL A   1      43.487  27.904  27.355  1.00  0.00     0.167 HD
ATOM     54  C   UNL A   1      47.754  27.618  26.427  1.00  0.00     0.034 A 
ATOM     55  C   UNL A   1      41.291  29.092  28.671  1.00  0.00     0.034 A 
ATOM     56  C   UNL A   1      47.619  28.888  27.103  1.00  0.00     0.049 A 
ATOM     57  C   UNL A   1      42.442  30.041  28.888  1.00  0.00     0.074 A 
ATOM     58  C   UNL A   1      48.579  29.864  27.311  1.00  0.00     0.029 A 
ATOM     59  N   UNL A   1      46.443  29.368  27.666  1.00  0.00    -0.354 N 
ATOM     60  N   UNL A   1      43.698  29.915  28.528  1.00  0.00    -0.248 NA
ATOM     61  C   UNL A   1      42.147  31.281  29.621  1.00  0.00     0.031 C 
ATOM     62  C   UNL A   1      48.001  30.904  28.048  1.00  0.00     0.029 A 
ATOM     63  C   UNL A   1      46.660  30.613  28.238  1.00  0.00     0.049 A 
ATOM     64  H   UNL A   1      45.581  28.893  27.660  1.00  0.00     0.167 HD
ATOM     65  C   UNL A   1      44.339  31.064  28.984  1.00  0.00     0.074 A 
ATOM     66  C   UNL A   1      43.329  31.881  29.623  1.00  0.00     0.031 C 
ATOM     67  C   UNL A   1      45.648  31.411  28.887  1.00  0.00     0.034 A 
BRANCH  54  68
ATOM     68  C   UNL A   1      49.120  27.213  25.924  1.00  0.00     0.023 A 
ATOM     69  C   UNL A   1      49.675  27.729  24.742  1.00  0.00     0.031 A 
ATOM     70  C   UNL A   1      49.875  26.268  26.645  1.00  0.00     0.131 A 
ATOM     71  C   UNL A   1      50.914  27.249  24.283  1.00  0.00     0.055 A 
ATOM     72  C   UNL A   1      51.139  25.852  26.224  1.00  0.00     0.041 A 
ATOM     73  F   UNL A   1      49.389  25.724  27.773  1.00  0.00    -0.206 F 
ATOM     74  C   UNL A   1      51.660  26.333  25.028  1.00  0.00     0.022 A 
BRANCH  71  75
ATOM     75  S   UNL A   1      51.476  27.737  22.628  1.00  0.00     0.124 S 
ATOM     76  O   UNL A   1      51.004  29.118  22.551  1.00  0.00    -0.237 OA
ATOM     77  O   UNL A   1      52.921  27.562  22.721  1.00  0.00    -0.237 OA
ATOM     78  O   UNL A   1      50.789  26.802  21.740  1.00  0.00    -0.744 OA
ENDBRANCH  71  75
ENDBRANCH  54  68
BRANCH  55  79
ATOM     79  C   UNL A   1      39.949  29.385  29.256  1.00  0.00     0.023 A 
ATOM     80  C   UNL A   1      39.732  29.345  30.642  1.00  0.00     0.031 A 
ATOM     81  C   UNL A   1      38.849  29.673  28.426  1.00  0.00     0.131 A 
ATOM     82  C   UNL A   1      38.442  29.561  31.154  1.00  0.00     0.055 A 
ATOM     83  C   UNL A   1      37.582  29.946  28.943  1.00  0.00     0.041 A 
ATOM     84  F   UNL A   1      38.996  29.713  27.091  1.00  0.00    -0.206 F 
ATOM     85  C   UNL A   1      37.371  29.879  30.316  1.00  0.00     0.022 A 
BRANCH  82  86
ATOM     86  S   UNL A   1      38.162  29.339  32.933  1.00  0.00     0.124 S 
ATOM     87  O   UNL A   1      39.524  29.376  33.455  1.00  0.00    -0.237 OA
ATOM     88  O   UNL A   1      37.321  30.488  33.253  1.00  0.00    -0.237 OA
ATOM     89  O   UNL A   1      37.496  28.040  33.014  1.00  0.00    -0.744 OA
ENDBRANCH  82  86
ENDBRANCH  55  79
BRANCH  67  90
ATOM     90  C   UNL A   1      46.039  32.755  29.449  1.00  0.00     0.023 A 
ATOM     91  C   UNL A   1      46.397  32.917  30.799  1.00  0.00     0.031 A 
ATOM     92  C   UNL A   1      46.021  33.896  28.627  1.00  0.00     0.131 A 
ATOM     93  C   UNL A   1      46.667  34.199  31.300  1.00  0.00     0.055 A 
ATOM     94  C   UNL A   1      46.344  35.161  29.119  1.00  0.00     0.041 A 
ATOM     95  F   UNL A   1      45.683  33.799  27.331  1.00  0.00    -0.206 F 
ATOM     96  C   UNL A   1      46.657  35.320  30.467  1.00  0.00     0.022 A 
BRANCH  93  97
ATOM     97  S   UNL A   1      46.942  34.399  33.083  1.00  0.00     0.124 S 
ATOM     98  O   UNL A   1      45.721  35.078  33.505  1.00  0.00    -0.237 OA
ATOM     99  O   UNL A   1      47.092  33.019  33.533  1.00  0.00    -0.237 OA
ATOM    100  O   UNL A   1      48.158  35.208  33.154  1.00  0.00    -0.744 OA
ENDBRANCH  93  97
ENDBRANCH  67  90
ENDBRANCH  41  42
ENDBRANCH  34  36
ENDBRANCH  33  34
ENDBRANCH  32  33
ENDBRANCH  31  32
ENDBRANCH  30  31
ENDBRANCH   1  30
TORSDOF 23
ENDMDL
