MODEL 1
REMARK VINA RESULT:     -10.0      0.000      0.000
REMARK SMILES C[C@H](C(=O)OCCOCCOCCOC(=O)c1ccc(-c2c3nc(c(-c4cc(S(=O)(=O)[O-])ccc4F)c4ccc([nH]4)c(-c4cc(S(=O)(=O)[O-])ccc4F)c4nc(c(-c5cc(S(=O)(=O)[O-])ccc5F)c5ccc2[nH]5)C=C4)C=C3)cc1)[C@@H](C)[NH2+]Cc1ccc(F)c(F)c1
REMARK SMILES IDX 9 1 8 2 7 3 6 4 5 5 3 6 4 7 2 8 1 9 80 10 81 11 82 12 83 15
REMARK SMILES IDX 84 16 85 17 91 18 86 19 89 20 87 21 90 22 88 23 10 24 11 25
REMARK SMILES IDX 12 26 13 27 14 28 15 29 16 30 17 31 18 32 79 33 19 34 78 35
REMARK SMILES IDX 20 36 21 37 22 38 72 39 23 40 77 41 71 42 73 43 24 44 76 45
REMARK SMILES IDX 70 46 69 47 25 49 57 50 37 51 56 52 38 53 41 54 55 55 74 56
REMARK SMILES IDX 39 57 40 58 54 60 75 61 42 62 26 63 27 64 35 65 28 66 34 67
REMARK SMILES IDX 36 68 33 69 29 70 30 71 31 72 32 73 58 74 59 75 67 76 60 77
REMARK SMILES IDX 66 78 68 79 65 80 61 81 62 82 63 83 64 84 43 85 44 86 52 87
REMARK SMILES IDX 45 88 51 89 53 90 50 91 46 92 47 93 48 94 49 95
REMARK H PARENT 82 13 82 14 73 48 41 59
REMARK Flexibility Score: inf
ROOT
ATOM      1  C   UNL A   1      33.970  22.569  25.977  1.00  0.00     0.188 C 
ENDROOT
BRANCH   1   2
ATOM      2  O   UNL A   1      32.770  21.911  25.574  1.00  0.00    -0.376 OA
BRANCH   2   3
ATOM      3  C   UNL A   1      31.538  22.595  25.716  1.00  0.00     0.202 C 
BRANCH   3   4
ATOM      4  C   UNL A   1      31.068  23.421  24.511  1.00  0.00     0.261 C 
BRANCH   4   5
ATOM      5  O   UNL A   1      31.564  24.770  24.491  1.00  0.00    -0.463 OA
BRANCH   5   6
ATOM      6  C   UNL A   1      30.639  25.721  24.792  1.00  0.00     0.314 C 
ATOM      7  O   UNL A   1      30.470  26.179  25.916  1.00  0.00    -0.252 OA
BRANCH   6   8
ATOM      8  C   UNL A   1      29.795  26.153  23.598  1.00  0.00     0.154 C 
ATOM      9  C   UNL A   1      28.381  26.616  23.959  1.00  0.00     0.026 C 
BRANCH   8  10
ATOM     10  C   UNL A   1      30.536  27.213  22.755  1.00  0.00     0.193 C 
ATOM     11  C   UNL A   1      29.726  28.519  22.728  1.00  0.00     0.076 C 
BRANCH  10  12
ATOM     12  N   UNL A   1      31.868  27.395  23.367  1.00  0.00    -0.340 N 
ATOM     13  H   UNL A   1      32.543  26.878  22.803  1.00  0.00     0.346 HD
ATOM     14  H   UNL A   1      31.779  27.056  24.325  1.00  0.00     0.346 HD
BRANCH  12  15
ATOM     15  C   UNL A   1      32.340  28.776  23.478  1.00  0.00     0.297 C 
BRANCH  15  16
ATOM     16  C   UNL A   1      32.597  29.160  24.911  1.00  0.00     0.009 A 
ATOM     17  C   UNL A   1      31.767  30.108  25.537  1.00  0.00     0.013 A 
ATOM     18  C   UNL A   1      33.785  28.757  25.540  1.00  0.00     0.052 A 
ATOM     19  C   UNL A   1      32.172  30.723  26.721  1.00  0.00     0.043 A 
ATOM     20  C   UNL A   1      34.179  29.375  26.721  1.00  0.00     0.159 A 
ATOM     21  C   UNL A   1      33.390  30.367  27.294  1.00  0.00     0.158 A 
ATOM     22  F   UNL A   1      35.366  29.060  27.258  1.00  0.00    -0.204 F 
ATOM     23  F   UNL A   1      33.819  31.019  28.382  1.00  0.00    -0.204 F 
ENDBRANCH  15  16
ENDBRANCH  12  15
ENDBRANCH  10  12
ENDBRANCH   8  10
ENDBRANCH   6   8
ENDBRANCH   5   6
ENDBRANCH   4   5
ENDBRANCH   3   4
ENDBRANCH   2   3
ENDBRANCH   1   2
BRANCH   1  24
ATOM     24  C   UNL A   1      35.147  22.668  24.984  1.00  0.00     0.188 C 
BRANCH  24  25
ATOM     25  O   UNL A   1      35.524  21.477  24.308  1.00  0.00    -0.376 OA
BRANCH  25  26
ATOM     26  C   UNL A   1      35.980  20.398  25.118  1.00  0.00     0.202 C 
BRANCH  26  27
ATOM     27  C   UNL A   1      37.459  20.015  24.959  1.00  0.00     0.261 C 
BRANCH  27  28
ATOM     28  O   UNL A   1      38.340  21.152  25.116  1.00  0.00    -0.460 OA
BRANCH  28  29
ATOM     29  C   UNL A   1      39.369  20.997  25.988  1.00  0.00     0.338 C 
ATOM     30  O   UNL A   1      40.016  19.980  26.168  1.00  0.00    -0.246 OA
BRANCH  29  31
ATOM     31  C   UNL A   1      39.733  22.289  26.616  1.00  0.00     0.060 A 
ATOM     32  C   UNL A   1      39.018  23.434  26.236  1.00  0.00     0.016 A 
ATOM     33  C   UNL A   1      40.828  22.408  27.475  1.00  0.00     0.016 A 
ATOM     34  C   UNL A   1      39.422  24.700  26.671  1.00  0.00     0.010 A 
ATOM     35  C   UNL A   1      41.240  23.681  27.900  1.00  0.00     0.010 A 
ATOM     36  C   UNL A   1      40.563  24.839  27.472  1.00  0.00    -0.014 A 
BRANCH  36  37
ATOM     37  C   UNL A   1      41.148  26.187  27.724  1.00  0.00     0.031 A 
ATOM     38  C   UNL A   1      42.519  26.496  27.177  1.00  0.00     0.074 A 
ATOM     39  C   UNL A   1      40.478  27.133  28.408  1.00  0.00     0.049 A 
ATOM     40  N   UNL A   1      43.276  27.548  27.366  1.00  0.00    -0.248 NA
ATOM     41  C   UNL A   1      43.112  25.477  26.300  1.00  0.00     0.031 C 
ATOM     42  C   UNL A   1      39.118  26.998  28.923  1.00  0.00     0.029 A 
ATOM     43  N   UNL A   1      40.859  28.397  28.791  1.00  0.00    -0.354 N 
ATOM     44  C   UNL A   1      44.443  27.311  26.647  1.00  0.00     0.074 A 
ATOM     45  C   UNL A   1      44.299  26.004  26.038  1.00  0.00     0.031 C 
ATOM     46  C   UNL A   1      38.782  28.131  29.568  1.00  0.00     0.029 A 
ATOM     47  C   UNL A   1      39.920  29.050  29.557  1.00  0.00     0.049 A 
ATOM     48  H   UNL A   1      41.723  28.798  28.542  1.00  0.00     0.167 HD
ATOM     49  C   UNL A   1      45.534  28.106  26.506  1.00  0.00     0.034 A 
ATOM     50  C   UNL A   1      39.984  30.232  30.205  1.00  0.00     0.034 A 
ATOM     51  C   UNL A   1      45.672  29.405  27.121  1.00  0.00     0.049 A 
ATOM     52  C   UNL A   1      41.252  31.054  30.126  1.00  0.00     0.074 A 
ATOM     53  C   UNL A   1      46.736  30.288  27.041  1.00  0.00     0.029 A 
ATOM     54  N   UNL A   1      44.723  30.005  27.938  1.00  0.00    -0.354 N 
ATOM     55  N   UNL A   1      42.360  30.808  29.466  1.00  0.00    -0.248 NA
ATOM     56  C   UNL A   1      41.276  32.313  30.885  1.00  0.00     0.031 C 
ATOM     57  C   UNL A   1      46.462  31.385  27.866  1.00  0.00     0.029 A 
ATOM     58  C   UNL A   1      45.192  31.228  28.396  1.00  0.00     0.049 A 
ATOM     59  H   UNL A   1      43.845  29.618  28.160  1.00  0.00     0.167 HD
ATOM     60  C   UNL A   1      43.196  31.897  29.705  1.00  0.00     0.074 A 
ATOM     61  C   UNL A   1      42.462  32.806  30.559  1.00  0.00     0.031 C 
ATOM     62  C   UNL A   1      44.457  32.127  29.255  1.00  0.00     0.034 A 
BRANCH  49  63
ATOM     63  C   UNL A   1      46.693  27.556  25.708  1.00  0.00     0.023 A 
ATOM     64  C   UNL A   1      46.977  28.000  24.405  1.00  0.00     0.031 A 
ATOM     65  C   UNL A   1      47.507  26.546  26.252  1.00  0.00     0.131 A 
ATOM     66  C   UNL A   1      47.998  27.384  23.663  1.00  0.00     0.055 A 
ATOM     67  C   UNL A   1      48.572  25.994  25.538  1.00  0.00     0.041 A 
ATOM     68  F   UNL A   1      47.271  26.067  27.483  1.00  0.00    -0.206 F 
ATOM     69  C   UNL A   1      48.814  26.401  24.230  1.00  0.00     0.022 A 
BRANCH  66  70
ATOM     70  S   UNL A   1      48.150  27.781  21.900  1.00  0.00     0.124 S 
ATOM     71  O   UNL A   1      46.860  28.410  21.626  1.00  0.00    -0.237 OA
ATOM     72  O   UNL A   1      49.310  28.663  21.874  1.00  0.00    -0.237 OA
ATOM     73  O   UNL A   1      48.344  26.476  21.270  1.00  0.00    -0.744 OA
ENDBRANCH  66  70
ENDBRANCH  49  63
BRANCH  50  74
ATOM     74  C   UNL A   1      38.842  30.701  31.047  1.00  0.00     0.023 A 
ATOM     75  C   UNL A   1      37.822  31.503  30.510  1.00  0.00     0.031 A 
ATOM     76  C   UNL A   1      38.797  30.415  32.423  1.00  0.00     0.131 A 
ATOM     77  C   UNL A   1      36.829  32.030  31.351  1.00  0.00     0.055 A 
ATOM     78  C   UNL A   1      37.775  30.894  33.246  1.00  0.00     0.041 A 
ATOM     79  F   UNL A   1      39.752  29.663  32.994  1.00  0.00    -0.206 F 
ATOM     80  C   UNL A   1      36.790  31.719  32.712  1.00  0.00     0.022 A 
BRANCH  77  81
ATOM     81  S   UNL A   1      35.638  33.210  30.658  1.00  0.00     0.124 S 
ATOM     82  O   UNL A   1      35.998  34.440  31.356  1.00  0.00    -0.237 OA
ATOM     83  O   UNL A   1      35.958  33.164  29.235  1.00  0.00    -0.237 OA
ATOM     84  O   UNL A   1      34.343  32.641  31.021  1.00  0.00    -0.744 OA
ENDBRANCH  77  81
ENDBRANCH  50  74
BRANCH  62  85
ATOM     85  C   UNL A   1      45.099  33.443  29.633  1.00  0.00     0.023 A 
ATOM     86  C   UNL A   1      44.928  34.605  28.860  1.00  0.00     0.031 A 
ATOM     87  C   UNL A   1      45.899  33.530  30.787  1.00  0.00     0.131 A 
ATOM     88  C   UNL A   1      45.591  35.790  29.221  1.00  0.00     0.055 A 
ATOM     89  C   UNL A   1      46.508  34.724  31.173  1.00  0.00     0.041 A 
ATOM     90  F   UNL A   1      46.099  32.453  31.562  1.00  0.00    -0.206 F 
ATOM     91  C   UNL A   1      46.366  35.860  30.382  1.00  0.00     0.022 A 
BRANCH  88  92
ATOM     92  S   UNL A   1      45.498  37.219  28.107  1.00  0.00     0.124 S 
ATOM     93  O   UNL A   1      44.092  37.595  28.213  1.00  0.00    -0.237 OA
ATOM     94  O   UNL A   1      46.452  38.146  28.708  1.00  0.00    -0.237 OA
ATOM     95  O   UNL A   1      45.899  36.672  26.812  1.00  0.00    -0.744 OA
ENDBRANCH  88  92
ENDBRANCH  62  85
ENDBRANCH  36  37
ENDBRANCH  29  31
ENDBRANCH  28  29
ENDBRANCH  27  28
ENDBRANCH  26  27
ENDBRANCH  25  26
ENDBRANCH  24  25
ENDBRANCH   1  24
TORSDOF 24
ENDMDL
MODEL 2
REMARK VINA RESULT:      -9.8      1.561      7.747
REMARK SMILES C[C@H](C(=O)OCCOCCOCCOC(=O)c1ccc(-c2c3nc(c(-c4cc(S(=O)(=O)[O-])ccc4F)c4ccc([nH]4)c(-c4cc(S(=O)(=O)[O-])ccc4F)c4nc(c(-c5cc(S(=O)(=O)[O-])ccc5F)c5ccc2[nH]5)C=C4)C=C3)cc1)[C@@H](C)[NH2+]Cc1ccc(F)c(F)c1
REMARK SMILES IDX 9 1 8 2 7 3 6 4 5 5 3 6 4 7 2 8 1 9 80 10 81 11 82 12 83 15
REMARK SMILES IDX 84 16 85 17 91 18 86 19 89 20 87 21 90 22 88 23 10 24 11 25
REMARK SMILES IDX 12 26 13 27 14 28 15 29 16 30 17 31 18 32 79 33 19 34 78 35
REMARK SMILES IDX 20 36 21 37 22 38 72 39 23 40 77 41 71 42 73 43 24 44 76 45
REMARK SMILES IDX 70 46 69 47 25 49 57 50 37 51 56 52 38 53 41 54 55 55 74 56
REMARK SMILES IDX 39 57 40 58 54 60 75 61 42 62 26 63 27 64 35 65 28 66 34 67
REMARK SMILES IDX 36 68 33 69 29 70 30 71 31 72 32 73 58 74 59 75 67 76 60 77
REMARK SMILES IDX 66 78 68 79 65 80 61 81 62 82 63 83 64 84 43 85 44 86 52 87
REMARK SMILES IDX 45 88 51 89 53 90 50 91 46 92 47 93 48 94 49 95
REMARK H PARENT 82 13 82 14 73 48 41 59
REMARK Flexibility Score: inf
ROOT
ATOM      1  C   UNL A   1      33.160  22.001  26.702  1.00  0.00     0.188 C 
ENDROOT
BRANCH   1   2
ATOM      2  O   UNL A   1      31.888  22.500  26.293  1.00  0.00    -0.376 OA
BRANCH   2   3
ATOM      3  C   UNL A   1      31.391  23.679  26.902  1.00  0.00     0.202 C 
BRANCH   3   4
ATOM      4  C   UNL A   1      32.244  24.945  26.744  1.00  0.00     0.261 C 
BRANCH   4   5
ATOM      5  O   UNL A   1      31.497  26.172  26.808  1.00  0.00    -0.463 OA
BRANCH   5   6
ATOM      6  C   UNL A   1      32.205  27.287  26.484  1.00  0.00     0.314 C 
ATOM      7  O   UNL A   1      33.420  27.387  26.614  1.00  0.00    -0.252 OA
BRANCH   6   8
ATOM      8  C   UNL A   1      31.342  28.431  25.965  1.00  0.00     0.154 C 
ATOM      9  C   UNL A   1      32.046  29.790  25.935  1.00  0.00     0.026 C 
BRANCH   8  10
ATOM     10  C   UNL A   1      30.734  28.082  24.589  1.00  0.00     0.193 C 
ATOM     11  C   UNL A   1      31.146  29.138  23.552  1.00  0.00     0.076 C 
BRANCH  10  12
ATOM     12  N   UNL A   1      31.220  26.732  24.235  1.00  0.00    -0.340 N 
ATOM     13  H   UNL A   1      30.468  26.070  24.426  1.00  0.00     0.346 HD
ATOM     14  H   UNL A   1      32.058  26.585  24.797  1.00  0.00     0.346 HD
BRANCH  12  15
ATOM     15  C   UNL A   1      31.639  26.545  22.845  1.00  0.00     0.297 C 
BRANCH  15  16
ATOM     16  C   UNL A   1      32.783  25.573  22.737  1.00  0.00     0.009 A 
ATOM     17  C   UNL A   1      32.686  24.480  21.856  1.00  0.00     0.013 A 
ATOM     18  C   UNL A   1      33.831  25.621  23.669  1.00  0.00     0.052 A 
ATOM     19  C   UNL A   1      33.562  23.402  21.977  1.00  0.00     0.043 A 
ATOM     20  C   UNL A   1      34.698  24.541  23.781  1.00  0.00     0.159 A 
ATOM     21  C   UNL A   1      34.550  23.430  22.958  1.00  0.00     0.158 A 
ATOM     22  F   UNL A   1      35.630  24.549  24.745  1.00  0.00    -0.204 F 
ATOM     23  F   UNL A   1      35.334  22.358  23.132  1.00  0.00    -0.204 F 
ENDBRANCH  15  16
ENDBRANCH  12  15
ENDBRANCH  10  12
ENDBRANCH   8  10
ENDBRANCH   6   8
ENDBRANCH   5   6
ENDBRANCH   4   5
ENDBRANCH   3   4
ENDBRANCH   2   3
ENDBRANCH   1   2
BRANCH   1  24
ATOM     24  C   UNL A   1      33.860  20.925  25.846  1.00  0.00     0.188 C 
BRANCH  24  25
ATOM     25  O   UNL A   1      35.266  21.047  25.677  1.00  0.00    -0.376 OA
BRANCH  25  26
ATOM     26  C   UNL A   1      35.933  19.951  25.059  1.00  0.00     0.202 C 
BRANCH  26  27
ATOM     27  C   UNL A   1      37.424  20.157  24.752  1.00  0.00     0.261 C 
BRANCH  27  28
ATOM     28  O   UNL A   1      37.978  21.289  25.462  1.00  0.00    -0.460 OA
BRANCH  28  29
ATOM     29  C   UNL A   1      39.175  21.087  26.071  1.00  0.00     0.338 C 
ATOM     30  O   UNL A   1      39.862  20.085  25.998  1.00  0.00    -0.246 OA
BRANCH  29  31
ATOM     31  C   UNL A   1      39.643  22.323  26.744  1.00  0.00     0.060 A 
ATOM     32  C   UNL A   1      39.105  23.548  26.325  1.00  0.00     0.016 A 
ATOM     33  C   UNL A   1      40.674  22.303  27.686  1.00  0.00     0.016 A 
ATOM     34  C   UNL A   1      39.625  24.754  26.808  1.00  0.00     0.010 A 
ATOM     35  C   UNL A   1      41.204  23.513  28.159  1.00  0.00     0.010 A 
ATOM     36  C   UNL A   1      40.708  24.748  27.696  1.00  0.00    -0.014 A 
BRANCH  36  37
ATOM     37  C   UNL A   1      41.432  26.012  28.011  1.00  0.00     0.031 A 
ATOM     38  C   UNL A   1      40.701  27.100  28.758  1.00  0.00     0.074 A 
ATOM     39  C   UNL A   1      42.719  26.197  27.664  1.00  0.00     0.049 A 
ATOM     40  N   UNL A   1      41.081  28.321  29.039  1.00  0.00    -0.248 NA
ATOM     41  C   UNL A   1      39.359  26.759  29.252  1.00  0.00     0.031 C 
ATOM     42  C   UNL A   1      43.568  25.204  27.012  1.00  0.00     0.029 A 
ATOM     43  N   UNL A   1      43.535  27.294  27.808  1.00  0.00    -0.354 N 
ATOM     44  C   UNL A   1      40.019  28.902  29.726  1.00  0.00     0.074 A 
ATOM     45  C   UNL A   1      38.973  27.902  29.797  1.00  0.00     0.031 C 
ATOM     46  C   UNL A   1      44.783  25.741  26.800  1.00  0.00     0.029 A 
ATOM     47  C   UNL A   1      44.784  27.132  27.252  1.00  0.00     0.049 A 
ATOM     48  H   UNL A   1      43.253  28.119  28.266  1.00  0.00     0.167 HD
ATOM     49  C   UNL A   1      39.923  30.151  30.248  1.00  0.00     0.034 A 
ATOM     50  C   UNL A   1      45.795  28.012  27.091  1.00  0.00     0.034 A 
ATOM     51  C   UNL A   1      40.969  31.143  30.169  1.00  0.00     0.049 A 
ATOM     52  C   UNL A   1      45.626  29.433  27.583  1.00  0.00     0.074 A 
ATOM     53  C   UNL A   1      40.970  32.436  30.664  1.00  0.00     0.029 A 
ATOM     54  N   UNL A   1      42.196  30.960  29.545  1.00  0.00    -0.354 N 
ATOM     55  N   UNL A   1      44.607  29.980  28.207  1.00  0.00    -0.248 NA
ATOM     56  C   UNL A   1      46.745  30.356  27.345  1.00  0.00     0.031 C 
ATOM     57  C   UNL A   1      42.164  33.056  30.278  1.00  0.00     0.029 A 
ATOM     58  C   UNL A   1      42.945  32.125  29.612  1.00  0.00     0.049 A 
ATOM     59  H   UNL A   1      42.491  30.123  29.117  1.00  0.00     0.167 HD
ATOM     60  C   UNL A   1      44.979  31.299  28.462  1.00  0.00     0.074 A 
ATOM     61  C   UNL A   1      46.318  31.462  27.937  1.00  0.00     0.031 C 
ATOM     62  C   UNL A   1      44.278  32.284  29.080  1.00  0.00     0.034 A 
BRANCH  49  63
ATOM     63  C   UNL A   1      38.611  30.532  30.893  1.00  0.00     0.023 A 
ATOM     64  C   UNL A   1      37.568  31.127  30.162  1.00  0.00     0.031 A 
ATOM     65  C   UNL A   1      38.417  30.327  32.271  1.00  0.00     0.131 A 
ATOM     66  C   UNL A   1      36.408  31.561  30.825  1.00  0.00     0.055 A 
ATOM     67  C   UNL A   1      37.229  30.688  32.909  1.00  0.00     0.041 A 
ATOM     68  F   UNL A   1      39.386  29.784  33.024  1.00  0.00    -0.206 F 
ATOM     69  C   UNL A   1      36.222  31.323  32.190  1.00  0.00     0.022 A 
BRANCH  66  70
ATOM     70  S   UNL A   1      35.212  32.572  29.910  1.00  0.00     0.124 S 
ATOM     71  O   UNL A   1      34.252  32.914  30.958  1.00  0.00    -0.237 OA
ATOM     72  O   UNL A   1      36.038  33.667  29.416  1.00  0.00    -0.237 OA
ATOM     73  O   UNL A   1      34.705  31.660  28.886  1.00  0.00    -0.744 OA
ENDBRANCH  66  70
ENDBRANCH  49  63
BRANCH  50  74
ATOM     74  C   UNL A   1      47.046  27.613  26.378  1.00  0.00     0.023 A 
ATOM     75  C   UNL A   1      47.213  27.862  25.007  1.00  0.00     0.031 A 
ATOM     76  C   UNL A   1      48.060  26.905  27.047  1.00  0.00     0.131 A 
ATOM     77  C   UNL A   1      48.344  27.367  24.338  1.00  0.00     0.055 A 
ATOM     78  C   UNL A   1      49.212  26.465  26.390  1.00  0.00     0.041 A 
ATOM     79  F   UNL A   1      47.947  26.628  28.356  1.00  0.00    -0.206 F 
ATOM     80  C   UNL A   1      49.351  26.683  25.023  1.00  0.00     0.022 A 
BRANCH  77  81
ATOM     81  S   UNL A   1      48.437  27.546  22.535  1.00  0.00     0.124 S 
ATOM     82  O   UNL A   1      47.181  28.227  22.240  1.00  0.00    -0.237 OA
ATOM     83  O   UNL A   1      49.651  28.340  22.371  1.00  0.00    -0.237 OA
ATOM     84  O   UNL A   1      48.527  26.168  22.059  1.00  0.00    -0.744 OA
ENDBRANCH  77  81
ENDBRANCH  50  74
BRANCH  62  85
ATOM     85  C   UNL A   1      44.973  33.613  29.272  1.00  0.00     0.023 A 
ATOM     86  C   UNL A   1      45.018  34.585  28.256  1.00  0.00     0.031 A 
ATOM     87  C   UNL A   1      45.606  33.908  30.494  1.00  0.00     0.131 A 
ATOM     88  C   UNL A   1      45.724  35.781  28.461  1.00  0.00     0.055 A 
ATOM     89  C   UNL A   1      46.257  35.122  30.713  1.00  0.00     0.041 A 
ATOM     90  F   UNL A   1      45.598  33.018  31.499  1.00  0.00    -0.206 F 
ATOM     91  C   UNL A   1      46.329  36.063  29.689  1.00  0.00     0.022 A 
BRANCH  88  92
ATOM     92  S   UNL A   1      45.917  36.934  27.073  1.00  0.00     0.124 S 
ATOM     93  O   UNL A   1      46.125  36.024  25.951  1.00  0.00    -0.237 OA
ATOM     94  O   UNL A   1      44.647  37.652  27.085  1.00  0.00    -0.237 OA
ATOM     95  O   UNL A   1      47.083  37.732  27.449  1.00  0.00    -0.744 OA
ENDBRANCH  88  92
ENDBRANCH  62  85
ENDBRANCH  36  37
ENDBRANCH  29  31
ENDBRANCH  28  29
ENDBRANCH  27  28
ENDBRANCH  26  27
ENDBRANCH  25  26
ENDBRANCH  24  25
ENDBRANCH   1  24
TORSDOF 24
ENDMDL
MODEL 3
REMARK VINA RESULT:      -9.7      1.897      7.758
REMARK SMILES C[C@H](C(=O)OCCOCCOCCOC(=O)c1ccc(-c2c3nc(c(-c4cc(S(=O)(=O)[O-])ccc4F)c4ccc([nH]4)c(-c4cc(S(=O)(=O)[O-])ccc4F)c4nc(c(-c5cc(S(=O)(=O)[O-])ccc5F)c5ccc2[nH]5)C=C4)C=C3)cc1)[C@@H](C)[NH2+]Cc1ccc(F)c(F)c1
REMARK SMILES IDX 9 1 8 2 7 3 6 4 5 5 3 6 4 7 2 8 1 9 80 10 81 11 82 12 83 15
REMARK SMILES IDX 84 16 85 17 91 18 86 19 89 20 87 21 90 22 88 23 10 24 11 25
REMARK SMILES IDX 12 26 13 27 14 28 15 29 16 30 17 31 18 32 79 33 19 34 78 35
REMARK SMILES IDX 20 36 21 37 22 38 72 39 23 40 77 41 71 42 73 43 24 44 76 45
REMARK SMILES IDX 70 46 69 47 25 49 57 50 37 51 56 52 38 53 41 54 55 55 74 56
REMARK SMILES IDX 39 57 40 58 54 60 75 61 42 62 26 63 27 64 35 65 28 66 34 67
REMARK SMILES IDX 36 68 33 69 29 70 30 71 31 72 32 73 58 74 59 75 67 76 60 77
REMARK SMILES IDX 66 78 68 79 65 80 61 81 62 82 63 83 64 84 43 85 44 86 52 87
REMARK SMILES IDX 45 88 51 89 53 90 50 91 46 92 47 93 48 94 49 95
REMARK H PARENT 82 13 82 14 73 48 41 59
REMARK Flexibility Score: inf
ROOT
ATOM      1  C   UNL A   1      32.503  19.479  23.787  1.00  0.00     0.188 C 
ENDROOT
BRANCH   1   2
ATOM      2  O   UNL A   1      32.283  19.838  22.424  1.00  0.00    -0.376 OA
BRANCH   2   3
ATOM      3  C   UNL A   1      31.778  21.130  22.133  1.00  0.00     0.202 C 
BRANCH   3   4
ATOM      4  C   UNL A   1      32.449  22.307  22.853  1.00  0.00     0.261 C 
BRANCH   4   5
ATOM      5  O   UNL A   1      33.136  23.220  21.980  1.00  0.00    -0.463 OA
BRANCH   5   6
ATOM      6  C   UNL A   1      33.530  24.381  22.567  1.00  0.00     0.314 C 
ATOM      7  O   UNL A   1      33.754  25.417  21.951  1.00  0.00    -0.252 OA
BRANCH   6   8
ATOM      8  C   UNL A   1      33.702  24.276  24.078  1.00  0.00     0.154 C 
ATOM      9  C   UNL A   1      35.159  24.282  24.550  1.00  0.00     0.026 C 
BRANCH   8  10
ATOM     10  C   UNL A   1      32.871  25.356  24.803  1.00  0.00     0.193 C 
ATOM     11  C   UNL A   1      32.459  24.852  26.196  1.00  0.00     0.076 C 
BRANCH  10  12
ATOM     12  N   UNL A   1      33.711  26.569  24.874  1.00  0.00    -0.340 N 
ATOM     13  H   UNL A   1      33.324  27.255  24.225  1.00  0.00     0.346 HD
ATOM     14  H   UNL A   1      34.656  26.263  24.644  1.00  0.00     0.346 HD
BRANCH  12  15
ATOM     15  C   UNL A   1      33.810  27.204  26.189  1.00  0.00     0.297 C 
BRANCH  15  16
ATOM     16  C   UNL A   1      33.308  28.623  26.159  1.00  0.00     0.009 A 
ATOM     17  C   UNL A   1      33.745  29.536  27.137  1.00  0.00     0.013 A 
ATOM     18  C   UNL A   1      32.243  28.969  25.314  1.00  0.00     0.052 A 
ATOM     19  C   UNL A   1      33.057  30.732  27.336  1.00  0.00     0.043 A 
ATOM     20  C   UNL A   1      31.565  30.164  25.521  1.00  0.00     0.159 A 
ATOM     21  C   UNL A   1      31.954  31.028  26.540  1.00  0.00     0.158 A 
ATOM     22  F   UNL A   1      30.483  30.438  24.778  1.00  0.00    -0.204 F 
ATOM     23  F   UNL A   1      31.241  32.135  26.788  1.00  0.00    -0.204 F 
ENDBRANCH  15  16
ENDBRANCH  12  15
ENDBRANCH  10  12
ENDBRANCH   8  10
ENDBRANCH   6   8
ENDBRANCH   5   6
ENDBRANCH   4   5
ENDBRANCH   3   4
ENDBRANCH   2   3
ENDBRANCH   1   2
BRANCH   1  24
ATOM     24  C   UNL A   1      33.692  20.101  24.549  1.00  0.00     0.188 C 
BRANCH  24  25
ATOM     25  O   UNL A   1      34.698  19.212  25.014  1.00  0.00    -0.376 OA
BRANCH  25  26
ATOM     26  C   UNL A   1      36.048  19.645  24.874  1.00  0.00     0.202 C 
BRANCH  26  27
ATOM     27  C   UNL A   1      36.378  21.021  25.471  1.00  0.00     0.261 C 
BRANCH  27  28
ATOM     28  O   UNL A   1      37.650  21.530  25.004  1.00  0.00    -0.460 OA
BRANCH  28  29
ATOM     29  C   UNL A   1      38.738  21.194  25.743  1.00  0.00     0.338 C 
ATOM     30  O   UNL A   1      39.280  20.103  25.774  1.00  0.00    -0.246 OA
BRANCH  29  31
ATOM     31  C   UNL A   1      39.307  22.382  26.422  1.00  0.00     0.060 A 
ATOM     32  C   UNL A   1      38.802  23.645  26.079  1.00  0.00     0.016 A 
ATOM     33  C   UNL A   1      40.393  22.282  27.294  1.00  0.00     0.016 A 
ATOM     34  C   UNL A   1      39.410  24.808  26.564  1.00  0.00     0.010 A 
ATOM     35  C   UNL A   1      41.009  23.450  27.770  1.00  0.00     0.010 A 
ATOM     36  C   UNL A   1      40.545  24.721  27.380  1.00  0.00    -0.014 A 
BRANCH  36  37
ATOM     37  C   UNL A   1      41.348  25.939  27.687  1.00  0.00     0.031 A 
ATOM     38  C   UNL A   1      40.723  27.027  28.524  1.00  0.00     0.074 A 
ATOM     39  C   UNL A   1      42.614  26.081  27.254  1.00  0.00     0.049 A 
ATOM     40  N   UNL A   1      41.178  28.219  28.821  1.00  0.00    -0.248 NA
ATOM     41  C   UNL A   1      39.405  26.726  29.101  1.00  0.00     0.031 C 
ATOM     42  C   UNL A   1      43.367  25.079  26.506  1.00  0.00     0.029 A 
ATOM     43  N   UNL A   1      43.488  27.136  27.378  1.00  0.00    -0.354 N 
ATOM     44  C   UNL A   1      40.196  28.818  29.604  1.00  0.00     0.074 A 
ATOM     45  C   UNL A   1      39.112  27.863  29.715  1.00  0.00     0.031 C 
ATOM     46  C   UNL A   1      44.588  25.570  26.225  1.00  0.00     0.029 A 
ATOM     47  C   UNL A   1      44.685  26.941  26.727  1.00  0.00     0.049 A 
ATOM     48  H   UNL A   1      43.278  27.953  27.885  1.00  0.00     0.167 HD
ATOM     49  C   UNL A   1      40.195  30.048  30.177  1.00  0.00     0.034 A 
ATOM     50  C   UNL A   1      45.722  27.782  26.525  1.00  0.00     0.034 A 
ATOM     51  C   UNL A   1      41.277  30.996  30.058  1.00  0.00     0.049 A 
ATOM     52  C   UNL A   1      45.654  29.189  27.079  1.00  0.00     0.074 A 
ATOM     53  C   UNL A   1      41.374  32.267  30.598  1.00  0.00     0.029 A 
ATOM     54  N   UNL A   1      42.447  30.784  29.340  1.00  0.00    -0.354 N 
ATOM     55  N   UNL A   1      44.709  29.754  27.795  1.00  0.00    -0.248 NA
ATOM     56  C   UNL A   1      46.795  30.070  26.793  1.00  0.00     0.031 C 
ATOM     57  C   UNL A   1      42.565  32.849  30.149  1.00  0.00     0.029 A 
ATOM     58  C   UNL A   1      43.252  31.912  29.395  1.00  0.00     0.049 A 
ATOM     59  H   UNL A   1      42.672  29.953  28.861  1.00  0.00     0.167 HD
ATOM     60  C   UNL A   1      45.159  31.044  28.070  1.00  0.00     0.074 A 
ATOM     61  C   UNL A   1      46.463  31.169  27.455  1.00  0.00     0.031 C 
ATOM     62  C   UNL A   1      44.550  32.034  28.773  1.00  0.00     0.034 A 
BRANCH  49  63
ATOM     63  C   UNL A   1      38.951  30.461  30.929  1.00  0.00     0.023 A 
ATOM     64  C   UNL A   1      37.917  31.188  30.315  1.00  0.00     0.031 A 
ATOM     65  C   UNL A   1      38.816  30.147  32.293  1.00  0.00     0.131 A 
ATOM     66  C   UNL A   1      36.830  31.641  31.080  1.00  0.00     0.055 A 
ATOM     67  C   UNL A   1      37.694  30.531  33.030  1.00  0.00     0.041 A 
ATOM     68  F   UNL A   1      39.781  29.473  32.939  1.00  0.00    -0.206 F 
ATOM     69  C   UNL A   1      36.700  31.296  32.428  1.00  0.00     0.022 A 
BRANCH  66  70
ATOM     70  S   UNL A   1      35.666  32.810  30.328  1.00  0.00     0.124 S 
ATOM     71  O   UNL A   1      36.198  34.093  30.783  1.00  0.00    -0.237 OA
ATOM     72  O   UNL A   1      35.809  32.527  28.905  1.00  0.00    -0.237 OA
ATOM     73  O   UNL A   1      34.379  32.437  30.913  1.00  0.00    -0.744 OA
ENDBRANCH  66  70
ENDBRANCH  49  63
BRANCH  50  74
ATOM     74  C   UNL A   1      46.899  27.357  25.709  1.00  0.00     0.023 A 
ATOM     75  C   UNL A   1      47.079  27.819  24.395  1.00  0.00     0.031 A 
ATOM     76  C   UNL A   1      47.820  26.419  26.208  1.00  0.00     0.131 A 
ATOM     77  C   UNL A   1      48.125  27.308  23.611  1.00  0.00     0.055 A 
ATOM     78  C   UNL A   1      48.894  25.957  25.444  1.00  0.00     0.041 A 
ATOM     79  F   UNL A   1      47.689  25.933  27.453  1.00  0.00    -0.206 F 
ATOM     80  C   UNL A   1      49.043  26.392  24.130  1.00  0.00     0.022 A 
BRANCH  77  81
ATOM     81  S   UNL A   1      48.217  27.788  21.863  1.00  0.00     0.124 S 
ATOM     82  O   UNL A   1      48.423  26.499  21.212  1.00  0.00    -0.237 OA
ATOM     83  O   UNL A   1      46.915  28.413  21.652  1.00  0.00    -0.237 OA
ATOM     84  O   UNL A   1      49.357  28.700  21.819  1.00  0.00    -0.744 OA
ENDBRANCH  77  81
ENDBRANCH  50  74
BRANCH  62  85
ATOM     85  C   UNL A   1      45.318  33.323  28.961  1.00  0.00     0.023 A 
ATOM     86  C   UNL A   1      46.183  33.523  30.052  1.00  0.00     0.031 A 
ATOM     87  C   UNL A   1      45.176  34.371  28.033  1.00  0.00     0.131 A 
ATOM     88  C   UNL A   1      46.831  34.758  30.215  1.00  0.00     0.055 A 
ATOM     89  C   UNL A   1      45.867  35.575  28.168  1.00  0.00     0.041 A 
ATOM     90  F   UNL A   1      44.362  34.237  26.973  1.00  0.00    -0.206 F 
ATOM     91  C   UNL A   1      46.691  35.778  29.271  1.00  0.00     0.022 A 
BRANCH  88  92
ATOM     92  S   UNL A   1      47.795  35.049  31.725  1.00  0.00     0.124 S 
ATOM     93  O   UNL A   1      47.849  36.506  31.773  1.00  0.00    -0.237 OA
ATOM     94  O   UNL A   1      46.975  34.407  32.747  1.00  0.00    -0.237 OA
ATOM     95  O   UNL A   1      49.070  34.389  31.451  1.00  0.00    -0.744 OA
ENDBRANCH  88  92
ENDBRANCH  62  85
ENDBRANCH  36  37
ENDBRANCH  29  31
ENDBRANCH  28  29
ENDBRANCH  27  28
ENDBRANCH  26  27
ENDBRANCH  25  26
ENDBRANCH  24  25
ENDBRANCH   1  24
TORSDOF 24
ENDMDL
