MODEL 1
REMARK VINA RESULT:     -10.5      0.000      0.000
REMARK SMILES Cc1ccc([N+](=O)[O-])c(NCc2ccc(C(=O)OCCOCCOCCOC(=O)c3ccc(-c4c5nc(c(-c6cc(S(=O)(=O)[O-])ccc6F)c6ccc([nH]6)c(-c6cc(S(=O)(=O)[O-])ccc6F)c6nc(c(-c7cc(S(=O)(=O)[O-])ccc7F)c7ccc4[nH]7)C=C6)C=C5)cc3)cc2)c1
REMARK SMILES IDX 22 1 21 2 20 3 19 4 18 5 16 6 17 7 15 8 12 9 13 10 94 11
REMARK SMILES IDX 14 12 93 13 11 14 10 15 9 17 1 18 2 19 3 20 95 21 4 22 5 23
REMARK SMILES IDX 6 24 7 25 8 26 23 27 24 28 25 29 26 30 27 31 28 32 29 33
REMARK SMILES IDX 30 34 31 35 92 36 32 37 91 38 33 39 34 40 35 41 85 42 36 43
REMARK SMILES IDX 90 44 84 45 86 46 37 47 89 48 83 49 82 50 38 52 70 53 50 54
REMARK SMILES IDX 69 55 51 56 54 57 68 58 87 59 52 60 53 61 67 63 88 64 55 65
REMARK SMILES IDX 39 66 40 67 48 68 41 69 47 70 49 71 46 72 42 73 43 74 44 75
REMARK SMILES IDX 45 76 71 77 72 78 80 79 73 80 79 81 81 82 78 83 74 84 75 85
REMARK SMILES IDX 76 86 77 87 56 88 57 89 65 90 58 91 64 92 66 93 63 94 59 95
REMARK SMILES IDX 60 96 61 97 62 98
REMARK H PARENT 10 16 86 51 54 62
REMARK Flexibility Score: inf
ROOT
ATOM      1  C   UNL A   1      35.820  33.613  29.150  1.00  0.00     0.188 C 
ENDROOT
BRANCH   1   2
ATOM      2  O   UNL A   1      36.507  32.384  28.935  1.00  0.00    -0.376 OA
BRANCH   2   3
ATOM      3  C   UNL A   1      36.022  31.050  28.923  1.00  0.00     0.202 C 
BRANCH   3   4
ATOM      4  C   UNL A   1      35.145  30.124  27.816  1.00  0.00     0.261 C 
BRANCH   4   5
ATOM      5  O   UNL A   1      33.444  29.692  27.517  1.00  0.00    -0.460 OA
BRANCH   5   6
ATOM      6  C   UNL A   1      32.504  28.999  26.685  1.00  0.00     0.338 C 
ATOM      7  O   UNL A   1      31.387  29.313  26.285  1.00  0.00    -0.246 OA
BRANCH   6   8
ATOM      8  C   UNL A   1      32.769  27.700  26.041  1.00  0.00     0.060 A 
ATOM      9  C   UNL A   1      33.736  25.101  25.573  1.00  0.00    -0.029 A 
ATOM     10  C   UNL A   1      32.534  25.253  26.260  1.00  0.00     0.006 A 
ATOM     11  C   UNL A   1      34.416  26.255  25.105  1.00  0.00     0.006 A 
ATOM     12  C   UNL A   1      32.068  26.543  26.510  1.00  0.00     0.016 A 
ATOM     13  C   UNL A   1      33.954  27.546  25.358  1.00  0.00     0.016 A 
BRANCH   9  14
ATOM     14  C   UNL A   1      34.340  23.722  25.389  1.00  0.00     0.149 C 
BRANCH  14  15
ATOM     15  N   UNL A   1      33.259  22.755  25.443  1.00  0.00    -0.375 N 
ATOM     16  H   UNL A   1      32.688  22.816  26.242  1.00  0.00     0.161 HD
BRANCH  15  17
ATOM     17  C   UNL A   1      32.906  21.768  24.557  1.00  0.00     0.114 A 
ATOM     18  C   UNL A   1      32.519  17.979  25.020  1.00  0.00     0.044 C 
ATOM     19  C   UNL A   1      32.519  19.330  24.369  1.00  0.00    -0.049 A 
ATOM     20  C   UNL A   1      32.142  19.481  23.037  1.00  0.00     0.010 A 
ATOM     21  C   UNL A   1      32.890  20.466  25.103  1.00  0.00     0.036 A 
ATOM     22  C   UNL A   1      32.184  20.742  22.445  1.00  0.00     0.088 A 
ATOM     23  C   UNL A   1      32.592  21.864  23.197  1.00  0.00     0.292 A 
BRANCH  23  24
ATOM     24  N   UNL A   1      32.580  23.128  22.487  1.00  0.00     0.064 N 
ATOM     25  O   UNL A   1      33.456  23.298  21.626  1.00  0.00    -0.258 OA
ATOM     26  O   UNL A   1      31.776  23.991  22.862  1.00  0.00    -0.258 OA
ENDBRANCH  23  24
ENDBRANCH  15  17
ENDBRANCH  14  15
ENDBRANCH   9  14
ENDBRANCH   6   8
ENDBRANCH   5   6
ENDBRANCH   4   5
ENDBRANCH   3   4
ENDBRANCH   2   3
ENDBRANCH   1   2
BRANCH   1  27
ATOM     27  C   UNL A   1      34.331  33.655  29.380  1.00  0.00     0.188 C 
BRANCH  27  28
ATOM     28  O   UNL A   1      34.061  33.990  30.728  1.00  0.00    -0.376 OA
BRANCH  28  29
ATOM     29  C   UNL A   1      34.349  32.963  31.650  1.00  0.00     0.202 C 
BRANCH  29  30
ATOM     30  C   UNL A   1      35.312  33.399  32.768  1.00  0.00     0.261 C 
BRANCH  30  31
ATOM     31  O   UNL A   1      36.231  32.338  33.129  1.00  0.00    -0.460 OA
BRANCH  31  32
ATOM     32  C   UNL A   1      37.581  32.546  32.915  1.00  0.00     0.338 C 
ATOM     33  O   UNL A   1      38.209  33.450  33.445  1.00  0.00    -0.246 OA
BRANCH  32  34
ATOM     34  C   UNL A   1      38.122  31.492  31.987  1.00  0.00     0.060 A 
ATOM     35  C   UNL A   1      38.147  30.098  32.143  1.00  0.00     0.016 A 
ATOM     36  C   UNL A   1      38.971  31.964  31.062  1.00  0.00     0.016 A 
ATOM     37  C   UNL A   1      39.213  29.256  31.554  1.00  0.00     0.010 A 
ATOM     38  C   UNL A   1      40.103  31.176  30.882  1.00  0.00     0.010 A 
ATOM     39  C   UNL A   1      40.372  29.780  30.965  1.00  0.00    -0.014 A 
BRANCH  39  40
ATOM     40  C   UNL A   1      41.843  28.919  30.625  1.00  0.00     0.031 A 
ATOM     41  C   UNL A   1      42.276  27.550  29.669  1.00  0.00     0.074 A 
ATOM     42  C   UNL A   1      42.963  29.351  31.257  1.00  0.00     0.049 A 
ATOM     43  N   UNL A   1      42.931  26.499  30.154  1.00  0.00    -0.248 NA
ATOM     44  C   UNL A   1      41.840  27.144  28.277  1.00  0.00     0.031 C 
ATOM     45  C   UNL A   1      44.354  28.939  31.039  1.00  0.00     0.029 A 
ATOM     46  N   UNL A   1      43.057  30.277  32.293  1.00  0.00    -0.354 N 
ATOM     47  C   UNL A   1      42.846  25.450  29.209  1.00  0.00     0.074 A 
ATOM     48  C   UNL A   1      41.895  25.828  28.269  1.00  0.00     0.031 C 
ATOM     49  C   UNL A   1      45.096  29.365  32.075  1.00  0.00     0.029 A 
ATOM     50  C   UNL A   1      44.187  29.947  33.044  1.00  0.00     0.049 A 
ATOM     51  H   UNL A   1      42.442  31.025  32.465  1.00  0.00     0.167 HD
ATOM     52  C   UNL A   1      43.717  24.429  28.993  1.00  0.00     0.034 A 
ATOM     53  C   UNL A   1      44.037  29.578  34.344  1.00  0.00     0.034 A 
ATOM     54  C   UNL A   1      44.818  24.629  29.879  1.00  0.00     0.049 A 
ATOM     55  C   UNL A   1      44.517  28.161  34.563  1.00  0.00     0.074 A 
ATOM     56  C   UNL A   1      45.935  25.435  29.765  1.00  0.00     0.029 A 
ATOM     57  N   UNL A   1      44.577  24.434  31.219  1.00  0.00    -0.354 N 
ATOM     58  N   UNL A   1      44.669  27.268  33.618  1.00  0.00    -0.248 NA
ATOM     59  C   UNL A   1      44.938  27.668  35.867  1.00  0.00     0.031 C 
ATOM     60  C   UNL A   1      46.309  25.809  31.084  1.00  0.00     0.029 A 
ATOM     61  C   UNL A   1      45.477  25.149  31.973  1.00  0.00     0.049 A 
ATOM     62  H   UNL A   1      43.862  23.864  31.585  1.00  0.00     0.167 HD
ATOM     63  C   UNL A   1      45.190  26.114  34.149  1.00  0.00     0.074 A 
ATOM     64  C   UNL A   1      45.364  26.433  35.556  1.00  0.00     0.031 C 
ATOM     65  C   UNL A   1      45.436  24.989  33.410  1.00  0.00     0.034 A 
BRANCH  52  66
ATOM     66  C   UNL A   1      43.711  23.628  27.682  1.00  0.00     0.023 A 
ATOM     67  C   UNL A   1      42.875  22.508  27.568  1.00  0.00     0.031 A 
ATOM     68  C   UNL A   1      44.567  23.843  26.568  1.00  0.00     0.131 A 
ATOM     69  C   UNL A   1      43.007  21.601  26.492  1.00  0.00     0.055 A 
ATOM     70  C   UNL A   1      44.780  22.885  25.560  1.00  0.00     0.041 A 
ATOM     71  F   UNL A   1      45.232  25.001  26.405  1.00  0.00    -0.206 F 
ATOM     72  C   UNL A   1      44.003  21.743  25.528  1.00  0.00     0.022 A 
BRANCH  69  73
ATOM     73  S   UNL A   1      41.813  20.247  26.341  1.00  0.00     0.124 S 
ATOM     74  O   UNL A   1      40.583  20.955  26.007  1.00  0.00    -0.237 OA
ATOM     75  O   UNL A   1      42.406  19.438  25.281  1.00  0.00    -0.237 OA
ATOM     76  O   UNL A   1      41.830  19.628  27.666  1.00  0.00    -0.744 OA
ENDBRANCH  69  73
ENDBRANCH  52  66
BRANCH  53  77
ATOM     77  C   UNL A   1      42.923  30.313  35.043  1.00  0.00     0.023 A 
ATOM     78  C   UNL A   1      43.209  31.632  35.490  1.00  0.00     0.031 A 
ATOM     79  C   UNL A   1      41.573  29.949  34.952  1.00  0.00     0.131 A 
ATOM     80  C   UNL A   1      42.188  32.581  35.649  1.00  0.00     0.055 A 
ATOM     81  C   UNL A   1      40.545  30.879  35.207  1.00  0.00     0.041 A 
ATOM     82  F   UNL A   1      41.218  28.743  34.488  1.00  0.00    -0.206 F 
ATOM     83  C   UNL A   1      40.850  32.207  35.523  1.00  0.00     0.022 A 
BRANCH  80  84
ATOM     84  S   UNL A   1      42.608  34.357  35.702  1.00  0.00     0.124 S 
ATOM     85  O   UNL A   1      41.702  34.918  34.707  1.00  0.00    -0.237 OA
ATOM     86  O   UNL A   1      42.341  34.734  37.089  1.00  0.00    -0.237 OA
ATOM     87  O   UNL A   1      44.025  34.368  35.349  1.00  0.00    -0.744 OA
ENDBRANCH  80  84
ENDBRANCH  53  77
BRANCH  65  88
ATOM     88  C   UNL A   1      45.683  23.593  33.954  1.00  0.00     0.023 A 
ATOM     89  C   UNL A   1      46.952  23.148  34.320  1.00  0.00     0.031 A 
ATOM     90  C   UNL A   1      44.622  22.684  34.223  1.00  0.00     0.131 A 
ATOM     91  C   UNL A   1      47.152  21.848  34.803  1.00  0.00     0.055 A 
ATOM     92  C   UNL A   1      44.808  21.448  34.845  1.00  0.00     0.041 A 
ATOM     93  F   UNL A   1      43.347  22.947  33.896  1.00  0.00    -0.206 F 
ATOM     94  C   UNL A   1      46.089  21.007  35.114  1.00  0.00     0.022 A 
BRANCH  91  95
ATOM     95  S   UNL A   1      48.854  21.243  34.857  1.00  0.00     0.124 S 
ATOM     96  O   UNL A   1      49.545  22.239  34.040  1.00  0.00    -0.237 OA
ATOM     97  O   UNL A   1      49.154  21.277  36.284  1.00  0.00    -0.237 OA
ATOM     98  O   UNL A   1      48.763  19.911  34.266  1.00  0.00    -0.744 OA
ENDBRANCH  91  95
ENDBRANCH  65  88
ENDBRANCH  39  40
ENDBRANCH  32  34
ENDBRANCH  31  32
ENDBRANCH  30  31
ENDBRANCH  29  30
ENDBRANCH  28  29
ENDBRANCH  27  28
ENDBRANCH   1  27
TORSDOF 24
ENDMDL
MODEL 2
REMARK VINA RESULT:     -10.3      4.734     10.543
REMARK SMILES Cc1ccc([N+](=O)[O-])c(NCc2ccc(C(=O)OCCOCCOCCOC(=O)c3ccc(-c4c5nc(c(-c6cc(S(=O)(=O)[O-])ccc6F)c6ccc([nH]6)c(-c6cc(S(=O)(=O)[O-])ccc6F)c6nc(c(-c7cc(S(=O)(=O)[O-])ccc7F)c7ccc4[nH]7)C=C6)C=C5)cc3)cc2)c1
REMARK SMILES IDX 22 1 21 2 20 3 19 4 18 5 16 6 17 7 15 8 12 9 13 10 94 11
REMARK SMILES IDX 14 12 93 13 11 14 10 15 9 17 1 18 2 19 3 20 95 21 4 22 5 23
REMARK SMILES IDX 6 24 7 25 8 26 23 27 24 28 25 29 26 30 27 31 28 32 29 33
REMARK SMILES IDX 30 34 31 35 92 36 32 37 91 38 33 39 34 40 35 41 85 42 36 43
REMARK SMILES IDX 90 44 84 45 86 46 37 47 89 48 83 49 82 50 38 52 70 53 50 54
REMARK SMILES IDX 69 55 51 56 54 57 68 58 87 59 52 60 53 61 67 63 88 64 55 65
REMARK SMILES IDX 39 66 40 67 48 68 41 69 47 70 49 71 46 72 42 73 43 74 44 75
REMARK SMILES IDX 45 76 71 77 72 78 80 79 73 80 79 81 81 82 78 83 74 84 75 85
REMARK SMILES IDX 76 86 77 87 56 88 57 89 65 90 58 91 64 92 66 93 63 94 59 95
REMARK SMILES IDX 60 96 61 97 62 98
REMARK H PARENT 10 16 86 51 54 62
REMARK Flexibility Score: inf
ROOT
ATOM      1  C   UNL A   1      42.398  21.866  27.303  1.00  0.00     0.188 C 
ENDROOT
BRANCH   1   2
ATOM      2  O   UNL A   1      41.751  20.681  26.850  1.00  0.00    -0.376 OA
BRANCH   2   3
ATOM      3  C   UNL A   1      40.581  20.515  26.064  1.00  0.00     0.202 C 
BRANCH   3   4
ATOM      4  C   UNL A   1      39.007  21.121  26.150  1.00  0.00     0.261 C 
BRANCH   4   5
ATOM      5  O   UNL A   1      37.825  21.875  25.052  1.00  0.00    -0.460 OA
BRANCH   5   6
ATOM      6  C   UNL A   1      36.798  22.860  24.878  1.00  0.00     0.338 C 
ATOM      7  O   UNL A   1      36.795  24.072  25.066  1.00  0.00    -0.246 OA
BRANCH   6   8
ATOM      8  C   UNL A   1      35.465  22.576  24.317  1.00  0.00     0.060 A 
ATOM      9  C   UNL A   1      32.775  22.867  23.548  1.00  0.00    -0.029 A 
ATOM     10  C   UNL A   1      33.770  23.299  22.674  1.00  0.00     0.006 A 
ATOM     11  C   UNL A   1      33.147  22.268  24.779  1.00  0.00     0.006 A 
ATOM     12  C   UNL A   1      35.102  23.173  23.067  1.00  0.00     0.016 A 
ATOM     13  C   UNL A   1      34.479  22.145  25.175  1.00  0.00     0.016 A 
BRANCH   9  14
ATOM     14  C   UNL A   1      31.315  23.099  23.213  1.00  0.00     0.149 C 
BRANCH  14  15
ATOM     15  N   UNL A   1      30.985  24.461  23.590  1.00  0.00    -0.375 N 
ATOM     16  H   UNL A   1      30.123  24.789  23.244  1.00  0.00     0.161 HD
BRANCH  15  17
ATOM     17  C   UNL A   1      31.682  25.366  24.349  1.00  0.00     0.114 A 
ATOM     18  C   UNL A   1      34.097  28.175  23.351  1.00  0.00     0.044 C 
ATOM     19  C   UNL A   1      33.258  27.270  24.202  1.00  0.00    -0.049 A 
ATOM     20  C   UNL A   1      33.210  27.432  25.584  1.00  0.00     0.010 A 
ATOM     21  C   UNL A   1      32.499  26.249  23.611  1.00  0.00     0.036 A 
ATOM     22  C   UNL A   1      32.450  26.555  26.357  1.00  0.00     0.088 A 
ATOM     23  C   UNL A   1      31.720  25.518  25.741  1.00  0.00     0.292 A 
BRANCH  23  24
ATOM     24  N   UNL A   1      30.951  24.679  26.637  1.00  0.00     0.064 N 
ATOM     25  O   UNL A   1      29.735  24.909  26.719  1.00  0.00    -0.258 OA
ATOM     26  O   UNL A   1      31.569  23.872  27.344  1.00  0.00    -0.258 OA
ENDBRANCH  23  24
ENDBRANCH  15  17
ENDBRANCH  14  15
ENDBRANCH   9  14
ENDBRANCH   6   8
ENDBRANCH   5   6
ENDBRANCH   4   5
ENDBRANCH   3   4
ENDBRANCH   2   3
ENDBRANCH   1   2
BRANCH   1  27
ATOM     27  C   UNL A   1      41.630  23.141  27.545  1.00  0.00     0.188 C 
BRANCH  27  28
ATOM     28  O   UNL A   1      41.401  23.806  26.317  1.00  0.00    -0.376 OA
BRANCH  28  29
ATOM     29  C   UNL A   1      42.114  25.013  26.168  1.00  0.00     0.202 C 
BRANCH  29  30
ATOM     30  C   UNL A   1      41.204  26.248  26.051  1.00  0.00     0.261 C 
BRANCH  30  31
ATOM     31  O   UNL A   1      40.930  26.837  27.346  1.00  0.00    -0.460 OA
BRANCH  31  32
ATOM     32  C   UNL A   1      39.657  26.699  27.867  1.00  0.00     0.338 C 
ATOM     33  O   UNL A   1      39.005  25.668  27.772  1.00  0.00    -0.246 OA
BRANCH  32  34
ATOM     34  C   UNL A   1      39.249  27.965  28.570  1.00  0.00     0.060 A 
ATOM     35  C   UNL A   1      39.488  29.299  28.208  1.00  0.00     0.016 A 
ATOM     36  C   UNL A   1      38.908  27.790  29.854  1.00  0.00     0.016 A 
ATOM     37  C   UNL A   1      39.636  30.377  29.212  1.00  0.00     0.010 A 
ATOM     38  C   UNL A   1      39.429  28.753  30.713  1.00  0.00     0.010 A 
ATOM     39  C   UNL A   1      39.740  30.138  30.589  1.00  0.00    -0.014 A 
BRANCH  39  40
ATOM     40  C   UNL A   1      40.317  31.249  31.795  1.00  0.00     0.031 A 
ATOM     41  C   UNL A   1      41.492  31.196  33.056  1.00  0.00     0.074 A 
ATOM     42  C   UNL A   1      39.720  32.466  31.838  1.00  0.00     0.049 A 
ATOM     43  N   UNL A   1      41.217  31.498  34.322  1.00  0.00    -0.248 NA
ATOM     44  C   UNL A   1      42.889  30.612  33.076  1.00  0.00     0.031 C 
ATOM     45  C   UNL A   1      40.106  33.647  32.617  1.00  0.00     0.029 A 
ATOM     46  N   UNL A   1      38.572  32.881  31.167  1.00  0.00    -0.354 N 
ATOM     47  C   UNL A   1      42.295  31.056  35.126  1.00  0.00     0.074 A 
ATOM     48  C   UNL A   1      43.092  30.247  34.326  1.00  0.00     0.031 C 
ATOM     49  C   UNL A   1      39.082  34.518  32.615  1.00  0.00     0.029 A 
ATOM     50  C   UNL A   1      37.970  33.869  31.947  1.00  0.00     0.049 A 
ATOM     51  H   UNL A   1      38.245  32.540  30.304  1.00  0.00     0.167 HD
ATOM     52  C   UNL A   1      42.725  31.552  36.316  1.00  0.00     0.034 A 
ATOM     53  C   UNL A   1      36.728  33.649  32.457  1.00  0.00     0.034 A 
ATOM     54  C   UNL A   1      41.910  32.685  36.612  1.00  0.00     0.049 A 
ATOM     55  C   UNL A   1      36.756  33.662  33.969  1.00  0.00     0.074 A 
ATOM     56  C   UNL A   1      41.995  33.997  36.182  1.00  0.00     0.029 A 
ATOM     57  N   UNL A   1      40.598  32.435  36.938  1.00  0.00    -0.354 N 
ATOM     58  N   UNL A   1      37.829  33.494  34.700  1.00  0.00    -0.248 NA
ATOM     59  C   UNL A   1      35.574  33.943  34.773  1.00  0.00     0.031 C 
ATOM     60  C   UNL A   1      40.670  34.509  36.162  1.00  0.00     0.029 A 
ATOM     61  C   UNL A   1      39.822  33.538  36.668  1.00  0.00     0.049 A 
ATOM     62  H   UNL A   1      40.262  31.588  37.311  1.00  0.00     0.167 HD
ATOM     63  C   UNL A   1      37.513  33.638  36.028  1.00  0.00     0.074 A 
ATOM     64  C   UNL A   1      36.094  33.947  36.011  1.00  0.00     0.031 C 
ATOM     65  C   UNL A   1      38.425  33.492  37.038  1.00  0.00     0.034 A 
BRANCH  52  66
ATOM     66  C   UNL A   1      44.133  31.252  36.853  1.00  0.00     0.023 A 
ATOM     67  C   UNL A   1      44.349  30.080  37.591  1.00  0.00     0.031 A 
ATOM     68  C   UNL A   1      45.260  32.115  36.768  1.00  0.00     0.131 A 
ATOM     69  C   UNL A   1      45.550  29.877  38.309  1.00  0.00     0.055 A 
ATOM     70  C   UNL A   1      46.405  31.971  37.571  1.00  0.00     0.041 A 
ATOM     71  F   UNL A   1      45.300  33.136  35.893  1.00  0.00    -0.206 F 
ATOM     72  C   UNL A   1      46.548  30.848  38.363  1.00  0.00     0.022 A 
BRANCH  69  73
ATOM     73  S   UNL A   1      45.813  28.288  39.137  1.00  0.00     0.124 S 
ATOM     74  O   UNL A   1      44.532  27.620  38.939  1.00  0.00    -0.237 OA
ATOM     75  O   UNL A   1      46.950  27.746  38.401  1.00  0.00    -0.237 OA
ATOM     76  O   UNL A   1      46.104  28.668  40.519  1.00  0.00    -0.744 OA
ENDBRANCH  69  73
ENDBRANCH  52  66
BRANCH  53  77
ATOM     77  C   UNL A   1      35.844  32.848  31.539  1.00  0.00     0.023 A 
ATOM     78  C   UNL A   1      34.970  33.582  30.691  1.00  0.00     0.031 A 
ATOM     79  C   UNL A   1      36.080  31.508  31.202  1.00  0.00     0.131 A 
ATOM     80  C   UNL A   1      34.518  33.046  29.476  1.00  0.00     0.055 A 
ATOM     81  C   UNL A   1      35.545  30.942  30.028  1.00  0.00     0.041 A 
ATOM     82  F   UNL A   1      36.934  30.763  31.918  1.00  0.00    -0.206 F 
ATOM     83  C   UNL A   1      34.791  31.719  29.144  1.00  0.00     0.022 A 
BRANCH  80  84
ATOM     84  S   UNL A   1      33.855  34.161  28.190  1.00  0.00     0.124 S 
ATOM     85  O   UNL A   1      33.419  35.310  28.972  1.00  0.00    -0.237 OA
ATOM     86  O   UNL A   1      34.998  34.388  27.308  1.00  0.00    -0.237 OA
ATOM     87  O   UNL A   1      32.791  33.363  27.585  1.00  0.00    -0.744 OA
ENDBRANCH  80  84
ENDBRANCH  53  77
BRANCH  65  88
ATOM     88  C   UNL A   1      38.109  33.300  38.511  1.00  0.00     0.023 A 
ATOM     89  C   UNL A   1      38.287  34.313  39.452  1.00  0.00     0.031 A 
ATOM     90  C   UNL A   1      37.515  32.107  39.011  1.00  0.00     0.131 A 
ATOM     91  C   UNL A   1      38.003  34.101  40.808  1.00  0.00     0.055 A 
ATOM     92  C   UNL A   1      37.094  31.955  40.334  1.00  0.00     0.041 A 
ATOM     93  F   UNL A   1      37.311  31.026  38.242  1.00  0.00    -0.206 F 
ATOM     94  C   UNL A   1      37.366  32.949  41.254  1.00  0.00     0.022 A 
BRANCH  91  95
ATOM     95  S   UNL A   1      38.645  35.315  41.981  1.00  0.00     0.124 S 
ATOM     96  O   UNL A   1      39.913  34.703  42.375  1.00  0.00    -0.237 OA
ATOM     97  O   UNL A   1      38.752  36.517  41.163  1.00  0.00    -0.237 OA
ATOM     98  O   UNL A   1      37.625  35.355  43.025  1.00  0.00    -0.744 OA
ENDBRANCH  91  95
ENDBRANCH  65  88
ENDBRANCH  39  40
ENDBRANCH  32  34
ENDBRANCH  31  32
ENDBRANCH  30  31
ENDBRANCH  29  30
ENDBRANCH  28  29
ENDBRANCH  27  28
ENDBRANCH   1  27
TORSDOF 24
ENDMDL
MODEL 3
REMARK VINA RESULT:     -10.3      4.592     11.208
REMARK SMILES Cc1ccc([N+](=O)[O-])c(NCc2ccc(C(=O)OCCOCCOCCOC(=O)c3ccc(-c4c5nc(c(-c6cc(S(=O)(=O)[O-])ccc6F)c6ccc([nH]6)c(-c6cc(S(=O)(=O)[O-])ccc6F)c6nc(c(-c7cc(S(=O)(=O)[O-])ccc7F)c7ccc4[nH]7)C=C6)C=C5)cc3)cc2)c1
REMARK SMILES IDX 22 1 21 2 20 3 19 4 18 5 16 6 17 7 15 8 12 9 13 10 94 11
REMARK SMILES IDX 14 12 93 13 11 14 10 15 9 17 1 18 2 19 3 20 95 21 4 22 5 23
REMARK SMILES IDX 6 24 7 25 8 26 23 27 24 28 25 29 26 30 27 31 28 32 29 33
REMARK SMILES IDX 30 34 31 35 92 36 32 37 91 38 33 39 34 40 35 41 85 42 36 43
REMARK SMILES IDX 90 44 84 45 86 46 37 47 89 48 83 49 82 50 38 52 70 53 50 54
REMARK SMILES IDX 69 55 51 56 54 57 68 58 87 59 52 60 53 61 67 63 88 64 55 65
REMARK SMILES IDX 39 66 40 67 48 68 41 69 47 70 49 71 46 72 42 73 43 74 44 75
REMARK SMILES IDX 45 76 71 77 72 78 80 79 73 80 79 81 81 82 78 83 74 84 75 85
REMARK SMILES IDX 76 86 77 87 56 88 57 89 65 90 58 91 64 92 66 93 63 94 59 95
REMARK SMILES IDX 60 96 61 97 62 98
REMARK H PARENT 10 16 86 51 54 62
REMARK Flexibility Score: inf
ROOT
ATOM      1  C   UNL A   1      42.661  24.317  25.003  1.00  0.00     0.188 C 
ENDROOT
BRANCH   1   2
ATOM      2  O   UNL A   1      42.107  23.848  26.228  1.00  0.00    -0.376 OA
BRANCH   2   3
ATOM      3  C   UNL A   1      41.833  22.526  26.666  1.00  0.00     0.202 C 
BRANCH   3   4
ATOM      4  C   UNL A   1      40.482  21.516  26.595  1.00  0.00     0.261 C 
BRANCH   4   5
ATOM      5  O   UNL A   1      38.761  21.649  26.160  1.00  0.00    -0.460 OA
BRANCH   5   6
ATOM      6  C   UNL A   1      37.737  21.385  25.191  1.00  0.00     0.338 C 
ATOM      7  O   UNL A   1      37.583  20.455  24.406  1.00  0.00    -0.246 OA
BRANCH   6   8
ATOM      8  C   UNL A   1      36.538  22.220  25.006  1.00  0.00     0.060 A 
ATOM      9  C   UNL A   1      34.143  23.603  25.519  1.00  0.00    -0.029 A 
ATOM     10  C   UNL A   1      35.352  24.248  25.767  1.00  0.00     0.006 A 
ATOM     11  C   UNL A   1      34.156  22.287  24.990  1.00  0.00     0.006 A 
ATOM     12  C   UNL A   1      36.538  23.552  25.532  1.00  0.00     0.016 A 
ATOM     13  C   UNL A   1      35.340  21.589  24.758  1.00  0.00     0.016 A 
BRANCH   9  14
ATOM     14  C   UNL A   1      32.833  24.278  25.878  1.00  0.00     0.149 C 
BRANCH  14  15
ATOM     15  N   UNL A   1      32.403  25.050  24.727  1.00  0.00    -0.375 N 
ATOM     16  H   UNL A   1      32.078  24.515  23.967  1.00  0.00     0.161 HD
BRANCH  15  17
ATOM     17  C   UNL A   1      32.378  26.407  24.527  1.00  0.00     0.114 A 
ATOM     18  C   UNL A   1      31.925  29.316  26.988  1.00  0.00     0.044 C 
ATOM     19  C   UNL A   1      32.147  28.573  25.704  1.00  0.00    -0.049 A 
ATOM     20  C   UNL A   1      32.346  29.257  24.508  1.00  0.00     0.010 A 
ATOM     21  C   UNL A   1      32.167  27.170  25.695  1.00  0.00     0.036 A 
ATOM     22  C   UNL A   1      32.515  28.543  23.323  1.00  0.00     0.088 A 
ATOM     23  C   UNL A   1      32.500  27.133  23.336  1.00  0.00     0.292 A 
BRANCH  23  24
ATOM     24  N   UNL A   1      32.704  26.495  22.051  1.00  0.00     0.064 N 
ATOM     25  O   UNL A   1      33.870  26.429  21.634  1.00  0.00    -0.258 OA
ATOM     26  O   UNL A   1      31.700  26.165  21.407  1.00  0.00    -0.258 OA
ENDBRANCH  23  24
ENDBRANCH  15  17
ENDBRANCH  14  15
ENDBRANCH   9  14
ENDBRANCH   6   8
ENDBRANCH   5   6
ENDBRANCH   4   5
ENDBRANCH   3   4
ENDBRANCH   2   3
ENDBRANCH   1   2
BRANCH   1  27
ATOM     27  C   UNL A   1      43.995  25.019  24.958  1.00  0.00     0.188 C 
BRANCH  27  28
ATOM     28  O   UNL A   1      45.003  24.111  24.551  1.00  0.00    -0.376 OA
BRANCH  28  29
ATOM     29  C   UNL A   1      45.084  22.944  25.336  1.00  0.00     0.202 C 
BRANCH  29  30
ATOM     30  C   UNL A   1      45.911  23.129  26.621  1.00  0.00     0.261 C 
BRANCH  30  31
ATOM     31  O   UNL A   1      45.076  23.482  27.750  1.00  0.00    -0.460 OA
BRANCH  31  32
ATOM     32  C   UNL A   1      45.390  24.626  28.460  1.00  0.00     0.338 C 
ATOM     33  O   UNL A   1      46.532  24.911  28.794  1.00  0.00    -0.246 OA
BRANCH  32  34
ATOM     34  C   UNL A   1      44.147  25.437  28.706  1.00  0.00     0.060 A 
ATOM     35  C   UNL A   1      43.547  26.411  27.895  1.00  0.00     0.016 A 
ATOM     36  C   UNL A   1      43.760  25.465  29.989  1.00  0.00     0.016 A 
ATOM     37  C   UNL A   1      42.782  27.547  28.459  1.00  0.00     0.010 A 
ATOM     38  C   UNL A   1      43.376  26.725  30.435  1.00  0.00     0.010 A 
ATOM     39  C   UNL A   1      42.751  27.852  29.826  1.00  0.00    -0.014 A 
BRANCH  39  40
ATOM     40  C   UNL A   1      42.249  29.354  30.544  1.00  0.00     0.031 A 
ATOM     41  C   UNL A   1      40.809  30.302  30.534  1.00  0.00     0.074 A 
ATOM     42  C   UNL A   1      43.175  30.019  31.279  1.00  0.00     0.049 A 
ATOM     43  N   UNL A   1      40.784  31.588  30.197  1.00  0.00    -0.248 NA
ATOM     44  C   UNL A   1      39.356  29.886  30.638  1.00  0.00     0.031 C 
ATOM     45  C   UNL A   1      42.992  31.199  32.130  1.00  0.00     0.029 A 
ATOM     46  N   UNL A   1      44.538  29.753  31.381  1.00  0.00    -0.354 N 
ATOM     47  C   UNL A   1      39.436  31.967  29.994  1.00  0.00     0.074 A 
ATOM     48  C   UNL A   1      38.687  30.797  29.961  1.00  0.00     0.031 C 
ATOM     49  C   UNL A   1      44.199  31.717  32.413  1.00  0.00     0.029 A 
ATOM     50  C   UNL A   1      45.178  30.964  31.652  1.00  0.00     0.049 A 
ATOM     51  H   UNL A   1      44.971  28.875  31.280  1.00  0.00     0.167 HD
ATOM     52  C   UNL A   1      38.866  33.192  30.146  1.00  0.00     0.034 A 
ATOM     53  C   UNL A   1      46.069  31.461  30.753  1.00  0.00     0.034 A 
ATOM     54  C   UNL A   1      39.885  34.067  30.625  1.00  0.00     0.049 A 
ATOM     55  C   UNL A   1      45.606  32.797  30.216  1.00  0.00     0.074 A 
ATOM     56  C   UNL A   1      40.369  34.277  31.903  1.00  0.00     0.029 A 
ATOM     57  N   UNL A   1      40.885  34.397  29.739  1.00  0.00    -0.354 N 
ATOM     58  N   UNL A   1      44.374  33.236  30.264  1.00  0.00    -0.248 NA
ATOM     59  C   UNL A   1      46.524  33.775  29.648  1.00  0.00     0.031 C 
ATOM     60  C   UNL A   1      41.734  34.651  31.770  1.00  0.00     0.029 A 
ATOM     61  C   UNL A   1      42.024  34.754  30.420  1.00  0.00     0.049 A 
ATOM     62  H   UNL A   1      40.796  34.379  28.759  1.00  0.00     0.167 HD
ATOM     63  C   UNL A   1      44.316  34.510  29.756  1.00  0.00     0.074 A 
ATOM     64  C   UNL A   1      45.697  34.806  29.414  1.00  0.00     0.031 C 
ATOM     65  C   UNL A   1      43.154  35.226  29.650  1.00  0.00     0.034 A 
BRANCH  52  66
ATOM     66  C   UNL A   1      37.347  33.360  30.299  1.00  0.00     0.023 A 
ATOM     67  C   UNL A   1      36.816  33.680  31.557  1.00  0.00     0.031 A 
ATOM     68  C   UNL A   1      36.374  33.118  29.291  1.00  0.00     0.131 A 
ATOM     69  C   UNL A   1      35.428  33.607  31.807  1.00  0.00     0.055 A 
ATOM     70  C   UNL A   1      35.007  32.932  29.565  1.00  0.00     0.041 A 
ATOM     71  F   UNL A   1      36.709  33.058  27.990  1.00  0.00    -0.206 F 
ATOM     72  C   UNL A   1      34.528  33.164  30.840  1.00  0.00     0.022 A 
BRANCH  69  73
ATOM     73  S   UNL A   1      34.801  34.154  33.417  1.00  0.00     0.124 S 
ATOM     74  O   UNL A   1      33.358  34.138  33.209  1.00  0.00    -0.237 OA
ATOM     75  O   UNL A   1      35.340  33.138  34.313  1.00  0.00    -0.237 OA
ATOM     76  O   UNL A   1      35.387  35.485  33.577  1.00  0.00    -0.744 OA
ENDBRANCH  69  73
ENDBRANCH  52  66
BRANCH  53  77
ATOM     77  C   UNL A   1      46.866  30.391  30.055  1.00  0.00     0.023 A 
ATOM     78  C   UNL A   1      46.371  29.942  28.800  1.00  0.00     0.031 A 
ATOM     79  C   UNL A   1      48.201  30.091  30.357  1.00  0.00     0.131 A 
ATOM     80  C   UNL A   1      47.230  29.393  27.836  1.00  0.00     0.055 A 
ATOM     81  C   UNL A   1      49.038  29.450  29.422  1.00  0.00     0.041 A 
ATOM     82  F   UNL A   1      48.759  30.525  31.496  1.00  0.00    -0.206 F 
ATOM     83  C   UNL A   1      48.564  29.131  28.146  1.00  0.00     0.022 A 
BRANCH  80  84
ATOM     84  S   UNL A   1      46.697  29.318  26.090  1.00  0.00     0.124 S 
ATOM     85  O   UNL A   1      47.850  28.708  25.442  1.00  0.00    -0.237 OA
ATOM     86  O   UNL A   1      45.486  28.502  26.134  1.00  0.00    -0.237 OA
ATOM     87  O   UNL A   1      46.453  30.721  25.765  1.00  0.00    -0.744 OA
ENDBRANCH  80  84
ENDBRANCH  53  77
BRANCH  65  88
ATOM     88  C   UNL A   1      42.943  36.475  28.812  1.00  0.00     0.023 A 
ATOM     89  C   UNL A   1      43.201  37.755  29.300  1.00  0.00     0.031 A 
ATOM     90  C   UNL A   1      42.565  36.414  27.441  1.00  0.00     0.131 A 
ATOM     91  C   UNL A   1      42.980  38.890  28.508  1.00  0.00     0.055 A 
ATOM     92  C   UNL A   1      42.492  37.537  26.615  1.00  0.00     0.041 A 
ATOM     93  F   UNL A   1      42.246  35.262  26.831  1.00  0.00    -0.206 F 
ATOM     94  C   UNL A   1      42.672  38.795  27.156  1.00  0.00     0.022 A 
BRANCH  91  95
ATOM     95  S   UNL A   1      42.951  40.487  29.352  1.00  0.00     0.124 S 
ATOM     96  O   UNL A   1      43.700  40.190  30.571  1.00  0.00    -0.237 OA
ATOM     97  O   UNL A   1      43.622  41.360  28.395  1.00  0.00    -0.237 OA
ATOM     98  O   UNL A   1      41.527  40.746  29.546  1.00  0.00    -0.744 OA
ENDBRANCH  91  95
ENDBRANCH  65  88
ENDBRANCH  39  40
ENDBRANCH  32  34
ENDBRANCH  31  32
ENDBRANCH  30  31
ENDBRANCH  29  30
ENDBRANCH  28  29
ENDBRANCH  27  28
ENDBRANCH   1  27
TORSDOF 24
ENDMDL
