MODEL 1
REMARK VINA RESULT:     -10.5      0.000      0.000
REMARK SMILES CCn1ncc(CNc2ccccc2C(=O)OCCOCCOCCOC(=O)c2ccc(-c3c4nc(c(-c5cc(S(=O)(=O)[O-])ccc5F)c5ccc([nH]5)c(-c5cc(S(=O)(=O)[O-])ccc5F)c5nc(c(-c6cc(S(=O)(=O)[O-])ccc6F)c6ccc3[nH]6)C=C5)C=C4)cc2)c1C
REMARK SMILES IDX 21 1 20 2 19 3 18 4 17 5 15 6 16 7 14 8 9 9 10 10 11 11
REMARK SMILES IDX 13 12 12 13 8 14 7 16 6 17 3 18 4 19 92 20 5 21 93 22 2 23
REMARK SMILES IDX 1 24 22 25 23 26 24 27 25 28 26 29 27 30 28 31 29 32 30 33
REMARK SMILES IDX 91 34 31 35 90 36 32 37 33 38 34 39 84 40 35 41 89 42 83 43
REMARK SMILES IDX 85 44 36 45 88 46 82 47 81 48 37 50 69 51 49 52 68 53 50 54
REMARK SMILES IDX 53 55 67 56 86 57 51 58 52 59 66 61 87 62 54 63 38 64 39 65
REMARK SMILES IDX 47 66 40 67 46 68 48 69 45 70 41 71 42 72 43 73 44 74 70 75
REMARK SMILES IDX 71 76 79 77 72 78 78 79 80 80 77 81 73 82 74 83 75 84 76 85
REMARK SMILES IDX 55 86 56 87 64 88 57 89 63 90 65 91 62 92 58 93 59 94 60 95
REMARK SMILES IDX 61 96
REMARK H PARENT 8 15 85 49 53 60
REMARK Flexibility Score: inf
ROOT
ATOM      1  C   UNL A   1      40.626  20.393  26.240  1.00  0.00     0.188 C 
ENDROOT
BRANCH   1   2
ATOM      2  O   UNL A   1      39.897  21.517  26.728  1.00  0.00    -0.376 OA
BRANCH   2   3
ATOM      3  C   UNL A   1      38.694  21.885  26.053  1.00  0.00     0.202 C 
BRANCH   3   4
ATOM      4  C   UNL A   1      38.302  23.371  26.063  1.00  0.00     0.261 C 
BRANCH   4   5
ATOM      5  O   UNL A   1      36.885  23.539  26.221  1.00  0.00    -0.460 OA
BRANCH   5   6
ATOM      6  C   UNL A   1      36.163  23.835  25.121  1.00  0.00     0.340 C 
ATOM      7  O   UNL A   1      36.417  23.489  23.978  1.00  0.00    -0.246 OA
BRANCH   6   8
ATOM      8  C   UNL A   1      34.881  24.472  25.522  1.00  0.00     0.083 A 
ATOM      9  C   UNL A   1      33.681  23.810  25.860  1.00  0.00     0.049 A 
ATOM     10  C   UNL A   1      32.577  24.638  26.178  1.00  0.00     0.026 A 
ATOM     11  C   UNL A   1      32.632  26.033  26.131  1.00  0.00     0.002 A 
ATOM     12  C   UNL A   1      34.929  25.885  25.471  1.00  0.00     0.018 A 
ATOM     13  C   UNL A   1      33.810  26.660  25.765  1.00  0.00     0.001 A 
BRANCH   9  14
ATOM     14  N   UNL A   1      33.432  22.457  25.951  1.00  0.00    -0.380 N 
ATOM     15  H   UNL A   1      34.192  21.919  26.270  1.00  0.00     0.160 HD
BRANCH  14  16
ATOM     16  C   UNL A   1      32.235  21.695  25.652  1.00  0.00     0.152 C 
BRANCH  16  17
ATOM     17  C   UNL A   1      32.526  20.309  25.186  1.00  0.00     0.012 A 
ATOM     18  N   UNL A   1      32.794  18.516  23.949  1.00  0.00    -0.270 N 
ATOM     19  N   UNL A   1      33.038  18.090  25.206  1.00  0.00    -0.181 NA
ATOM     20  C   UNL A   1      32.484  19.848  23.879  1.00  0.00     0.040 A 
ATOM     21  C   UNL A   1      32.871  19.181  25.953  1.00  0.00     0.141 A 
ATOM     22  C   UNL A   1      32.177  20.598  22.633  1.00  0.00     0.067 C 
BRANCH  18  23
ATOM     23  C   UNL A   1      32.848  17.553  22.866  1.00  0.00     0.141 C 
ATOM     24  C   UNL A   1      34.142  16.761  22.885  1.00  0.00     0.029 C 
ENDBRANCH  18  23
ENDBRANCH  16  17
ENDBRANCH  14  16
ENDBRANCH   9  14
ENDBRANCH   6   8
ENDBRANCH   5   6
ENDBRANCH   4   5
ENDBRANCH   3   4
ENDBRANCH   2   3
ENDBRANCH   1   2
BRANCH   1  25
ATOM     25  C   UNL A   1      42.137  20.535  25.942  1.00  0.00     0.188 C 
BRANCH  25  26
ATOM     26  O   UNL A   1      42.607  21.872  25.791  1.00  0.00    -0.376 OA
BRANCH  26  27
ATOM     27  C   UNL A   1      43.244  22.429  26.936  1.00  0.00     0.202 C 
BRANCH  27  28
ATOM     28  C   UNL A   1      43.139  23.951  27.012  1.00  0.00     0.261 C 
BRANCH  28  29
ATOM     29  O   UNL A   1      41.811  24.428  27.187  1.00  0.00    -0.460 OA
BRANCH  29  30
ATOM     30  C   UNL A   1      41.378  25.331  26.281  1.00  0.00     0.338 C 
ATOM     31  O   UNL A   1      41.559  25.305  25.078  1.00  0.00    -0.246 OA
BRANCH  30  32
ATOM     32  C   UNL A   1      40.635  26.375  26.998  1.00  0.00     0.060 A 
ATOM     33  C   UNL A   1      40.668  27.673  26.479  1.00  0.00     0.016 A 
ATOM     34  C   UNL A   1      40.113  26.097  28.268  1.00  0.00     0.016 A 
ATOM     35  C   UNL A   1      40.373  28.727  27.320  1.00  0.00     0.010 A 
ATOM     36  C   UNL A   1      39.835  27.147  29.109  1.00  0.00     0.010 A 
ATOM     37  C   UNL A   1      40.060  28.446  28.650  1.00  0.00    -0.014 A 
BRANCH  37  38
ATOM     38  C   UNL A   1      40.095  29.525  29.619  1.00  0.00     0.031 A 
ATOM     39  C   UNL A   1      38.880  30.356  29.727  1.00  0.00     0.074 A 
ATOM     40  C   UNL A   1      41.125  29.602  30.485  1.00  0.00     0.049 A 
ATOM     41  N   UNL A   1      38.805  31.643  29.720  1.00  0.00    -0.248 NA
ATOM     42  C   UNL A   1      37.576  29.678  29.780  1.00  0.00     0.031 C 
ATOM     43  C   UNL A   1      42.235  28.649  30.609  1.00  0.00     0.029 A 
ATOM     44  N   UNL A   1      41.316  30.444  31.541  1.00  0.00    -0.354 N 
ATOM     45  C   UNL A   1      37.475  31.945  29.982  1.00  0.00     0.074 A 
ATOM     46  C   UNL A   1      36.744  30.714  29.857  1.00  0.00     0.031 C 
ATOM     47  C   UNL A   1      42.830  28.821  31.806  1.00  0.00     0.029 A 
ATOM     48  C   UNL A   1      42.204  29.942  32.488  1.00  0.00     0.049 A 
ATOM     49  H   UNL A   1      40.870  31.317  31.625  1.00  0.00     0.167 HD
ATOM     50  C   UNL A   1      37.112  33.148  30.499  1.00  0.00     0.034 A 
ATOM     51  C   UNL A   1      42.345  30.340  33.777  1.00  0.00     0.034 A 
ATOM     52  C   UNL A   1      38.126  34.150  30.276  1.00  0.00     0.049 A 
ATOM     53  C   UNL A   1      41.800  31.717  33.878  1.00  0.00     0.074 A 
ATOM     54  C   UNL A   1      38.755  34.641  29.145  1.00  0.00     0.029 A 
ATOM     55  N   UNL A   1      38.893  34.570  31.338  1.00  0.00    -0.354 N 
ATOM     56  N   UNL A   1      42.336  32.752  33.294  1.00  0.00    -0.248 NA
ATOM     57  C   UNL A   1      40.411  31.891  34.279  1.00  0.00     0.031 C 
ATOM     58  C   UNL A   1      40.094  34.906  29.548  1.00  0.00     0.029 A 
ATOM     59  C   UNL A   1      40.198  34.611  30.908  1.00  0.00     0.049 A 
ATOM     60  H   UNL A   1      38.568  34.798  32.238  1.00  0.00     0.167 HD
ATOM     61  C   UNL A   1      41.264  33.517  32.863  1.00  0.00     0.074 A 
ATOM     62  C   UNL A   1      40.118  33.012  33.613  1.00  0.00     0.031 C 
ATOM     63  C   UNL A   1      41.345  34.279  31.732  1.00  0.00     0.034 A 
BRANCH  50  64
ATOM     64  C   UNL A   1      35.973  33.337  31.468  1.00  0.00     0.023 A 
ATOM     65  C   UNL A   1      35.016  34.321  31.162  1.00  0.00     0.031 A 
ATOM     66  C   UNL A   1      35.926  32.815  32.780  1.00  0.00     0.131 A 
ATOM     67  C   UNL A   1      34.133  34.795  32.146  1.00  0.00     0.055 A 
ATOM     68  C   UNL A   1      34.990  33.230  33.731  1.00  0.00     0.041 A 
ATOM     69  F   UNL A   1      36.838  31.954  33.248  1.00  0.00    -0.206 F 
ATOM     70  C   UNL A   1      34.104  34.248  33.426  1.00  0.00     0.022 A 
BRANCH  67  71
ATOM     71  S   UNL A   1      33.163  36.280  31.780  1.00  0.00     0.124 S 
ATOM     72  O   UNL A   1      31.830  35.877  32.215  1.00  0.00    -0.237 OA
ATOM     73  O   UNL A   1      33.834  37.284  32.600  1.00  0.00    -0.237 OA
ATOM     74  O   UNL A   1      33.325  36.441  30.337  1.00  0.00    -0.744 OA
ENDBRANCH  67  71
ENDBRANCH  50  64
BRANCH  51  75
ATOM     75  C   UNL A   1      42.713  29.491  34.943  1.00  0.00     0.023 A 
ATOM     76  C   UNL A   1      41.928  28.394  35.349  1.00  0.00     0.031 A 
ATOM     77  C   UNL A   1      43.973  29.628  35.572  1.00  0.00     0.131 A 
ATOM     78  C   UNL A   1      42.396  27.516  36.352  1.00  0.00     0.055 A 
ATOM     79  C   UNL A   1      44.415  28.780  36.590  1.00  0.00     0.041 A 
ATOM     80  F   UNL A   1      44.867  30.541  35.163  1.00  0.00    -0.206 F 
ATOM     81  C   UNL A   1      43.628  27.713  36.981  1.00  0.00     0.022 A 
BRANCH  78  82
ATOM     82  S   UNL A   1      41.463  26.007  36.757  1.00  0.00     0.124 S 
ATOM     83  O   UNL A   1      40.932  25.613  35.457  1.00  0.00    -0.237 OA
ATOM     84  O   UNL A   1      42.490  25.144  37.328  1.00  0.00    -0.237 OA
ATOM     85  O   UNL A   1      40.462  26.477  37.715  1.00  0.00    -0.744 OA
ENDBRANCH  78  82
ENDBRANCH  51  75
BRANCH  63  86
ATOM     86  C   UNL A   1      42.713  34.558  31.139  1.00  0.00     0.023 A 
ATOM     87  C   UNL A   1      43.260  33.865  30.036  1.00  0.00     0.031 A 
ATOM     88  C   UNL A   1      43.429  35.665  31.629  1.00  0.00     0.131 A 
ATOM     89  C   UNL A   1      44.484  34.277  29.477  1.00  0.00     0.055 A 
ATOM     90  C   UNL A   1      44.632  36.085  31.059  1.00  0.00     0.041 A 
ATOM     91  F   UNL A   1      42.947  36.389  32.654  1.00  0.00    -0.206 F 
ATOM     92  C   UNL A   1      45.168  35.387  29.984  1.00  0.00     0.022 A 
BRANCH  89  93
ATOM     93  S   UNL A   1      45.212  33.366  28.079  1.00  0.00     0.124 S 
ATOM     94  O   UNL A   1      44.351  32.195  27.949  1.00  0.00    -0.237 OA
ATOM     95  O   UNL A   1      45.136  34.341  26.995  1.00  0.00    -0.237 OA
ATOM     96  O   UNL A   1      46.571  33.072  28.537  1.00  0.00    -0.744 OA
ENDBRANCH  89  93
ENDBRANCH  63  86
ENDBRANCH  37  38
ENDBRANCH  30  32
ENDBRANCH  29  30
ENDBRANCH  28  29
ENDBRANCH  27  28
ENDBRANCH  26  27
ENDBRANCH  25  26
ENDBRANCH   1  25
TORSDOF 24
ENDMDL
MODEL 2
REMARK VINA RESULT:     -10.3      1.640      3.230
REMARK SMILES CCn1ncc(CNc2ccccc2C(=O)OCCOCCOCCOC(=O)c2ccc(-c3c4nc(c(-c5cc(S(=O)(=O)[O-])ccc5F)c5ccc([nH]5)c(-c5cc(S(=O)(=O)[O-])ccc5F)c5nc(c(-c6cc(S(=O)(=O)[O-])ccc6F)c6ccc3[nH]6)C=C5)C=C4)cc2)c1C
REMARK SMILES IDX 21 1 20 2 19 3 18 4 17 5 15 6 16 7 14 8 9 9 10 10 11 11
REMARK SMILES IDX 13 12 12 13 8 14 7 16 6 17 3 18 4 19 92 20 5 21 93 22 2 23
REMARK SMILES IDX 1 24 22 25 23 26 24 27 25 28 26 29 27 30 28 31 29 32 30 33
REMARK SMILES IDX 91 34 31 35 90 36 32 37 33 38 34 39 84 40 35 41 89 42 83 43
REMARK SMILES IDX 85 44 36 45 88 46 82 47 81 48 37 50 69 51 49 52 68 53 50 54
REMARK SMILES IDX 53 55 67 56 86 57 51 58 52 59 66 61 87 62 54 63 38 64 39 65
REMARK SMILES IDX 47 66 40 67 46 68 48 69 45 70 41 71 42 72 43 73 44 74 70 75
REMARK SMILES IDX 71 76 79 77 72 78 78 79 80 80 77 81 73 82 74 83 75 84 76 85
REMARK SMILES IDX 55 86 56 87 64 88 57 89 63 90 65 91 62 92 58 93 59 94 60 95
REMARK SMILES IDX 61 96
REMARK H PARENT 8 15 85 49 53 60
REMARK Flexibility Score: inf
ROOT
ATOM      1  C   UNL A   1      40.189  22.035  26.691  1.00  0.00     0.188 C 
ENDROOT
BRANCH   1   2
ATOM      2  O   UNL A   1      39.389  23.172  27.006  1.00  0.00    -0.376 OA
BRANCH   2   3
ATOM      3  C   UNL A   1      38.237  23.429  26.205  1.00  0.00     0.202 C 
BRANCH   3   4
ATOM      4  C   UNL A   1      37.576  22.230  25.509  1.00  0.00     0.261 C 
BRANCH   4   5
ATOM      5  O   UNL A   1      36.355  22.610  24.855  1.00  0.00    -0.460 OA
BRANCH   5   6
ATOM      6  C   UNL A   1      35.207  22.494  25.555  1.00  0.00     0.340 C 
ATOM      7  O   UNL A   1      34.951  23.046  26.614  1.00  0.00    -0.246 OA
BRANCH   6   8
ATOM      8  C   UNL A   1      34.201  21.760  24.745  1.00  0.00     0.083 A 
ATOM      9  C   UNL A   1      33.254  22.325  23.863  1.00  0.00     0.049 A 
ATOM     10  C   UNL A   1      32.373  21.419  23.225  1.00  0.00     0.026 A 
ATOM     11  C   UNL A   1      32.391  20.042  23.464  1.00  0.00     0.002 A 
ATOM     12  C   UNL A   1      34.210  20.366  24.987  1.00  0.00     0.018 A 
ATOM     13  C   UNL A   1      33.307  19.515  24.357  1.00  0.00     0.001 A 
BRANCH   9  14
ATOM     14  N   UNL A   1      33.077  23.646  23.510  1.00  0.00    -0.380 N 
ATOM     15  H   UNL A   1      33.756  24.262  23.868  1.00  0.00     0.160 HD
BRANCH  14  16
ATOM     16  C   UNL A   1      32.054  24.278  22.699  1.00  0.00     0.152 C 
BRANCH  16  17
ATOM     17  C   UNL A   1      32.039  25.763  22.832  1.00  0.00     0.012 A 
ATOM     18  N   UNL A   1      31.448  27.833  23.259  1.00  0.00    -0.270 N 
ATOM     19  N   UNL A   1      32.656  27.950  22.669  1.00  0.00    -0.181 NA
ATOM     20  C   UNL A   1      31.030  26.536  23.387  1.00  0.00     0.040 A 
ATOM     21  C   UNL A   1      33.009  26.691  22.409  1.00  0.00     0.141 A 
ATOM     22  C   UNL A   1      29.750  26.098  24.004  1.00  0.00     0.067 C 
BRANCH  18  23
ATOM     23  C   UNL A   1      30.742  29.041  23.643  1.00  0.00     0.141 C 
ATOM     24  C   UNL A   1      29.609  29.357  22.683  1.00  0.00     0.029 C 
ENDBRANCH  18  23
ENDBRANCH  16  17
ENDBRANCH  14  16
ENDBRANCH   9  14
ENDBRANCH   6   8
ENDBRANCH   5   6
ENDBRANCH   4   5
ENDBRANCH   3   4
ENDBRANCH   2   3
ENDBRANCH   1   2
BRANCH   1  25
ATOM     25  C   UNL A   1      41.208  21.507  27.728  1.00  0.00     0.188 C 
BRANCH  25  26
ATOM     26  O   UNL A   1      42.576  21.589  27.336  1.00  0.00    -0.376 OA
BRANCH  26  27
ATOM     27  C   UNL A   1      42.823  22.284  26.118  1.00  0.00     0.202 C 
BRANCH  27  28
ATOM     28  C   UNL A   1      43.364  23.697  26.322  1.00  0.00     0.261 C 
BRANCH  28  29
ATOM     29  O   UNL A   1      42.413  24.607  26.859  1.00  0.00    -0.460 OA
BRANCH  29  30
ATOM     30  C   UNL A   1      41.927  25.534  26.007  1.00  0.00     0.338 C 
ATOM     31  O   UNL A   1      42.117  25.596  24.806  1.00  0.00    -0.246 OA
BRANCH  30  32
ATOM     32  C   UNL A   1      41.111  26.480  26.779  1.00  0.00     0.060 A 
ATOM     33  C   UNL A   1      40.983  27.783  26.289  1.00  0.00     0.016 A 
ATOM     34  C   UNL A   1      40.680  26.125  28.064  1.00  0.00     0.016 A 
ATOM     35  C   UNL A   1      40.617  28.784  27.166  1.00  0.00     0.010 A 
ATOM     36  C   UNL A   1      40.332  27.123  28.940  1.00  0.00     0.010 A 
ATOM     37  C   UNL A   1      40.397  28.447  28.502  1.00  0.00    -0.014 A 
BRANCH  37  38
ATOM     38  C   UNL A   1      40.362  29.506  29.493  1.00  0.00     0.031 A 
ATOM     39  C   UNL A   1      39.108  30.277  29.592  1.00  0.00     0.074 A 
ATOM     40  C   UNL A   1      41.370  29.612  30.382  1.00  0.00     0.049 A 
ATOM     41  N   UNL A   1      38.973  31.559  29.610  1.00  0.00    -0.248 NA
ATOM     42  C   UNL A   1      37.836  29.538  29.604  1.00  0.00     0.031 C 
ATOM     43  C   UNL A   1      42.520  28.709  30.510  1.00  0.00     0.029 A 
ATOM     44  N   UNL A   1      41.500  30.440  31.458  1.00  0.00    -0.354 N 
ATOM     45  C   UNL A   1      37.625  31.794  29.850  1.00  0.00     0.074 A 
ATOM     46  C   UNL A   1      36.954  30.533  29.684  1.00  0.00     0.031 C 
ATOM     47  C   UNL A   1      43.083  28.883  31.722  1.00  0.00     0.029 A 
ATOM     48  C   UNL A   1      42.392  29.959  32.413  1.00  0.00     0.049 A 
ATOM     49  H   UNL A   1      41.012  31.289  31.551  1.00  0.00     0.167 HD
ATOM     50  C   UNL A   1      37.196  32.968  30.383  1.00  0.00     0.034 A 
ATOM     51  C   UNL A   1      42.488  30.336  33.713  1.00  0.00     0.034 A 
ATOM     52  C   UNL A   1      38.166  34.020  30.201  1.00  0.00     0.049 A 
ATOM     53  C   UNL A   1      41.877  31.684  33.830  1.00  0.00     0.074 A 
ATOM     54  C   UNL A   1      38.794  34.563  29.095  1.00  0.00     0.029 A 
ATOM     55  N   UNL A   1      38.891  34.453  31.288  1.00  0.00    -0.354 N 
ATOM     56  N   UNL A   1      42.376  32.755  33.279  1.00  0.00    -0.248 NA
ATOM     57  C   UNL A   1      40.473  31.785  34.205  1.00  0.00     0.031 C 
ATOM     58  C   UNL A   1      40.110  34.881  29.530  1.00  0.00     0.029 A 
ATOM     59  C   UNL A   1      40.201  34.563  30.886  1.00  0.00     0.049 A 
ATOM     60  H   UNL A   1      38.537  34.646  32.186  1.00  0.00     0.167 HD
ATOM     61  C   UNL A   1      41.277  33.478  32.841  1.00  0.00     0.074 A 
ATOM     62  C   UNL A   1      40.142  32.905  33.556  1.00  0.00     0.031 C 
ATOM     63  C   UNL A   1      41.346  34.267  31.727  1.00  0.00     0.034 A 
BRANCH  50  64
ATOM     64  C   UNL A   1      36.029  33.083  31.331  1.00  0.00     0.023 A 
ATOM     65  C   UNL A   1      34.966  33.922  30.955  1.00  0.00     0.031 A 
ATOM     66  C   UNL A   1      36.028  32.648  32.676  1.00  0.00     0.131 A 
ATOM     67  C   UNL A   1      34.020  34.351  31.899  1.00  0.00     0.055 A 
ATOM     68  C   UNL A   1      35.038  33.011  33.592  1.00  0.00     0.041 A 
ATOM     69  F   UNL A   1      37.031  31.937  33.206  1.00  0.00    -0.206 F 
ATOM     70  C   UNL A   1      34.041  33.892  33.214  1.00  0.00     0.022 A 
BRANCH  67  71
ATOM     71  S   UNL A   1      32.884  35.681  31.428  1.00  0.00     0.124 S 
ATOM     72  O   UNL A   1      33.657  36.868  31.778  1.00  0.00    -0.237 OA
ATOM     73  O   UNL A   1      32.703  35.426  30.002  1.00  0.00    -0.237 OA
ATOM     74  O   UNL A   1      31.711  35.433  32.262  1.00  0.00    -0.744 OA
ENDBRANCH  67  71
ENDBRANCH  50  64
BRANCH  51  75
ATOM     75  C   UNL A   1      42.871  29.481  34.869  1.00  0.00     0.023 A 
ATOM     76  C   UNL A   1      42.066  28.413  35.311  1.00  0.00     0.031 A 
ATOM     77  C   UNL A   1      44.159  29.577  35.448  1.00  0.00     0.131 A 
ATOM     78  C   UNL A   1      42.543  27.524  36.301  1.00  0.00     0.055 A 
ATOM     79  C   UNL A   1      44.612  28.720  36.453  1.00  0.00     0.041 A 
ATOM     80  F   UNL A   1      45.067  30.458  34.999  1.00  0.00    -0.206 F 
ATOM     81  C   UNL A   1      43.804  27.682  36.880  1.00  0.00     0.022 A 
BRANCH  78  82
ATOM     82  S   UNL A   1      41.575  26.050  36.751  1.00  0.00     0.124 S 
ATOM     83  O   UNL A   1      42.581  25.196  37.371  1.00  0.00    -0.237 OA
ATOM     84  O   UNL A   1      40.555  26.601  37.636  1.00  0.00    -0.237 OA
ATOM     85  O   UNL A   1      41.070  25.574  35.463  1.00  0.00    -0.744 OA
ENDBRANCH  78  82
ENDBRANCH  51  75
BRANCH  63  86
ATOM     86  C   UNL A   1      42.711  34.622  31.169  1.00  0.00     0.023 A 
ATOM     87  C   UNL A   1      43.300  33.997  30.047  1.00  0.00     0.031 A 
ATOM     88  C   UNL A   1      43.377  35.732  31.717  1.00  0.00     0.131 A 
ATOM     89  C   UNL A   1      44.515  34.477  29.526  1.00  0.00     0.055 A 
ATOM     90  C   UNL A   1      44.572  36.221  31.185  1.00  0.00     0.041 A 
ATOM     91  F   UNL A   1      42.853  36.394  32.763  1.00  0.00    -0.206 F 
ATOM     92  C   UNL A   1      45.149  35.590  30.089  1.00  0.00     0.022 A 
BRANCH  89  93
ATOM     93  S   UNL A   1      45.297  33.655  28.102  1.00  0.00     0.124 S 
ATOM     94  O   UNL A   1      44.175  33.359  27.219  1.00  0.00    -0.237 OA
ATOM     95  O   UNL A   1      46.236  34.669  27.629  1.00  0.00    -0.237 OA
ATOM     96  O   UNL A   1      45.928  32.475  28.697  1.00  0.00    -0.744 OA
ENDBRANCH  89  93
ENDBRANCH  63  86
ENDBRANCH  37  38
ENDBRANCH  30  32
ENDBRANCH  29  30
ENDBRANCH  28  29
ENDBRANCH  27  28
ENDBRANCH  26  27
ENDBRANCH  25  26
ENDBRANCH   1  25
TORSDOF 24
ENDMDL
MODEL 3
REMARK VINA RESULT:     -10.2      4.546     10.015
REMARK SMILES CCn1ncc(CNc2ccccc2C(=O)OCCOCCOCCOC(=O)c2ccc(-c3c4nc(c(-c5cc(S(=O)(=O)[O-])ccc5F)c5ccc([nH]5)c(-c5cc(S(=O)(=O)[O-])ccc5F)c5nc(c(-c6cc(S(=O)(=O)[O-])ccc6F)c6ccc3[nH]6)C=C5)C=C4)cc2)c1C
REMARK SMILES IDX 21 1 20 2 19 3 18 4 17 5 15 6 16 7 14 8 9 9 10 10 11 11
REMARK SMILES IDX 13 12 12 13 8 14 7 16 6 17 3 18 4 19 92 20 5 21 93 22 2 23
REMARK SMILES IDX 1 24 22 25 23 26 24 27 25 28 26 29 27 30 28 31 29 32 30 33
REMARK SMILES IDX 91 34 31 35 90 36 32 37 33 38 34 39 84 40 35 41 89 42 83 43
REMARK SMILES IDX 85 44 36 45 88 46 82 47 81 48 37 50 69 51 49 52 68 53 50 54
REMARK SMILES IDX 53 55 67 56 86 57 51 58 52 59 66 61 87 62 54 63 38 64 39 65
REMARK SMILES IDX 47 66 40 67 46 68 48 69 45 70 41 71 42 72 43 73 44 74 70 75
REMARK SMILES IDX 71 76 79 77 72 78 78 79 80 80 77 81 73 82 74 83 75 84 76 85
REMARK SMILES IDX 55 86 56 87 64 88 57 89 63 90 65 91 62 92 58 93 59 94 60 95
REMARK SMILES IDX 61 96
REMARK H PARENT 8 15 85 49 53 60
REMARK Flexibility Score: inf
ROOT
ATOM      1  C   UNL A   1      34.474  30.656  27.326  1.00  0.00     0.188 C 
ENDROOT
BRANCH   1   2
ATOM      2  O   UNL A   1      33.353  30.407  26.481  1.00  0.00    -0.376 OA
BRANCH   2   3
ATOM      3  C   UNL A   1      32.186  29.827  27.062  1.00  0.00     0.202 C 
BRANCH   3   4
ATOM      4  C   UNL A   1      32.175  28.304  27.260  1.00  0.00     0.261 C 
BRANCH   4   5
ATOM      5  O   UNL A   1      33.263  27.676  26.564  1.00  0.00    -0.460 OA
BRANCH   5   6
ATOM      6  C   UNL A   1      32.982  27.035  25.411  1.00  0.00     0.340 C 
ATOM      7  O   UNL A   1      33.338  27.372  24.294  1.00  0.00    -0.246 OA
BRANCH   6   8
ATOM      8  C   UNL A   1      32.347  25.724  25.711  1.00  0.00     0.083 A 
ATOM      9  C   UNL A   1      30.975  25.410  25.610  1.00  0.00     0.049 A 
ATOM     10  C   UNL A   1      30.604  24.096  25.985  1.00  0.00     0.026 A 
ATOM     11  C   UNL A   1      31.517  23.154  26.467  1.00  0.00     0.002 A 
ATOM     12  C   UNL A   1      33.266  24.769  26.205  1.00  0.00     0.018 A 
ATOM     13  C   UNL A   1      32.852  23.495  26.587  1.00  0.00     0.001 A 
BRANCH   9  14
ATOM     14  N   UNL A   1      29.933  26.200  25.171  1.00  0.00    -0.380 N 
ATOM     15  H   UNL A   1      29.619  26.867  25.823  1.00  0.00     0.160 HD
BRANCH  14  16
ATOM     16  C   UNL A   1      29.223  26.210  23.906  1.00  0.00     0.152 C 
BRANCH  16  17
ATOM     17  C   UNL A   1      29.252  27.539  23.231  1.00  0.00     0.012 A 
ATOM     18  N   UNL A   1      28.686  29.473  22.364  1.00  0.00    -0.270 N 
ATOM     19  N   UNL A   1      30.000  29.356  22.079  1.00  0.00    -0.181 NA
ATOM     20  C   UNL A   1      28.185  28.407  23.061  1.00  0.00     0.040 A 
ATOM     21  C   UNL A   1      30.338  28.179  22.605  1.00  0.00     0.141 A 
ATOM     22  C   UNL A   1      26.779  28.260  23.521  1.00  0.00     0.067 C 
BRANCH  18  23
ATOM     23  C   UNL A   1      27.973  30.645  21.890  1.00  0.00     0.141 C 
ATOM     24  C   UNL A   1      27.990  31.763  22.916  1.00  0.00     0.029 C 
ENDBRANCH  18  23
ENDBRANCH  16  17
ENDBRANCH  14  16
ENDBRANCH   9  14
ENDBRANCH   6   8
ENDBRANCH   5   6
ENDBRANCH   4   5
ENDBRANCH   3   4
ENDBRANCH   2   3
ENDBRANCH   1   2
BRANCH   1  25
ATOM     25  C   UNL A   1      34.332  31.633  28.516  1.00  0.00     0.188 C 
BRANCH  25  26
ATOM     26  O   UNL A   1      34.448  33.015  28.189  1.00  0.00    -0.376 OA
BRANCH  26  27
ATOM     27  C   UNL A   1      35.049  33.832  29.189  1.00  0.00     0.202 C 
BRANCH  27  28
ATOM     28  C   UNL A   1      36.549  33.592  29.351  1.00  0.00     0.261 C 
BRANCH  28  29
ATOM     29  O   UNL A   1      36.952  33.353  30.694  1.00  0.00    -0.460 OA
BRANCH  29  30
ATOM     30  C   UNL A   1      36.800  32.089  31.146  1.00  0.00     0.338 C 
ATOM     31  O   UNL A   1      36.049  31.712  32.026  1.00  0.00    -0.246 OA
BRANCH  30  32
ATOM     32  C   UNL A   1      37.707  31.221  30.386  1.00  0.00     0.060 A 
ATOM     33  C   UNL A   1      37.314  29.896  30.168  1.00  0.00     0.016 A 
ATOM     34  C   UNL A   1      39.005  31.665  30.101  1.00  0.00     0.016 A 
ATOM     35  C   UNL A   1      38.284  28.962  29.864  1.00  0.00     0.010 A 
ATOM     36  C   UNL A   1      39.972  30.734  29.814  1.00  0.00     0.010 A 
ATOM     37  C   UNL A   1      39.612  29.384  29.793  1.00  0.00    -0.014 A 
BRANCH  37  38
ATOM     38  C   UNL A   1      40.664  28.387  29.828  1.00  0.00     0.031 A 
ATOM     39  C   UNL A   1      41.380  28.226  31.108  1.00  0.00     0.074 A 
ATOM     40  C   UNL A   1      40.810  27.543  28.786  1.00  0.00     0.049 A 
ATOM     41  N   UNL A   1      42.655  28.195  31.297  1.00  0.00    -0.248 NA
ATOM     42  C   UNL A   1      40.587  28.161  32.345  1.00  0.00     0.031 C 
ATOM     43  C   UNL A   1      39.956  27.473  27.593  1.00  0.00     0.029 A 
ATOM     44  N   UNL A   1      41.638  26.470  28.642  1.00  0.00    -0.354 N 
ATOM     45  C   UNL A   1      42.831  27.893  32.641  1.00  0.00     0.074 A 
ATOM     46  C   UNL A   1      41.543  28.035  33.264  1.00  0.00     0.031 C 
ATOM     47  C   UNL A   1      40.150  26.286  26.984  1.00  0.00     0.029 A 
ATOM     48  C   UNL A   1      41.193  25.559  27.689  1.00  0.00     0.049 A 
ATOM     49  H   UNL A   1      42.465  26.350  29.161  1.00  0.00     0.167 HD
ATOM     50  C   UNL A   1      43.983  27.334  33.095  1.00  0.00     0.034 A 
ATOM     51  C   UNL A   1      41.568  24.262  27.550  1.00  0.00     0.034 A 
ATOM     52  C   UNL A   1      45.077  27.553  32.180  1.00  0.00     0.049 A 
ATOM     53  C   UNL A   1      42.888  24.110  28.211  1.00  0.00     0.074 A 
ATOM     54  C   UNL A   1      45.650  28.684  31.627  1.00  0.00     0.029 A 
ATOM     55  N   UNL A   1      45.536  26.498  31.425  1.00  0.00    -0.354 N 
ATOM     56  N   UNL A   1      43.982  24.677  27.784  1.00  0.00    -0.248 NA
ATOM     57  C   UNL A   1      42.928  23.671  29.599  1.00  0.00     0.031 C 
ATOM     58  C   UNL A   1      46.023  28.307  30.307  1.00  0.00     0.029 A 
ATOM     59  C   UNL A   1      45.704  26.959  30.141  1.00  0.00     0.049 A 
ATOM     60  H   UNL A   1      45.711  25.584  31.746  1.00  0.00     0.167 HD
ATOM     61  C   UNL A   1      44.659  25.061  28.931  1.00  0.00     0.074 A 
ATOM     62  C   UNL A   1      44.035  24.298  30.007  1.00  0.00     0.031 C 
ATOM     63  C   UNL A   1      45.454  26.172  28.947  1.00  0.00     0.034 A 
BRANCH  50  64
ATOM     64  C   UNL A   1      44.044  26.333  34.221  1.00  0.00     0.023 A 
ATOM     65  C   UNL A   1      44.505  26.787  35.469  1.00  0.00     0.031 A 
ATOM     66  C   UNL A   1      43.946  24.931  34.069  1.00  0.00     0.131 A 
ATOM     67  C   UNL A   1      44.913  25.878  36.458  1.00  0.00     0.055 A 
ATOM     68  C   UNL A   1      44.275  24.032  35.087  1.00  0.00     0.041 A 
ATOM     69  F   UNL A   1      43.628  24.351  32.905  1.00  0.00    -0.206 F 
ATOM     70  C   UNL A   1      44.790  24.502  36.281  1.00  0.00     0.022 A 
BRANCH  67  71
ATOM     71  S   UNL A   1      45.799  26.524  37.900  1.00  0.00     0.124 S 
ATOM     72  O   UNL A   1      44.810  26.347  38.958  1.00  0.00    -0.237 OA
ATOM     73  O   UNL A   1      46.964  25.646  37.952  1.00  0.00    -0.237 OA
ATOM     74  O   UNL A   1      46.076  27.910  37.531  1.00  0.00    -0.744 OA
ENDBRANCH  67  71
ENDBRANCH  50  64
BRANCH  51  75
ATOM     75  C   UNL A   1      40.726  23.130  27.078  1.00  0.00     0.023 A 
ATOM     76  C   UNL A   1      39.382  23.304  26.696  1.00  0.00     0.031 A 
ATOM     77  C   UNL A   1      41.298  21.865  26.802  1.00  0.00     0.131 A 
ATOM     78  C   UNL A   1      38.668  22.242  26.097  1.00  0.00     0.055 A 
ATOM     79  C   UNL A   1      40.577  20.806  26.245  1.00  0.00     0.041 A 
ATOM     80  F   UNL A   1      42.607  21.631  26.982  1.00  0.00    -0.206 F 
ATOM     81  C   UNL A   1      39.256  20.993  25.884  1.00  0.00     0.022 A 
BRANCH  78  82
ATOM     82  S   UNL A   1      36.989  22.516  25.451  1.00  0.00     0.124 S 
ATOM     83  O   UNL A   1      36.443  21.164  25.422  1.00  0.00    -0.237 OA
ATOM     84  O   UNL A   1      36.416  23.426  26.437  1.00  0.00    -0.237 OA
ATOM     85  O   UNL A   1      37.227  23.114  24.137  1.00  0.00    -0.744 OA
ENDBRANCH  78  82
ENDBRANCH  51  75
BRANCH  63  86
ATOM     86  C   UNL A   1      45.869  26.789  27.625  1.00  0.00     0.023 A 
ATOM     87  C   UNL A   1      46.979  26.364  26.862  1.00  0.00     0.031 A 
ATOM     88  C   UNL A   1      45.020  27.754  27.054  1.00  0.00     0.131 A 
ATOM     89  C   UNL A   1      47.214  26.913  25.587  1.00  0.00     0.055 A 
ATOM     90  C   UNL A   1      45.242  28.280  25.781  1.00  0.00     0.041 A 
ATOM     91  F   UNL A   1      43.926  28.175  27.712  1.00  0.00    -0.206 F 
ATOM     92  C   UNL A   1      46.345  27.865  25.044  1.00  0.00     0.022 A 
BRANCH  89  93
ATOM     93  S   UNL A   1      48.663  26.396  24.614  1.00  0.00     0.124 S 
ATOM     94  O   UNL A   1      49.126  27.638  24.004  1.00  0.00    -0.237 OA
ATOM     95  O   UNL A   1      49.535  25.817  25.632  1.00  0.00    -0.237 OA
ATOM     96  O   UNL A   1      48.107  25.427  23.668  1.00  0.00    -0.744 OA
ENDBRANCH  89  93
ENDBRANCH  63  86
ENDBRANCH  37  38
ENDBRANCH  30  32
ENDBRANCH  29  30
ENDBRANCH  28  29
ENDBRANCH  27  28
ENDBRANCH  26  27
ENDBRANCH  25  26
ENDBRANCH   1  25
TORSDOF 24
ENDMDL
