MODEL 1
REMARK VINA RESULT:      -9.6      0.000      0.000
REMARK SMILES Cc1ccc(OC2(C(=O)OCCOCCOCCOC(=O)c3ccc(-c4c5nc(c(-c6cc(S(=O)(=O)[O-])ccc6F)c6ccc([nH]6)c(-c6cc(S(=O)(=O)[O-])ccc6F)c6nc(c(-c7cc(S(=O)(=O)[O-])ccc7F)c7ccc4[nH]7)C=C6)C=C5)cc3)CC[NH+](C[C@@H]3CC=CCC3)CC2)cn1
REMARK SMILES IDX 15 1 14 2 13 3 12 4 11 5 10 6 8 7 9 8 7 9 85 10 96 11 86 12
REMARK SMILES IDX 95 13 87 14 6 16 5 17 1 18 2 19 3 20 98 21 4 22 97 23 88 24
REMARK SMILES IDX 89 25 90 26 94 27 91 28 93 29 92 30 16 31 17 32 18 33 19 34
REMARK SMILES IDX 20 35 21 36 22 37 23 38 84 39 24 40 83 41 25 42 26 43 27 44
REMARK SMILES IDX 77 45 28 46 82 47 76 48 78 49 29 50 81 51 75 52 74 53 30 55
REMARK SMILES IDX 62 56 42 57 61 58 43 59 46 60 60 61 79 62 44 63 45 64 59 66
REMARK SMILES IDX 80 67 47 68 31 69 32 70 40 71 33 72 39 73 41 74 38 75 34 76
REMARK SMILES IDX 35 77 36 78 37 79 63 80 64 81 72 82 65 83 71 84 73 85 70 86
REMARK SMILES IDX 66 87 67 88 68 89 69 90 48 91 49 92 57 93 50 94 56 95 58 96
REMARK SMILES IDX 55 97 51 98 52 99 53 100 54 101
REMARK H PARENT 87 15 78 54 46 65
REMARK Flexibility Score: inf
ROOT
ATOM      1  C   UNL A   1      33.803  30.523  27.696  1.00  0.00     0.188 C 
ENDROOT
BRANCH   1   2
ATOM      2  C   UNL A   1      33.477  29.093  27.213  1.00  0.00     0.188 C 
BRANCH   2   3
ATOM      3  O   UNL A   1      32.235  28.801  26.622  1.00  0.00    -0.376 OA
BRANCH   3   4
ATOM      4  C   UNL A   1      31.516  27.665  27.071  1.00  0.00     0.202 C 
BRANCH   4   5
ATOM      5  C   UNL A   1      31.301  26.393  26.203  1.00  0.00     0.261 C 
BRANCH   5   6
ATOM      6  O   UNL A   1      32.285  25.374  26.442  1.00  0.00    -0.460 OA
BRANCH   6   7
ATOM      7  C   UNL A   1      33.555  25.341  25.890  1.00  0.00     0.351 C 
ATOM      8  O   UNL A   1      34.359  26.257  25.985  1.00  0.00    -0.247 OA
BRANCH   7   9
ATOM      9  C   UNL A   1      33.832  23.881  25.314  1.00  0.00     0.216 C 
ATOM     10  C   UNL A   1      32.688  23.091  26.023  1.00  0.00     0.122 C 
ATOM     11  C   UNL A   1      33.549  23.630  23.822  1.00  0.00     0.122 C 
ATOM     12  C   UNL A   1      32.695  21.625  25.772  1.00  0.00     0.267 C 
ATOM     13  C   UNL A   1      33.419  22.095  23.508  1.00  0.00     0.267 C 
ATOM     14  N   UNL A   1      32.492  21.351  24.375  1.00  0.00    -0.334 N 
ATOM     15  H   UNL A   1      31.612  21.748  24.044  1.00  0.00     0.348 HD
BRANCH   9  16
ATOM     16  O   UNL A   1      35.286  23.910  25.574  1.00  0.00    -0.473 OA
BRANCH  16  17
ATOM     17  C   UNL A   1      36.466  23.249  25.305  1.00  0.00     0.139 A 
ATOM     18  C   UNL A   1      40.418  19.915  26.305  1.00  0.00     0.066 C 
ATOM     19  C   UNL A   1      39.537  21.123  25.967  1.00  0.00     0.038 A 
ATOM     20  C   UNL A   1      38.088  20.515  24.992  1.00  0.00     0.027 A 
ATOM     21  N   UNL A   1      39.410  23.026  26.574  1.00  0.00    -0.258 NA
ATOM     22  C   UNL A   1      36.594  21.540  24.716  1.00  0.00     0.050 A 
ATOM     23  C   UNL A   1      37.914  23.998  26.126  1.00  0.00     0.157 A 
ENDBRANCH  16  17
ENDBRANCH   9  16
BRANCH  14  24
ATOM     24  C   UNL A   1      32.276  19.905  24.155  1.00  0.00     0.266 C 
BRANCH  24  25
ATOM     25  C   UNL A   1      33.089  18.755  24.847  1.00  0.00     0.048 C 
ATOM     26  C   UNL A   1      34.505  18.448  24.289  1.00  0.00     0.036 C 
ATOM     27  C   UNL A   1      32.214  17.523  25.102  1.00  0.00     0.014 C 
ATOM     28  C   UNL A   1      35.056  17.103  24.649  1.00  0.00    -0.031 C 
ATOM     29  C   UNL A   1      32.937  16.327  25.718  1.00  0.00     0.027 C 
ATOM     30  C   UNL A   1      34.357  16.161  25.290  1.00  0.00    -0.031 C 
ENDBRANCH  24  25
ENDBRANCH  14  24
ENDBRANCH   7   9
ENDBRANCH   6   7
ENDBRANCH   5   6
ENDBRANCH   4   5
ENDBRANCH   3   4
ENDBRANCH   2   3
ENDBRANCH   1   2
BRANCH   1  31
ATOM     31  O   UNL A   1      35.138  30.929  27.877  1.00  0.00    -0.376 OA
BRANCH  31  32
ATOM     32  C   UNL A   1      35.517  31.140  29.232  1.00  0.00     0.202 C 
BRANCH  32  33
ATOM     33  C   UNL A   1      36.192  30.014  30.048  1.00  0.00     0.261 C 
BRANCH  33  34
ATOM     34  O   UNL A   1      36.791  30.436  31.288  1.00  0.00    -0.460 OA
BRANCH  34  35
ATOM     35  C   UNL A   1      37.554  29.491  31.892  1.00  0.00     0.338 C 
ATOM     36  O   UNL A   1      37.164  28.458  32.413  1.00  0.00    -0.246 OA
BRANCH  35  37
ATOM     37  C   UNL A   1      38.983  29.725  31.657  1.00  0.00     0.060 A 
ATOM     38  C   UNL A   1      39.883  30.643  32.852  1.00  0.00     0.016 A 
ATOM     39  C   UNL A   1      39.521  29.654  30.063  1.00  0.00     0.016 A 
ATOM     40  C   UNL A   1      41.554  31.626  32.211  1.00  0.00     0.010 A 
ATOM     41  C   UNL A   1      40.905  30.490  29.505  1.00  0.00     0.010 A 
ATOM     42  C   UNL A   1      41.918  31.504  30.469  1.00  0.00    -0.014 A 
BRANCH  42  43
ATOM     43  C   UNL A   1      43.022  32.104  29.670  1.00  0.00     0.031 A 
ATOM     44  C   UNL A   1      44.377  31.423  29.546  1.00  0.00     0.074 A 
ATOM     45  C   UNL A   1      42.921  33.410  29.376  1.00  0.00     0.049 A 
ATOM     46  N   UNL A   1      45.477  31.796  28.936  1.00  0.00    -0.248 NA
ATOM     47  C   UNL A   1      44.526  30.131  30.215  1.00  0.00     0.031 C 
ATOM     48  C   UNL A   1      41.733  34.226  29.618  1.00  0.00     0.029 A 
ATOM     49  N   UNL A   1      43.844  34.297  28.888  1.00  0.00    -0.354 N 
ATOM     50  C   UNL A   1      46.383  30.739  29.084  1.00  0.00     0.074 A 
ATOM     51  C   UNL A   1      45.737  29.730  29.874  1.00  0.00     0.031 C 
ATOM     52  C   UNL A   1      41.994  35.495  29.271  1.00  0.00     0.029 A 
ATOM     53  C   UNL A   1      43.380  35.588  28.827  1.00  0.00     0.049 A 
ATOM     54  H   UNL A   1      44.751  34.034  28.608  1.00  0.00     0.167 HD
ATOM     55  C   UNL A   1      47.663  30.625  28.652  1.00  0.00     0.034 A 
ATOM     56  C   UNL A   1      44.017  36.719  28.467  1.00  0.00     0.034 A 
ATOM     57  C   UNL A   1      48.380  31.741  28.106  1.00  0.00     0.049 A 
ATOM     58  C   UNL A   1      45.463  36.614  28.049  1.00  0.00     0.074 A 
ATOM     59  C   UNL A   1      49.685  31.807  27.658  1.00  0.00     0.029 A 
ATOM     60  N   UNL A   1      47.852  33.022  28.019  1.00  0.00    -0.354 N 
ATOM     61  N   UNL A   1      46.250  35.561  28.045  1.00  0.00    -0.248 NA
ATOM     62  C   UNL A   1      46.102  37.844  27.569  1.00  0.00     0.031 C 
ATOM     63  C   UNL A   1      49.973  33.150  27.388  1.00  0.00     0.029 A 
ATOM     64  C   UNL A   1      48.814  33.895  27.554  1.00  0.00     0.049 A 
ATOM     65  H   UNL A   1      46.930  33.271  28.255  1.00  0.00     0.167 HD
ATOM     66  C   UNL A   1      47.460  35.992  27.511  1.00  0.00     0.074 A 
ATOM     67  C   UNL A   1      47.297  37.400  27.210  1.00  0.00     0.031 C 
ATOM     68  C   UNL A   1      48.601  35.294  27.273  1.00  0.00     0.034 A 
BRANCH  55  69
ATOM     69  C   UNL A   1      48.357  29.292  28.844  1.00  0.00     0.023 A 
ATOM     70  C   UNL A   1      48.186  28.250  27.909  1.00  0.00     0.031 A 
ATOM     71  C   UNL A   1      49.150  29.026  29.974  1.00  0.00     0.131 A 
ATOM     72  C   UNL A   1      48.736  26.981  28.155  1.00  0.00     0.055 A 
ATOM     73  C   UNL A   1      49.764  27.785  30.172  1.00  0.00     0.041 A 
ATOM     74  F   UNL A   1      49.323  29.958  30.924  1.00  0.00    -0.206 F 
ATOM     75  C   UNL A   1      49.548  26.749  29.266  1.00  0.00     0.022 A 
BRANCH  72  76
ATOM     76  S   UNL A   1      48.245  25.601  27.085  1.00  0.00     0.124 S 
ATOM     77  O   UNL A   1      48.569  26.126  25.759  1.00  0.00    -0.237 OA
ATOM     78  O   UNL A   1      49.088  24.511  27.562  1.00  0.00    -0.237 OA
ATOM     79  O   UNL A   1      46.817  25.448  27.353  1.00  0.00    -0.744 OA
ENDBRANCH  72  76
ENDBRANCH  55  69
BRANCH  56  80
ATOM     80  C   UNL A   1      43.288  38.018  28.447  1.00  0.00     0.023 A 
ATOM     81  C   UNL A   1      43.349  38.883  29.549  1.00  0.00     0.031 A 
ATOM     82  C   UNL A   1      42.515  38.415  27.342  1.00  0.00     0.131 A 
ATOM     83  C   UNL A   1      42.603  40.071  29.552  1.00  0.00     0.055 A 
ATOM     84  C   UNL A   1      41.830  39.632  27.319  1.00  0.00     0.041 A 
ATOM     85  F   UNL A   1      42.427  37.630  26.256  1.00  0.00    -0.206 F 
ATOM     86  C   UNL A   1      41.859  40.461  28.437  1.00  0.00     0.022 A 
BRANCH  83  87
ATOM     87  S   UNL A   1      42.523  41.034  31.085  1.00  0.00     0.124 S 
ATOM     88  O   UNL A   1      41.120  41.435  31.108  1.00  0.00    -0.237 OA
ATOM     89  O   UNL A   1      42.926  40.050  32.083  1.00  0.00    -0.237 OA
ATOM     90  O   UNL A   1      43.478  42.116  30.857  1.00  0.00    -0.744 OA
ENDBRANCH  83  87
ENDBRANCH  56  80
BRANCH  68  91
ATOM     91  C   UNL A   1      49.726  36.021  26.591  1.00  0.00     0.023 A 
ATOM     92  C   UNL A   1      50.621  36.835  27.301  1.00  0.00     0.031 A 
ATOM     93  C   UNL A   1      49.920  35.857  25.208  1.00  0.00     0.131 A 
ATOM     94  C   UNL A   1      51.641  37.500  26.610  1.00  0.00     0.055 A 
ATOM     95  C   UNL A   1      50.986  36.454  24.543  1.00  0.00     0.041 A 
ATOM     96  F   UNL A   1      49.085  35.090  24.487  1.00  0.00    -0.206 F 
ATOM     97  C   UNL A   1      51.848  37.292  25.244  1.00  0.00     0.022 A 
BRANCH  94  98
ATOM     98  S   UNL A   1      52.629  38.726  27.505  1.00  0.00     0.124 S 
ATOM     99  O   UNL A   1      53.281  37.903  28.520  1.00  0.00    -0.237 OA
ATOM    100  O   UNL A   1      53.499  39.253  26.459  1.00  0.00    -0.237 OA
ATOM    101  O   UNL A   1      51.630  39.664  28.014  1.00  0.00    -0.744 OA
ENDBRANCH  94  98
ENDBRANCH  68  91
ENDBRANCH  42  43
ENDBRANCH  35  37
ENDBRANCH  34  35
ENDBRANCH  33  34
ENDBRANCH  32  33
ENDBRANCH  31  32
ENDBRANCH   1  31
TORSDOF 24
ENDMDL
MODEL 2
REMARK VINA RESULT:      -9.4      3.378      8.757
REMARK SMILES Cc1ccc(OC2(C(=O)OCCOCCOCCOC(=O)c3ccc(-c4c5nc(c(-c6cc(S(=O)(=O)[O-])ccc6F)c6ccc([nH]6)c(-c6cc(S(=O)(=O)[O-])ccc6F)c6nc(c(-c7cc(S(=O)(=O)[O-])ccc7F)c7ccc4[nH]7)C=C6)C=C5)cc3)CC[NH+](C[C@@H]3CC=CCC3)CC2)cn1
REMARK SMILES IDX 15 1 14 2 13 3 12 4 11 5 10 6 8 7 9 8 7 9 85 10 96 11 86 12
REMARK SMILES IDX 95 13 87 14 6 16 5 17 1 18 2 19 3 20 98 21 4 22 97 23 88 24
REMARK SMILES IDX 89 25 90 26 94 27 91 28 93 29 92 30 16 31 17 32 18 33 19 34
REMARK SMILES IDX 20 35 21 36 22 37 23 38 84 39 24 40 83 41 25 42 26 43 27 44
REMARK SMILES IDX 77 45 28 46 82 47 76 48 78 49 29 50 81 51 75 52 74 53 30 55
REMARK SMILES IDX 62 56 42 57 61 58 43 59 46 60 60 61 79 62 44 63 45 64 59 66
REMARK SMILES IDX 80 67 47 68 31 69 32 70 40 71 33 72 39 73 41 74 38 75 34 76
REMARK SMILES IDX 35 77 36 78 37 79 63 80 64 81 72 82 65 83 71 84 73 85 70 86
REMARK SMILES IDX 66 87 67 88 68 89 69 90 48 91 49 92 57 93 50 94 56 95 58 96
REMARK SMILES IDX 55 97 51 98 52 99 53 100 54 101
REMARK H PARENT 87 15 78 54 46 65
REMARK Flexibility Score: inf
ROOT
ATOM      1  C   UNL A   1      34.396  31.971  28.149  1.00  0.00     0.188 C 
ENDROOT
BRANCH   1   2
ATOM      2  C   UNL A   1      34.613  30.538  27.614  1.00  0.00     0.188 C 
BRANCH   2   3
ATOM      3  O   UNL A   1      33.615  29.896  26.860  1.00  0.00    -0.376 OA
BRANCH   3   4
ATOM      4  C   UNL A   1      32.312  30.454  26.838  1.00  0.00     0.202 C 
BRANCH   4   5
ATOM      5  C   UNL A   1      31.404  30.451  25.576  1.00  0.00     0.261 C 
BRANCH   5   6
ATOM      6  O   UNL A   1      31.968  29.720  24.476  1.00  0.00    -0.460 OA
BRANCH   6   7
ATOM      7  C   UNL A   1      31.256  28.932  23.586  1.00  0.00     0.351 C 
ATOM      8  O   UNL A   1      30.274  29.323  22.972  1.00  0.00    -0.247 OA
BRANCH   7   9
ATOM      9  C   UNL A   1      32.035  27.559  23.372  1.00  0.00     0.216 C 
ATOM     10  C   UNL A   1      31.015  26.811  22.459  1.00  0.00     0.122 C 
ATOM     11  C   UNL A   1      33.312  27.582  22.512  1.00  0.00     0.122 C 
ATOM     12  C   UNL A   1      31.390  25.413  22.119  1.00  0.00     0.267 C 
ATOM     13  C   UNL A   1      33.698  26.142  22.012  1.00  0.00     0.267 C 
ATOM     14  N   UNL A   1      32.614  25.388  21.363  1.00  0.00    -0.334 N 
ATOM     15  H   UNL A   1      32.530  25.935  20.506  1.00  0.00     0.348 HD
BRANCH   9  16
ATOM     16  O   UNL A   1      32.367  27.371  24.799  1.00  0.00    -0.473 OA
BRANCH  16  17
ATOM     17  C   UNL A   1      32.744  26.422  25.726  1.00  0.00     0.139 A 
ATOM     18  C   UNL A   1      33.651  21.538  27.475  1.00  0.00     0.066 C 
ATOM     19  C   UNL A   1      33.176  22.979  27.259  1.00  0.00     0.038 A 
ATOM     20  C   UNL A   1      34.583  23.942  26.544  1.00  0.00     0.027 A 
ATOM     21  N   UNL A   1      31.413  23.926  27.250  1.00  0.00    -0.258 NA
ATOM     22  C   UNL A   1      34.352  25.586  25.769  1.00  0.00     0.050 A 
ATOM     23  C   UNL A   1      31.328  25.629  26.561  1.00  0.00     0.157 A 
ENDBRANCH  16  17
ENDBRANCH   9  16
BRANCH  14  24
ATOM     24  C   UNL A   1      32.872  24.031  20.835  1.00  0.00     0.266 C 
BRANCH  24  25
ATOM     25  C   UNL A   1      33.189  22.767  21.710  1.00  0.00     0.048 C 
ATOM     26  C   UNL A   1      32.004  21.824  22.053  1.00  0.00     0.036 C 
ATOM     27  C   UNL A   1      34.099  23.116  22.893  1.00  0.00     0.014 C 
ATOM     28  C   UNL A   1      32.230  20.913  23.219  1.00  0.00    -0.031 C 
ATOM     29  C   UNL A   1      34.412  21.958  23.838  1.00  0.00     0.027 C 
ATOM     30  C   UNL A   1      33.306  20.972  24.010  1.00  0.00    -0.031 C 
ENDBRANCH  24  25
ENDBRANCH  14  24
ENDBRANCH   7   9
ENDBRANCH   6   7
ENDBRANCH   5   6
ENDBRANCH   4   5
ENDBRANCH   3   4
ENDBRANCH   2   3
ENDBRANCH   1   2
BRANCH   1  31
ATOM     31  O   UNL A   1      35.133  33.049  27.623  1.00  0.00    -0.376 OA
BRANCH  31  32
ATOM     32  C   UNL A   1      35.068  34.245  28.391  1.00  0.00     0.202 C 
BRANCH  32  33
ATOM     33  C   UNL A   1      34.620  34.209  29.869  1.00  0.00     0.261 C 
BRANCH  33  34
ATOM     34  O   UNL A   1      35.658  33.883  30.812  1.00  0.00    -0.460 OA
BRANCH  34  35
ATOM     35  C   UNL A   1      35.451  32.732  31.500  1.00  0.00     0.338 C 
ATOM     36  O   UNL A   1      34.389  32.329  31.948  1.00  0.00    -0.246 OA
BRANCH  35  37
ATOM     37  C   UNL A   1      36.633  31.865  31.464  1.00  0.00     0.060 A 
ATOM     38  C   UNL A   1      37.533  31.622  32.951  1.00  0.00     0.016 A 
ATOM     39  C   UNL A   1      37.390  31.661  29.974  1.00  0.00     0.016 A 
ATOM     40  C   UNL A   1      39.507  31.129  32.779  1.00  0.00     0.010 A 
ATOM     41  C   UNL A   1      39.048  31.270  29.812  1.00  0.00     0.010 A 
ATOM     42  C   UNL A   1      40.154  31.042  31.119  1.00  0.00    -0.014 A 
BRANCH  42  43
ATOM     43  C   UNL A   1      41.529  30.740  30.634  1.00  0.00     0.031 A 
ATOM     44  C   UNL A   1      42.415  31.819  30.028  1.00  0.00     0.074 A 
ATOM     45  C   UNL A   1      41.825  29.451  30.406  1.00  0.00     0.049 A 
ATOM     46  N   UNL A   1      43.620  31.757  29.513  1.00  0.00    -0.248 NA
ATOM     47  C   UNL A   1      41.863  33.173  29.984  1.00  0.00     0.031 C 
ATOM     48  C   UNL A   1      40.970  28.325  30.774  1.00  0.00     0.029 A 
ATOM     49  N   UNL A   1      42.878  28.873  29.747  1.00  0.00    -0.354 N 
ATOM     50  C   UNL A   1      43.973  33.071  29.185  1.00  0.00     0.074 A 
ATOM     51  C   UNL A   1      42.852  33.908  29.510  1.00  0.00     0.031 C 
ATOM     52  C   UNL A   1      41.533  27.187  30.342  1.00  0.00     0.029 A 
ATOM     53  C   UNL A   1      42.764  27.509  29.629  1.00  0.00     0.049 A 
ATOM     54  H   UNL A   1      43.641  29.385  29.393  1.00  0.00     0.167 HD
ATOM     55  C   UNL A   1      45.105  33.550  28.614  1.00  0.00     0.034 A 
ATOM     56  C   UNL A   1      43.561  26.627  28.996  1.00  0.00     0.034 A 
ATOM     57  C   UNL A   1      46.095  32.679  28.048  1.00  0.00     0.049 A 
ATOM     58  C   UNL A   1      44.789  27.157  28.299  1.00  0.00     0.074 A 
ATOM     59  C   UNL A   1      47.274  32.997  27.404  1.00  0.00     0.029 A 
ATOM     60  N   UNL A   1      45.959  31.298  27.994  1.00  0.00    -0.354 N 
ATOM     61  N   UNL A   1      45.184  28.402  28.147  1.00  0.00    -0.248 NA
ATOM     62  C   UNL A   1      45.691  26.164  27.704  1.00  0.00     0.031 C 
ATOM     63  C   UNL A   1      47.802  31.813  26.878  1.00  0.00     0.029 A 
ATOM     64  C   UNL A   1      47.016  30.750  27.300  1.00  0.00     0.049 A 
ATOM     65  H   UNL A   1      45.218  30.787  28.391  1.00  0.00     0.167 HD
ATOM     66  C   UNL A   1      46.406  28.337  27.487  1.00  0.00     0.074 A 
ATOM     67  C   UNL A   1      46.679  26.930  27.268  1.00  0.00     0.031 C 
ATOM     68  C   UNL A   1      47.241  29.338  27.106  1.00  0.00     0.034 A 
BRANCH  55  69
ATOM     69  C   UNL A   1      45.261  35.054  28.507  1.00  0.00     0.023 A 
ATOM     70  C   UNL A   1      45.806  35.799  29.573  1.00  0.00     0.031 A 
ATOM     71  C   UNL A   1      44.828  35.764  27.374  1.00  0.00     0.131 A 
ATOM     72  C   UNL A   1      45.837  37.201  29.513  1.00  0.00     0.055 A 
ATOM     73  C   UNL A   1      44.938  37.156  27.286  1.00  0.00     0.041 A 
ATOM     74  F   UNL A   1      44.262  35.124  26.339  1.00  0.00    -0.206 F 
ATOM     75  C   UNL A   1      45.433  37.884  28.365  1.00  0.00     0.022 A 
BRANCH  72  76
ATOM     76  S   UNL A   1      46.266  38.124  31.015  1.00  0.00     0.124 S 
ATOM     77  O   UNL A   1      44.960  38.630  31.434  1.00  0.00    -0.237 OA
ATOM     78  O   UNL A   1      46.853  37.095  31.865  1.00  0.00    -0.237 OA
ATOM     79  O   UNL A   1      47.196  39.146  30.538  1.00  0.00    -0.744 OA
ENDBRANCH  72  76
ENDBRANCH  55  69
BRANCH  56  80
ATOM     80  C   UNL A   1      43.248  25.171  29.033  1.00  0.00     0.023 A 
ATOM     81  C   UNL A   1      42.405  24.601  28.068  1.00  0.00     0.031 A 
ATOM     82  C   UNL A   1      43.771  24.326  30.028  1.00  0.00     0.131 A 
ATOM     83  C   UNL A   1      42.058  23.245  28.150  1.00  0.00     0.055 A 
ATOM     84  C   UNL A   1      43.480  22.961  30.066  1.00  0.00     0.041 A 
ATOM     85  F   UNL A   1      44.590  24.815  30.973  1.00  0.00    -0.206 F 
ATOM     86  C   UNL A   1      42.604  22.416  29.131  1.00  0.00     0.022 A 
BRANCH  83  87
ATOM     87  S   UNL A   1      40.783  22.613  27.028  1.00  0.00     0.124 S 
ATOM     88  O   UNL A   1      39.781  23.672  27.093  1.00  0.00    -0.237 OA
ATOM     89  O   UNL A   1      41.514  22.497  25.771  1.00  0.00    -0.237 OA
ATOM     90  O   UNL A   1      40.391  21.345  27.639  1.00  0.00    -0.744 OA
ENDBRANCH  83  87
ENDBRANCH  56  80
BRANCH  68  91
ATOM     91  C   UNL A   1      48.553  28.946  26.487  1.00  0.00     0.023 A 
ATOM     92  C   UNL A   1      48.646  28.517  25.154  1.00  0.00     0.031 A 
ATOM     93  C   UNL A   1      49.734  29.044  27.245  1.00  0.00     0.131 A 
ATOM     94  C   UNL A   1      49.894  28.150  24.636  1.00  0.00     0.055 A 
ATOM     95  C   UNL A   1      50.980  28.757  26.697  1.00  0.00     0.041 A 
ATOM     96  F   UNL A   1      49.692  29.445  28.526  1.00  0.00    -0.206 F 
ATOM     97  C   UNL A   1      51.064  28.295  25.387  1.00  0.00     0.022 A 
BRANCH  94  98
ATOM     98  S   UNL A   1      49.952  27.377  22.999  1.00  0.00     0.124 S 
ATOM     99  O   UNL A   1      49.159  26.169  23.209  1.00  0.00    -0.237 OA
ATOM    100  O   UNL A   1      49.346  28.396  22.149  1.00  0.00    -0.237 OA
ATOM    101  O   UNL A   1      51.380  27.153  22.778  1.00  0.00    -0.744 OA
ENDBRANCH  94  98
ENDBRANCH  68  91
ENDBRANCH  42  43
ENDBRANCH  35  37
ENDBRANCH  34  35
ENDBRANCH  33  34
ENDBRANCH  32  33
ENDBRANCH  31  32
ENDBRANCH   1  31
TORSDOF 24
ENDMDL
MODEL 3
REMARK VINA RESULT:      -9.3      6.352     10.218
REMARK SMILES Cc1ccc(OC2(C(=O)OCCOCCOCCOC(=O)c3ccc(-c4c5nc(c(-c6cc(S(=O)(=O)[O-])ccc6F)c6ccc([nH]6)c(-c6cc(S(=O)(=O)[O-])ccc6F)c6nc(c(-c7cc(S(=O)(=O)[O-])ccc7F)c7ccc4[nH]7)C=C6)C=C5)cc3)CC[NH+](C[C@@H]3CC=CCC3)CC2)cn1
REMARK SMILES IDX 15 1 14 2 13 3 12 4 11 5 10 6 8 7 9 8 7 9 85 10 96 11 86 12
REMARK SMILES IDX 95 13 87 14 6 16 5 17 1 18 2 19 3 20 98 21 4 22 97 23 88 24
REMARK SMILES IDX 89 25 90 26 94 27 91 28 93 29 92 30 16 31 17 32 18 33 19 34
REMARK SMILES IDX 20 35 21 36 22 37 23 38 84 39 24 40 83 41 25 42 26 43 27 44
REMARK SMILES IDX 77 45 28 46 82 47 76 48 78 49 29 50 81 51 75 52 74 53 30 55
REMARK SMILES IDX 62 56 42 57 61 58 43 59 46 60 60 61 79 62 44 63 45 64 59 66
REMARK SMILES IDX 80 67 47 68 31 69 32 70 40 71 33 72 39 73 41 74 38 75 34 76
REMARK SMILES IDX 35 77 36 78 37 79 63 80 64 81 72 82 65 83 71 84 73 85 70 86
REMARK SMILES IDX 66 87 67 88 68 89 69 90 48 91 49 92 57 93 50 94 56 95 58 96
REMARK SMILES IDX 55 97 51 98 52 99 53 100 54 101
REMARK H PARENT 87 15 78 54 46 65
REMARK Flexibility Score: inf
ROOT
ATOM      1  C   UNL A   1      34.126  30.410  27.144  1.00  0.00     0.188 C 
ENDROOT
BRANCH   1   2
ATOM      2  C   UNL A   1      34.749  29.003  27.280  1.00  0.00     0.188 C 
BRANCH   2   3
ATOM      3  O   UNL A   1      34.288  27.936  26.490  1.00  0.00    -0.376 OA
BRANCH   3   4
ATOM      4  C   UNL A   1      33.152  28.138  25.666  1.00  0.00     0.202 C 
BRANCH   4   5
ATOM      5  C   UNL A   1      32.319  26.973  25.061  1.00  0.00     0.261 C 
BRANCH   5   6
ATOM      6  O   UNL A   1      33.122  26.006  24.366  1.00  0.00    -0.460 OA
BRANCH   6   7
ATOM      7  C   UNL A   1      32.681  24.771  23.919  1.00  0.00     0.351 C 
ATOM      8  O   UNL A   1      31.748  24.625  23.144  1.00  0.00    -0.247 OA
BRANCH   7   9
ATOM      9  C   UNL A   1      33.695  23.647  24.419  1.00  0.00     0.216 C 
ATOM     10  C   UNL A   1      35.046  24.284  23.966  1.00  0.00     0.122 C 
ATOM     11  C   UNL A   1      33.888  23.475  25.936  1.00  0.00     0.122 C 
ATOM     12  C   UNL A   1      36.245  23.437  24.205  1.00  0.00     0.267 C 
ATOM     13  C   UNL A   1      35.211  22.691  26.265  1.00  0.00     0.267 C 
ATOM     14  N   UNL A   1      36.426  23.203  25.613  1.00  0.00    -0.334 N 
ATOM     15  H   UNL A   1      36.523  24.081  26.123  1.00  0.00     0.348 HD
BRANCH   9  16
ATOM     16  O   UNL A   1      32.927  22.518  23.856  1.00  0.00    -0.473 OA
BRANCH  16  17
ATOM     17  C   UNL A   1      32.525  21.223  24.112  1.00  0.00     0.139 A 
ATOM     18  C   UNL A   1      33.170  16.018  24.584  1.00  0.00     0.066 C 
ATOM     19  C   UNL A   1      32.718  17.436  24.220  1.00  0.00     0.038 A 
ATOM     20  C   UNL A   1      32.884  18.492  25.729  1.00  0.00     0.027 A 
ATOM     21  N   UNL A   1      32.335  18.435  22.528  1.00  0.00    -0.258 NA
ATOM     22  C   UNL A   1      32.830  20.322  25.655  1.00  0.00     0.050 A 
ATOM     23  C   UNL A   1      32.175  20.265  22.599  1.00  0.00     0.157 A 
ENDBRANCH  16  17
ENDBRANCH   9  16
BRANCH  14  24
ATOM     24  C   UNL A   1      37.730  22.555  25.869  1.00  0.00     0.266 C 
BRANCH  24  25
ATOM     25  C   UNL A   1      39.027  23.296  26.350  1.00  0.00     0.048 C 
ATOM     26  C   UNL A   1      40.116  22.442  27.052  1.00  0.00     0.036 C 
ATOM     27  C   UNL A   1      38.692  24.618  27.050  1.00  0.00     0.014 C 
ATOM     28  C   UNL A   1      41.099  23.213  27.878  1.00  0.00    -0.031 C 
ATOM     29  C   UNL A   1      39.891  25.382  27.609  1.00  0.00     0.027 C 
ATOM     30  C   UNL A   1      40.999  24.524  28.120  1.00  0.00    -0.031 C 
ENDBRANCH  24  25
ENDBRANCH  14  24
ENDBRANCH   7   9
ENDBRANCH   6   7
ENDBRANCH   5   6
ENDBRANCH   4   5
ENDBRANCH   3   4
ENDBRANCH   2   3
ENDBRANCH   1   2
BRANCH   1  31
ATOM     31  O   UNL A   1      34.856  31.554  27.519  1.00  0.00    -0.376 OA
BRANCH  31  32
ATOM     32  C   UNL A   1      35.895  31.314  28.462  1.00  0.00     0.202 C 
BRANCH  32  33
ATOM     33  C   UNL A   1      35.842  31.945  29.871  1.00  0.00     0.261 C 
BRANCH  33  34
ATOM     34  O   UNL A   1      36.971  31.647  30.714  1.00  0.00    -0.460 OA
BRANCH  34  35
ATOM     35  C   UNL A   1      36.857  30.493  31.418  1.00  0.00     0.338 C 
ATOM     36  O   UNL A   1      35.939  29.689  31.362  1.00  0.00    -0.246 OA
BRANCH  35  37
ATOM     37  C   UNL A   1      38.102  30.169  32.123  1.00  0.00     0.060 A 
ATOM     38  C   UNL A   1      39.365  31.386  32.180  1.00  0.00     0.016 A 
ATOM     39  C   UNL A   1      38.488  28.538  32.289  1.00  0.00     0.016 A 
ATOM     40  C   UNL A   1      41.284  30.729  32.416  1.00  0.00     0.010 A 
ATOM     41  C   UNL A   1      40.092  27.970  32.465  1.00  0.00     0.010 A 
ATOM     42  C   UNL A   1      41.507  28.960  32.488  1.00  0.00    -0.014 A 
BRANCH  42  43
ATOM     43  C   UNL A   1      42.748  28.149  32.627  1.00  0.00     0.031 A 
ATOM     44  C   UNL A   1      43.453  27.994  33.967  1.00  0.00     0.074 A 
ATOM     45  C   UNL A   1      43.424  27.873  31.501  1.00  0.00     0.049 A 
ATOM     46  N   UNL A   1      44.560  27.369  34.292  1.00  0.00    -0.248 NA
ATOM     47  C   UNL A   1      42.827  28.646  35.117  1.00  0.00     0.031 C 
ATOM     48  C   UNL A   1      42.935  28.145  30.151  1.00  0.00     0.029 A 
ATOM     49  N   UNL A   1      44.687  27.379  31.307  1.00  0.00    -0.354 N 
ATOM     50  C   UNL A   1      44.683  27.489  35.681  1.00  0.00     0.074 A 
ATOM     51  C   UNL A   1      43.575  28.279  36.141  1.00  0.00     0.031 C 
ATOM     52  C   UNL A   1      43.883  27.808  29.264  1.00  0.00     0.029 A 
ATOM     53  C   UNL A   1      45.061  27.341  29.986  1.00  0.00     0.049 A 
ATOM     54  H   UNL A   1      45.269  27.080  32.043  1.00  0.00     0.167 HD
ATOM     55  C   UNL A   1      45.654  27.034  36.510  1.00  0.00     0.034 A 
ATOM     56  C   UNL A   1      46.235  26.984  29.430  1.00  0.00     0.034 A 
ATOM     57  C   UNL A   1      46.883  26.488  36.009  1.00  0.00     0.049 A 
ATOM     58  C   UNL A   1      47.346  26.540  30.348  1.00  0.00     0.074 A 
ATOM     59  C   UNL A   1      47.979  26.019  36.705  1.00  0.00     0.029 A 
ATOM     60  N   UNL A   1      47.199  26.426  34.658  1.00  0.00    -0.354 N 
ATOM     61  N   UNL A   1      47.373  26.509  31.663  1.00  0.00    -0.248 NA
ATOM     62  C   UNL A   1      48.578  26.063  29.710  1.00  0.00     0.031 C 
ATOM     63  C   UNL A   1      48.992  25.760  35.776  1.00  0.00     0.029 A 
ATOM     64  C   UNL A   1      48.485  25.954  34.499  1.00  0.00     0.049 A 
ATOM     65  H   UNL A   1      46.595  26.681  33.924  1.00  0.00     0.167 HD
ATOM     66  C   UNL A   1      48.604  25.959  32.006  1.00  0.00     0.074 A 
ATOM     67  C   UNL A   1      49.289  25.678  30.759  1.00  0.00     0.031 C 
ATOM     68  C   UNL A   1      49.124  25.693  33.232  1.00  0.00     0.034 A 
BRANCH  55  69
ATOM     69  C   UNL A   1      45.444  27.198  38.002  1.00  0.00     0.023 A 
ATOM     70  C   UNL A   1      45.957  28.321  38.682  1.00  0.00     0.031 A 
ATOM     71  C   UNL A   1      44.780  26.223  38.767  1.00  0.00     0.131 A 
ATOM     72  C   UNL A   1      45.862  28.406  40.081  1.00  0.00     0.055 A 
ATOM     73  C   UNL A   1      44.615  26.354  40.150  1.00  0.00     0.041 A 
ATOM     74  F   UNL A   1      44.301  25.110  38.192  1.00  0.00    -0.206 F 
ATOM     75  C   UNL A   1      45.169  27.444  40.817  1.00  0.00     0.022 A 
BRANCH  72  76
ATOM     76  S   UNL A   1      46.790  29.709  40.937  1.00  0.00     0.124 S 
ATOM     77  O   UNL A   1      46.500  30.874  40.102  1.00  0.00    -0.237 OA
ATOM     78  O   UNL A   1      46.189  29.710  42.265  1.00  0.00    -0.237 OA
ATOM     79  O   UNL A   1      48.174  29.241  40.878  1.00  0.00    -0.744 OA
ENDBRANCH  72  76
ENDBRANCH  55  69
BRANCH  56  80
ATOM     80  C   UNL A   1      46.398  26.992  27.949  1.00  0.00     0.023 A 
ATOM     81  C   UNL A   1      46.168  25.827  27.204  1.00  0.00     0.031 A 
ATOM     82  C   UNL A   1      46.793  28.149  27.255  1.00  0.00     0.131 A 
ATOM     83  C   UNL A   1      46.392  25.823  25.820  1.00  0.00     0.055 A 
ATOM     84  C   UNL A   1      46.947  28.160  25.867  1.00  0.00     0.041 A 
ATOM     85  F   UNL A   1      47.020  29.295  27.916  1.00  0.00    -0.206 F 
ATOM     86  C   UNL A   1      46.762  26.987  25.143  1.00  0.00     0.022 A 
BRANCH  83  87
ATOM     87  S   UNL A   1      46.314  24.241  24.939  1.00  0.00     0.124 S 
ATOM     88  O   UNL A   1      47.315  24.435  23.895  1.00  0.00    -0.237 OA
ATOM     89  O   UNL A   1      46.659  23.291  25.991  1.00  0.00    -0.237 OA
ATOM     90  O   UNL A   1      44.930  24.178  24.474  1.00  0.00    -0.744 OA
ENDBRANCH  83  87
ENDBRANCH  56  80
BRANCH  68  91
ATOM     91  C   UNL A   1      50.457  25.001  33.282  1.00  0.00     0.023 A 
ATOM     92  C   UNL A   1      50.568  23.603  33.276  1.00  0.00     0.031 A 
ATOM     93  C   UNL A   1      51.635  25.769  33.298  1.00  0.00     0.131 A 
ATOM     94  C   UNL A   1      51.836  23.014  33.340  1.00  0.00     0.055 A 
ATOM     95  C   UNL A   1      52.894  25.176  33.276  1.00  0.00     0.041 A 
ATOM     96  F   UNL A   1      51.578  27.111  33.309  1.00  0.00    -0.206 F 
ATOM     97  C   UNL A   1      52.999  23.789  33.310  1.00  0.00     0.022 A 
BRANCH  94  98
ATOM     98  S   UNL A   1      51.941  21.221  33.571  1.00  0.00     0.124 S 
ATOM     99  O   UNL A   1      51.955  20.740  32.193  1.00  0.00    -0.237 OA
ATOM    100  O   UNL A   1      53.191  21.072  34.309  1.00  0.00    -0.237 OA
ATOM    101  O   UNL A   1      50.731  20.903  34.328  1.00  0.00    -0.744 OA
ENDBRANCH  94  98
ENDBRANCH  68  91
ENDBRANCH  42  43
ENDBRANCH  35  37
ENDBRANCH  34  35
ENDBRANCH  33  34
ENDBRANCH  32  33
ENDBRANCH  31  32
ENDBRANCH   1  31
TORSDOF 24
ENDMDL
