MODEL 1
REMARK VINA RESULT:      -9.7      0.000      0.000
REMARK SMILES CC(C)N(CC1CC1)C(=O)N[C@@H]1C=C[C@H](C(=O)OCCOCCOCCOC(=O)c2ccc(-c3c4nc(c(-c5cc(S(=O)(=O)[O-])ccc5F)c5ccc([nH]5)c(-c5cc(S(=O)(=O)[O-])ccc5F)c5nc(c(-c6cc(S(=O)(=O)[O-])ccc6F)c6ccc3[nH]6)C=C5)C=C4)cc2)C1
REMARK SMILES IDX 22 1 21 2 20 3 19 4 18 5 16 6 17 7 15 8 12 9 13 10 93 11
REMARK SMILES IDX 14 12 11 13 9 14 10 15 4 17 2 18 1 19 3 20 5 21 6 22 7 23
REMARK SMILES IDX 8 24 23 25 24 26 25 27 26 28 27 29 28 30 29 31 30 32 31 33
REMARK SMILES IDX 92 34 32 35 91 36 33 37 34 38 35 39 85 40 36 41 90 42 84 43
REMARK SMILES IDX 86 44 37 45 89 46 83 47 82 48 38 50 70 51 50 52 69 53 51 54
REMARK SMILES IDX 54 55 68 56 87 57 52 58 53 59 67 61 88 62 55 63 39 64 40 65
REMARK SMILES IDX 48 66 41 67 47 68 49 69 46 70 42 71 43 72 44 73 45 74 71 75
REMARK SMILES IDX 72 76 80 77 73 78 79 79 81 80 78 81 74 82 75 83 76 84 77 85
REMARK SMILES IDX 56 86 57 87 65 88 58 89 64 90 66 91 63 92 59 93 60 94 61 95
REMARK SMILES IDX 62 96
REMARK H PARENT 11 16 86 49 54 60
REMARK Flexibility Score: inf
ROOT
ATOM      1  C   UNL A   1      33.932  21.146  25.381  1.00  0.00     0.188 C 
ENDROOT
BRANCH   1   2
ATOM      2  O   UNL A   1      32.873  22.091  25.433  1.00  0.00    -0.376 OA
BRANCH   2   3
ATOM      3  C   UNL A   1      31.866  21.933  26.417  1.00  0.00     0.202 C 
BRANCH   3   4
ATOM      4  C   UNL A   1      30.753  22.972  26.523  1.00  0.00     0.261 C 
BRANCH   4   5
ATOM      5  O   UNL A   1      31.141  24.246  27.070  1.00  0.00    -0.463 OA
BRANCH   5   6
ATOM      6  C   UNL A   1      31.010  25.284  26.194  1.00  0.00     0.312 C 
ATOM      7  O   UNL A   1      30.379  26.309  26.446  1.00  0.00    -0.252 OA
BRANCH   6   8
ATOM      8  C   UNL A   1      31.566  24.996  24.798  1.00  0.00     0.124 C 
ATOM      9  C   UNL A   1      31.996  26.368  22.781  1.00  0.00     0.107 C 
ATOM     10  C   UNL A   1      30.624  25.808  22.786  1.00  0.00    -0.006 C 
ATOM     11  C   UNL A   1      32.545  25.996  24.170  1.00  0.00     0.048 C 
ATOM     12  C   UNL A   1      30.413  25.013  23.836  1.00  0.00    -0.014 C 
BRANCH   9  13
ATOM     13  N   UNL A   1      32.077  27.789  22.511  1.00  0.00    -0.332 N 
ATOM     14  C   UNL A   1      32.756  28.714  23.260  1.00  0.00     0.318 C 
ATOM     15  O   UNL A   1      33.914  28.981  22.958  1.00  0.00    -0.249 OA
ATOM     16  H   UNL A   1      31.600  28.120  21.716  1.00  0.00     0.165 HD
BRANCH  14  17
ATOM     17  N   UNL A   1      32.006  29.356  24.243  1.00  0.00    -0.322 N 
BRANCH  17  18
ATOM     18  C   UNL A   1      32.633  29.901  25.481  1.00  0.00     0.080 C 
ATOM     19  C   UNL A   1      31.737  30.834  26.294  1.00  0.00     0.031 C 
ATOM     20  C   UNL A   1      33.251  28.816  26.362  1.00  0.00     0.031 C 
ENDBRANCH  17  18
BRANCH  17  21
ATOM     21  C   UNL A   1      30.544  29.308  24.240  1.00  0.00     0.125 C 
BRANCH  21  22
ATOM     22  C   UNL A   1      29.887  30.262  23.282  1.00  0.00     0.009 C 
ATOM     23  C   UNL A   1      28.841  29.736  22.332  1.00  0.00     0.006 C 
ATOM     24  C   UNL A   1      28.453  30.728  23.386  1.00  0.00     0.006 C 
ENDBRANCH  21  22
ENDBRANCH  17  21
ENDBRANCH  14  17
ENDBRANCH   9  13
ENDBRANCH   6   8
ENDBRANCH   5   6
ENDBRANCH   4   5
ENDBRANCH   3   4
ENDBRANCH   2   3
ENDBRANCH   1   2
BRANCH   1  25
ATOM     25  C   UNL A   1      35.216  21.385  26.201  1.00  0.00     0.188 C 
BRANCH  25  26
ATOM     26  O   UNL A   1      36.438  21.709  25.556  1.00  0.00    -0.376 OA
BRANCH  26  27
ATOM     27  C   UNL A   1      36.986  20.743  24.661  1.00  0.00     0.202 C 
BRANCH  27  28
ATOM     28  C   UNL A   1      38.114  19.876  25.214  1.00  0.00     0.261 C 
BRANCH  28  29
ATOM     29  O   UNL A   1      39.341  20.624  25.265  1.00  0.00    -0.460 OA
BRANCH  29  30
ATOM     30  C   UNL A   1      40.069  20.425  26.390  1.00  0.00     0.338 C 
ATOM     31  O   UNL A   1      40.547  19.377  26.782  1.00  0.00    -0.246 OA
BRANCH  30  32
ATOM     32  C   UNL A   1      40.363  21.729  27.003  1.00  0.00     0.060 A 
ATOM     33  C   UNL A   1      39.739  22.854  26.465  1.00  0.00     0.016 A 
ATOM     34  C   UNL A   1      41.302  21.859  28.028  1.00  0.00     0.016 A 
ATOM     35  C   UNL A   1      40.065  24.115  26.947  1.00  0.00     0.010 A 
ATOM     36  C   UNL A   1      41.661  23.139  28.476  1.00  0.00     0.010 A 
ATOM     37  C   UNL A   1      41.065  24.278  27.913  1.00  0.00    -0.014 A 
BRANCH  37  38
ATOM     38  C   UNL A   1      41.588  25.647  28.166  1.00  0.00     0.031 A 
ATOM     39  C   UNL A   1      42.935  26.019  27.602  1.00  0.00     0.074 A 
ATOM     40  C   UNL A   1      40.832  26.587  28.763  1.00  0.00     0.049 A 
ATOM     41  N   UNL A   1      43.581  27.155  27.665  1.00  0.00    -0.248 NA
ATOM     42  C   UNL A   1      43.636  24.969  26.847  1.00  0.00     0.031 C 
ATOM     43  C   UNL A   1      39.454  26.396  29.205  1.00  0.00     0.029 A 
ATOM     44  N   UNL A   1      41.097  27.907  29.042  1.00  0.00    -0.354 N 
ATOM     45  C   UNL A   1      44.773  26.953  26.978  1.00  0.00     0.074 A 
ATOM     46  C   UNL A   1      44.752  25.588  26.493  1.00  0.00     0.031 C 
ATOM     47  C   UNL A   1      38.973  27.571  29.651  1.00  0.00     0.029 A 
ATOM     48  C   UNL A   1      40.024  28.586  29.576  1.00  0.00     0.049 A 
ATOM     49  H   UNL A   1      41.971  28.328  28.876  1.00  0.00     0.167 HD
ATOM     50  C   UNL A   1      45.802  27.815  26.790  1.00  0.00     0.034 A 
ATOM     51  C   UNL A   1      39.906  29.877  29.951  1.00  0.00     0.034 A 
ATOM     52  C   UNL A   1      45.832  29.161  27.303  1.00  0.00     0.049 A 
ATOM     53  C   UNL A   1      41.110  30.785  29.828  1.00  0.00     0.074 A 
ATOM     54  C   UNL A   1      46.864  30.081  27.254  1.00  0.00     0.029 A 
ATOM     55  N   UNL A   1      44.781  29.780  27.966  1.00  0.00    -0.354 N 
ATOM     56  N   UNL A   1      42.270  30.554  29.259  1.00  0.00    -0.248 NA
ATOM     57  C   UNL A   1      40.992  32.124  30.426  1.00  0.00     0.031 C 
ATOM     58  C   UNL A   1      46.461  31.232  27.944  1.00  0.00     0.029 A 
ATOM     59  C   UNL A   1      45.151  31.056  28.361  1.00  0.00     0.049 A 
ATOM     60  H   UNL A   1      43.901  29.371  28.132  1.00  0.00     0.167 HD
ATOM     61  C   UNL A   1      43.015  31.720  29.428  1.00  0.00     0.074 A 
ATOM     62  C   UNL A   1      42.160  32.666  30.112  1.00  0.00     0.031 C 
ATOM     63  C   UNL A   1      44.296  31.983  29.062  1.00  0.00     0.034 A 
BRANCH  50  64
ATOM     64  C   UNL A   1      47.026  27.271  26.099  1.00  0.00     0.023 A 
ATOM     65  C   UNL A   1      48.037  26.586  26.795  1.00  0.00     0.031 A 
ATOM     66  C   UNL A   1      47.203  27.494  24.721  1.00  0.00     0.131 A 
ATOM     67  C   UNL A   1      49.204  26.196  26.120  1.00  0.00     0.055 A 
ATOM     68  C   UNL A   1      48.337  27.049  24.044  1.00  0.00     0.041 A 
ATOM     69  F   UNL A   1      46.280  28.166  24.015  1.00  0.00    -0.206 F 
ATOM     70  C   UNL A   1      49.353  26.407  24.746  1.00  0.00     0.022 A 
BRANCH  67  71
ATOM     71  S   UNL A   1      50.586  25.522  27.084  1.00  0.00     0.124 S 
ATOM     72  O   UNL A   1      51.596  25.309  26.050  1.00  0.00    -0.237 OA
ATOM     73  O   UNL A   1      50.860  26.594  28.035  1.00  0.00    -0.237 OA
ATOM     74  O   UNL A   1      50.034  24.300  27.666  1.00  0.00    -0.744 OA
ENDBRANCH  67  71
ENDBRANCH  50  64
BRANCH  51  75
ATOM     75  C   UNL A   1      38.628  30.407  30.519  1.00  0.00     0.023 A 
ATOM     76  C   UNL A   1      37.642  30.958  29.681  1.00  0.00     0.031 A 
ATOM     77  C   UNL A   1      38.411  30.461  31.907  1.00  0.00     0.131 A 
ATOM     78  C   UNL A   1      36.513  31.580  30.240  1.00  0.00     0.055 A 
ATOM     79  C   UNL A   1      37.257  31.022  32.454  1.00  0.00     0.041 A 
ATOM     80  F   UNL A   1      39.329  29.975  32.759  1.00  0.00    -0.206 F 
ATOM     81  C   UNL A   1      36.306  31.600  31.620  1.00  0.00     0.022 A 
BRANCH  78  82
ATOM     82  S   UNL A   1      35.376  32.471  29.141  1.00  0.00     0.124 S 
ATOM     83  O   UNL A   1      34.548  33.201  30.096  1.00  0.00    -0.237 OA
ATOM     84  O   UNL A   1      36.293  33.277  28.340  1.00  0.00    -0.237 OA
ATOM     85  O   UNL A   1      34.693  31.403  28.415  1.00  0.00    -0.744 OA
ENDBRANCH  78  82
ENDBRANCH  51  75
BRANCH  63  86
ATOM     86  C   UNL A   1      44.844  33.349  29.399  1.00  0.00     0.023 A 
ATOM     87  C   UNL A   1      45.426  33.618  30.650  1.00  0.00     0.031 A 
ATOM     88  C   UNL A   1      44.791  34.391  28.457  1.00  0.00     0.131 A 
ATOM     89  C   UNL A   1      45.890  34.909  30.946  1.00  0.00     0.055 A 
ATOM     90  C   UNL A   1      45.300  35.661  28.738  1.00  0.00     0.041 A 
ATOM     91  F   UNL A   1      44.249  34.191  27.245  1.00  0.00    -0.206 F 
ATOM     92  C   UNL A   1      45.844  35.928  29.992  1.00  0.00     0.022 A 
BRANCH  89  93
ATOM     93  S   UNL A   1      46.496  35.259  32.620  1.00  0.00     0.124 S 
ATOM     94  O   UNL A   1      46.981  33.950  33.047  1.00  0.00    -0.237 OA
ATOM     95  O   UNL A   1      47.520  36.269  32.377  1.00  0.00    -0.237 OA
ATOM     96  O   UNL A   1      45.308  35.739  33.322  1.00  0.00    -0.744 OA
ENDBRANCH  89  93
ENDBRANCH  63  86
ENDBRANCH  37  38
ENDBRANCH  30  32
ENDBRANCH  29  30
ENDBRANCH  28  29
ENDBRANCH  27  28
ENDBRANCH  26  27
ENDBRANCH  25  26
ENDBRANCH   1  25
TORSDOF 25
ENDMDL
MODEL 2
REMARK VINA RESULT:      -8.7      4.566      8.833
REMARK SMILES CC(C)N(CC1CC1)C(=O)N[C@@H]1C=C[C@H](C(=O)OCCOCCOCCOC(=O)c2ccc(-c3c4nc(c(-c5cc(S(=O)(=O)[O-])ccc5F)c5ccc([nH]5)c(-c5cc(S(=O)(=O)[O-])ccc5F)c5nc(c(-c6cc(S(=O)(=O)[O-])ccc6F)c6ccc3[nH]6)C=C5)C=C4)cc2)C1
REMARK SMILES IDX 22 1 21 2 20 3 19 4 18 5 16 6 17 7 15 8 12 9 13 10 93 11
REMARK SMILES IDX 14 12 11 13 9 14 10 15 4 17 2 18 1 19 3 20 5 21 6 22 7 23
REMARK SMILES IDX 8 24 23 25 24 26 25 27 26 28 27 29 28 30 29 31 30 32 31 33
REMARK SMILES IDX 92 34 32 35 91 36 33 37 34 38 35 39 85 40 36 41 90 42 84 43
REMARK SMILES IDX 86 44 37 45 89 46 83 47 82 48 38 50 70 51 50 52 69 53 51 54
REMARK SMILES IDX 54 55 68 56 87 57 52 58 53 59 67 61 88 62 55 63 39 64 40 65
REMARK SMILES IDX 48 66 41 67 47 68 49 69 46 70 42 71 43 72 44 73 45 74 71 75
REMARK SMILES IDX 72 76 80 77 73 78 79 79 81 80 78 81 74 82 75 83 76 84 77 85
REMARK SMILES IDX 56 86 57 87 65 88 58 89 64 90 66 91 63 92 59 93 60 94 61 95
REMARK SMILES IDX 62 96
REMARK H PARENT 11 16 86 49 54 60
REMARK Flexibility Score: inf
ROOT
ATOM      1  C   UNL A   1      33.208  31.231  27.220  1.00  0.00     0.188 C 
ENDROOT
BRANCH   1   2
ATOM      2  O   UNL A   1      33.586  29.865  27.135  1.00  0.00    -0.376 OA
BRANCH   2   3
ATOM      3  C   UNL A   1      32.573  28.875  27.145  1.00  0.00     0.202 C 
BRANCH   3   4
ATOM      4  C   UNL A   1      32.502  27.865  26.003  1.00  0.00     0.261 C 
BRANCH   4   5
ATOM      5  O   UNL A   1      32.648  26.484  26.384  1.00  0.00    -0.463 OA
BRANCH   5   6
ATOM      6  C   UNL A   1      31.492  25.763  26.297  1.00  0.00     0.312 C 
ATOM      7  O   UNL A   1      30.429  26.232  25.895  1.00  0.00    -0.252 OA
BRANCH   6   8
ATOM      8  C   UNL A   1      31.582  24.365  26.911  1.00  0.00     0.124 C 
ATOM      9  C   UNL A   1      31.877  22.081  25.999  1.00  0.00     0.107 C 
ATOM     10  C   UNL A   1      30.447  22.461  26.083  1.00  0.00    -0.006 C 
ATOM     11  C   UNL A   1      32.620  23.380  26.360  1.00  0.00     0.048 C 
ATOM     12  C   UNL A   1      30.283  23.663  26.638  1.00  0.00    -0.014 C 
BRANCH   9  13
ATOM     13  N   UNL A   1      32.292  21.537  24.722  1.00  0.00    -0.332 N 
ATOM     14  C   UNL A   1      33.580  21.265  24.343  1.00  0.00     0.318 C 
ATOM     15  O   UNL A   1      34.024  20.137  24.533  1.00  0.00    -0.249 OA
ATOM     16  H   UNL A   1      31.583  21.346  24.067  1.00  0.00     0.165 HD
BRANCH  14  17
ATOM     17  N   UNL A   1      34.234  22.289  23.661  1.00  0.00    -0.322 N 
BRANCH  17  18
ATOM     18  C   UNL A   1      35.463  22.936  24.202  1.00  0.00     0.080 C 
ATOM     19  C   UNL A   1      35.926  22.397  25.555  1.00  0.00     0.031 C 
ATOM     20  C   UNL A   1      36.610  22.969  23.194  1.00  0.00     0.031 C 
ENDBRANCH  17  18
BRANCH  17  21
ATOM     21  C   UNL A   1      33.618  22.954  22.513  1.00  0.00     0.125 C 
BRANCH  21  22
ATOM     22  C   UNL A   1      33.252  24.393  22.744  1.00  0.00     0.009 C 
ATOM     23  C   UNL A   1      32.634  25.178  21.614  1.00  0.00     0.006 C 
ATOM     24  C   UNL A   1      31.837  24.910  22.855  1.00  0.00     0.006 C 
ENDBRANCH  21  22
ENDBRANCH  17  21
ENDBRANCH  14  17
ENDBRANCH   9  13
ENDBRANCH   6   8
ENDBRANCH   5   6
ENDBRANCH   4   5
ENDBRANCH   3   4
ENDBRANCH   2   3
ENDBRANCH   1   2
BRANCH   1  25
ATOM     25  C   UNL A   1      34.034  32.204  28.087  1.00  0.00     0.188 C 
BRANCH  25  26
ATOM     26  O   UNL A   1      33.891  33.608  27.936  1.00  0.00    -0.376 OA
BRANCH  26  27
ATOM     27  C   UNL A   1      34.647  34.444  28.809  1.00  0.00     0.202 C 
BRANCH  27  28
ATOM     28  C   UNL A   1      34.163  34.523  30.255  1.00  0.00     0.261 C 
BRANCH  28  29
ATOM     29  O   UNL A   1      35.209  34.122  31.155  1.00  0.00    -0.460 OA
BRANCH  29  30
ATOM     30  C   UNL A   1      35.040  32.890  31.693  1.00  0.00     0.338 C 
ATOM     31  O   UNL A   1      34.006  32.405  32.113  1.00  0.00    -0.246 OA
BRANCH  30  32
ATOM     32  C   UNL A   1      36.286  32.125  31.530  1.00  0.00     0.060 A 
ATOM     33  C   UNL A   1      36.356  30.865  32.124  1.00  0.00     0.016 A 
ATOM     34  C   UNL A   1      37.397  32.670  30.885  1.00  0.00     0.016 A 
ATOM     35  C   UNL A   1      37.548  30.153  32.081  1.00  0.00     0.010 A 
ATOM     36  C   UNL A   1      38.610  31.964  30.887  1.00  0.00     0.010 A 
ATOM     37  C   UNL A   1      38.699  30.712  31.515  1.00  0.00    -0.014 A 
BRANCH  37  38
ATOM     38  C   UNL A   1      40.005  30.049  31.767  1.00  0.00     0.031 A 
ATOM     39  C   UNL A   1      40.501  29.032  30.771  1.00  0.00     0.074 A 
ATOM     40  C   UNL A   1      40.804  30.434  32.781  1.00  0.00     0.049 A 
ATOM     41  N   UNL A   1      41.617  28.350  30.760  1.00  0.00    -0.248 NA
ATOM     42  C   UNL A   1      39.624  28.770  29.619  1.00  0.00     0.031 C 
ATOM     43  C   UNL A   1      40.508  31.517  33.713  1.00  0.00     0.029 A 
ATOM     44  N   UNL A   1      42.052  29.997  33.154  1.00  0.00    -0.354 N 
ATOM     45  C   UNL A   1      41.568  27.560  29.616  1.00  0.00     0.074 A 
ATOM     46  C   UNL A   1      40.318  27.862  28.950  1.00  0.00     0.031 C 
ATOM     47  C   UNL A   1      41.570  31.698  34.519  1.00  0.00     0.029 A 
ATOM     48  C   UNL A   1      42.600  30.711  34.197  1.00  0.00     0.049 A 
ATOM     49  H   UNL A   1      42.513  29.244  32.718  1.00  0.00     0.167 HD
ATOM     50  C   UNL A   1      42.469  26.648  29.175  1.00  0.00     0.034 A 
ATOM     51  C   UNL A   1      43.796  30.585  34.809  1.00  0.00     0.034 A 
ATOM     52  C   UNL A   1      43.695  26.328  29.859  1.00  0.00     0.049 A 
ATOM     53  C   UNL A   1      44.732  29.484  34.361  1.00  0.00     0.074 A 
ATOM     54  C   UNL A   1      44.627  25.352  29.550  1.00  0.00     0.029 A 
ATOM     55  N   UNL A   1      44.160  26.973  30.996  1.00  0.00    -0.354 N 
ATOM     56  N   UNL A   1      44.634  28.678  33.330  1.00  0.00    -0.248 NA
ATOM     57  C   UNL A   1      45.934  29.264  35.181  1.00  0.00     0.031 C 
ATOM     58  C   UNL A   1      45.621  25.365  30.538  1.00  0.00     0.029 A 
ATOM     59  C   UNL A   1      45.347  26.396  31.422  1.00  0.00     0.049 A 
ATOM     60  H   UNL A   1      43.712  27.730  31.438  1.00  0.00     0.167 HD
ATOM     61  C   UNL A   1      45.761  27.859  33.379  1.00  0.00     0.074 A 
ATOM     62  C   UNL A   1      46.546  28.297  34.512  1.00  0.00     0.031 C 
ATOM     63  C   UNL A   1      46.111  26.828  32.567  1.00  0.00     0.034 A 
BRANCH  50  64
ATOM     64  C   UNL A   1      42.086  25.853  27.953  1.00  0.00     0.023 A 
ATOM     65  C   UNL A   1      41.548  24.557  28.042  1.00  0.00     0.031 A 
ATOM     66  C   UNL A   1      42.318  26.389  26.674  1.00  0.00     0.131 A 
ATOM     67  C   UNL A   1      41.311  23.821  26.871  1.00  0.00     0.055 A 
ATOM     68  C   UNL A   1      42.022  25.676  25.513  1.00  0.00     0.041 A 
ATOM     69  F   UNL A   1      42.855  27.611  26.534  1.00  0.00    -0.206 F 
ATOM     70  C   UNL A   1      41.527  24.378  25.607  1.00  0.00     0.022 A 
BRANCH  67  71
ATOM     71  S   UNL A   1      40.835  22.076  27.017  1.00  0.00     0.124 S 
ATOM     72  O   UNL A   1      41.682  21.449  26.005  1.00  0.00    -0.237 OA
ATOM     73  O   UNL A   1      41.167  21.774  28.405  1.00  0.00    -0.237 OA
ATOM     74  O   UNL A   1      39.407  22.082  26.706  1.00  0.00    -0.744 OA
ENDBRANCH  67  71
ENDBRANCH  50  64
BRANCH  51  75
ATOM     75  C   UNL A   1      44.187  31.481  35.940  1.00  0.00     0.023 A 
ATOM     76  C   UNL A   1      43.541  31.392  37.186  1.00  0.00     0.031 A 
ATOM     77  C   UNL A   1      45.140  32.501  35.770  1.00  0.00     0.131 A 
ATOM     78  C   UNL A   1      43.818  32.333  38.191  1.00  0.00     0.055 A 
ATOM     79  C   UNL A   1      45.459  33.394  36.794  1.00  0.00     0.041 A 
ATOM     80  F   UNL A   1      45.771  32.654  34.595  1.00  0.00    -0.206 F 
ATOM     81  C   UNL A   1      44.786  33.323  38.009  1.00  0.00     0.022 A 
BRANCH  78  82
ATOM     82  S   UNL A   1      42.808  32.321  39.700  1.00  0.00     0.124 S 
ATOM     83  O   UNL A   1      43.390  31.206  40.440  1.00  0.00    -0.237 OA
ATOM     84  O   UNL A   1      43.058  33.652  40.245  1.00  0.00    -0.237 OA
ATOM     85  O   UNL A   1      41.453  32.098  39.201  1.00  0.00    -0.744 OA
ENDBRANCH  78  82
ENDBRANCH  51  75
BRANCH  63  86
ATOM     86  C   UNL A   1      47.399  26.108  32.883  1.00  0.00     0.023 A 
ATOM     87  C   UNL A   1      47.431  25.014  33.767  1.00  0.00     0.031 A 
ATOM     88  C   UNL A   1      48.607  26.512  32.289  1.00  0.00     0.131 A 
ATOM     89  C   UNL A   1      48.651  24.392  34.070  1.00  0.00     0.055 A 
ATOM     90  C   UNL A   1      49.811  25.857  32.553  1.00  0.00     0.041 A 
ATOM     91  F   UNL A   1      48.636  27.548  31.435  1.00  0.00    -0.206 F 
ATOM     92  C   UNL A   1      49.840  24.797  33.457  1.00  0.00     0.022 A 
BRANCH  89  93
ATOM     93  S   UNL A   1      48.678  23.084  35.327  1.00  0.00     0.124 S 
ATOM     94  O   UNL A   1      47.838  22.059  34.717  1.00  0.00    -0.237 OA
ATOM     95  O   UNL A   1      50.100  22.770  35.422  1.00  0.00    -0.237 OA
ATOM     96  O   UNL A   1      48.108  23.730  36.507  1.00  0.00    -0.744 OA
ENDBRANCH  89  93
ENDBRANCH  63  86
ENDBRANCH  37  38
ENDBRANCH  30  32
ENDBRANCH  29  30
ENDBRANCH  28  29
ENDBRANCH  27  28
ENDBRANCH  26  27
ENDBRANCH  25  26
ENDBRANCH   1  25
TORSDOF 25
ENDMDL
MODEL 3
REMARK VINA RESULT:      -8.7      4.308      7.407
REMARK SMILES CC(C)N(CC1CC1)C(=O)N[C@@H]1C=C[C@H](C(=O)OCCOCCOCCOC(=O)c2ccc(-c3c4nc(c(-c5cc(S(=O)(=O)[O-])ccc5F)c5ccc([nH]5)c(-c5cc(S(=O)(=O)[O-])ccc5F)c5nc(c(-c6cc(S(=O)(=O)[O-])ccc6F)c6ccc3[nH]6)C=C5)C=C4)cc2)C1
REMARK SMILES IDX 22 1 21 2 20 3 19 4 18 5 16 6 17 7 15 8 12 9 13 10 93 11
REMARK SMILES IDX 14 12 11 13 9 14 10 15 4 17 2 18 1 19 3 20 5 21 6 22 7 23
REMARK SMILES IDX 8 24 23 25 24 26 25 27 26 28 27 29 28 30 29 31 30 32 31 33
REMARK SMILES IDX 92 34 32 35 91 36 33 37 34 38 35 39 85 40 36 41 90 42 84 43
REMARK SMILES IDX 86 44 37 45 89 46 83 47 82 48 38 50 70 51 50 52 69 53 51 54
REMARK SMILES IDX 54 55 68 56 87 57 52 58 53 59 67 61 88 62 55 63 39 64 40 65
REMARK SMILES IDX 48 66 41 67 47 68 49 69 46 70 42 71 43 72 44 73 45 74 71 75
REMARK SMILES IDX 72 76 80 77 73 78 79 79 81 80 78 81 74 82 75 83 76 84 77 85
REMARK SMILES IDX 56 86 57 87 65 88 58 89 64 90 66 91 63 92 59 93 60 94 61 95
REMARK SMILES IDX 62 96
REMARK H PARENT 11 16 86 49 54 60
REMARK Flexibility Score: inf
ROOT
ATOM      1  C   UNL A   1      40.927  21.935  27.271  1.00  0.00     0.188 C 
ENDROOT
BRANCH   1   2
ATOM      2  O   UNL A   1      40.098  22.978  26.778  1.00  0.00    -0.376 OA
BRANCH   2   3
ATOM      3  C   UNL A   1      38.883  22.638  26.135  1.00  0.00     0.202 C 
BRANCH   3   4
ATOM      4  C   UNL A   1      37.726  23.633  26.145  1.00  0.00     0.261 C 
BRANCH   4   5
ATOM      5  O   UNL A   1      36.799  23.520  25.049  1.00  0.00    -0.463 OA
BRANCH   5   6
ATOM      6  C   UNL A   1      35.576  23.033  25.411  1.00  0.00     0.312 C 
ATOM      7  O   UNL A   1      35.166  23.021  26.570  1.00  0.00    -0.252 OA
BRANCH   6   8
ATOM      8  C   UNL A   1      34.823  22.335  24.276  1.00  0.00     0.124 C 
ATOM      9  C   UNL A   1      33.118  23.046  22.627  1.00  0.00     0.107 C 
ATOM     10  C   UNL A   1      32.500  22.548  23.878  1.00  0.00    -0.006 C 
ATOM     11  C   UNL A   1      34.622  23.082  22.952  1.00  0.00     0.048 C 
ATOM     12  C   UNL A   1      33.415  22.100  24.741  1.00  0.00    -0.014 C 
BRANCH   9  13
ATOM     13  N   UNL A   1      32.616  24.323  22.162  1.00  0.00    -0.332 N 
ATOM     14  C   UNL A   1      33.107  25.556  22.507  1.00  0.00     0.318 C 
ATOM     15  O   UNL A   1      33.964  26.068  21.795  1.00  0.00    -0.249 OA
ATOM     16  H   UNL A   1      31.852  24.304  21.543  1.00  0.00     0.165 HD
BRANCH  14  17
ATOM     17  N   UNL A   1      32.486  26.165  23.595  1.00  0.00    -0.322 N 
BRANCH  17  18
ATOM     18  C   UNL A   1      33.220  26.454  24.860  1.00  0.00     0.080 C 
ATOM     19  C   UNL A   1      33.134  27.905  25.333  1.00  0.00     0.031 C 
ATOM     20  C   UNL A   1      32.871  25.481  25.985  1.00  0.00     0.031 C 
ENDBRANCH  17  18
BRANCH  17  21
ATOM     21  C   UNL A   1      31.033  26.324  23.653  1.00  0.00     0.125 C 
BRANCH  21  22
ATOM     22  C   UNL A   1      30.475  27.341  22.699  1.00  0.00     0.009 C 
ATOM     23  C   UNL A   1      29.220  28.087  23.081  1.00  0.00     0.006 C 
ATOM     24  C   UNL A   1      30.509  28.835  22.924  1.00  0.00     0.006 C 
ENDBRANCH  21  22
ENDBRANCH  17  21
ENDBRANCH  14  17
ENDBRANCH   9  13
ENDBRANCH   6   8
ENDBRANCH   5   6
ENDBRANCH   4   5
ENDBRANCH   3   4
ENDBRANCH   2   3
ENDBRANCH   1   2
BRANCH   1  25
ATOM     25  C   UNL A   1      41.844  21.161  26.303  1.00  0.00     0.188 C 
BRANCH  25  26
ATOM     26  O   UNL A   1      43.141  21.647  25.990  1.00  0.00    -0.376 OA
BRANCH  26  27
ATOM     27  C   UNL A   1      43.234  22.714  25.048  1.00  0.00     0.202 C 
BRANCH  27  28
ATOM     28  C   UNL A   1      44.583  22.888  24.357  1.00  0.00     0.261 C 
BRANCH  28  29
ATOM     29  O   UNL A   1      45.109  24.202  24.610  1.00  0.00    -0.460 OA
BRANCH  29  30
ATOM     30  C   UNL A   1      45.735  24.330  25.806  1.00  0.00     0.338 C 
ATOM     31  O   UNL A   1      46.633  23.638  26.245  1.00  0.00    -0.246 OA
BRANCH  30  32
ATOM     32  C   UNL A   1      45.285  25.576  26.446  1.00  0.00     0.060 A 
ATOM     33  C   UNL A   1      46.207  26.275  27.224  1.00  0.00     0.016 A 
ATOM     34  C   UNL A   1      43.959  26.003  26.359  1.00  0.00     0.016 A 
ATOM     35  C   UNL A   1      45.797  27.400  27.928  1.00  0.00     0.010 A 
ATOM     36  C   UNL A   1      43.542  27.113  27.111  1.00  0.00     0.010 A 
ATOM     37  C   UNL A   1      44.456  27.799  27.926  1.00  0.00    -0.014 A 
BRANCH  37  38
ATOM     38  C   UNL A   1      44.016  28.807  28.926  1.00  0.00     0.031 A 
ATOM     39  C   UNL A   1      43.784  28.359  30.346  1.00  0.00     0.074 A 
ATOM     40  C   UNL A   1      43.954  30.117  28.621  1.00  0.00     0.049 A 
ATOM     41  N   UNL A   1      43.430  29.058  31.394  1.00  0.00    -0.248 NA
ATOM     42  C   UNL A   1      44.005  26.931  30.622  1.00  0.00     0.031 C 
ATOM     43  C   UNL A   1      44.312  30.692  27.328  1.00  0.00     0.029 A 
ATOM     44  N   UNL A   1      43.629  31.203  29.397  1.00  0.00    -0.354 N 
ATOM     45  C   UNL A   1      43.363  28.153  32.449  1.00  0.00     0.074 A 
ATOM     46  C   UNL A   1      43.730  26.857  31.915  1.00  0.00     0.031 C 
ATOM     47  C   UNL A   1      44.239  32.033  27.414  1.00  0.00     0.029 A 
ATOM     48  C   UNL A   1      43.779  32.410  28.750  1.00  0.00     0.049 A 
ATOM     49  H   UNL A   1      43.317  31.127  30.328  1.00  0.00     0.167 HD
ATOM     50  C   UNL A   1      43.004  28.375  33.737  1.00  0.00     0.034 A 
ATOM     51  C   UNL A   1      43.577  33.670  29.193  1.00  0.00     0.034 A 
ATOM     52  C   UNL A   1      42.608  29.660  34.255  1.00  0.00     0.049 A 
ATOM     53  C   UNL A   1      43.070  33.875  30.604  1.00  0.00     0.074 A 
ATOM     54  C   UNL A   1      42.132  29.974  35.516  1.00  0.00     0.029 A 
ATOM     55  N   UNL A   1      42.636  30.847  33.536  1.00  0.00    -0.354 N 
ATOM     56  N   UNL A   1      42.921  32.997  31.569  1.00  0.00    -0.248 NA
ATOM     57  C   UNL A   1      42.682  35.244  30.974  1.00  0.00     0.031 C 
ATOM     58  C   UNL A   1      41.811  31.338  35.538  1.00  0.00     0.029 A 
ATOM     59  C   UNL A   1      42.154  31.889  34.314  1.00  0.00     0.049 A 
ATOM     60  H   UNL A   1      42.951  30.937  32.608  1.00  0.00     0.167 HD
ATOM     61  C   UNL A   1      42.425  33.712  32.658  1.00  0.00     0.074 A 
ATOM     62  C   UNL A   1      42.342  35.096  32.246  1.00  0.00     0.031 C 
ATOM     63  C   UNL A   1      42.057  33.263  33.886  1.00  0.00     0.034 A 
BRANCH  50  64
ATOM     64  C   UNL A   1      42.910  27.168  34.634  1.00  0.00     0.023 A 
ATOM     65  C   UNL A   1      44.018  26.677  35.346  1.00  0.00     0.031 A 
ATOM     66  C   UNL A   1      41.695  26.466  34.730  1.00  0.00     0.131 A 
ATOM     67  C   UNL A   1      43.900  25.486  36.081  1.00  0.00     0.055 A 
ATOM     68  C   UNL A   1      41.569  25.318  35.511  1.00  0.00     0.041 A 
ATOM     69  F   UNL A   1      40.614  26.878  34.048  1.00  0.00    -0.206 F 
ATOM     70  C   UNL A   1      42.679  24.814  36.183  1.00  0.00     0.022 A 
BRANCH  67  71
ATOM     71  S   UNL A   1      45.396  24.753  36.801  1.00  0.00     0.124 S 
ATOM     72  O   UNL A   1      45.306  23.372  36.334  1.00  0.00    -0.237 OA
ATOM     73  O   UNL A   1      46.458  25.560  36.210  1.00  0.00    -0.237 OA
ATOM     74  O   UNL A   1      45.206  24.930  38.239  1.00  0.00    -0.744 OA
ENDBRANCH  67  71
ENDBRANCH  50  64
BRANCH  51  75
ATOM     75  C   UNL A   1      43.803  34.850  28.303  1.00  0.00     0.023 A 
ATOM     76  C   UNL A   1      45.095  35.373  28.115  1.00  0.00     0.031 A 
ATOM     77  C   UNL A   1      42.729  35.532  27.705  1.00  0.00     0.131 A 
ATOM     78  C   UNL A   1      45.273  36.565  27.394  1.00  0.00     0.055 A 
ATOM     79  C   UNL A   1      42.918  36.680  26.935  1.00  0.00     0.041 A 
ATOM     80  F   UNL A   1      41.469  35.096  27.870  1.00  0.00    -0.206 F 
ATOM     81  C   UNL A   1      44.195  37.212  26.788  1.00  0.00     0.022 A 
BRANCH  78  82
ATOM     82  S   UNL A   1      46.920  37.326  27.361  1.00  0.00     0.124 S 
ATOM     83  O   UNL A   1      47.790  36.163  27.500  1.00  0.00    -0.237 OA
ATOM     84  O   UNL A   1      46.929  37.980  26.056  1.00  0.00    -0.237 OA
ATOM     85  O   UNL A   1      46.902  38.230  28.508  1.00  0.00    -0.744 OA
ENDBRANCH  78  82
ENDBRANCH  51  75
BRANCH  63  86
ATOM     86  C   UNL A   1      41.533  34.284  34.866  1.00  0.00     0.023 A 
ATOM     87  C   UNL A   1      42.396  34.983  35.729  1.00  0.00     0.031 A 
ATOM     88  C   UNL A   1      40.159  34.569  34.933  1.00  0.00     0.131 A 
ATOM     89  C   UNL A   1      41.873  35.896  36.656  1.00  0.00     0.055 A 
ATOM     90  C   UNL A   1      39.648  35.517  35.822  1.00  0.00     0.041 A 
ATOM     91  F   UNL A   1      39.288  33.935  34.131  1.00  0.00    -0.206 F 
ATOM     92  C   UNL A   1      40.505  36.179  36.698  1.00  0.00     0.022 A 
BRANCH  89  93
ATOM     93  S   UNL A   1      42.996  36.667  37.855  1.00  0.00     0.124 S 
ATOM     94  O   UNL A   1      42.064  37.329  38.763  1.00  0.00    -0.237 OA
ATOM     95  O   UNL A   1      43.709  35.517  38.401  1.00  0.00    -0.237 OA
ATOM     96  O   UNL A   1      43.808  37.566  37.037  1.00  0.00    -0.744 OA
ENDBRANCH  89  93
ENDBRANCH  63  86
ENDBRANCH  37  38
ENDBRANCH  30  32
ENDBRANCH  29  30
ENDBRANCH  28  29
ENDBRANCH  27  28
ENDBRANCH  26  27
ENDBRANCH  25  26
ENDBRANCH   1  25
TORSDOF 25
ENDMDL
