MODEL 1
REMARK VINA RESULT:     -12.4      0.000      0.000
REMARK SMILES Cc1cc(C(=O)OCCOCCOCCOC(=O)c2ccc(-c3c4nc(c(-c5cc(S(=O)(=O)[O-])ccc5F)c5ccc([nH]5)c(-c5cc(S(=O)(=O)[O-])ccc5F)c5nc(c(-c6cc(S(=O)(=O)[O-])ccc6F)c6ccc3[nH]6)C=C5)C=C4)cc2)ccc1NS(=O)(=O)c1ccc2c(c1)CCC2
REMARK SMILES IDX 11 1 10 2 9 3 8 4 7 5 5 6 6 7 4 8 1 9 2 10 3 11 84 12 83 13
REMARK SMILES IDX 82 14 85 15 86 17 87 18 88 19 89 20 90 21 94 22 91 23 93 24
REMARK SMILES IDX 92 25 95 26 97 27 96 28 12 29 13 30 14 31 15 32 16 33 17 34
REMARK SMILES IDX 18 35 19 36 20 37 81 38 21 39 80 40 22 41 23 42 24 43 74 44
REMARK SMILES IDX 25 45 79 46 73 47 75 48 26 49 78 50 72 51 71 52 27 54 59 55
REMARK SMILES IDX 39 56 58 57 40 58 43 59 57 60 76 61 41 62 42 63 56 65 77 66
REMARK SMILES IDX 44 67 28 68 29 69 37 70 30 71 36 72 38 73 35 74 31 75 32 76
REMARK SMILES IDX 33 77 34 78 60 79 61 80 69 81 62 82 68 83 70 84 67 85 63 86
REMARK SMILES IDX 64 87 65 88 66 89 45 90 46 91 54 92 47 93 53 94 55 95 52 96
REMARK SMILES IDX 48 97 49 98 50 99 51 100
REMARK H PARENT 85 16 75 53 43 64
REMARK Flexibility Score: inf
ROOT
ATOM      1  C   UNL A   1      43.660  19.168  25.708  1.00  0.00     0.188 C 
ENDROOT
BRANCH   1   2
ATOM      2  O   UNL A   1      42.274  19.554  25.865  1.00  0.00    -0.376 OA
BRANCH   2   3
ATOM      3  C   UNL A   1      41.915  20.042  27.166  1.00  0.00     0.202 C 
BRANCH   3   4
ATOM      4  C   UNL A   1      40.780  21.258  27.326  1.00  0.00     0.261 C 
BRANCH   4   5
ATOM      5  O   UNL A   1      39.555  21.887  26.311  1.00  0.00    -0.460 OA
BRANCH   5   6
ATOM      6  C   UNL A   1      38.504  21.473  25.462  1.00  0.00     0.338 C 
ATOM      7  O   UNL A   1      38.209  20.366  25.038  1.00  0.00    -0.246 OA
BRANCH   6   8
ATOM      8  C   UNL A   1      37.263  22.219  25.212  1.00  0.00     0.060 A 
ATOM      9  C   UNL A   1      34.114  22.801  27.331  1.00  0.00     0.046 C 
ATOM     10  C   UNL A   1      35.078  22.878  26.173  1.00  0.00    -0.026 A 
ATOM     11  C   UNL A   1      36.380  22.400  26.321  1.00  0.00     0.021 A 
ATOM     12  C   UNL A   1      34.715  23.270  24.890  1.00  0.00     0.052 A 
ATOM     13  C   UNL A   1      35.392  22.732  23.789  1.00  0.00     0.028 A 
ATOM     14  C   UNL A   1      36.676  22.194  23.954  1.00  0.00     0.018 A 
BRANCH  12  15
ATOM     15  N   UNL A   1      33.748  24.309  24.745  1.00  0.00    -0.279 N 
ATOM     16  H   UNL A   1      33.998  25.241  24.933  1.00  0.00     0.180 HD
BRANCH  15  17
ATOM     17  S   UNL A   1      32.160  23.942  24.246  1.00  0.00     0.261 S 
ATOM     18  O   UNL A   1      31.322  24.211  25.399  1.00  0.00    -0.201 OA
ATOM     19  O   UNL A   1      31.952  24.666  23.009  1.00  0.00    -0.201 OA
BRANCH  17  20
ATOM     20  C   UNL A   1      31.976  22.200  23.859  1.00  0.00     0.088 A 
ATOM     21  C   UNL A   1      31.836  21.721  22.543  1.00  0.00     0.022 A 
ATOM     22  C   UNL A   1      32.161  21.303  24.920  1.00  0.00     0.026 A 
ATOM     23  C   UNL A   1      32.127  20.374  22.257  1.00  0.00     0.005 A 
ATOM     24  C   UNL A   1      32.406  19.976  24.623  1.00  0.00    -0.043 A 
ATOM     25  C   UNL A   1      32.487  19.537  23.301  1.00  0.00    -0.045 A 
ATOM     26  C   UNL A   1      32.664  18.854  25.571  1.00  0.00     0.036 C 
ATOM     27  C   UNL A   1      33.037  18.142  23.244  1.00  0.00     0.036 C 
ATOM     28  C   UNL A   1      33.522  17.940  24.694  1.00  0.00     0.010 C 
ENDBRANCH  17  20
ENDBRANCH  15  17
ENDBRANCH  12  15
ENDBRANCH   6   8
ENDBRANCH   5   6
ENDBRANCH   4   5
ENDBRANCH   3   4
ENDBRANCH   2   3
ENDBRANCH   1   2
BRANCH   1  29
ATOM     29  C   UNL A   1      44.238  20.013  24.589  1.00  0.00     0.188 C 
BRANCH  29  30
ATOM     30  O   UNL A   1      45.100  20.928  25.258  1.00  0.00    -0.376 OA
BRANCH  30  31
ATOM     31  C   UNL A   1      44.472  22.049  25.834  1.00  0.00     0.202 C 
BRANCH  31  32
ATOM     32  C   UNL A   1      43.555  22.673  24.792  1.00  0.00     0.261 C 
BRANCH  32  33
ATOM     33  O   UNL A   1      42.644  23.589  25.443  1.00  0.00    -0.460 OA
BRANCH  33  34
ATOM     34  C   UNL A   1      43.012  24.914  25.348  1.00  0.00     0.338 C 
ATOM     35  O   UNL A   1      43.940  25.299  24.695  1.00  0.00    -0.246 OA
BRANCH  34  36
ATOM     36  C   UNL A   1      42.055  25.766  26.125  1.00  0.00     0.060 A 
ATOM     37  C   UNL A   1      41.702  27.062  25.797  1.00  0.00     0.016 A 
ATOM     38  C   UNL A   1      41.545  25.316  27.300  1.00  0.00     0.016 A 
ATOM     39  C   UNL A   1      41.107  27.959  26.769  1.00  0.00     0.010 A 
ATOM     40  C   UNL A   1      40.966  26.243  28.205  1.00  0.00     0.010 A 
ATOM     41  C   UNL A   1      40.856  27.651  28.122  1.00  0.00    -0.014 A 
BRANCH  41  42
ATOM     42  C   UNL A   1      40.640  28.857  29.319  1.00  0.00     0.031 A 
ATOM     43  C   UNL A   1      39.412  29.958  29.715  1.00  0.00     0.074 A 
ATOM     44  C   UNL A   1      41.663  29.092  30.175  1.00  0.00     0.049 A 
ATOM     45  N   UNL A   1      39.503  31.276  29.617  1.00  0.00    -0.248 NA
ATOM     46  C   UNL A   1      38.025  29.666  30.174  1.00  0.00     0.031 C 
ATOM     47  C   UNL A   1      41.714  30.064  31.266  1.00  0.00     0.029 A 
ATOM     48  N   UNL A   1      42.967  28.633  30.086  1.00  0.00    -0.354 N 
ATOM     49  C   UNL A   1      38.238  31.841  29.867  1.00  0.00     0.074 A 
ATOM     50  C   UNL A   1      37.322  30.774  30.006  1.00  0.00     0.031 C 
ATOM     51  C   UNL A   1      43.004  30.370  31.491  1.00  0.00     0.029 A 
ATOM     52  C   UNL A   1      43.798  29.669  30.499  1.00  0.00     0.049 A 
ATOM     53  H   UNL A   1      43.251  27.739  29.788  1.00  0.00     0.167 HD
ATOM     54  C   UNL A   1      37.968  33.118  30.261  1.00  0.00     0.034 A 
ATOM     55  C   UNL A   1      44.684  30.214  29.618  1.00  0.00     0.034 A 
ATOM     56  C   UNL A   1      39.187  33.726  30.699  1.00  0.00     0.049 A 
ATOM     57  C   UNL A   1      44.463  31.697  29.422  1.00  0.00     0.074 A 
ATOM     58  C   UNL A   1      39.819  33.670  31.928  1.00  0.00     0.029 A 
ATOM     59  N   UNL A   1      40.128  34.085  29.761  1.00  0.00    -0.354 N 
ATOM     60  N   UNL A   1      43.376  32.342  29.756  1.00  0.00    -0.248 NA
ATOM     61  C   UNL A   1      45.479  32.569  28.849  1.00  0.00     0.031 C 
ATOM     62  C   UNL A   1      41.199  33.888  31.698  1.00  0.00     0.029 A 
ATOM     63  C   UNL A   1      41.370  34.167  30.353  1.00  0.00     0.049 A 
ATOM     64  H   UNL A   1      39.942  34.256  28.809  1.00  0.00     0.167 HD
ATOM     65  C   UNL A   1      43.510  33.666  29.414  1.00  0.00     0.074 A 
ATOM     66  C   UNL A   1      44.864  33.762  28.902  1.00  0.00     0.031 C 
ATOM     67  C   UNL A   1      42.500  34.579  29.551  1.00  0.00     0.034 A 
BRANCH  54  68
ATOM     68  C   UNL A   1      36.562  33.567  30.648  1.00  0.00     0.023 A 
ATOM     69  C   UNL A   1      35.699  34.171  29.713  1.00  0.00     0.031 A 
ATOM     70  C   UNL A   1      36.054  33.456  31.966  1.00  0.00     0.131 A 
ATOM     71  C   UNL A   1      34.465  34.732  30.117  1.00  0.00     0.055 A 
ATOM     72  C   UNL A   1      34.861  34.069  32.378  1.00  0.00     0.041 A 
ATOM     73  F   UNL A   1      36.736  32.788  32.912  1.00  0.00    -0.206 F 
ATOM     74  C   UNL A   1      34.069  34.731  31.454  1.00  0.00     0.022 A 
BRANCH  71  75
ATOM     75  S   UNL A   1      33.360  35.459  28.870  1.00  0.00     0.124 S 
ATOM     76  O   UNL A   1      34.292  36.170  28.002  1.00  0.00    -0.237 OA
ATOM     77  O   UNL A   1      32.720  34.276  28.304  1.00  0.00    -0.237 OA
ATOM     78  O   UNL A   1      32.477  36.320  29.657  1.00  0.00    -0.744 OA
ENDBRANCH  71  75
ENDBRANCH  54  68
BRANCH  55  79
ATOM     79  C   UNL A   1      45.259  29.245  28.620  1.00  0.00     0.023 A 
ATOM     80  C   UNL A   1      46.097  28.218  29.127  1.00  0.00     0.031 A 
ATOM     81  C   UNL A   1      44.799  29.091  27.305  1.00  0.00     0.131 A 
ATOM     82  C   UNL A   1      46.313  27.030  28.414  1.00  0.00     0.055 A 
ATOM     83  C   UNL A   1      45.093  27.937  26.552  1.00  0.00     0.041 A 
ATOM     84  F   UNL A   1      43.974  29.995  26.756  1.00  0.00    -0.206 F 
ATOM     85  C   UNL A   1      45.825  26.887  27.115  1.00  0.00     0.022 A 
BRANCH  82  86
ATOM     86  S   UNL A   1      46.929  25.568  29.325  1.00  0.00     0.124 S 
ATOM     87  O   UNL A   1      46.343  25.759  30.646  1.00  0.00    -0.237 OA
ATOM     88  O   UNL A   1      46.405  24.452  28.541  1.00  0.00    -0.237 OA
ATOM     89  O   UNL A   1      48.380  25.710  29.254  1.00  0.00    -0.744 OA
ENDBRANCH  82  86
ENDBRANCH  55  79
BRANCH  67  90
ATOM     90  C   UNL A   1      42.480  35.977  28.969  1.00  0.00     0.023 A 
ATOM     91  C   UNL A   1      43.131  37.052  29.577  1.00  0.00     0.031 A 
ATOM     92  C   UNL A   1      41.871  36.257  27.718  1.00  0.00     0.131 A 
ATOM     93  C   UNL A   1      43.066  38.342  29.031  1.00  0.00     0.055 A 
ATOM     94  C   UNL A   1      41.919  37.516  27.112  1.00  0.00     0.041 A 
ATOM     95  F   UNL A   1      41.205  35.322  27.023  1.00  0.00    -0.206 F 
ATOM     96  C   UNL A   1      42.497  38.579  27.784  1.00  0.00     0.022 A 
BRANCH  93  97
ATOM     97  S   UNL A   1      43.616  39.713  30.073  1.00  0.00     0.124 S 
ATOM     98  O   UNL A   1      42.396  40.510  30.182  1.00  0.00    -0.237 OA
ATOM     99  O   UNL A   1      44.036  39.031  31.293  1.00  0.00    -0.237 OA
ATOM    100  O   UNL A   1      44.689  40.327  29.295  1.00  0.00    -0.744 OA
ENDBRANCH  93  97
ENDBRANCH  67  90
ENDBRANCH  41  42
ENDBRANCH  34  36
ENDBRANCH  33  34
ENDBRANCH  32  33
ENDBRANCH  31  32
ENDBRANCH  30  31
ENDBRANCH  29  30
ENDBRANCH   1  29
TORSDOF 23
ENDMDL
MODEL 2
REMARK VINA RESULT:     -11.8      1.838      2.219
REMARK SMILES Cc1cc(C(=O)OCCOCCOCCOC(=O)c2ccc(-c3c4nc(c(-c5cc(S(=O)(=O)[O-])ccc5F)c5ccc([nH]5)c(-c5cc(S(=O)(=O)[O-])ccc5F)c5nc(c(-c6cc(S(=O)(=O)[O-])ccc6F)c6ccc3[nH]6)C=C5)C=C4)cc2)ccc1NS(=O)(=O)c1ccc2c(c1)CCC2
REMARK SMILES IDX 11 1 10 2 9 3 8 4 7 5 5 6 6 7 4 8 1 9 2 10 3 11 84 12 83 13
REMARK SMILES IDX 82 14 85 15 86 17 87 18 88 19 89 20 90 21 94 22 91 23 93 24
REMARK SMILES IDX 92 25 95 26 97 27 96 28 12 29 13 30 14 31 15 32 16 33 17 34
REMARK SMILES IDX 18 35 19 36 20 37 81 38 21 39 80 40 22 41 23 42 24 43 74 44
REMARK SMILES IDX 25 45 79 46 73 47 75 48 26 49 78 50 72 51 71 52 27 54 59 55
REMARK SMILES IDX 39 56 58 57 40 58 43 59 57 60 76 61 41 62 42 63 56 65 77 66
REMARK SMILES IDX 44 67 28 68 29 69 37 70 30 71 36 72 38 73 35 74 31 75 32 76
REMARK SMILES IDX 33 77 34 78 60 79 61 80 69 81 62 82 68 83 70 84 67 85 63 86
REMARK SMILES IDX 64 87 65 88 66 89 45 90 46 91 54 92 47 93 53 94 55 95 52 96
REMARK SMILES IDX 48 97 49 98 50 99 51 100
REMARK H PARENT 85 16 75 53 43 64
REMARK Flexibility Score: inf
ROOT
ATOM      1  C   UNL A   1      44.004  19.107  25.677  1.00  0.00     0.188 C 
ENDROOT
BRANCH   1   2
ATOM      2  O   UNL A   1      42.589  19.393  25.782  1.00  0.00    -0.376 OA
BRANCH   2   3
ATOM      3  C   UNL A   1      42.152  19.869  27.063  1.00  0.00     0.202 C 
BRANCH   3   4
ATOM      4  C   UNL A   1      40.732  20.741  27.199  1.00  0.00     0.261 C 
BRANCH   4   5
ATOM      5  O   UNL A   1      39.667  21.466  26.074  1.00  0.00    -0.460 OA
BRANCH   5   6
ATOM      6  C   UNL A   1      38.531  21.177  25.284  1.00  0.00     0.338 C 
ATOM      7  O   UNL A   1      38.092  20.112  24.876  1.00  0.00    -0.246 OA
BRANCH   6   8
ATOM      8  C   UNL A   1      37.368  22.058  25.106  1.00  0.00     0.060 A 
ATOM      9  C   UNL A   1      34.338  22.839  27.332  1.00  0.00     0.046 C 
ATOM     10  C   UNL A   1      35.282  22.881  26.155  1.00  0.00    -0.026 A 
ATOM     11  C   UNL A   1      36.530  22.266  26.245  1.00  0.00     0.021 A 
ATOM     12  C   UNL A   1      34.935  23.377  24.904  1.00  0.00     0.052 A 
ATOM     13  C   UNL A   1      35.531  22.834  23.760  1.00  0.00     0.028 A 
ATOM     14  C   UNL A   1      36.756  22.160  23.864  1.00  0.00     0.018 A 
BRANCH  12  15
ATOM     15  N   UNL A   1      34.077  24.515  24.838  1.00  0.00    -0.279 N 
ATOM     16  H   UNL A   1      34.443  25.414  24.997  1.00  0.00     0.180 HD
BRANCH  15  17
ATOM     17  S   UNL A   1      32.421  24.323  24.484  1.00  0.00     0.261 S 
ATOM     18  O   UNL A   1      31.731  24.532  25.743  1.00  0.00    -0.201 OA
ATOM     19  O   UNL A   1      32.151  25.188  23.353  1.00  0.00    -0.201 OA
BRANCH  17  20
ATOM     20  C   UNL A   1      32.049  22.651  23.953  1.00  0.00     0.088 A 
ATOM     21  C   UNL A   1      31.811  22.313  22.608  1.00  0.00     0.022 A 
ATOM     22  C   UNL A   1      32.184  21.646  24.920  1.00  0.00     0.026 A 
ATOM     23  C   UNL A   1      31.955  20.976  22.189  1.00  0.00     0.005 A 
ATOM     24  C   UNL A   1      32.283  20.335  24.494  1.00  0.00    -0.043 A 
ATOM     25  C   UNL A   1      32.269  20.015  23.136  1.00  0.00    -0.045 A 
ATOM     26  C   UNL A   1      32.464  19.109  25.326  1.00  0.00     0.036 C 
ATOM     27  C   UNL A   1      32.674  18.585  22.929  1.00  0.00     0.036 C 
ATOM     28  C   UNL A   1      33.192  18.203  24.331  1.00  0.00     0.010 C 
ENDBRANCH  17  20
ENDBRANCH  15  17
ENDBRANCH  12  15
ENDBRANCH   6   8
ENDBRANCH   5   6
ENDBRANCH   4   5
ENDBRANCH   3   4
ENDBRANCH   2   3
ENDBRANCH   1   2
BRANCH   1  29
ATOM     29  C   UNL A   1      44.533  19.890  24.491  1.00  0.00     0.188 C 
BRANCH  29  30
ATOM     30  O   UNL A   1      45.319  20.921  25.082  1.00  0.00    -0.376 OA
BRANCH  30  31
ATOM     31  C   UNL A   1      44.599  21.995  25.638  1.00  0.00     0.202 C 
BRANCH  31  32
ATOM     32  C   UNL A   1      43.642  22.529  24.584  1.00  0.00     0.261 C 
BRANCH  32  33
ATOM     33  O   UNL A   1      42.628  23.339  25.223  1.00  0.00    -0.460 OA
BRANCH  33  34
ATOM     34  C   UNL A   1      42.918  24.687  25.249  1.00  0.00     0.338 C 
ATOM     35  O   UNL A   1      43.881  25.169  24.724  1.00  0.00    -0.246 OA
BRANCH  34  36
ATOM     36  C   UNL A   1      41.832  25.427  25.971  1.00  0.00     0.060 A 
ATOM     37  C   UNL A   1      41.414  26.711  25.671  1.00  0.00     0.016 A 
ATOM     38  C   UNL A   1      41.252  24.881  27.070  1.00  0.00     0.016 A 
ATOM     39  C   UNL A   1      40.668  27.511  26.623  1.00  0.00     0.010 A 
ATOM     40  C   UNL A   1      40.525  25.716  27.957  1.00  0.00     0.010 A 
ATOM     41  C   UNL A   1      40.318  27.115  27.930  1.00  0.00    -0.014 A 
BRANCH  41  42
ATOM     42  C   UNL A   1      39.903  28.237  29.155  1.00  0.00     0.031 A 
ATOM     43  C   UNL A   1      38.809  29.526  29.292  1.00  0.00     0.074 A 
ATOM     44  C   UNL A   1      40.596  28.190  30.319  1.00  0.00     0.049 A 
ATOM     45  N   UNL A   1      39.140  30.802  29.421  1.00  0.00    -0.248 NA
ATOM     46  C   UNL A   1      37.321  29.482  29.234  1.00  0.00     0.031 C 
ATOM     47  C   UNL A   1      40.427  29.039  31.497  1.00  0.00     0.029 A 
ATOM     48  N   UNL A   1      41.758  27.487  30.588  1.00  0.00    -0.354 N 
ATOM     49  C   UNL A   1      37.976  31.588  29.331  1.00  0.00     0.074 A 
ATOM     50  C   UNL A   1      36.908  30.719  29.012  1.00  0.00     0.031 C 
ATOM     51  C   UNL A   1      41.593  29.060  32.166  1.00  0.00     0.029 A 
ATOM     52  C   UNL A   1      42.554  28.297  31.391  1.00  0.00     0.049 A 
ATOM     53  H   UNL A   1      41.979  26.582  30.271  1.00  0.00     0.167 HD
ATOM     54  C   UNL A   1      37.798  32.856  29.798  1.00  0.00     0.034 A 
ATOM     55  C   UNL A   1      43.764  28.723  30.930  1.00  0.00     0.034 A 
ATOM     56  C   UNL A   1      38.875  33.169  30.686  1.00  0.00     0.049 A 
ATOM     57  C   UNL A   1      43.866  30.231  30.890  1.00  0.00     0.074 A 
ATOM     58  C   UNL A   1      39.030  32.885  32.032  1.00  0.00     0.029 A 
ATOM     59  N   UNL A   1      40.125  33.406  30.162  1.00  0.00    -0.354 N 
ATOM     60  N   UNL A   1      42.850  31.052  30.948  1.00  0.00    -0.248 NA
ATOM     61  C   UNL A   1      45.144  30.925  30.806  1.00  0.00     0.031 C 
ATOM     62  C   UNL A   1      40.421  32.839  32.291  1.00  0.00     0.029 A 
ATOM     63  C   UNL A   1      41.085  33.188  31.127  1.00  0.00     0.049 A 
ATOM     64  H   UNL A   1      40.307  33.689  29.237  1.00  0.00     0.167 HD
ATOM     65  C   UNL A   1      43.306  32.346  30.862  1.00  0.00     0.074 A 
ATOM     66  C   UNL A   1      44.750  32.209  30.831  1.00  0.00     0.031 C 
ATOM     67  C   UNL A   1      42.473  33.429  30.799  1.00  0.00     0.034 A 
BRANCH  54  68
ATOM     68  C   UNL A   1      36.437  33.546  29.774  1.00  0.00     0.023 A 
ATOM     69  C   UNL A   1      35.764  33.888  30.964  1.00  0.00     0.031 A 
ATOM     70  C   UNL A   1      35.745  33.840  28.574  1.00  0.00     0.131 A 
ATOM     71  C   UNL A   1      34.437  34.374  30.935  1.00  0.00     0.055 A 
ATOM     72  C   UNL A   1      34.406  34.261  28.548  1.00  0.00     0.041 A 
ATOM     73  F   UNL A   1      36.337  33.673  27.379  1.00  0.00    -0.206 F 
ATOM     74  C   UNL A   1      33.737  34.510  29.737  1.00  0.00     0.022 A 
BRANCH  71  75
ATOM     75  S   UNL A   1      33.623  34.849  32.490  1.00  0.00     0.124 S 
ATOM     76  O   UNL A   1      34.590  35.766  33.083  1.00  0.00    -0.237 OA
ATOM     77  O   UNL A   1      32.377  35.439  32.014  1.00  0.00    -0.237 OA
ATOM     78  O   UNL A   1      33.471  33.577  33.198  1.00  0.00    -0.744 OA
ENDBRANCH  71  75
ENDBRANCH  54  68
BRANCH  55  79
ATOM     79  C   UNL A   1      44.481  27.743  30.039  1.00  0.00     0.023 A 
ATOM     80  C   UNL A   1      44.496  26.387  30.455  1.00  0.00     0.031 A 
ATOM     81  C   UNL A   1      44.858  28.002  28.714  1.00  0.00     0.131 A 
ATOM     82  C   UNL A   1      44.709  25.343  29.542  1.00  0.00     0.055 A 
ATOM     83  C   UNL A   1      45.164  26.958  27.819  1.00  0.00     0.041 A 
ATOM     84  F   UNL A   1      44.839  29.251  28.226  1.00  0.00    -0.206 F 
ATOM     85  C   UNL A   1      45.059  25.621  28.221  1.00  0.00     0.022 A 
BRANCH  82  86
ATOM     86  S   UNL A   1      44.188  23.655  30.013  1.00  0.00     0.124 S 
ATOM     87  O   UNL A   1      42.745  23.710  29.812  1.00  0.00    -0.237 OA
ATOM     88  O   UNL A   1      44.937  22.812  29.083  1.00  0.00    -0.237 OA
ATOM     89  O   UNL A   1      44.627  23.538  31.400  1.00  0.00    -0.744 OA
ENDBRANCH  82  86
ENDBRANCH  55  79
BRANCH  67  90
ATOM     90  C   UNL A   1      42.879  34.845  30.451  1.00  0.00     0.023 A 
ATOM     91  C   UNL A   1      42.713  35.381  29.172  1.00  0.00     0.031 A 
ATOM     92  C   UNL A   1      43.370  35.745  31.433  1.00  0.00     0.131 A 
ATOM     93  C   UNL A   1      43.129  36.686  28.873  1.00  0.00     0.055 A 
ATOM     94  C   UNL A   1      43.663  37.084  31.161  1.00  0.00     0.041 A 
ATOM     95  F   UNL A   1      43.585  35.367  32.703  1.00  0.00    -0.206 F 
ATOM     96  C   UNL A   1      43.569  37.558  29.863  1.00  0.00     0.022 A 
BRANCH  93  97
ATOM     97  S   UNL A   1      43.215  37.150  27.128  1.00  0.00     0.124 S 
ATOM     98  O   UNL A   1      44.658  37.187  26.901  1.00  0.00    -0.237 OA
ATOM     99  O   UNL A   1      42.502  36.056  26.476  1.00  0.00    -0.237 OA
ATOM    100  O   UNL A   1      42.548  38.448  27.084  1.00  0.00    -0.744 OA
ENDBRANCH  93  97
ENDBRANCH  67  90
ENDBRANCH  41  42
ENDBRANCH  34  36
ENDBRANCH  33  34
ENDBRANCH  32  33
ENDBRANCH  31  32
ENDBRANCH  30  31
ENDBRANCH  29  30
ENDBRANCH   1  29
TORSDOF 23
ENDMDL
MODEL 3
REMARK VINA RESULT:     -11.3      4.356     11.139
REMARK SMILES Cc1cc(C(=O)OCCOCCOCCOC(=O)c2ccc(-c3c4nc(c(-c5cc(S(=O)(=O)[O-])ccc5F)c5ccc([nH]5)c(-c5cc(S(=O)(=O)[O-])ccc5F)c5nc(c(-c6cc(S(=O)(=O)[O-])ccc6F)c6ccc3[nH]6)C=C5)C=C4)cc2)ccc1NS(=O)(=O)c1ccc2c(c1)CCC2
REMARK SMILES IDX 11 1 10 2 9 3 8 4 7 5 5 6 6 7 4 8 1 9 2 10 3 11 84 12 83 13
REMARK SMILES IDX 82 14 85 15 86 17 87 18 88 19 89 20 90 21 94 22 91 23 93 24
REMARK SMILES IDX 92 25 95 26 97 27 96 28 12 29 13 30 14 31 15 32 16 33 17 34
REMARK SMILES IDX 18 35 19 36 20 37 81 38 21 39 80 40 22 41 23 42 24 43 74 44
REMARK SMILES IDX 25 45 79 46 73 47 75 48 26 49 78 50 72 51 71 52 27 54 59 55
REMARK SMILES IDX 39 56 58 57 40 58 43 59 57 60 76 61 41 62 42 63 56 65 77 66
REMARK SMILES IDX 44 67 28 68 29 69 37 70 30 71 36 72 38 73 35 74 31 75 32 76
REMARK SMILES IDX 33 77 34 78 60 79 61 80 69 81 62 82 68 83 70 84 67 85 63 86
REMARK SMILES IDX 64 87 65 88 66 89 45 90 46 91 54 92 47 93 53 94 55 95 52 96
REMARK SMILES IDX 48 97 49 98 50 99 51 100
REMARK H PARENT 85 16 75 53 43 64
REMARK Flexibility Score: inf
ROOT
ATOM      1  C   UNL A   1      33.019  33.990  28.068  1.00  0.00     0.188 C 
ENDROOT
BRANCH   1   2
ATOM      2  O   UNL A   1      32.838  32.938  27.090  1.00  0.00    -0.376 OA
BRANCH   2   3
ATOM      3  C   UNL A   1      31.533  32.342  27.061  1.00  0.00     0.202 C 
BRANCH   3   4
ATOM      4  C   UNL A   1      31.063  31.406  25.759  1.00  0.00     0.261 C 
BRANCH   4   5
ATOM      5  O   UNL A   1      31.541  29.879  25.154  1.00  0.00    -0.460 OA
BRANCH   5   6
ATOM      6  C   UNL A   1      31.372  29.032  24.035  1.00  0.00     0.338 C 
ATOM      7  O   UNL A   1      31.709  29.173  22.869  1.00  0.00    -0.246 OA
BRANCH   6   8
ATOM      8  C   UNL A   1      31.111  27.587  24.089  1.00  0.00     0.060 A 
ATOM      9  C   UNL A   1      32.867  24.572  22.485  1.00  0.00     0.046 C 
ATOM     10  C   UNL A   1      31.884  25.368  23.309  1.00  0.00    -0.026 A 
ATOM     11  C   UNL A   1      32.107  26.726  23.533  1.00  0.00     0.021 A 
ATOM     12  C   UNL A   1      30.665  24.869  23.753  1.00  0.00     0.052 A 
ATOM     13  C   UNL A   1      29.580  25.740  23.907  1.00  0.00     0.028 A 
ATOM     14  C   UNL A   1      29.806  27.114  24.068  1.00  0.00     0.018 A 
BRANCH  12  15
ATOM     15  N   UNL A   1      30.599  23.504  24.164  1.00  0.00    -0.279 N 
ATOM     16  H   UNL A   1      30.236  22.825  23.551  1.00  0.00     0.180 HD
BRANCH  15  17
ATOM     17  S   UNL A   1      31.148  23.044  25.710  1.00  0.00     0.261 S 
ATOM     18  O   UNL A   1      31.215  24.274  26.477  1.00  0.00    -0.201 OA
ATOM     19  O   UNL A   1      30.281  21.966  26.139  1.00  0.00    -0.201 OA
BRANCH  17  20
ATOM     20  C   UNL A   1      32.810  22.374  25.648  1.00  0.00     0.088 A 
ATOM     21  C   UNL A   1      33.106  21.118  25.087  1.00  0.00     0.022 A 
ATOM     22  C   UNL A   1      33.846  23.241  26.022  1.00  0.00     0.026 A 
ATOM     23  C   UNL A   1      34.421  20.831  24.674  1.00  0.00     0.005 A 
ATOM     24  C   UNL A   1      35.136  22.924  25.643  1.00  0.00    -0.043 A 
ATOM     25  C   UNL A   1      35.406  21.781  24.890  1.00  0.00    -0.045 A 
ATOM     26  C   UNL A   1      36.386  23.701  25.894  1.00  0.00     0.036 C 
ATOM     27  C   UNL A   1      36.814  21.814  24.371  1.00  0.00     0.036 C 
ATOM     28  C   UNL A   1      37.230  23.263  24.696  1.00  0.00     0.010 C 
ENDBRANCH  17  20
ENDBRANCH  15  17
ENDBRANCH  12  15
ENDBRANCH   6   8
ENDBRANCH   5   6
ENDBRANCH   4   5
ENDBRANCH   3   4
ENDBRANCH   2   3
ENDBRANCH   1   2
BRANCH   1  29
ATOM     29  C   UNL A   1      34.097  33.527  29.029  1.00  0.00     0.188 C 
BRANCH  29  30
ATOM     30  O   UNL A   1      33.825  34.252  30.226  1.00  0.00    -0.376 OA
BRANCH  30  31
ATOM     31  C   UNL A   1      34.807  34.162  31.230  1.00  0.00     0.202 C 
BRANCH  31  32
ATOM     32  C   UNL A   1      35.913  33.240  30.740  1.00  0.00     0.261 C 
BRANCH  32  33
ATOM     33  O   UNL A   1      36.338  32.383  31.825  1.00  0.00    -0.460 OA
BRANCH  33  34
ATOM     34  C   UNL A   1      36.583  31.078  31.451  1.00  0.00     0.338 C 
ATOM     35  O   UNL A   1      35.821  30.177  31.656  1.00  0.00    -0.246 OA
BRANCH  34  36
ATOM     36  C   UNL A   1      37.889  30.994  30.721  1.00  0.00     0.060 A 
ATOM     37  C   UNL A   1      38.084  30.336  29.520  1.00  0.00     0.016 A 
ATOM     38  C   UNL A   1      39.016  31.497  31.285  1.00  0.00     0.016 A 
ATOM     39  C   UNL A   1      39.407  29.948  29.070  1.00  0.00     0.010 A 
ATOM     40  C   UNL A   1      40.281  31.085  30.793  1.00  0.00     0.010 A 
ATOM     41  C   UNL A   1      40.607  30.148  29.783  1.00  0.00    -0.014 A 
BRANCH  41  42
ATOM     42  C   UNL A   1      42.030  29.249  29.469  1.00  0.00     0.031 A 
ATOM     43  C   UNL A   1      42.380  27.759  28.737  1.00  0.00     0.074 A 
ATOM     44  C   UNL A   1      43.207  29.747  29.918  1.00  0.00     0.049 A 
ATOM     45  N   UNL A   1      42.865  26.695  29.358  1.00  0.00    -0.248 NA
ATOM     46  C   UNL A   1      42.160  27.355  27.320  1.00  0.00     0.031 C 
ATOM     47  C   UNL A   1      44.540  29.164  29.774  1.00  0.00     0.029 A 
ATOM     48  N   UNL A   1      43.404  30.800  30.796  1.00  0.00    -0.354 N 
ATOM     49  C   UNL A   1      42.861  25.605  28.468  1.00  0.00     0.074 A 
ATOM     50  C   UNL A   1      42.221  26.034  27.283  1.00  0.00     0.031 C 
ATOM     51  C   UNL A   1      45.308  29.630  30.775  1.00  0.00     0.029 A 
ATOM     52  C   UNL A   1      44.466  30.452  31.625  1.00  0.00     0.049 A 
ATOM     53  H   UNL A   1      42.890  31.638  30.827  1.00  0.00     0.167 HD
ATOM     54  C   UNL A   1      43.617  24.473  28.545  1.00  0.00     0.034 A 
ATOM     55  C   UNL A   1      44.256  30.306  32.964  1.00  0.00     0.034 A 
ATOM     56  C   UNL A   1      44.662  24.689  29.499  1.00  0.00     0.049 A 
ATOM     57  C   UNL A   1      44.615  28.922  33.456  1.00  0.00     0.074 A 
ATOM     58  C   UNL A   1      45.898  25.291  29.344  1.00  0.00     0.029 A 
ATOM     59  N   UNL A   1      44.347  24.717  30.838  1.00  0.00    -0.354 N 
ATOM     60  N   UNL A   1      44.777  27.874  32.691  1.00  0.00    -0.248 NA
ATOM     61  C   UNL A   1      44.844  28.629  34.865  1.00  0.00     0.031 C 
ATOM     62  C   UNL A   1      46.278  25.795  30.612  1.00  0.00     0.029 A 
ATOM     63  C   UNL A   1      45.317  25.410  31.531  1.00  0.00     0.049 A 
ATOM     64  H   UNL A   1      43.549  24.305  31.241  1.00  0.00     0.167 HD
ATOM     65  C   UNL A   1      45.074  26.783  33.472  1.00  0.00     0.074 A 
ATOM     66  C   UNL A   1      45.157  27.324  34.816  1.00  0.00     0.031 C 
ATOM     67  C   UNL A   1      45.205  25.518  32.969  1.00  0.00     0.034 A 
BRANCH  54  68
ATOM     68  C   UNL A   1      43.631  23.430  27.432  1.00  0.00     0.023 A 
ATOM     69  C   UNL A   1      42.766  22.318  27.454  1.00  0.00     0.031 A 
ATOM     70  C   UNL A   1      44.536  23.479  26.343  1.00  0.00     0.131 A 
ATOM     71  C   UNL A   1      42.899  21.274  26.510  1.00  0.00     0.055 A 
ATOM     72  C   UNL A   1      44.710  22.413  25.447  1.00  0.00     0.041 A 
ATOM     73  F   UNL A   1      45.323  24.552  26.150  1.00  0.00    -0.206 F 
ATOM     74  C   UNL A   1      43.901  21.292  25.541  1.00  0.00     0.022 A 
BRANCH  71  75
ATOM     75  S   UNL A   1      41.730  19.881  26.545  1.00  0.00     0.124 S 
ATOM     76  O   UNL A   1      42.053  19.171  25.312  1.00  0.00    -0.237 OA
ATOM     77  O   UNL A   1      42.089  19.214  27.791  1.00  0.00    -0.237 OA
ATOM     78  O   UNL A   1      40.421  20.535  26.551  1.00  0.00    -0.744 OA
ENDBRANCH  71  75
ENDBRANCH  54  68
BRANCH  55  79
ATOM     79  C   UNL A   1      43.222  31.233  33.545  1.00  0.00     0.023 A 
ATOM     80  C   UNL A   1      41.923  30.702  33.751  1.00  0.00     0.031 A 
ATOM     81  C   UNL A   1      43.511  32.455  34.169  1.00  0.00     0.131 A 
ATOM     82  C   UNL A   1      41.032  31.279  34.669  1.00  0.00     0.055 A 
ATOM     83  C   UNL A   1      42.581  33.084  35.021  1.00  0.00     0.041 A 
ATOM     84  F   UNL A   1      44.725  33.012  34.059  1.00  0.00    -0.206 F 
ATOM     85  C   UNL A   1      41.349  32.482  35.299  1.00  0.00     0.022 A 
BRANCH  82  86
ATOM     86  S   UNL A   1      39.634  30.269  35.278  1.00  0.00     0.124 S 
ATOM     87  O   UNL A   1      38.716  31.284  35.779  1.00  0.00    -0.237 OA
ATOM     88  O   UNL A   1      39.208  29.548  34.080  1.00  0.00    -0.237 OA
ATOM     89  O   UNL A   1      40.247  29.418  36.293  1.00  0.00    -0.744 OA
ENDBRANCH  82  86
ENDBRANCH  55  79
BRANCH  67  90
ATOM     90  C   UNL A   1      45.276  24.241  33.779  1.00  0.00     0.023 A 
ATOM     91  C   UNL A   1      46.487  23.642  34.133  1.00  0.00     0.031 A 
ATOM     92  C   UNL A   1      44.111  23.625  34.307  1.00  0.00     0.131 A 
ATOM     93  C   UNL A   1      46.518  22.442  34.856  1.00  0.00     0.055 A 
ATOM     94  C   UNL A   1      44.153  22.501  35.137  1.00  0.00     0.041 A 
ATOM     95  F   UNL A   1      42.879  24.087  34.046  1.00  0.00    -0.206 F 
ATOM     96  C   UNL A   1      45.364  21.883  35.395  1.00  0.00     0.022 A 
BRANCH  93  97
ATOM     97  S   UNL A   1      48.096  21.564  34.939  1.00  0.00     0.124 S 
ATOM     98  O   UNL A   1      48.986  22.485  34.233  1.00  0.00    -0.237 OA
ATOM     99  O   UNL A   1      48.317  21.450  36.377  1.00  0.00    -0.237 OA
ATOM    100  O   UNL A   1      47.829  20.309  34.243  1.00  0.00    -0.744 OA
ENDBRANCH  93  97
ENDBRANCH  67  90
ENDBRANCH  41  42
ENDBRANCH  34  36
ENDBRANCH  33  34
ENDBRANCH  32  33
ENDBRANCH  31  32
ENDBRANCH  30  31
ENDBRANCH  29  30
ENDBRANCH   1  29
TORSDOF 23
ENDMDL
