MODEL 1
REMARK VINA RESULT:     -10.2      0.000      0.000
REMARK SMILES Cc1cc(C(=O)NC[C@H]2CC[C@@H](C(=O)OCCOCCOCCOC(=O)c3ccc(-c4c5nc(c(-c6cc(S(=O)(=O)[O-])ccc6F)c6ccc([nH]6)c(-c6cc(S(=O)(=O)[O-])ccc6F)c6nc(c(-c7cc(S(=O)(=O)[O-])ccc7F)c7ccc4[nH]7)C=C6)C=C5)cc3)O2)c(C)s1
REMARK SMILES IDX 19 1 18 2 17 3 16 4 15 5 13 6 14 7 12 8 9 9 10 10 90 11
REMARK SMILES IDX 11 12 8 13 7 14 5 15 6 16 4 18 1 19 2 20 3 21 93 22 91 23
REMARK SMILES IDX 92 24 20 25 21 26 22 27 23 28 24 29 25 30 26 31 27 32 28 33
REMARK SMILES IDX 89 34 29 35 88 36 30 37 31 38 32 39 82 40 33 41 87 42 81 43
REMARK SMILES IDX 83 44 34 45 86 46 80 47 79 48 35 50 67 51 47 52 66 53 48 54
REMARK SMILES IDX 51 55 65 56 84 57 49 58 50 59 64 61 85 62 52 63 36 64 37 65
REMARK SMILES IDX 45 66 38 67 44 68 46 69 43 70 39 71 40 72 41 73 42 74 68 75
REMARK SMILES IDX 69 76 77 77 70 78 76 79 78 80 75 81 71 82 72 83 73 84 74 85
REMARK SMILES IDX 53 86 54 87 62 88 55 89 61 90 63 91 60 92 56 93 57 94 58 95
REMARK SMILES IDX 59 96
REMARK H PARENT 7 17 83 49 51 60
REMARK Flexibility Score: inf
ROOT
ATOM      1  C   UNL A   1      35.413  22.494  25.470  1.00  0.00     0.188 C 
ENDROOT
BRANCH   1   2
ATOM      2  O   UNL A   1      34.715  21.991  26.599  1.00  0.00    -0.376 OA
BRANCH   2   3
ATOM      3  C   UNL A   1      33.326  22.276  26.729  1.00  0.00     0.202 C 
BRANCH   3   4
ATOM      4  C   UNL A   1      32.475  22.575  25.484  1.00  0.00     0.261 C 
BRANCH   4   5
ATOM      5  O   UNL A   1      32.129  23.960  25.353  1.00  0.00    -0.461 OA
BRANCH   5   6
ATOM      6  C   UNL A   1      31.613  24.577  26.449  1.00  0.00     0.335 C 
ATOM      7  O   UNL A   1      30.890  24.039  27.279  1.00  0.00    -0.249 OA
BRANCH   6   8
ATOM      8  C   UNL A   1      32.099  26.032  26.567  1.00  0.00     0.228 C 
ATOM      9  C   UNL A   1      33.017  27.891  25.495  1.00  0.00     0.138 C 
ATOM     10  C   UNL A   1      31.713  28.323  26.160  1.00  0.00     0.037 C 
ATOM     11  O   UNL A   1      33.052  26.464  25.599  1.00  0.00    -0.361 OA
ATOM     12  C   UNL A   1      30.971  27.023  26.394  1.00  0.00     0.047 C 
BRANCH   9  13
ATOM     13  C   UNL A   1      33.149  28.324  24.024  1.00  0.00     0.148 C 
BRANCH  13  14
ATOM     14  N   UNL A   1      32.619  27.334  23.093  1.00  0.00    -0.349 N 
ATOM     15  C   UNL A   1      31.460  27.228  22.361  1.00  0.00     0.252 C 
ATOM     16  O   UNL A   1      31.431  26.275  21.580  1.00  0.00    -0.269 OA
ATOM     17  H   UNL A   1      33.226  26.572  22.959  1.00  0.00     0.163 HD
BRANCH  15  18
ATOM     18  C   UNL A   1      30.344  28.190  22.455  1.00  0.00     0.053 A 
ATOM     19  C   UNL A   1      28.851  31.674  22.059  1.00  0.00     0.056 C 
ATOM     20  C   UNL A   1      29.161  30.242  22.315  1.00  0.00     0.003 A 
ATOM     21  C   UNL A   1      30.335  29.572  22.058  1.00  0.00     0.029 A 
ATOM     22  S   UNL A   1      28.022  29.221  23.041  1.00  0.00    -0.145 S 
ATOM     23  C   UNL A   1      29.116  27.892  23.061  1.00  0.00     0.014 A 
ATOM     24  C   UNL A   1      28.626  26.651  23.745  1.00  0.00     0.057 C 
ENDBRANCH  15  18
ENDBRANCH  13  14
ENDBRANCH   9  13
ENDBRANCH   6   8
ENDBRANCH   5   6
ENDBRANCH   4   5
ENDBRANCH   3   4
ENDBRANCH   2   3
ENDBRANCH   1   2
BRANCH   1  25
ATOM     25  C   UNL A   1      36.203  21.525  24.578  1.00  0.00     0.188 C 
BRANCH  25  26
ATOM     26  O   UNL A   1      36.797  20.410  25.184  1.00  0.00    -0.376 OA
BRANCH  26  27
ATOM     27  C   UNL A   1      38.065  19.936  24.766  1.00  0.00     0.202 C 
BRANCH  27  28
ATOM     28  C   UNL A   1      39.183  19.358  25.654  1.00  0.00     0.261 C 
BRANCH  28  29
ATOM     29  O   UNL A   1      40.343  20.152  25.886  1.00  0.00    -0.460 OA
BRANCH  29  30
ATOM     30  C   UNL A   1      40.698  20.288  27.191  1.00  0.00     0.338 C 
ATOM     31  O   UNL A   1      40.973  19.404  27.983  1.00  0.00    -0.246 OA
BRANCH  30  32
ATOM     32  C   UNL A   1      40.930  21.723  27.433  1.00  0.00     0.060 A 
ATOM     33  C   UNL A   1      40.267  22.663  26.631  1.00  0.00     0.016 A 
ATOM     34  C   UNL A   1      41.773  22.127  28.466  1.00  0.00     0.016 A 
ATOM     35  C   UNL A   1      40.449  24.024  26.861  1.00  0.00     0.010 A 
ATOM     36  C   UNL A   1      41.980  23.489  28.675  1.00  0.00     0.010 A 
ATOM     37  C   UNL A   1      41.337  24.440  27.861  1.00  0.00    -0.014 A 
BRANCH  37  38
ATOM     38  C   UNL A   1      41.768  25.853  27.927  1.00  0.00     0.031 A 
ATOM     39  C   UNL A   1      43.120  26.198  27.372  1.00  0.00     0.074 A 
ATOM     40  C   UNL A   1      40.987  26.796  28.481  1.00  0.00     0.049 A 
ATOM     41  N   UNL A   1      43.782  27.321  27.433  1.00  0.00    -0.248 NA
ATOM     42  C   UNL A   1      43.822  25.116  26.663  1.00  0.00     0.031 C 
ATOM     43  C   UNL A   1      39.635  26.583  28.994  1.00  0.00     0.029 A 
ATOM     44  N   UNL A   1      41.234  28.124  28.721  1.00  0.00    -0.354 N 
ATOM     45  C   UNL A   1      44.986  27.080  26.781  1.00  0.00     0.074 A 
ATOM     46  C   UNL A   1      44.973  25.695  26.364  1.00  0.00     0.031 C 
ATOM     47  C   UNL A   1      39.178  27.737  29.508  1.00  0.00     0.029 A 
ATOM     48  C   UNL A   1      40.223  28.756  29.406  1.00  0.00     0.049 A 
ATOM     49  H   UNL A   1      42.056  28.581  28.431  1.00  0.00     0.167 HD
ATOM     50  C   UNL A   1      46.006  27.941  26.550  1.00  0.00     0.034 A 
ATOM     51  C   UNL A   1      40.171  30.000  29.925  1.00  0.00     0.034 A 
ATOM     52  C   UNL A   1      46.003  29.312  26.996  1.00  0.00     0.049 A 
ATOM     53  C   UNL A   1      41.367  30.911  29.752  1.00  0.00     0.074 A 
ATOM     54  C   UNL A   1      46.977  30.277  26.819  1.00  0.00     0.029 A 
ATOM     55  N   UNL A   1      44.981  29.908  27.726  1.00  0.00    -0.354 N 
ATOM     56  N   UNL A   1      42.503  30.678  29.137  1.00  0.00    -0.248 NA
ATOM     57  C   UNL A   1      41.268  32.252  30.344  1.00  0.00     0.031 C 
ATOM     58  C   UNL A   1      46.582  31.429  27.508  1.00  0.00     0.029 A 
ATOM     59  C   UNL A   1      45.319  31.216  28.037  1.00  0.00     0.049 A 
ATOM     60  H   UNL A   1      44.140  29.466  27.984  1.00  0.00     0.167 HD
ATOM     61  C   UNL A   1      43.240  31.858  29.236  1.00  0.00     0.074 A 
ATOM     62  C   UNL A   1      42.413  32.801  29.961  1.00  0.00     0.031 C 
ATOM     63  C   UNL A   1      44.482  32.141  28.766  1.00  0.00     0.034 A 
BRANCH  50  64
ATOM     64  C   UNL A   1      47.222  27.400  25.840  1.00  0.00     0.023 A 
ATOM     65  C   UNL A   1      48.242  26.723  26.532  1.00  0.00     0.031 A 
ATOM     66  C   UNL A   1      47.382  27.594  24.457  1.00  0.00     0.131 A 
ATOM     67  C   UNL A   1      49.406  26.332  25.854  1.00  0.00     0.055 A 
ATOM     68  C   UNL A   1      48.504  27.128  23.773  1.00  0.00     0.041 A 
ATOM     69  F   UNL A   1      46.455  28.259  23.748  1.00  0.00    -0.206 F 
ATOM     70  C   UNL A   1      49.533  26.505  24.474  1.00  0.00     0.022 A 
BRANCH  67  71
ATOM     71  S   UNL A   1      50.815  25.733  26.827  1.00  0.00     0.124 S 
ATOM     72  O   UNL A   1      50.315  24.449  27.311  1.00  0.00    -0.237 OA
ATOM     73  O   UNL A   1      51.881  25.668  25.832  1.00  0.00    -0.237 OA
ATOM     74  O   UNL A   1      50.983  26.756  27.855  1.00  0.00    -0.744 OA
ENDBRANCH  67  71
ENDBRANCH  50  64
BRANCH  51  75
ATOM     75  C   UNL A   1      38.976  30.453  30.695  1.00  0.00     0.023 A 
ATOM     76  C   UNL A   1      38.009  31.282  30.108  1.00  0.00     0.031 A 
ATOM     77  C   UNL A   1      38.817  30.116  32.051  1.00  0.00     0.131 A 
ATOM     78  C   UNL A   1      36.953  31.787  30.884  1.00  0.00     0.055 A 
ATOM     79  C   UNL A   1      37.733  30.570  32.803  1.00  0.00     0.041 A 
ATOM     80  F   UNL A   1      39.716  29.332  32.668  1.00  0.00    -0.206 F 
ATOM     81  C   UNL A   1      36.799  31.423  32.223  1.00  0.00     0.022 A 
BRANCH  78  82
ATOM     82  S   UNL A   1      35.835  33.006  30.140  1.00  0.00     0.124 S 
ATOM     83  O   UNL A   1      34.675  32.185  29.814  1.00  0.00    -0.237 OA
ATOM     84  O   UNL A   1      35.660  33.960  31.230  1.00  0.00    -0.237 OA
ATOM     85  O   UNL A   1      36.590  33.505  28.992  1.00  0.00    -0.744 OA
ENDBRANCH  78  82
ENDBRANCH  51  75
BRANCH  63  86
ATOM     86  C   UNL A   1      44.996  33.548  28.969  1.00  0.00     0.023 A 
ATOM     87  C   UNL A   1      45.773  33.903  30.085  1.00  0.00     0.031 A 
ATOM     88  C   UNL A   1      44.708  34.545  28.020  1.00  0.00     0.131 A 
ATOM     89  C   UNL A   1      46.187  35.234  30.252  1.00  0.00     0.055 A 
ATOM     90  C   UNL A   1      45.181  35.850  28.156  1.00  0.00     0.041 A 
ATOM     91  F   UNL A   1      43.969  34.264  26.935  1.00  0.00    -0.206 F 
ATOM     92  C   UNL A   1      45.914  36.204  29.284  1.00  0.00     0.022 A 
BRANCH  89  93
ATOM     93  S   UNL A   1      47.010  35.703  31.799  1.00  0.00     0.124 S 
ATOM     94  O   UNL A   1      48.251  34.938  31.726  1.00  0.00    -0.237 OA
ATOM     95  O   UNL A   1      47.143  37.149  31.657  1.00  0.00    -0.237 OA
ATOM     96  O   UNL A   1      46.073  35.267  32.833  1.00  0.00    -0.744 OA
ENDBRANCH  89  93
ENDBRANCH  63  86
ENDBRANCH  37  38
ENDBRANCH  30  32
ENDBRANCH  29  30
ENDBRANCH  28  29
ENDBRANCH  27  28
ENDBRANCH  26  27
ENDBRANCH  25  26
ENDBRANCH   1  25
TORSDOF 23
ENDMDL
MODEL 2
REMARK VINA RESULT:      -9.8      2.255      3.070
REMARK SMILES Cc1cc(C(=O)NC[C@H]2CC[C@@H](C(=O)OCCOCCOCCOC(=O)c3ccc(-c4c5nc(c(-c6cc(S(=O)(=O)[O-])ccc6F)c6ccc([nH]6)c(-c6cc(S(=O)(=O)[O-])ccc6F)c6nc(c(-c7cc(S(=O)(=O)[O-])ccc7F)c7ccc4[nH]7)C=C6)C=C5)cc3)O2)c(C)s1
REMARK SMILES IDX 19 1 18 2 17 3 16 4 15 5 13 6 14 7 12 8 9 9 10 10 90 11
REMARK SMILES IDX 11 12 8 13 7 14 5 15 6 16 4 18 1 19 2 20 3 21 93 22 91 23
REMARK SMILES IDX 92 24 20 25 21 26 22 27 23 28 24 29 25 30 26 31 27 32 28 33
REMARK SMILES IDX 89 34 29 35 88 36 30 37 31 38 32 39 82 40 33 41 87 42 81 43
REMARK SMILES IDX 83 44 34 45 86 46 80 47 79 48 35 50 67 51 47 52 66 53 48 54
REMARK SMILES IDX 51 55 65 56 84 57 49 58 50 59 64 61 85 62 52 63 36 64 37 65
REMARK SMILES IDX 45 66 38 67 44 68 46 69 43 70 39 71 40 72 41 73 42 74 68 75
REMARK SMILES IDX 69 76 77 77 70 78 76 79 78 80 75 81 71 82 72 83 73 84 74 85
REMARK SMILES IDX 53 86 54 87 62 88 55 89 61 90 63 91 60 92 56 93 57 94 58 95
REMARK SMILES IDX 59 96
REMARK H PARENT 7 17 83 49 51 60
REMARK Flexibility Score: inf
ROOT
ATOM      1  C   UNL A   1      36.001  19.541  24.989  1.00  0.00     0.188 C 
ENDROOT
BRANCH   1   2
ATOM      2  O   UNL A   1      35.199  18.610  24.280  1.00  0.00    -0.376 OA
BRANCH   2   3
ATOM      3  C   UNL A   1      34.026  18.099  24.905  1.00  0.00     0.202 C 
BRANCH   3   4
ATOM      4  C   UNL A   1      32.638  18.606  24.483  1.00  0.00     0.261 C 
BRANCH   4   5
ATOM      5  O   UNL A   1      32.655  19.945  23.972  1.00  0.00    -0.461 OA
BRANCH   5   6
ATOM      6  C   UNL A   1      32.339  20.945  24.838  1.00  0.00     0.335 C 
ATOM      7  O   UNL A   1      31.247  21.083  25.377  1.00  0.00    -0.249 OA
BRANCH   6   8
ATOM      8  C   UNL A   1      33.542  21.860  25.118  1.00  0.00     0.228 C 
ATOM      9  C   UNL A   1      34.317  24.031  25.488  1.00  0.00     0.138 C 
ATOM     10  C   UNL A   1      34.767  23.161  26.658  1.00  0.00     0.037 C 
ATOM     11  O   UNL A   1      33.404  23.226  24.734  1.00  0.00    -0.361 OA
ATOM     12  C   UNL A   1      33.850  21.956  26.595  1.00  0.00     0.047 C 
BRANCH   9  13
ATOM     13  C   UNL A   1      33.646  25.352  25.905  1.00  0.00     0.148 C 
BRANCH  13  14
ATOM     14  N   UNL A   1      32.261  25.176  26.324  1.00  0.00    -0.349 N 
ATOM     15  C   UNL A   1      31.100  25.885  26.125  1.00  0.00     0.252 C 
ATOM     16  O   UNL A   1      30.082  25.335  26.553  1.00  0.00    -0.269 OA
ATOM     17  H   UNL A   1      32.126  24.368  26.869  1.00  0.00     0.163 HD
BRANCH  15  18
ATOM     18  C   UNL A   1      31.045  27.182  25.422  1.00  0.00     0.053 A 
ATOM     19  C   UNL A   1      30.303  29.335  22.367  1.00  0.00     0.056 C 
ATOM     20  C   UNL A   1      30.679  28.753  23.683  1.00  0.00     0.003 A 
ATOM     21  C   UNL A   1      30.555  27.447  24.097  1.00  0.00     0.029 A 
ATOM     22  S   UNL A   1      31.388  29.711  24.886  1.00  0.00    -0.145 S 
ATOM     23  C   UNL A   1      31.578  28.367  25.946  1.00  0.00     0.014 A 
ATOM     24  C   UNL A   1      32.309  28.642  27.227  1.00  0.00     0.057 C 
ENDBRANCH  15  18
ENDBRANCH  13  14
ENDBRANCH   9  13
ENDBRANCH   6   8
ENDBRANCH   5   6
ENDBRANCH   4   5
ENDBRANCH   3   4
ENDBRANCH   2   3
ENDBRANCH   1   2
BRANCH   1  25
ATOM     25  C   UNL A   1      37.524  19.532  24.790  1.00  0.00     0.188 C 
BRANCH  25  26
ATOM     26  O   UNL A   1      38.238  20.691  25.125  1.00  0.00    -0.376 OA
BRANCH  26  27
ATOM     27  C   UNL A   1      39.360  20.637  25.987  1.00  0.00     0.202 C 
BRANCH  27  28
ATOM     28  C   UNL A   1      40.322  19.451  26.191  1.00  0.00     0.261 C 
BRANCH  28  29
ATOM     29  O   UNL A   1      41.489  19.377  25.377  1.00  0.00    -0.460 OA
BRANCH  29  30
ATOM     30  C   UNL A   1      42.655  19.673  26.011  1.00  0.00     0.338 C 
ATOM     31  O   UNL A   1      43.624  18.949  26.162  1.00  0.00    -0.246 OA
BRANCH  30  32
ATOM     32  C   UNL A   1      42.647  21.119  26.288  1.00  0.00     0.060 A 
ATOM     33  C   UNL A   1      42.629  22.018  25.210  1.00  0.00     0.016 A 
ATOM     34  C   UNL A   1      42.628  21.576  27.605  1.00  0.00     0.016 A 
ATOM     35  C   UNL A   1      42.593  23.388  25.450  1.00  0.00     0.010 A 
ATOM     36  C   UNL A   1      42.625  22.949  27.842  1.00  0.00     0.010 A 
ATOM     37  C   UNL A   1      42.629  23.858  26.768  1.00  0.00    -0.014 A 
BRANCH  37  38
ATOM     38  C   UNL A   1      42.888  25.289  27.038  1.00  0.00     0.031 A 
ATOM     39  C   UNL A   1      44.270  25.812  26.770  1.00  0.00     0.074 A 
ATOM     40  C   UNL A   1      41.928  26.093  27.525  1.00  0.00     0.049 A 
ATOM     41  N   UNL A   1      44.788  26.977  27.050  1.00  0.00    -0.248 NA
ATOM     42  C   UNL A   1      45.195  24.880  26.105  1.00  0.00     0.031 C 
ATOM     43  C   UNL A   1      40.539  25.705  27.763  1.00  0.00     0.029 A 
ATOM     44  N   UNL A   1      41.986  27.404  27.923  1.00  0.00    -0.354 N 
ATOM     45  C   UNL A   1      46.104  26.917  26.607  1.00  0.00     0.074 A 
ATOM     46  C   UNL A   1      46.311  25.589  26.072  1.00  0.00     0.031 C 
ATOM     47  C   UNL A   1      39.879  26.752  28.287  1.00  0.00     0.029 A 
ATOM     48  C   UNL A   1      40.810  27.866  28.468  1.00  0.00     0.049 A 
ATOM     49  H   UNL A   1      42.791  27.962  27.828  1.00  0.00     0.167 HD
ATOM     50  C   UNL A   1      47.050  27.886  26.642  1.00  0.00     0.034 A 
ATOM     51  C   UNL A   1      40.537  29.038  29.078  1.00  0.00     0.034 A 
ATOM     52  C   UNL A   1      46.823  29.195  27.202  1.00  0.00     0.049 A 
ATOM     53  C   UNL A   1      41.640  30.065  29.207  1.00  0.00     0.074 A 
ATOM     54  C   UNL A   1      47.704  30.258  27.290  1.00  0.00     0.029 A 
ATOM     55  N   UNL A   1      45.634  29.615  27.785  1.00  0.00    -0.354 N 
ATOM     56  N   UNL A   1      42.883  30.003  28.788  1.00  0.00    -0.248 NA
ATOM     57  C   UNL A   1      41.298  31.321  29.889  1.00  0.00     0.031 C 
ATOM     58  C   UNL A   1      47.075  31.288  27.997  1.00  0.00     0.029 A 
ATOM     59  C   UNL A   1      45.771  30.907  28.268  1.00  0.00     0.049 A 
ATOM     60  H   UNL A   1      44.814  29.074  27.846  1.00  0.00     0.167 HD
ATOM     61  C   UNL A   1      43.460  31.227  29.124  1.00  0.00     0.074 A 
ATOM     62  C   UNL A   1      42.425  32.008  29.769  1.00  0.00     0.031 C 
ATOM     63  C   UNL A   1      44.727  31.670  28.914  1.00  0.00     0.034 A 
BRANCH  50  64
ATOM     64  C   UNL A   1      48.420  27.535  26.118  1.00  0.00     0.023 A 
ATOM     65  C   UNL A   1      48.794  27.801  24.789  1.00  0.00     0.031 A 
ATOM     66  C   UNL A   1      49.354  26.892  26.949  1.00  0.00     0.131 A 
ATOM     67  C   UNL A   1      50.038  27.360  24.311  1.00  0.00     0.055 A 
ATOM     68  C   UNL A   1      50.621  26.531  26.491  1.00  0.00     0.041 A 
ATOM     69  F   UNL A   1      49.043  26.585  28.219  1.00  0.00    -0.206 F 
ATOM     70  C   UNL A   1      50.965  26.751  25.160  1.00  0.00     0.022 A 
BRANCH  67  71
ATOM     71  S   UNL A   1      50.365  27.456  22.530  1.00  0.00     0.124 S 
ATOM     72  O   UNL A   1      51.672  26.811  22.434  1.00  0.00    -0.237 OA
ATOM     73  O   UNL A   1      49.245  26.712  21.963  1.00  0.00    -0.237 OA
ATOM     74  O   UNL A   1      50.363  28.891  22.257  1.00  0.00    -0.744 OA
ENDBRANCH  67  71
ENDBRANCH  50  64
BRANCH  51  75
ATOM     75  C   UNL A   1      39.187  29.296  29.657  1.00  0.00     0.023 A 
ATOM     76  C   UNL A   1      38.241  30.071  28.969  1.00  0.00     0.031 A 
ATOM     77  C   UNL A   1      38.844  28.825  30.938  1.00  0.00     0.131 A 
ATOM     78  C   UNL A   1      37.019  30.394  29.582  1.00  0.00     0.055 A 
ATOM     79  C   UNL A   1      37.605  29.097  31.518  1.00  0.00     0.041 A 
ATOM     80  F   UNL A   1      39.713  28.085  31.645  1.00  0.00    -0.206 F 
ATOM     81  C   UNL A   1      36.688  29.899  30.845  1.00  0.00     0.022 A 
BRANCH  78  82
ATOM     82  S   UNL A   1      35.907  31.554  28.742  1.00  0.00     0.124 S 
ATOM     83  O   UNL A   1      35.424  30.747  27.627  1.00  0.00    -0.237 OA
ATOM     84  O   UNL A   1      34.934  31.852  29.787  1.00  0.00    -0.237 OA
ATOM     85  O   UNL A   1      36.786  32.664  28.376  1.00  0.00    -0.744 OA
ENDBRANCH  78  82
ENDBRANCH  51  75
BRANCH  63  86
ATOM     86  C   UNL A   1      45.045  33.087  29.332  1.00  0.00     0.023 A 
ATOM     87  C   UNL A   1      44.836  34.181  28.475  1.00  0.00     0.031 A 
ATOM     88  C   UNL A   1      45.559  33.342  30.616  1.00  0.00     0.131 A 
ATOM     89  C   UNL A   1      45.191  35.473  28.893  1.00  0.00     0.055 A 
ATOM     90  C   UNL A   1      45.845  34.636  31.051  1.00  0.00     0.041 A 
ATOM     91  F   UNL A   1      45.782  32.335  31.476  1.00  0.00    -0.206 F 
ATOM     92  C   UNL A   1      45.674  35.709  30.183  1.00  0.00     0.022 A 
BRANCH  89  93
ATOM     93  S   UNL A   1      45.100  36.832  27.696  1.00  0.00     0.124 S 
ATOM     94  O   UNL A   1      43.962  36.437  26.873  1.00  0.00    -0.237 OA
ATOM     95  O   UNL A   1      44.893  37.994  28.556  1.00  0.00    -0.237 OA
ATOM     96  O   UNL A   1      46.398  36.785  27.023  1.00  0.00    -0.744 OA
ENDBRANCH  89  93
ENDBRANCH  63  86
ENDBRANCH  37  38
ENDBRANCH  30  32
ENDBRANCH  29  30
ENDBRANCH  28  29
ENDBRANCH  27  28
ENDBRANCH  26  27
ENDBRANCH  25  26
ENDBRANCH   1  25
TORSDOF 23
ENDMDL
MODEL 3
REMARK VINA RESULT:      -9.7      1.493      2.103
REMARK SMILES Cc1cc(C(=O)NC[C@H]2CC[C@@H](C(=O)OCCOCCOCCOC(=O)c3ccc(-c4c5nc(c(-c6cc(S(=O)(=O)[O-])ccc6F)c6ccc([nH]6)c(-c6cc(S(=O)(=O)[O-])ccc6F)c6nc(c(-c7cc(S(=O)(=O)[O-])ccc7F)c7ccc4[nH]7)C=C6)C=C5)cc3)O2)c(C)s1
REMARK SMILES IDX 19 1 18 2 17 3 16 4 15 5 13 6 14 7 12 8 9 9 10 10 90 11
REMARK SMILES IDX 11 12 8 13 7 14 5 15 6 16 4 18 1 19 2 20 3 21 93 22 91 23
REMARK SMILES IDX 92 24 20 25 21 26 22 27 23 28 24 29 25 30 26 31 27 32 28 33
REMARK SMILES IDX 89 34 29 35 88 36 30 37 31 38 32 39 82 40 33 41 87 42 81 43
REMARK SMILES IDX 83 44 34 45 86 46 80 47 79 48 35 50 67 51 47 52 66 53 48 54
REMARK SMILES IDX 51 55 65 56 84 57 49 58 50 59 64 61 85 62 52 63 36 64 37 65
REMARK SMILES IDX 45 66 38 67 44 68 46 69 43 70 39 71 40 72 41 73 42 74 68 75
REMARK SMILES IDX 69 76 77 77 70 78 76 79 78 80 75 81 71 82 72 83 73 84 74 85
REMARK SMILES IDX 53 86 54 87 62 88 55 89 61 90 63 91 60 92 56 93 57 94 58 95
REMARK SMILES IDX 59 96
REMARK H PARENT 7 17 83 49 51 60
REMARK Flexibility Score: inf
ROOT
ATOM      1  C   UNL A   1      34.399  21.327  24.732  1.00  0.00     0.188 C 
ENDROOT
BRANCH   1   2
ATOM      2  O   UNL A   1      33.264  21.633  25.527  1.00  0.00    -0.376 OA
BRANCH   2   3
ATOM      3  C   UNL A   1      33.345  22.714  26.450  1.00  0.00     0.202 C 
BRANCH   3   4
ATOM      4  C   UNL A   1      32.252  23.796  26.477  1.00  0.00     0.261 C 
BRANCH   4   5
ATOM      5  O   UNL A   1      32.765  25.123  26.303  1.00  0.00    -0.461 OA
BRANCH   5   6
ATOM      6  C   UNL A   1      31.894  26.153  26.474  1.00  0.00     0.335 C 
ATOM      7  O   UNL A   1      30.734  26.032  26.851  1.00  0.00    -0.249 OA
BRANCH   6   8
ATOM      8  C   UNL A   1      32.556  27.513  26.200  1.00  0.00     0.228 C 
ATOM      9  C   UNL A   1      33.510  28.954  24.630  1.00  0.00     0.138 C 
ATOM     10  C   UNL A   1      32.380  29.701  25.334  1.00  0.00     0.037 C 
ATOM     11  O   UNL A   1      33.395  27.590  25.050  1.00  0.00    -0.361 OA
ATOM     12  C   UNL A   1      31.537  28.600  25.945  1.00  0.00     0.047 C 
BRANCH   9  13
ATOM     13  C   UNL A   1      33.468  29.047  23.094  1.00  0.00     0.148 C 
BRANCH  13  14
ATOM     14  N   UNL A   1      32.110  29.152  22.571  1.00  0.00    -0.349 N 
ATOM     15  C   UNL A   1      31.086  28.257  22.370  1.00  0.00     0.252 C 
ATOM     16  O   UNL A   1      30.023  28.766  22.010  1.00  0.00    -0.269 OA
ATOM     17  H   UNL A   1      31.874  30.069  22.303  1.00  0.00     0.163 HD
BRANCH  15  18
ATOM     18  C   UNL A   1      31.214  26.804  22.602  1.00  0.00     0.053 A 
ATOM     19  C   UNL A   1      32.930  23.443  22.079  1.00  0.00     0.056 C 
ATOM     20  C   UNL A   1      32.070  24.597  22.453  1.00  0.00     0.003 A 
ATOM     21  C   UNL A   1      32.241  25.921  22.120  1.00  0.00     0.029 A 
ATOM     22  S   UNL A   1      30.663  24.373  23.367  1.00  0.00    -0.145 S 
ATOM     23  C   UNL A   1      30.250  26.042  23.275  1.00  0.00     0.014 A 
ATOM     24  C   UNL A   1      28.930  26.424  23.877  1.00  0.00     0.057 C 
ENDBRANCH  15  18
ENDBRANCH  13  14
ENDBRANCH   9  13
ENDBRANCH   6   8
ENDBRANCH   5   6
ENDBRANCH   4   5
ENDBRANCH   3   4
ENDBRANCH   2   3
ENDBRANCH   1   2
BRANCH   1  25
ATOM     25  C   UNL A   1      35.516  20.449  25.317  1.00  0.00     0.188 C 
BRANCH  25  26
ATOM     26  O   UNL A   1      36.782  20.512  24.719  1.00  0.00    -0.376 OA
BRANCH  26  27
ATOM     27  C   UNL A   1      37.754  21.444  25.156  1.00  0.00     0.202 C 
BRANCH  27  28
ATOM     28  C   UNL A   1      38.952  21.174  26.086  1.00  0.00     0.261 C 
BRANCH  28  29
ATOM     29  O   UNL A   1      39.848  20.119  25.749  1.00  0.00    -0.460 OA
BRANCH  29  30
ATOM     30  C   UNL A   1      40.944  20.014  26.546  1.00  0.00     0.338 C 
ATOM     31  O   UNL A   1      41.545  19.000  26.855  1.00  0.00    -0.246 OA
BRANCH  30  32
ATOM     32  C   UNL A   1      41.438  21.381  26.790  1.00  0.00     0.060 A 
ATOM     33  C   UNL A   1      41.520  21.847  28.111  1.00  0.00     0.016 A 
ATOM     34  C   UNL A   1      41.843  22.177  25.721  1.00  0.00     0.016 A 
ATOM     35  C   UNL A   1      42.011  23.124  28.367  1.00  0.00     0.010 A 
ATOM     36  C   UNL A   1      42.304  23.467  25.976  1.00  0.00     0.010 A 
ATOM     37  C   UNL A   1      42.369  23.951  27.296  1.00  0.00    -0.014 A 
BRANCH  37  38
ATOM     38  C   UNL A   1      42.608  25.393  27.521  1.00  0.00     0.031 A 
ATOM     39  C   UNL A   1      43.991  25.920  27.269  1.00  0.00     0.074 A 
ATOM     40  C   UNL A   1      41.629  26.205  27.954  1.00  0.00     0.049 A 
ATOM     41  N   UNL A   1      44.492  27.099  27.520  1.00  0.00    -0.248 NA
ATOM     42  C   UNL A   1      44.942  24.974  26.661  1.00  0.00     0.031 C 
ATOM     43  C   UNL A   1      40.237  25.812  28.171  1.00  0.00     0.029 A 
ATOM     44  N   UNL A   1      41.665  27.530  28.307  1.00  0.00    -0.354 N 
ATOM     45  C   UNL A   1      45.819  27.036  27.113  1.00  0.00     0.074 A 
ATOM     46  C   UNL A   1      46.052  25.692  26.631  1.00  0.00     0.031 C 
ATOM     47  C   UNL A   1      39.555  26.871  28.641  1.00  0.00     0.029 A 
ATOM     48  C   UNL A   1      40.472  27.999  28.805  1.00  0.00     0.049 A 
ATOM     49  H   UNL A   1      42.468  28.092  28.213  1.00  0.00     0.167 HD
ATOM     50  C   UNL A   1      46.755  28.015  27.137  1.00  0.00     0.034 A 
ATOM     51  C   UNL A   1      40.173  29.189  29.367  1.00  0.00     0.034 A 
ATOM     52  C   UNL A   1      46.503  29.341  27.645  1.00  0.00     0.049 A 
ATOM     53  C   UNL A   1      41.263  30.231  29.486  1.00  0.00     0.074 A 
ATOM     54  C   UNL A   1      47.372  30.414  27.718  1.00  0.00     0.029 A 
ATOM     55  N   UNL A   1      45.296  29.769  28.183  1.00  0.00    -0.354 N 
ATOM     56  N   UNL A   1      42.517  30.166  29.102  1.00  0.00    -0.248 NA
ATOM     57  C   UNL A   1      40.893  31.506  30.115  1.00  0.00     0.031 C 
ATOM     58  C   UNL A   1      46.717  31.463  28.371  1.00  0.00     0.029 A 
ATOM     59  C   UNL A   1      45.409  31.079  28.623  1.00  0.00     0.049 A 
ATOM     60  H   UNL A   1      44.479  29.223  28.242  1.00  0.00     0.167 HD
ATOM     61  C   UNL A   1      43.075  31.406  29.409  1.00  0.00     0.074 A 
ATOM     62  C   UNL A   1      42.017  32.200  30.000  1.00  0.00     0.031 C 
ATOM     63  C   UNL A   1      44.342  31.854  29.215  1.00  0.00     0.034 A 
BRANCH  50  64
ATOM     64  C   UNL A   1      48.142  27.659  26.661  1.00  0.00     0.023 A 
ATOM     65  C   UNL A   1      49.170  27.324  27.560  1.00  0.00     0.031 A 
ATOM     66  C   UNL A   1      48.451  27.691  25.290  1.00  0.00     0.131 A 
ATOM     67  C   UNL A   1      50.471  27.107  27.084  1.00  0.00     0.055 A 
ATOM     68  C   UNL A   1      49.728  27.391  24.816  1.00  0.00     0.041 A 
ATOM     69  F   UNL A   1      47.518  28.033  24.386  1.00  0.00    -0.206 F 
ATOM     70  C   UNL A   1      50.753  27.111  25.716  1.00  0.00     0.022 A 
BRANCH  67  71
ATOM     71  S   UNL A   1      51.822  26.970  28.287  1.00  0.00     0.124 S 
ATOM     72  O   UNL A   1      52.929  26.533  27.440  1.00  0.00    -0.237 OA
ATOM     73  O   UNL A   1      51.917  28.329  28.811  1.00  0.00    -0.237 OA
ATOM     74  O   UNL A   1      51.338  25.969  29.234  1.00  0.00    -0.744 OA
ENDBRANCH  67  71
ENDBRANCH  50  64
BRANCH  51  75
ATOM     75  C   UNL A   1      38.806  29.454  29.902  1.00  0.00     0.023 A 
ATOM     76  C   UNL A   1      37.860  30.167  29.150  1.00  0.00     0.031 A 
ATOM     77  C   UNL A   1      38.446  29.055  31.202  1.00  0.00     0.131 A 
ATOM     78  C   UNL A   1      36.620  30.501  29.718  1.00  0.00     0.055 A 
ATOM     79  C   UNL A   1      37.189  29.337  31.740  1.00  0.00     0.041 A 
ATOM     80  F   UNL A   1      39.314  28.377  31.971  1.00  0.00    -0.206 F 
ATOM     81  C   UNL A   1      36.272  30.077  31.001  1.00  0.00     0.022 A 
BRANCH  78  82
ATOM     82  S   UNL A   1      35.504  31.586  28.786  1.00  0.00     0.124 S 
ATOM     83  O   UNL A   1      34.731  30.621  28.011  1.00  0.00    -0.237 OA
ATOM     84  O   UNL A   1      34.787  32.272  29.855  1.00  0.00    -0.237 OA
ATOM     85  O   UNL A   1      36.414  32.426  28.009  1.00  0.00    -0.744 OA
ENDBRANCH  78  82
ENDBRANCH  51  75
BRANCH  63  86
ATOM     86  C   UNL A   1      44.637  33.288  29.590  1.00  0.00     0.023 A 
ATOM     87  C   UNL A   1      45.130  33.640  30.858  1.00  0.00     0.031 A 
ATOM     88  C   UNL A   1      44.427  34.316  28.654  1.00  0.00     0.131 A 
ATOM     89  C   UNL A   1      45.344  34.990  31.173  1.00  0.00     0.055 A 
ATOM     90  C   UNL A   1      44.706  35.651  28.950  1.00  0.00     0.041 A 
ATOM     91  F   UNL A   1      43.954  34.039  27.428  1.00  0.00    -0.206 F 
ATOM     92  C   UNL A   1      45.155  35.995  30.221  1.00  0.00     0.022 A 
BRANCH  89  93
ATOM     93  S   UNL A   1      45.784  35.429  32.878  1.00  0.00     0.124 S 
ATOM     94  O   UNL A   1      44.682  36.304  33.260  1.00  0.00    -0.237 OA
ATOM     95  O   UNL A   1      45.823  34.126  33.536  1.00  0.00    -0.237 OA
ATOM     96  O   UNL A   1      47.081  36.089  32.739  1.00  0.00    -0.744 OA
ENDBRANCH  89  93
ENDBRANCH  63  86
ENDBRANCH  37  38
ENDBRANCH  30  32
ENDBRANCH  29  30
ENDBRANCH  28  29
ENDBRANCH  27  28
ENDBRANCH  26  27
ENDBRANCH  25  26
ENDBRANCH   1  25
TORSDOF 23
ENDMDL
