MODEL 1
REMARK VINA RESULT:      -9.4      0.000      0.000
REMARK SMILES C/C=C/C[N@H+]1CCC[C@H](C(=O)OCCOCCOCCOC(=O)c2ccc(-c3c4nc(c(-c5cc(S(=O)(=O)[O-])ccc5F)c5ccc([nH]5)c(-c5cc(S(=O)(=O)[O-])ccc5F)c5nc(c(-c6cc(S(=O)(=O)[O-])ccc6F)c6ccc3[nH]6)C=C5)C=C4)cc2)C1
REMARK SMILES IDX 17 1 16 2 15 3 14 4 13 5 12 6 10 7 11 8 9 9 5 10 6 11 87 12
REMARK SMILES IDX 7 14 8 15 4 16 3 17 1 18 2 19 18 20 19 21 20 22 21 23 22 24
REMARK SMILES IDX 23 25 24 26 25 27 86 28 26 29 85 30 27 31 28 32 29 33 79 34
REMARK SMILES IDX 30 35 84 36 78 37 80 38 31 39 83 40 77 41 76 42 32 44 64 45
REMARK SMILES IDX 44 46 63 47 45 48 48 49 62 50 81 51 46 52 47 53 61 55 82 56
REMARK SMILES IDX 49 57 33 58 34 59 42 60 35 61 41 62 43 63 40 64 36 65 37 66
REMARK SMILES IDX 38 67 39 68 65 69 66 70 74 71 67 72 73 73 75 74 72 75 68 76
REMARK SMILES IDX 69 77 70 78 71 79 50 80 51 81 59 82 52 83 58 84 60 85 57 86
REMARK SMILES IDX 53 87 54 88 55 89 56 90
REMARK H PARENT 5 13 80 43 48 54
REMARK Flexibility Score: inf
ROOT
ATOM      1  C   UNL A   1      37.190  22.009  24.030  1.00  0.00     0.188 C 
ENDROOT
BRANCH   1   2
ATOM      2  C   UNL A   1      36.104  23.083  24.117  1.00  0.00     0.188 C 
BRANCH   2   3
ATOM      3  O   UNL A   1      36.164  23.949  25.244  1.00  0.00    -0.376 OA
BRANCH   3   4
ATOM      4  C   UNL A   1      35.122  24.916  25.369  1.00  0.00     0.202 C 
BRANCH   4   5
ATOM      5  C   UNL A   1      33.826  24.667  24.582  1.00  0.00     0.261 C 
BRANCH   5   6
ATOM      6  O   UNL A   1      33.235  25.839  23.980  1.00  0.00    -0.463 OA
BRANCH   6   7
ATOM      7  C   UNL A   1      32.978  25.743  22.648  1.00  0.00     0.314 C 
ATOM      8  O   UNL A   1      33.845  25.772  21.776  1.00  0.00    -0.252 OA
BRANCH   7   9
ATOM      9  C   UNL A   1      31.509  25.575  22.284  1.00  0.00     0.154 C 
ATOM     10  N   UNL A   1      30.776  27.500  23.617  1.00  0.00    -0.331 N 
ATOM     11  C   UNL A   1      29.799  26.702  24.368  1.00  0.00     0.262 C 
ATOM     12  C   UNL A   1      30.915  26.981  22.245  1.00  0.00     0.277 C 
ATOM     13  H   UNL A   1      31.658  27.404  24.120  1.00  0.00     0.348 HD
ATOM     14  C   UNL A   1      30.243  25.241  24.470  1.00  0.00     0.062 C 
ATOM     15  C   UNL A   1      30.619  24.650  23.117  1.00  0.00     0.027 C 
BRANCH  10  16
ATOM     16  C   UNL A   1      30.484  28.934  23.585  1.00  0.00     0.290 C 
BRANCH  16  17
ATOM     17  C   UNL A   1      29.569  29.291  22.450  1.00  0.00     0.029 C 
ATOM     18  C   UNL A   1      28.130  30.825  21.109  1.00  0.00     0.035 C 
ATOM     19  C   UNL A   1      29.073  30.518  22.224  1.00  0.00    -0.029 C 
ENDBRANCH  16  17
ENDBRANCH  10  16
ENDBRANCH   7   9
ENDBRANCH   6   7
ENDBRANCH   5   6
ENDBRANCH   4   5
ENDBRANCH   3   4
ENDBRANCH   2   3
ENDBRANCH   1   2
BRANCH   1  20
ATOM     20  O   UNL A   1      37.341  21.194  25.181  1.00  0.00    -0.376 OA
BRANCH  20  21
ATOM     21  C   UNL A   1      37.593  19.804  24.969  1.00  0.00     0.202 C 
BRANCH  21  22
ATOM     22  C   UNL A   1      38.985  19.279  25.383  1.00  0.00     0.261 C 
BRANCH  22  23
ATOM     23  O   UNL A   1      39.822  20.192  26.129  1.00  0.00    -0.460 OA
BRANCH  23  24
ATOM     24  C   UNL A   1      41.130  19.870  26.284  1.00  0.00     0.338 C 
ATOM     25  O   UNL A   1      41.623  18.772  26.087  1.00  0.00    -0.246 OA
BRANCH  24  26
ATOM     26  C   UNL A   1      41.917  21.128  26.448  1.00  0.00     0.060 A 
ATOM     27  C   UNL A   1      42.539  21.359  27.684  1.00  0.00     0.016 A 
ATOM     28  C   UNL A   1      42.122  22.028  25.397  1.00  0.00     0.016 A 
ATOM     29  C   UNL A   1      43.321  22.503  27.887  1.00  0.00     0.010 A 
ATOM     30  C   UNL A   1      42.894  23.181  25.605  1.00  0.00     0.010 A 
ATOM     31  C   UNL A   1      43.470  23.446  26.862  1.00  0.00    -0.014 A 
BRANCH  31  32
ATOM     32  C   UNL A   1      44.017  24.799  27.164  1.00  0.00     0.031 A 
ATOM     33  C   UNL A   1      43.064  25.838  27.703  1.00  0.00     0.074 A 
ATOM     34  C   UNL A   1      45.316  25.114  27.002  1.00  0.00     0.049 A 
ATOM     35  N   UNL A   1      43.268  27.100  27.977  1.00  0.00    -0.248 NA
ATOM     36  C   UNL A   1      41.690  25.380  27.961  1.00  0.00     0.031 C 
ATOM     37  C   UNL A   1      46.362  24.198  26.552  1.00  0.00     0.029 A 
ATOM     38  N   UNL A   1      45.976  26.306  27.194  1.00  0.00    -0.354 N 
ATOM     39  C   UNL A   1      42.048  27.590  28.432  1.00  0.00     0.074 A 
ATOM     40  C   UNL A   1      41.103  26.497  28.358  1.00  0.00     0.031 C 
ATOM     41  C   UNL A   1      47.530  24.865  26.495  1.00  0.00     0.029 A 
ATOM     42  C   UNL A   1      47.312  26.266  26.861  1.00  0.00     0.049 A 
ATOM     43  H   UNL A   1      45.534  27.115  27.540  1.00  0.00     0.167 HD
ATOM     44  C   UNL A   1      41.742  28.833  28.880  1.00  0.00     0.034 A 
ATOM     45  C   UNL A   1      48.241  27.247  26.826  1.00  0.00     0.034 A 
ATOM     46  C   UNL A   1      42.683  29.924  28.939  1.00  0.00     0.049 A 
ATOM     47  C   UNL A   1      47.849  28.656  27.221  1.00  0.00     0.074 A 
ATOM     48  C   UNL A   1      42.471  31.219  29.380  1.00  0.00     0.029 A 
ATOM     49  N   UNL A   1      44.009  29.857  28.532  1.00  0.00    -0.354 N 
ATOM     50  N   UNL A   1      46.690  29.107  27.645  1.00  0.00    -0.248 NA
ATOM     51  C   UNL A   1      48.894  29.686  27.134  1.00  0.00     0.031 C 
ATOM     52  C   UNL A   1      43.641  31.954  29.165  1.00  0.00     0.029 A 
ATOM     53  C   UNL A   1      44.614  31.096  28.677  1.00  0.00     0.049 A 
ATOM     54  H   UNL A   1      44.454  29.048  28.191  1.00  0.00     0.167 HD
ATOM     55  C   UNL A   1      46.884  30.463  27.911  1.00  0.00     0.074 A 
ATOM     56  C   UNL A   1      48.269  30.753  27.611  1.00  0.00     0.031 C 
ATOM     57  C   UNL A   1      45.997  31.384  28.371  1.00  0.00     0.034 A 
BRANCH  44  58
ATOM     58  C   UNL A   1      40.310  29.087  29.286  1.00  0.00     0.023 A 
ATOM     59  C   UNL A   1      39.907  29.066  30.633  1.00  0.00     0.031 A 
ATOM     60  C   UNL A   1      39.327  29.320  28.308  1.00  0.00     0.131 A 
ATOM     61  C   UNL A   1      38.549  29.204  30.958  1.00  0.00     0.055 A 
ATOM     62  C   UNL A   1      37.992  29.542  28.645  1.00  0.00     0.041 A 
ATOM     63  F   UNL A   1      39.647  29.324  27.005  1.00  0.00    -0.206 F 
ATOM     64  C   UNL A   1      37.592  29.469  29.976  1.00  0.00     0.022 A 
BRANCH  61  65
ATOM     65  S   UNL A   1      38.030  28.881  32.666  1.00  0.00     0.124 S 
ATOM     66  O   UNL A   1      38.974  29.702  33.422  1.00  0.00    -0.237 OA
ATOM     67  O   UNL A   1      36.644  29.335  32.668  1.00  0.00    -0.237 OA
ATOM     68  O   UNL A   1      38.215  27.438  32.813  1.00  0.00    -0.744 OA
ENDBRANCH  61  65
ENDBRANCH  44  58
BRANCH  45  69
ATOM     69  C   UNL A   1      49.632  26.967  26.354  1.00  0.00     0.023 A 
ATOM     70  C   UNL A   1      50.052  27.335  25.064  1.00  0.00     0.031 A 
ATOM     71  C   UNL A   1      50.536  26.248  27.157  1.00  0.00     0.131 A 
ATOM     72  C   UNL A   1      51.318  26.940  24.600  1.00  0.00     0.055 A 
ATOM     73  C   UNL A   1      51.815  25.910  26.712  1.00  0.00     0.041 A 
ATOM     74  F   UNL A   1      50.183  25.857  28.393  1.00  0.00    -0.206 F 
ATOM     75  C   UNL A   1      52.209  26.245  25.420  1.00  0.00     0.022 A 
BRANCH  72  76
ATOM     76  S   UNL A   1      51.749  27.261  22.866  1.00  0.00     0.124 S 
ATOM     77  O   UNL A   1      51.952  28.705  22.873  1.00  0.00    -0.237 OA
ATOM     78  O   UNL A   1      52.947  26.446  22.695  1.00  0.00    -0.237 OA
ATOM     79  O   UNL A   1      50.573  26.797  22.131  1.00  0.00    -0.744 OA
ENDBRANCH  72  76
ENDBRANCH  45  69
BRANCH  57  80
ATOM     80  C   UNL A   1      46.511  32.781  28.637  1.00  0.00     0.023 A 
ATOM     81  C   UNL A   1      46.423  33.806  27.679  1.00  0.00     0.031 A 
ATOM     82  C   UNL A   1      47.099  33.089  29.878  1.00  0.00     0.131 A 
ATOM     83  C   UNL A   1      46.963  35.073  27.956  1.00  0.00     0.055 A 
ATOM     84  C   UNL A   1      47.576  34.368  30.172  1.00  0.00     0.041 A 
ATOM     85  F   UNL A   1      47.214  32.152  30.832  1.00  0.00    -0.206 F 
ATOM     86  C   UNL A   1      47.522  35.365  29.203  1.00  0.00     0.022 A 
BRANCH  83  87
ATOM     87  S   UNL A   1      47.012  36.312  26.631  1.00  0.00     0.124 S 
ATOM     88  O   UNL A   1      48.401  36.757  26.684  1.00  0.00    -0.237 OA
ATOM     89  O   UNL A   1      46.637  35.530  25.458  1.00  0.00    -0.237 OA
ATOM     90  O   UNL A   1      46.026  37.306  27.054  1.00  0.00    -0.744 OA
ENDBRANCH  83  87
ENDBRANCH  57  80
ENDBRANCH  31  32
ENDBRANCH  24  26
ENDBRANCH  23  24
ENDBRANCH  22  23
ENDBRANCH  21  22
ENDBRANCH  20  21
ENDBRANCH   1  20
TORSDOF 22
ENDMDL
MODEL 2
REMARK VINA RESULT:      -9.1      2.859      8.516
REMARK SMILES C/C=C/C[N@H+]1CCC[C@H](C(=O)OCCOCCOCCOC(=O)c2ccc(-c3c4nc(c(-c5cc(S(=O)(=O)[O-])ccc5F)c5ccc([nH]5)c(-c5cc(S(=O)(=O)[O-])ccc5F)c5nc(c(-c6cc(S(=O)(=O)[O-])ccc6F)c6ccc3[nH]6)C=C5)C=C4)cc2)C1
REMARK SMILES IDX 17 1 16 2 15 3 14 4 13 5 12 6 10 7 11 8 9 9 5 10 6 11 87 12
REMARK SMILES IDX 7 14 8 15 4 16 3 17 1 18 2 19 18 20 19 21 20 22 21 23 22 24
REMARK SMILES IDX 23 25 24 26 25 27 86 28 26 29 85 30 27 31 28 32 29 33 79 34
REMARK SMILES IDX 30 35 84 36 78 37 80 38 31 39 83 40 77 41 76 42 32 44 64 45
REMARK SMILES IDX 44 46 63 47 45 48 48 49 62 50 81 51 46 52 47 53 61 55 82 56
REMARK SMILES IDX 49 57 33 58 34 59 42 60 35 61 41 62 43 63 40 64 36 65 37 66
REMARK SMILES IDX 38 67 39 68 65 69 66 70 74 71 67 72 73 73 75 74 72 75 68 76
REMARK SMILES IDX 69 77 70 78 71 79 50 80 51 81 59 82 52 83 58 84 60 85 57 86
REMARK SMILES IDX 53 87 54 88 55 89 56 90
REMARK H PARENT 5 13 80 43 48 54
REMARK Flexibility Score: inf
ROOT
ATOM      1  C   UNL A   1      37.352  21.973  24.693  1.00  0.00     0.188 C 
ENDROOT
BRANCH   1   2
ATOM      2  C   UNL A   1      36.674  23.232  25.237  1.00  0.00     0.188 C 
BRANCH   2   3
ATOM      3  O   UNL A   1      35.253  23.257  25.177  1.00  0.00    -0.376 OA
BRANCH   3   4
ATOM      4  C   UNL A   1      34.578  24.006  26.186  1.00  0.00     0.202 C 
BRANCH   4   5
ATOM      5  C   UNL A   1      33.835  25.277  25.748  1.00  0.00     0.261 C 
BRANCH   5   6
ATOM      6  O   UNL A   1      32.445  25.092  25.403  1.00  0.00    -0.463 OA
BRANCH   6   7
ATOM      7  C   UNL A   1      31.829  24.041  26.008  1.00  0.00     0.314 C 
ATOM      8  O   UNL A   1      31.876  23.819  27.216  1.00  0.00    -0.252 OA
BRANCH   7   9
ATOM      9  C   UNL A   1      31.037  23.134  25.076  1.00  0.00     0.154 C 
ATOM     10  N   UNL A   1      32.795  21.428  24.955  1.00  0.00    -0.331 N 
ATOM     11  C   UNL A   1      32.837  21.469  23.488  1.00  0.00     0.262 C 
ATOM     12  C   UNL A   1      31.430  21.703  25.437  1.00  0.00     0.277 C 
ATOM     13  H   UNL A   1      33.434  22.157  25.271  1.00  0.00     0.348 HD
ATOM     14  C   UNL A   1      32.433  22.849  22.963  1.00  0.00     0.062 C 
ATOM     15  C   UNL A   1      31.120  23.338  23.562  1.00  0.00     0.027 C 
BRANCH  10  16
ATOM     16  C   UNL A   1      33.291  20.179  25.536  1.00  0.00     0.290 C 
BRANCH  16  17
ATOM     17  C   UNL A   1      33.166  19.031  24.577  1.00  0.00     0.029 C 
ATOM     18  C   UNL A   1      34.010  17.084  23.265  1.00  0.00     0.035 C 
ATOM     19  C   UNL A   1      34.162  18.189  24.256  1.00  0.00    -0.029 C 
ENDBRANCH  16  17
ENDBRANCH  10  16
ENDBRANCH   7   9
ENDBRANCH   6   7
ENDBRANCH   5   6
ENDBRANCH   4   5
ENDBRANCH   3   4
ENDBRANCH   2   3
ENDBRANCH   1   2
BRANCH   1  20
ATOM     20  O   UNL A   1      37.029  20.764  25.361  1.00  0.00    -0.376 OA
BRANCH  20  21
ATOM     21  C   UNL A   1      37.802  19.610  25.031  1.00  0.00     0.202 C 
BRANCH  21  22
ATOM     22  C   UNL A   1      39.278  19.610  25.486  1.00  0.00     0.261 C 
BRANCH  22  23
ATOM     23  O   UNL A   1      39.633  20.554  26.521  1.00  0.00    -0.460 OA
BRANCH  23  24
ATOM     24  C   UNL A   1      40.898  20.514  27.007  1.00  0.00     0.338 C 
ATOM     25  O   UNL A   1      41.620  19.532  27.040  1.00  0.00    -0.246 OA
BRANCH  24  26
ATOM     26  C   UNL A   1      41.372  21.913  27.225  1.00  0.00     0.060 A 
ATOM     27  C   UNL A   1      41.765  22.281  28.521  1.00  0.00     0.016 A 
ATOM     28  C   UNL A   1      41.515  22.829  26.178  1.00  0.00     0.016 A 
ATOM     29  C   UNL A   1      42.253  23.568  28.781  1.00  0.00     0.010 A 
ATOM     30  C   UNL A   1      41.990  24.123  26.441  1.00  0.00     0.010 A 
ATOM     31  C   UNL A   1      42.330  24.514  27.750  1.00  0.00    -0.014 A 
BRANCH  31  32
ATOM     32  C   UNL A   1      42.532  25.955  28.072  1.00  0.00     0.031 A 
ATOM     33  C   UNL A   1      43.933  26.508  27.969  1.00  0.00     0.074 A 
ATOM     34  C   UNL A   1      41.521  26.774  28.420  1.00  0.00     0.049 A 
ATOM     35  N   UNL A   1      44.386  27.700  28.261  1.00  0.00    -0.248 NA
ATOM     36  C   UNL A   1      44.958  25.578  27.471  1.00  0.00     0.031 C 
ATOM     37  C   UNL A   1      40.112  26.397  28.499  1.00  0.00     0.029 A 
ATOM     38  N   UNL A   1      41.532  28.102  28.780  1.00  0.00    -0.354 N 
ATOM     39  C   UNL A   1      45.750  27.662  27.989  1.00  0.00     0.074 A 
ATOM     40  C   UNL A   1      46.053  26.317  27.548  1.00  0.00     0.031 C 
ATOM     41  C   UNL A   1      39.396  27.466  28.892  1.00  0.00     0.029 A 
ATOM     42  C   UNL A   1      40.296  28.595  29.136  1.00  0.00     0.049 A 
ATOM     43  H   UNL A   1      42.349  28.651  28.783  1.00  0.00     0.167 HD
ATOM     44  C   UNL A   1      46.668  28.655  28.088  1.00  0.00     0.034 A 
ATOM     45  C   UNL A   1      39.938  29.802  29.628  1.00  0.00     0.034 A 
ATOM     46  C   UNL A   1      46.365  29.990  28.542  1.00  0.00     0.049 A 
ATOM     47  C   UNL A   1      40.998  30.863  29.840  1.00  0.00     0.074 A 
ATOM     48  C   UNL A   1      47.224  31.068  28.674  1.00  0.00     0.029 A 
ATOM     49  N   UNL A   1      45.113  30.429  28.953  1.00  0.00    -0.354 N 
ATOM     50  N   UNL A   1      42.286  30.812  29.584  1.00  0.00    -0.248 NA
ATOM     51  C   UNL A   1      40.553  32.144  30.406  1.00  0.00     0.031 C 
ATOM     52  C   UNL A   1      46.511  32.131  29.238  1.00  0.00     0.029 A 
ATOM     53  C   UNL A   1      45.186  31.749  29.373  1.00  0.00     0.049 A 
ATOM     54  H   UNL A   1      44.295  29.883  28.946  1.00  0.00     0.167 HD
ATOM     55  C   UNL A   1      42.791  32.069  29.921  1.00  0.00     0.074 A 
ATOM     56  C   UNL A   1      41.671  32.855  30.388  1.00  0.00     0.031 C 
ATOM     57  C   UNL A   1      44.066  32.531  29.844  1.00  0.00     0.034 A 
BRANCH  44  58
ATOM     58  C   UNL A   1      48.098  28.311  27.751  1.00  0.00     0.023 A 
ATOM     59  C   UNL A   1      48.582  28.361  26.431  1.00  0.00     0.031 A 
ATOM     60  C   UNL A   1      48.983  27.892  28.760  1.00  0.00     0.131 A 
ATOM     61  C   UNL A   1      49.888  27.933  26.149  1.00  0.00     0.055 A 
ATOM     62  C   UNL A   1      50.306  27.549  28.484  1.00  0.00     0.041 A 
ATOM     63  F   UNL A   1      48.570  27.798  30.035  1.00  0.00    -0.206 F 
ATOM     64  C   UNL A   1      50.762  27.553  27.169  1.00  0.00     0.022 A 
BRANCH  61  65
ATOM     65  S   UNL A   1      50.377  27.734  24.414  1.00  0.00     0.124 S 
ATOM     66  O   UNL A   1      49.143  28.090  23.716  1.00  0.00    -0.237 OA
ATOM     67  O   UNL A   1      51.479  28.680  24.285  1.00  0.00    -0.237 OA
ATOM     68  O   UNL A   1      50.751  26.324  24.322  1.00  0.00    -0.744 OA
ENDBRANCH  61  65
ENDBRANCH  44  58
BRANCH  45  69
ATOM     69  C   UNL A   1      38.520  30.080  30.012  1.00  0.00     0.023 A 
ATOM     70  C   UNL A   1      37.626  30.686  29.113  1.00  0.00     0.031 A 
ATOM     71  C   UNL A   1      38.062  29.823  31.318  1.00  0.00     0.131 A 
ATOM     72  C   UNL A   1      36.342  31.058  29.545  1.00  0.00     0.055 A 
ATOM     73  C   UNL A   1      36.765  30.141  31.724  1.00  0.00     0.041 A 
ATOM     74  F   UNL A   1      38.878  29.260  32.224  1.00  0.00    -0.206 F 
ATOM     75  C   UNL A   1      35.900  30.776  30.839  1.00  0.00     0.022 A 
BRANCH  72  76
ATOM     76  S   UNL A   1      35.287  32.014  28.418  1.00  0.00     0.124 S 
ATOM     77  O   UNL A   1      36.221  33.015  27.915  1.00  0.00    -0.237 OA
ATOM     78  O   UNL A   1      34.861  30.997  27.463  1.00  0.00    -0.237 OA
ATOM     79  O   UNL A   1      34.231  32.527  29.291  1.00  0.00    -0.744 OA
ENDBRANCH  72  76
ENDBRANCH  45  69
BRANCH  57  80
ATOM     80  C   UNL A   1      44.311  33.977  30.215  1.00  0.00     0.023 A 
ATOM     81  C   UNL A   1      44.146  35.025  29.292  1.00  0.00     0.031 A 
ATOM     82  C   UNL A   1      44.715  34.308  31.522  1.00  0.00     0.131 A 
ATOM     83  C   UNL A   1      44.437  36.345  29.673  1.00  0.00     0.055 A 
ATOM     84  C   UNL A   1      44.939  35.630  31.912  1.00  0.00     0.041 A 
ATOM     85  F   UNL A   1      44.891  33.351  32.447  1.00  0.00    -0.206 F 
ATOM     86  C   UNL A   1      44.814  36.656  30.982  1.00  0.00     0.022 A 
BRANCH  83  87
ATOM     87  S   UNL A   1      44.406  37.647  28.408  1.00  0.00     0.124 S 
ATOM     88  O   UNL A   1      45.816  37.751  28.048  1.00  0.00    -0.237 OA
ATOM     89  O   UNL A   1      43.529  37.075  27.393  1.00  0.00    -0.237 OA
ATOM     90  O   UNL A   1      43.860  38.803  29.119  1.00  0.00    -0.744 OA
ENDBRANCH  83  87
ENDBRANCH  57  80
ENDBRANCH  31  32
ENDBRANCH  24  26
ENDBRANCH  23  24
ENDBRANCH  22  23
ENDBRANCH  21  22
ENDBRANCH  20  21
ENDBRANCH   1  20
TORSDOF 22
ENDMDL
MODEL 3
REMARK VINA RESULT:      -8.9      7.537     14.128
REMARK SMILES C/C=C/C[N@H+]1CCC[C@H](C(=O)OCCOCCOCCOC(=O)c2ccc(-c3c4nc(c(-c5cc(S(=O)(=O)[O-])ccc5F)c5ccc([nH]5)c(-c5cc(S(=O)(=O)[O-])ccc5F)c5nc(c(-c6cc(S(=O)(=O)[O-])ccc6F)c6ccc3[nH]6)C=C5)C=C4)cc2)C1
REMARK SMILES IDX 17 1 16 2 15 3 14 4 13 5 12 6 10 7 11 8 9 9 5 10 6 11 87 12
REMARK SMILES IDX 7 14 8 15 4 16 3 17 1 18 2 19 18 20 19 21 20 22 21 23 22 24
REMARK SMILES IDX 23 25 24 26 25 27 86 28 26 29 85 30 27 31 28 32 29 33 79 34
REMARK SMILES IDX 30 35 84 36 78 37 80 38 31 39 83 40 77 41 76 42 32 44 64 45
REMARK SMILES IDX 44 46 63 47 45 48 48 49 62 50 81 51 46 52 47 53 61 55 82 56
REMARK SMILES IDX 49 57 33 58 34 59 42 60 35 61 41 62 43 63 40 64 36 65 37 66
REMARK SMILES IDX 38 67 39 68 65 69 66 70 74 71 67 72 73 73 75 74 72 75 68 76
REMARK SMILES IDX 69 77 70 78 71 79 50 80 51 81 59 82 52 83 58 84 60 85 57 86
REMARK SMILES IDX 53 87 54 88 55 89 56 90
REMARK H PARENT 5 13 80 43 48 54
REMARK Flexibility Score: inf
ROOT
ATOM      1  C   UNL A   1      45.610  42.721  23.104  1.00  0.00     0.188 C 
ENDROOT
BRANCH   1   2
ATOM      2  C   UNL A   1      44.569  43.248  22.115  1.00  0.00     0.188 C 
BRANCH   2   3
ATOM      3  O   UNL A   1      44.150  42.343  21.101  1.00  0.00    -0.376 OA
BRANCH   3   4
ATOM      4  C   UNL A   1      42.745  42.135  20.964  1.00  0.00     0.202 C 
BRANCH   4   5
ATOM      5  C   UNL A   1      41.916  43.274  20.351  1.00  0.00     0.261 C 
BRANCH   5   6
ATOM      6  O   UNL A   1      41.667  43.163  18.933  1.00  0.00    -0.463 OA
BRANCH   6   7
ATOM      7  C   UNL A   1      41.195  44.289  18.333  1.00  0.00     0.314 C 
ATOM      8  O   UNL A   1      40.253  44.953  18.760  1.00  0.00    -0.252 OA
BRANCH   7   9
ATOM      9  C   UNL A   1      41.935  44.704  17.068  1.00  0.00     0.154 C 
ATOM     10  N   UNL A   1      43.941  45.444  18.270  1.00  0.00    -0.331 N 
ATOM     11  C   UNL A   1      43.903  46.780  17.662  1.00  0.00     0.262 C 
ATOM     12  C   UNL A   1      43.415  44.438  17.331  1.00  0.00     0.277 C 
ATOM     13  H   UNL A   1      43.346  45.499  19.097  1.00  0.00     0.348 HD
ATOM     14  C   UNL A   1      42.470  47.184  17.309  1.00  0.00     0.062 C 
ATOM     15  C   UNL A   1      41.744  46.113  16.503  1.00  0.00     0.027 C 
BRANCH  10  16
ATOM     16  C   UNL A   1      45.263  45.040  18.752  1.00  0.00     0.290 C 
BRANCH  16  17
ATOM     17  C   UNL A   1      45.694  45.848  19.940  1.00  0.00     0.029 C 
ATOM     18  C   UNL A   1      47.265  46.536  21.751  1.00  0.00     0.035 C 
ATOM     19  C   UNL A   1      46.889  45.745  20.544  1.00  0.00    -0.029 C 
ENDBRANCH  16  17
ENDBRANCH  10  16
ENDBRANCH   7   9
ENDBRANCH   6   7
ENDBRANCH   5   6
ENDBRANCH   4   5
ENDBRANCH   3   4
ENDBRANCH   2   3
ENDBRANCH   1   2
BRANCH   1  20
ATOM     20  O   UNL A   1      45.100  41.957  24.185  1.00  0.00    -0.376 OA
BRANCH  20  21
ATOM     21  C   UNL A   1      44.138  42.587  25.032  1.00  0.00     0.202 C 
BRANCH  21  22
ATOM     22  C   UNL A   1      43.444  41.689  26.081  1.00  0.00     0.261 C 
BRANCH  22  23
ATOM     23  O   UNL A   1      42.366  40.854  25.601  1.00  0.00    -0.460 OA
BRANCH  23  24
ATOM     24  C   UNL A   1      41.419  40.470  26.491  1.00  0.00     0.338 C 
ATOM     25  O   UNL A   1      40.281  40.905  26.556  1.00  0.00    -0.246 OA
BRANCH  24  26
ATOM     26  C   UNL A   1      41.887  39.234  27.186  1.00  0.00     0.060 A 
ATOM     27  C   UNL A   1      41.990  38.055  26.432  1.00  0.00     0.016 A 
ATOM     28  C   UNL A   1      42.302  39.235  28.521  1.00  0.00     0.016 A 
ATOM     29  C   UNL A   1      42.458  36.872  27.018  1.00  0.00     0.010 A 
ATOM     30  C   UNL A   1      42.757  38.046  29.112  1.00  0.00     0.010 A 
ATOM     31  C   UNL A   1      42.806  36.848  28.375  1.00  0.00    -0.014 A 
BRANCH  31  32
ATOM     32  C   UNL A   1      42.989  35.545  29.076  1.00  0.00     0.031 A 
ATOM     33  C   UNL A   1      41.749  34.778  29.469  1.00  0.00     0.074 A 
ATOM     34  C   UNL A   1      44.202  35.024  29.344  1.00  0.00     0.049 A 
ATOM     35  N   UNL A   1      41.633  33.665  30.146  1.00  0.00    -0.248 NA
ATOM     36  C   UNL A   1      40.469  35.359  29.038  1.00  0.00     0.031 C 
ATOM     37  C   UNL A   1      45.482  35.619  28.969  1.00  0.00     0.029 A 
ATOM     38  N   UNL A   1      44.551  33.869  30.005  1.00  0.00    -0.354 N 
ATOM     39  C   UNL A   1      40.266  33.415  30.228  1.00  0.00     0.074 A 
ATOM     40  C   UNL A   1      39.598  34.515  29.567  1.00  0.00     0.031 C 
ATOM     41  C   UNL A   1      46.477  34.829  29.414  1.00  0.00     0.029 A 
ATOM     42  C   UNL A   1      45.910  33.693  30.144  1.00  0.00     0.049 A 
ATOM     43  H   UNL A   1      43.889  33.225  30.348  1.00  0.00     0.167 HD
ATOM     44  C   UNL A   1      39.624  32.363  30.793  1.00  0.00     0.034 A 
ATOM     45  C   UNL A   1      46.612  32.747  30.806  1.00  0.00     0.034 A 
ATOM     46  C   UNL A   1      40.293  31.276  31.465  1.00  0.00     0.049 A 
ATOM     47  C   UNL A   1      45.871  31.642  31.530  1.00  0.00     0.074 A 
ATOM     48  C   UNL A   1      39.732  30.163  32.067  1.00  0.00     0.029 A 
ATOM     49  N   UNL A   1      41.667  31.169  31.638  1.00  0.00    -0.354 N 
ATOM     50  N   UNL A   1      44.578  31.419  31.605  1.00  0.00    -0.248 NA
ATOM     51  C   UNL A   1      46.687  30.658  32.257  1.00  0.00     0.031 C 
ATOM     52  C   UNL A   1      40.756  29.427  32.672  1.00  0.00     0.029 A 
ATOM     53  C   UNL A   1      41.967  30.030  32.369  1.00  0.00     0.049 A 
ATOM     54  H   UNL A   1      42.330  31.809  31.292  1.00  0.00     0.167 HD
ATOM     55  C   UNL A   1      44.435  30.250  32.352  1.00  0.00     0.074 A 
ATOM     56  C   UNL A   1      45.769  29.810  32.696  1.00  0.00     0.031 C 
ATOM     57  C   UNL A   1      43.301  29.595  32.715  1.00  0.00     0.034 A 
BRANCH  44  58
ATOM     58  C   UNL A   1      38.115  32.375  30.757  1.00  0.00     0.023 A 
ATOM     59  C   UNL A   1      37.355  33.020  31.749  1.00  0.00     0.031 A 
ATOM     60  C   UNL A   1      37.426  31.701  29.734  1.00  0.00     0.131 A 
ATOM     61  C   UNL A   1      35.955  32.917  31.734  1.00  0.00     0.055 A 
ATOM     62  C   UNL A   1      36.032  31.675  29.678  1.00  0.00     0.041 A 
ATOM     63  F   UNL A   1      38.098  31.043  28.775  1.00  0.00    -0.206 F 
ATOM     64  C   UNL A   1      35.287  32.272  30.690  1.00  0.00     0.022 A 
BRANCH  61  65
ATOM     65  S   UNL A   1      35.029  33.506  33.177  1.00  0.00     0.124 S 
ATOM     66  O   UNL A   1      33.727  32.875  32.972  1.00  0.00    -0.237 OA
ATOM     67  O   UNL A   1      35.818  32.994  34.291  1.00  0.00    -0.237 OA
ATOM     68  O   UNL A   1      35.039  34.960  33.021  1.00  0.00    -0.744 OA
ENDBRANCH  61  65
ENDBRANCH  44  58
BRANCH  45  69
ATOM     69  C   UNL A   1      48.105  32.809  30.874  1.00  0.00     0.023 A 
ATOM     70  C   UNL A   1      48.906  32.160  29.919  1.00  0.00     0.031 A 
ATOM     71  C   UNL A   1      48.752  33.449  31.946  1.00  0.00     0.131 A 
ATOM     72  C   UNL A   1      50.301  32.122  30.084  1.00  0.00     0.055 A 
ATOM     73  C   UNL A   1      50.142  33.460  32.072  1.00  0.00     0.041 A 
ATOM     74  F   UNL A   1      48.035  34.073  32.896  1.00  0.00    -0.206 F 
ATOM     75  C   UNL A   1      50.925  32.781  31.145  1.00  0.00     0.022 A 
BRANCH  72  76
ATOM     76  S   UNL A   1      51.286  31.110  28.943  1.00  0.00     0.124 S 
ATOM     77  O   UNL A   1      51.041  31.776  27.670  1.00  0.00    -0.237 OA
ATOM     78  O   UNL A   1      52.629  31.251  29.494  1.00  0.00    -0.237 OA
ATOM     79  O   UNL A   1      50.698  29.777  29.075  1.00  0.00    -0.744 OA
ENDBRANCH  72  76
ENDBRANCH  45  69
BRANCH  57  80
ATOM     80  C   UNL A   1      43.454  28.296  33.475  1.00  0.00     0.023 A 
ATOM     81  C   UNL A   1      43.467  28.249  34.880  1.00  0.00     0.031 A 
ATOM     82  C   UNL A   1      43.587  27.084  32.774  1.00  0.00     0.131 A 
ATOM     83  C   UNL A   1      43.665  27.023  35.537  1.00  0.00     0.055 A 
ATOM     84  C   UNL A   1      43.718  25.860  33.434  1.00  0.00     0.041 A 
ATOM     85  F   UNL A   1      43.584  27.065  31.432  1.00  0.00    -0.206 F 
ATOM     86  C   UNL A   1      43.771  25.827  34.824  1.00  0.00     0.022 A 
BRANCH  83  87
ATOM     87  S   UNL A   1      43.875  27.021  37.340  1.00  0.00     0.124 S 
ATOM     88  O   UNL A   1      44.033  28.443  37.628  1.00  0.00    -0.237 OA
ATOM     89  O   UNL A   1      42.632  26.412  37.799  1.00  0.00    -0.237 OA
ATOM     90  O   UNL A   1      45.075  26.211  37.545  1.00  0.00    -0.744 OA
ENDBRANCH  83  87
ENDBRANCH  57  80
ENDBRANCH  31  32
ENDBRANCH  24  26
ENDBRANCH  23  24
ENDBRANCH  22  23
ENDBRANCH  21  22
ENDBRANCH  20  21
ENDBRANCH   1  20
TORSDOF 22
ENDMDL
