MODEL 1
REMARK VINA RESULT:     -10.9      0.000      0.000
REMARK SMILES Cc1cc(Cl)c(C)c2c1O[C@H](C(F)(F)F)C(C(=O)OCCOCCOCCOC(=O)c1ccc(-c3c4nc(c(-c5cc(S(=O)(=O)[O-])ccc5F)c5ccc([nH]5)c(-c5cc(S(=O)(=O)[O-])ccc5F)c5nc(c(-c6cc(S(=O)(=O)[O-])ccc6F)c6ccc3[nH]6)C=C5)C=C4)cc1)=C2
REMARK SMILES IDX 24 1 23 2 22 3 21 4 20 5 19 6 17 7 18 8 16 9 1 10 2 11 3 12
REMARK SMILES IDX 9 13 4 14 8 15 10 16 5 17 6 18 94 19 11 20 7 21 12 22 13 23
REMARK SMILES IDX 14 24 15 25 25 26 26 27 27 28 28 29 29 30 30 31 31 32 32 33
REMARK SMILES IDX 93 34 33 35 92 36 34 37 35 38 36 39 86 40 37 41 91 42 85 43
REMARK SMILES IDX 87 44 38 45 90 46 84 47 83 48 39 50 71 51 51 52 70 53 52 54
REMARK SMILES IDX 55 55 69 56 88 57 53 58 54 59 68 61 89 62 56 63 40 64 41 65
REMARK SMILES IDX 49 66 42 67 48 68 50 69 47 70 43 71 44 72 45 73 46 74 72 75
REMARK SMILES IDX 73 76 81 77 74 78 80 79 82 80 79 81 75 82 76 83 77 84 78 85
REMARK SMILES IDX 57 86 58 87 66 88 59 89 65 90 67 91 64 92 60 93 61 94 62 95
REMARK SMILES IDX 63 96
REMARK H PARENT 87 49 55 60
REMARK Flexibility Score: inf
ROOT
ATOM      1  C   UNL A   1      46.636  20.651  37.497  1.00  0.00     0.188 C 
ENDROOT
BRANCH   1   2
ATOM      2  C   UNL A   1      47.247  19.291  37.896  1.00  0.00     0.188 C 
BRANCH   2   3
ATOM      3  O   UNL A   1      47.581  19.009  39.244  1.00  0.00    -0.376 OA
BRANCH   3   4
ATOM      4  C   UNL A   1      46.569  18.732  40.197  1.00  0.00     0.202 C 
BRANCH   4   5
ATOM      5  C   UNL A   1      46.137  17.296  40.488  1.00  0.00     0.261 C 
BRANCH   5   6
ATOM      6  O   UNL A   1      44.719  17.140  40.609  1.00  0.00    -0.460 OA
BRANCH   6   7
ATOM      7  C   UNL A   1      44.226  17.360  41.851  1.00  0.00     0.338 C 
ATOM      8  O   UNL A   1      44.045  18.445  42.383  1.00  0.00    -0.246 OA
BRANCH   7   9
ATOM      9  C   UNL A   1      43.829  16.080  42.461  1.00  0.00     0.087 C 
ATOM     10  C   UNL A   1      41.679  11.561  43.436  1.00  0.00     0.048 C 
ATOM     11  C   UNL A   1      42.941  12.257  43.861  1.00  0.00    -0.007 A 
ATOM     12  C   UNL A   1      43.851  11.592  44.686  1.00  0.00     0.028 A 
ATOM     13  C   UNL A   1      43.219  13.573  43.468  1.00  0.00     0.131 A 
ATOM     14  C   UNL A   1      45.024  12.222  45.117  1.00  0.00     0.045 A 
ATOM     15  C   UNL A   1      44.417  14.203  43.858  1.00  0.00     0.022 A 
ATOM     16  O   UNL A   1      42.260  14.175  42.699  1.00  0.00    -0.475 OA
ATOM     17  Cl  UNL A   1      46.068  11.284  46.127  1.00  0.00    -0.084 Cl
ATOM     18  C   UNL A   1      45.323  13.538  44.725  1.00  0.00    -0.021 A 
ATOM     19  C   UNL A   1      44.714  15.517  43.292  1.00  0.00     0.027 C 
ATOM     20  C   UNL A   1      42.501  15.479  42.120  1.00  0.00     0.316 C 
ATOM     21  C   UNL A   1      46.573  14.238  45.208  1.00  0.00     0.047 C 
BRANCH  20  22
ATOM     22  C   UNL A   1      42.264  15.376  40.606  1.00  0.00     0.430 C 
ATOM     23  F   UNL A   1      42.005  16.593  40.067  1.00  0.00    -0.167 F 
ATOM     24  F   UNL A   1      43.349  14.896  39.954  1.00  0.00    -0.167 F 
ATOM     25  F   UNL A   1      41.222  14.571  40.304  1.00  0.00    -0.167 F 
ENDBRANCH  20  22
ENDBRANCH   7   9
ENDBRANCH   6   7
ENDBRANCH   5   6
ENDBRANCH   4   5
ENDBRANCH   3   4
ENDBRANCH   2   3
ENDBRANCH   1   2
BRANCH   1  26
ATOM     26  O   UNL A   1      46.307  20.941  36.153  1.00  0.00    -0.376 OA
BRANCH  26  27
ATOM     27  C   UNL A   1      46.367  22.276  35.677  1.00  0.00     0.202 C 
BRANCH  27  28
ATOM     28  C   UNL A   1      47.428  23.269  36.164  1.00  0.00     0.261 C 
BRANCH  28  29
ATOM     29  O   UNL A   1      46.915  24.416  36.848  1.00  0.00    -0.460 OA
BRANCH  29  30
ATOM     30  C   UNL A   1      47.350  25.608  36.363  1.00  0.00     0.338 C 
ATOM     31  O   UNL A   1      48.502  25.999  36.295  1.00  0.00    -0.246 OA
BRANCH  30  32
ATOM     32  C   UNL A   1      46.219  26.317  35.739  1.00  0.00     0.060 A 
ATOM     33  C   UNL A   1      44.956  25.715  35.787  1.00  0.00     0.016 A 
ATOM     34  C   UNL A   1      46.408  27.532  35.081  1.00  0.00     0.016 A 
ATOM     35  C   UNL A   1      43.871  26.324  35.158  1.00  0.00     0.010 A 
ATOM     36  C   UNL A   1      45.325  28.126  34.424  1.00  0.00     0.010 A 
ATOM     37  C   UNL A   1      44.061  27.512  34.440  1.00  0.00    -0.014 A 
BRANCH  37  38
ATOM     38  C   UNL A   1      42.981  28.001  33.552  1.00  0.00     0.031 A 
ATOM     39  C   UNL A   1      41.933  28.908  34.137  1.00  0.00     0.074 A 
ATOM     40  C   UNL A   1      42.956  27.687  32.244  1.00  0.00     0.049 A 
ATOM     41  N   UNL A   1      40.880  29.432  33.568  1.00  0.00    -0.248 NA
ATOM     42  C   UNL A   1      42.103  29.278  35.552  1.00  0.00     0.031 C 
ATOM     43  C   UNL A   1      43.955  26.877  31.550  1.00  0.00     0.029 A 
ATOM     44  N   UNL A   1      42.053  28.021  31.266  1.00  0.00    -0.354 N 
ATOM     45  C   UNL A   1      40.270  30.207  34.548  1.00  0.00     0.074 A 
ATOM     46  C   UNL A   1      41.051  30.058  35.756  1.00  0.00     0.031 C 
ATOM     47  C   UNL A   1      43.608  26.776  30.254  1.00  0.00     0.029 A 
ATOM     48  C   UNL A   1      42.346  27.482  30.036  1.00  0.00     0.049 A 
ATOM     49  H   UNL A   1      41.269  28.593  31.430  1.00  0.00     0.167 HD
ATOM     50  C   UNL A   1      39.164  30.981  34.446  1.00  0.00     0.034 A 
ATOM     51  C   UNL A   1      41.660  27.536  28.876  1.00  0.00     0.034 A 
ATOM     52  C   UNL A   1      38.375  31.104  33.249  1.00  0.00     0.049 A 
ATOM     53  C   UNL A   1      40.355  28.296  28.823  1.00  0.00     0.074 A 
ATOM     54  C   UNL A   1      37.222  31.843  33.052  1.00  0.00     0.029 A 
ATOM     55  N   UNL A   1      38.652  30.468  32.048  1.00  0.00    -0.354 N 
ATOM     56  N   UNL A   1      39.767  28.991  29.770  1.00  0.00    -0.248 NA
ATOM     57  C   UNL A   1      39.619  28.271  27.551  1.00  0.00     0.031 C 
ATOM     58  C   UNL A   1      36.769  31.606  31.750  1.00  0.00     0.029 A 
ATOM     59  C   UNL A   1      37.675  30.771  31.116  1.00  0.00     0.049 A 
ATOM     60  H   UNL A   1      39.429  29.885  31.884  1.00  0.00     0.167 HD
ATOM     61  C   UNL A   1      38.605  29.502  29.198  1.00  0.00     0.074 A 
ATOM     62  C   UNL A   1      38.575  29.041  27.826  1.00  0.00     0.031 C 
ATOM     63  C   UNL A   1      37.651  30.290  29.756  1.00  0.00     0.034 A 
BRANCH  50  64
ATOM     64  C   UNL A   1      38.720  31.718  35.679  1.00  0.00     0.023 A 
ATOM     65  C   UNL A   1      38.063  31.057  36.730  1.00  0.00     0.031 A 
ATOM     66  C   UNL A   1      38.965  33.096  35.807  1.00  0.00     0.131 A 
ATOM     67  C   UNL A   1      37.639  31.784  37.852  1.00  0.00     0.055 A 
ATOM     68  C   UNL A   1      38.593  33.801  36.952  1.00  0.00     0.041 A 
ATOM     69  F   UNL A   1      39.568  33.777  34.820  1.00  0.00    -0.206 F 
ATOM     70  C   UNL A   1      37.921  33.147  37.980  1.00  0.00     0.022 A 
BRANCH  67  71
ATOM     71  S   UNL A   1      36.650  30.939  39.114  1.00  0.00     0.124 S 
ATOM     72  O   UNL A   1      36.403  29.648  38.478  1.00  0.00    -0.237 OA
ATOM     73  O   UNL A   1      37.546  30.924  40.265  1.00  0.00    -0.237 OA
ATOM     74  O   UNL A   1      35.472  31.794  39.254  1.00  0.00    -0.744 OA
ENDBRANCH  67  71
ENDBRANCH  50  64
BRANCH  51  75
ATOM     75  C   UNL A   1      42.159  26.815  27.671  1.00  0.00     0.023 A 
ATOM     76  C   UNL A   1      42.099  25.415  27.588  1.00  0.00     0.031 A 
ATOM     77  C   UNL A   1      42.746  27.517  26.604  1.00  0.00     0.131 A 
ATOM     78  C   UNL A   1      42.641  24.759  26.472  1.00  0.00     0.055 A 
ATOM     79  C   UNL A   1      43.248  26.863  25.478  1.00  0.00     0.041 A 
ATOM     80  F   UNL A   1      42.831  28.857  26.639  1.00  0.00    -0.206 F 
ATOM     81  C   UNL A   1      43.205  25.474  25.411  1.00  0.00     0.022 A 
BRANCH  78  82
ATOM     82  S   UNL A   1      42.644  22.945  26.442  1.00  0.00     0.124 S 
ATOM     83  O   UNL A   1      44.003  22.644  26.878  1.00  0.00    -0.237 OA
ATOM     84  O   UNL A   1      41.580  22.624  27.388  1.00  0.00    -0.237 OA
ATOM     85  O   UNL A   1      42.350  22.627  25.047  1.00  0.00    -0.744 OA
ENDBRANCH  78  82
ENDBRANCH  51  75
BRANCH  63  86
ATOM     86  C   UNL A   1      36.505  30.728  28.882  1.00  0.00     0.023 A 
ATOM     87  C   UNL A   1      35.586  29.805  28.359  1.00  0.00     0.031 A 
ATOM     88  C   UNL A   1      36.302  32.095  28.618  1.00  0.00     0.131 A 
ATOM     89  C   UNL A   1      34.512  30.259  27.577  1.00  0.00     0.055 A 
ATOM     90  C   UNL A   1      35.209  32.544  27.878  1.00  0.00     0.041 A 
ATOM     91  F   UNL A   1      37.151  33.017  29.102  1.00  0.00    -0.206 F 
ATOM     92  C   UNL A   1      34.309  31.624  27.348  1.00  0.00     0.022 A 
BRANCH  89  93
ATOM     93  S   UNL A   1      33.393  29.040  26.837  1.00  0.00     0.124 S 
ATOM     94  O   UNL A   1      32.730  29.826  25.802  1.00  0.00    -0.237 OA
ATOM     95  O   UNL A   1      34.314  28.011  26.363  1.00  0.00    -0.237 OA
ATOM     96  O   UNL A   1      32.538  28.637  27.952  1.00  0.00    -0.744 OA
ENDBRANCH  89  93
ENDBRANCH  63  86
ENDBRANCH  37  38
ENDBRANCH  30  32
ENDBRANCH  29  30
ENDBRANCH  28  29
ENDBRANCH  27  28
ENDBRANCH  26  27
ENDBRANCH   1  26
TORSDOF 21
ENDMDL
MODEL 2
REMARK VINA RESULT:     -10.8      1.100      7.360
REMARK SMILES Cc1cc(Cl)c(C)c2c1O[C@H](C(F)(F)F)C(C(=O)OCCOCCOCCOC(=O)c1ccc(-c3c4nc(c(-c5cc(S(=O)(=O)[O-])ccc5F)c5ccc([nH]5)c(-c5cc(S(=O)(=O)[O-])ccc5F)c5nc(c(-c6cc(S(=O)(=O)[O-])ccc6F)c6ccc3[nH]6)C=C5)C=C4)cc1)=C2
REMARK SMILES IDX 24 1 23 2 22 3 21 4 20 5 19 6 17 7 18 8 16 9 1 10 2 11 3 12
REMARK SMILES IDX 9 13 4 14 8 15 10 16 5 17 6 18 94 19 11 20 7 21 12 22 13 23
REMARK SMILES IDX 14 24 15 25 25 26 26 27 27 28 28 29 29 30 30 31 31 32 32 33
REMARK SMILES IDX 93 34 33 35 92 36 34 37 35 38 36 39 86 40 37 41 91 42 85 43
REMARK SMILES IDX 87 44 38 45 90 46 84 47 83 48 39 50 71 51 51 52 70 53 52 54
REMARK SMILES IDX 55 55 69 56 88 57 53 58 54 59 68 61 89 62 56 63 40 64 41 65
REMARK SMILES IDX 49 66 42 67 48 68 50 69 47 70 43 71 44 72 45 73 46 74 72 75
REMARK SMILES IDX 73 76 81 77 74 78 80 79 82 80 79 81 75 82 76 83 77 84 78 85
REMARK SMILES IDX 57 86 58 87 66 88 59 89 65 90 67 91 64 92 60 93 61 94 62 95
REMARK SMILES IDX 63 96
REMARK H PARENT 87 49 55 60
REMARK Flexibility Score: inf
ROOT
ATOM      1  C   UNL A   1      48.202  21.639  37.974  1.00  0.00     0.188 C 
ENDROOT
BRANCH   1   2
ATOM      2  C   UNL A   1      48.017  20.186  37.488  1.00  0.00     0.188 C 
BRANCH   2   3
ATOM      3  O   UNL A   1      46.758  19.542  37.575  1.00  0.00    -0.376 OA
BRANCH   3   4
ATOM      4  C   UNL A   1      46.515  18.562  38.570  1.00  0.00     0.202 C 
BRANCH   4   5
ATOM      5  C   UNL A   1      46.410  18.950  40.044  1.00  0.00     0.261 C 
BRANCH   5   6
ATOM      6  O   UNL A   1      45.861  17.915  40.868  1.00  0.00    -0.460 OA
BRANCH   6   7
ATOM      7  C   UNL A   1      44.676  18.218  41.448  1.00  0.00     0.338 C 
ATOM      8  O   UNL A   1      44.201  19.333  41.601  1.00  0.00    -0.246 OA
BRANCH   7   9
ATOM      9  C   UNL A   1      43.961  16.977  41.793  1.00  0.00     0.087 C 
ATOM     10  C   UNL A   1      41.456  12.541  41.615  1.00  0.00     0.048 C 
ATOM     11  C   UNL A   1      42.307  13.246  42.632  1.00  0.00    -0.007 A 
ATOM     12  C   UNL A   1      42.595  12.617  43.846  1.00  0.00     0.028 A 
ATOM     13  C   UNL A   1      42.806  14.535  42.402  1.00  0.00     0.131 A 
ATOM     14  C   UNL A   1      43.366  13.258  44.822  1.00  0.00     0.045 A 
ATOM     15  C   UNL A   1      43.620  15.173  43.358  1.00  0.00     0.022 A 
ATOM     16  O   UNL A   1      42.444  15.104  41.211  1.00  0.00    -0.475 OA
ATOM     17  Cl  UNL A   1      43.653  12.366  46.276  1.00  0.00    -0.084 Cl
ATOM     18  C   UNL A   1      43.881  14.548  44.605  1.00  0.00    -0.021 A 
ATOM     19  C   UNL A   1      44.228  16.452  42.994  1.00  0.00     0.027 C 
ATOM     20  C   UNL A   1      43.013  16.372  40.806  1.00  0.00     0.316 C 
ATOM     21  C   UNL A   1      44.691  15.260  45.664  1.00  0.00     0.047 C 
BRANCH  20  22
ATOM     22  C   UNL A   1      43.635  16.189  39.414  1.00  0.00     0.430 C 
ATOM     23  F   UNL A   1      43.525  17.321  38.675  1.00  0.00    -0.167 F 
ATOM     24  F   UNL A   1      44.959  15.909  39.483  1.00  0.00    -0.167 F 
ATOM     25  F   UNL A   1      43.048  15.192  38.716  1.00  0.00    -0.167 F 
ENDBRANCH  20  22
ENDBRANCH   7   9
ENDBRANCH   6   7
ENDBRANCH   5   6
ENDBRANCH   4   5
ENDBRANCH   3   4
ENDBRANCH   2   3
ENDBRANCH   1   2
BRANCH   1  26
ATOM     26  O   UNL A   1      47.094  22.437  38.342  1.00  0.00    -0.376 OA
BRANCH  26  27
ATOM     27  C   UNL A   1      47.229  23.847  38.425  1.00  0.00     0.202 C 
BRANCH  27  28
ATOM     28  C   UNL A   1      48.465  24.581  37.896  1.00  0.00     0.261 C 
BRANCH  28  29
ATOM     29  O   UNL A   1      48.189  25.677  37.018  1.00  0.00    -0.460 OA
BRANCH  29  30
ATOM     30  C   UNL A   1      47.889  25.321  35.743  1.00  0.00     0.338 C 
ATOM     31  O   UNL A   1      48.379  24.410  35.098  1.00  0.00    -0.246 OA
BRANCH  30  32
ATOM     32  C   UNL A   1      46.721  26.094  35.288  1.00  0.00     0.060 A 
ATOM     33  C   UNL A   1      45.450  25.531  35.459  1.00  0.00     0.016 A 
ATOM     34  C   UNL A   1      46.876  27.333  34.666  1.00  0.00     0.016 A 
ATOM     35  C   UNL A   1      44.323  26.203  34.989  1.00  0.00     0.010 A 
ATOM     36  C   UNL A   1      45.747  27.992  34.168  1.00  0.00     0.010 A 
ATOM     37  C   UNL A   1      44.471  27.418  34.306  1.00  0.00    -0.014 A 
BRANCH  37  38
ATOM     38  C   UNL A   1      43.314  27.983  33.574  1.00  0.00     0.031 A 
ATOM     39  C   UNL A   1      43.110  27.573  32.140  1.00  0.00     0.074 A 
ATOM     40  C   UNL A   1      42.437  28.803  34.179  1.00  0.00     0.049 A 
ATOM     41  N   UNL A   1      42.194  27.958  31.292  1.00  0.00    -0.248 NA
ATOM     42  C   UNL A   1      44.064  26.591  31.597  1.00  0.00     0.031 C 
ATOM     43  C   UNL A   1      42.491  29.213  35.581  1.00  0.00     0.029 A 
ATOM     44  N   UNL A   1      41.323  29.434  33.685  1.00  0.00    -0.354 N 
ATOM     45  C   UNL A   1      42.448  27.254  30.120  1.00  0.00     0.074 A 
ATOM     46  C   UNL A   1      43.624  26.445  30.356  1.00  0.00     0.031 C 
ATOM     47  C   UNL A   1      41.452  30.030  35.834  1.00  0.00     0.029 A 
ATOM     48  C   UNL A   1      40.684  30.230  34.607  1.00  0.00     0.049 A 
ATOM     49  H   UNL A   1      41.010  29.327  32.758  1.00  0.00     0.167 HD
ATOM     50  C   UNL A   1      41.758  27.274  28.956  1.00  0.00     0.034 A 
ATOM     51  C   UNL A   1      39.616  31.042  34.464  1.00  0.00     0.034 A 
ATOM     52  C   UNL A   1      40.605  28.101  28.718  1.00  0.00     0.049 A 
ATOM     53  C   UNL A   1      38.944  31.150  33.116  1.00  0.00     0.074 A 
ATOM     54  C   UNL A   1      39.851  28.213  27.563  1.00  0.00     0.029 A 
ATOM     55  N   UNL A   1      40.044  28.965  29.646  1.00  0.00    -0.354 N 
ATOM     56  N   UNL A   1      39.221  30.510  32.003  1.00  0.00    -0.248 NA
ATOM     57  C   UNL A   1      37.824  32.094  33.003  1.00  0.00     0.031 C 
ATOM     58  C   UNL A   1      38.871  29.187  27.775  1.00  0.00     0.029 A 
ATOM     59  C   UNL A   1      38.973  29.636  29.081  1.00  0.00     0.049 A 
ATOM     60  H   UNL A   1      40.361  29.084  30.571  1.00  0.00     0.167 HD
ATOM     61  C   UNL A   1      38.293  30.960  31.066  1.00  0.00     0.074 A 
ATOM     62  C   UNL A   1      37.448  31.921  31.743  1.00  0.00     0.031 C 
ATOM     63  C   UNL A   1      38.149  30.603  29.765  1.00  0.00     0.034 A 
BRANCH  50  64
ATOM     64  C   UNL A   1      42.263  26.404  27.838  1.00  0.00     0.023 A 
ATOM     65  C   UNL A   1      41.867  25.061  27.720  1.00  0.00     0.031 A 
ATOM     66  C   UNL A   1      43.142  26.928  26.875  1.00  0.00     0.131 A 
ATOM     67  C   UNL A   1      42.380  24.274  26.679  1.00  0.00     0.055 A 
ATOM     68  C   UNL A   1      43.602  26.155  25.808  1.00  0.00     0.041 A 
ATOM     69  F   UNL A   1      43.567  28.198  26.958  1.00  0.00    -0.206 F 
ATOM     70  C   UNL A   1      43.226  24.818  25.709  1.00  0.00     0.022 A 
BRANCH  67  71
ATOM     71  S   UNL A   1      41.982  22.505  26.648  1.00  0.00     0.124 S 
ATOM     72  O   UNL A   1      40.545  22.523  26.903  1.00  0.00    -0.237 OA
ATOM     73  O   UNL A   1      42.389  22.110  25.305  1.00  0.00    -0.237 OA
ATOM     74  O   UNL A   1      42.795  21.954  27.732  1.00  0.00    -0.744 OA
ENDBRANCH  67  71
ENDBRANCH  50  64
BRANCH  51  75
ATOM     75  C   UNL A   1      39.134  31.859  35.613  1.00  0.00     0.023 A 
ATOM     76  C   UNL A   1      38.393  31.279  36.654  1.00  0.00     0.031 A 
ATOM     77  C   UNL A   1      39.371  33.244  35.660  1.00  0.00     0.131 A 
ATOM     78  C   UNL A   1      37.892  32.087  37.687  1.00  0.00     0.055 A 
ATOM     79  C   UNL A   1      38.904  34.037  36.709  1.00  0.00     0.041 A 
ATOM     80  F   UNL A   1      40.071  33.846  34.685  1.00  0.00    -0.206 F 
ATOM     81  C   UNL A   1      38.152  33.460  37.728  1.00  0.00     0.022 A 
BRANCH  78  82
ATOM     82  S   UNL A   1      36.848  31.327  38.961  1.00  0.00     0.124 S 
ATOM     83  O   UNL A   1      36.731  29.959  38.470  1.00  0.00    -0.237 OA
ATOM     84  O   UNL A   1      37.654  31.512  40.164  1.00  0.00    -0.237 OA
ATOM     85  O   UNL A   1      35.620  32.117  38.911  1.00  0.00    -0.744 OA
ENDBRANCH  78  82
ENDBRANCH  51  75
BRANCH  63  86
ATOM     86  C   UNL A   1      37.023  31.233  28.987  1.00  0.00     0.023 A 
ATOM     87  C   UNL A   1      35.935  30.474  28.527  1.00  0.00     0.031 A 
ATOM     88  C   UNL A   1      37.016  32.620  28.753  1.00  0.00     0.131 A 
ATOM     89  C   UNL A   1      34.889  31.106  27.835  1.00  0.00     0.055 A 
ATOM     90  C   UNL A   1      35.954  33.248  28.104  1.00  0.00     0.041 A 
ATOM     91  F   UNL A   1      38.032  33.388  29.178  1.00  0.00    -0.206 F 
ATOM     92  C   UNL A   1      34.884  32.490  27.637  1.00  0.00     0.022 A 
BRANCH  89  93
ATOM     93  S   UNL A   1      33.541  30.091  27.173  1.00  0.00     0.124 S 
ATOM     94  O   UNL A   1      33.892  30.007  25.759  1.00  0.00    -0.237 OA
ATOM     95  O   UNL A   1      33.672  28.853  27.936  1.00  0.00    -0.237 OA
ATOM     96  O   UNL A   1      32.343  30.875  27.469  1.00  0.00    -0.744 OA
ENDBRANCH  89  93
ENDBRANCH  63  86
ENDBRANCH  37  38
ENDBRANCH  30  32
ENDBRANCH  29  30
ENDBRANCH  28  29
ENDBRANCH  27  28
ENDBRANCH  26  27
ENDBRANCH   1  26
TORSDOF 21
ENDMDL
MODEL 3
REMARK VINA RESULT:     -10.7      8.608     14.826
REMARK SMILES Cc1cc(Cl)c(C)c2c1O[C@H](C(F)(F)F)C(C(=O)OCCOCCOCCOC(=O)c1ccc(-c3c4nc(c(-c5cc(S(=O)(=O)[O-])ccc5F)c5ccc([nH]5)c(-c5cc(S(=O)(=O)[O-])ccc5F)c5nc(c(-c6cc(S(=O)(=O)[O-])ccc6F)c6ccc3[nH]6)C=C5)C=C4)cc1)=C2
REMARK SMILES IDX 24 1 23 2 22 3 21 4 20 5 19 6 17 7 18 8 16 9 1 10 2 11 3 12
REMARK SMILES IDX 9 13 4 14 8 15 10 16 5 17 6 18 94 19 11 20 7 21 12 22 13 23
REMARK SMILES IDX 14 24 15 25 25 26 26 27 27 28 28 29 29 30 30 31 31 32 32 33
REMARK SMILES IDX 93 34 33 35 92 36 34 37 35 38 36 39 86 40 37 41 91 42 85 43
REMARK SMILES IDX 87 44 38 45 90 46 84 47 83 48 39 50 71 51 51 52 70 53 52 54
REMARK SMILES IDX 55 55 69 56 88 57 53 58 54 59 68 61 89 62 56 63 40 64 41 65
REMARK SMILES IDX 49 66 42 67 48 68 50 69 47 70 43 71 44 72 45 73 46 74 72 75
REMARK SMILES IDX 73 76 81 77 74 78 80 79 82 80 79 81 75 82 76 83 77 84 78 85
REMARK SMILES IDX 57 86 58 87 66 88 59 89 65 90 67 91 64 92 60 93 61 94 62 95
REMARK SMILES IDX 63 96
REMARK H PARENT 87 49 55 60
REMARK Flexibility Score: inf
ROOT
ATOM      1  C   UNL A   1      32.852  36.014  31.269  1.00  0.00     0.188 C 
ENDROOT
BRANCH   1   2
ATOM      2  C   UNL A   1      33.877  34.940  31.690  1.00  0.00     0.188 C 
BRANCH   2   3
ATOM      3  O   UNL A   1      33.680  34.160  32.855  1.00  0.00    -0.376 OA
BRANCH   3   4
ATOM      4  C   UNL A   1      34.558  33.092  33.168  1.00  0.00     0.202 C 
BRANCH   4   5
ATOM      5  C   UNL A   1      36.070  33.251  33.017  1.00  0.00     0.261 C 
BRANCH   5   6
ATOM      6  O   UNL A   1      36.819  32.595  34.047  1.00  0.00    -0.460 OA
BRANCH   6   7
ATOM      7  C   UNL A   1      37.298  31.374  33.714  1.00  0.00     0.338 C 
ATOM      8  O   UNL A   1      36.729  30.522  33.050  1.00  0.00    -0.246 OA
BRANCH   7   9
ATOM      9  C   UNL A   1      38.687  31.240  34.188  1.00  0.00     0.087 C 
ATOM     10  C   UNL A   1      42.969  31.388  36.950  1.00  0.00     0.048 C 
ATOM     11  C   UNL A   1      42.460  30.547  35.814  1.00  0.00    -0.007 A 
ATOM     12  C   UNL A   1      43.235  29.486  35.340  1.00  0.00     0.028 A 
ATOM     13  C   UNL A   1      41.229  30.814  35.199  1.00  0.00     0.131 A 
ATOM     14  C   UNL A   1      42.798  28.699  34.269  1.00  0.00     0.045 A 
ATOM     15  C   UNL A   1      40.757  30.003  34.150  1.00  0.00     0.022 A 
ATOM     16  O   UNL A   1      40.549  31.897  35.688  1.00  0.00    -0.475 OA
ATOM     17  Cl  UNL A   1      43.849  27.414  33.785  1.00  0.00    -0.084 Cl
ATOM     18  C   UNL A   1      41.562  28.948  33.646  1.00  0.00    -0.021 A 
ATOM     19  C   UNL A   1      39.403  30.244  33.654  1.00  0.00     0.027 C 
ATOM     20  C   UNL A   1      39.207  32.184  35.226  1.00  0.00     0.316 C 
ATOM     21  C   UNL A   1      41.093  28.123  32.469  1.00  0.00     0.047 C 
BRANCH  20  22
ATOM     22  C   UNL A   1      38.293  32.283  36.457  1.00  0.00     0.430 C 
ATOM     23  F   UNL A   1      37.606  31.130  36.650  1.00  0.00    -0.167 F 
ATOM     24  F   UNL A   1      38.997  32.499  37.594  1.00  0.00    -0.167 F 
ATOM     25  F   UNL A   1      37.388  33.279  36.345  1.00  0.00    -0.167 F 
ENDBRANCH  20  22
ENDBRANCH   7   9
ENDBRANCH   6   7
ENDBRANCH   5   6
ENDBRANCH   4   5
ENDBRANCH   3   4
ENDBRANCH   2   3
ENDBRANCH   1   2
BRANCH   1  26
ATOM     26  O   UNL A   1      32.480  36.184  29.915  1.00  0.00    -0.376 OA
BRANCH  26  27
ATOM     27  C   UNL A   1      33.255  35.593  28.884  1.00  0.00     0.202 C 
BRANCH  27  28
ATOM     28  C   UNL A   1      32.818  34.311  28.168  1.00  0.00     0.261 C 
BRANCH  28  29
ATOM     29  O   UNL A   1      33.841  33.669  27.400  1.00  0.00    -0.460 OA
BRANCH  29  30
ATOM     30  C   UNL A   1      34.036  32.359  27.697  1.00  0.00     0.338 C 
ATOM     31  O   UNL A   1      33.377  31.410  27.308  1.00  0.00    -0.246 OA
BRANCH  30  32
ATOM     32  C   UNL A   1      35.305  32.214  28.430  1.00  0.00     0.060 A 
ATOM     33  C   UNL A   1      36.265  33.225  28.293  1.00  0.00     0.016 A 
ATOM     34  C   UNL A   1      35.563  31.083  29.205  1.00  0.00     0.016 A 
ATOM     35  C   UNL A   1      37.502  33.099  28.924  1.00  0.00     0.010 A 
ATOM     36  C   UNL A   1      36.815  30.944  29.812  1.00  0.00     0.010 A 
ATOM     37  C   UNL A   1      37.796  31.939  29.653  1.00  0.00    -0.014 A 
BRANCH  37  38
ATOM     38  C   UNL A   1      39.192  31.687  30.081  1.00  0.00     0.031 A 
ATOM     39  C   UNL A   1      39.917  30.509  29.489  1.00  0.00     0.074 A 
ATOM     40  C   UNL A   1      39.818  32.512  30.938  1.00  0.00     0.049 A 
ATOM     41  N   UNL A   1      41.124  30.073  29.733  1.00  0.00    -0.248 NA
ATOM     42  C   UNL A   1      39.183  29.726  28.482  1.00  0.00     0.031 C 
ATOM     43  C   UNL A   1      39.243  33.723  31.521  1.00  0.00     0.029 A 
ATOM     44  N   UNL A   1      41.085  32.454  31.463  1.00  0.00    -0.354 N 
ATOM     45  C   UNL A   1      41.302  28.975  28.900  1.00  0.00     0.074 A 
ATOM     46  C   UNL A   1      40.068  28.792  28.168  1.00  0.00     0.031 C 
ATOM     47  C   UNL A   1      40.158  34.295  32.326  1.00  0.00     0.029 A 
ATOM     48  C   UNL A   1      41.366  33.472  32.344  1.00  0.00     0.049 A 
ATOM     49  H   UNL A   1      41.733  31.750  31.231  1.00  0.00     0.167 HD
ATOM     50  C   UNL A   1      42.399  28.196  28.750  1.00  0.00     0.034 A 
ATOM     51  C   UNL A   1      42.465  33.696  33.093  1.00  0.00     0.034 A 
ATOM     52  C   UNL A   1      43.615  28.366  29.500  1.00  0.00     0.049 A 
ATOM     53  C   UNL A   1      43.626  32.734  33.010  1.00  0.00     0.074 A 
ATOM     54  C   UNL A   1      44.774  27.613  29.441  1.00  0.00     0.029 A 
ATOM     55  N   UNL A   1      43.828  29.352  30.452  1.00  0.00    -0.354 N 
ATOM     56  N   UNL A   1      43.766  31.674  32.247  1.00  0.00    -0.248 NA
ATOM     57  C   UNL A   1      44.772  32.993  33.893  1.00  0.00     0.031 C 
ATOM     58  C   UNL A   1      45.665  28.107  30.399  1.00  0.00     0.029 A 
ATOM     59  C   UNL A   1      45.087  29.208  31.009  1.00  0.00     0.049 A 
ATOM     60  H   UNL A   1      43.178  30.051  30.696  1.00  0.00     0.167 HD
ATOM     61  C   UNL A   1      45.024  31.156  32.544  1.00  0.00     0.074 A 
ATOM     62  C   UNL A   1      45.605  32.019  33.552  1.00  0.00     0.031 C 
ATOM     63  C   UNL A   1      45.646  30.067  32.024  1.00  0.00     0.034 A 
BRANCH  50  64
ATOM     64  C   UNL A   1      42.313  27.061  27.767  1.00  0.00     0.023 A 
ATOM     65  C   UNL A   1      42.034  25.750  28.187  1.00  0.00     0.031 A 
ATOM     66  C   UNL A   1      42.506  27.297  26.395  1.00  0.00     0.131 A 
ATOM     67  C   UNL A   1      41.989  24.713  27.244  1.00  0.00     0.055 A 
ATOM     68  C   UNL A   1      42.401  26.270  25.456  1.00  0.00     0.041 A 
ATOM     69  F   UNL A   1      42.799  28.528  25.948  1.00  0.00    -0.206 F 
ATOM     70  C   UNL A   1      42.147  24.968  25.878  1.00  0.00     0.022 A 
BRANCH  67  71
ATOM     71  S   UNL A   1      41.791  23.009  27.831  1.00  0.00     0.124 S 
ATOM     72  O   UNL A   1      42.719  22.290  26.964  1.00  0.00    -0.237 OA
ATOM     73  O   UNL A   1      42.172  23.109  29.235  1.00  0.00    -0.237 OA
ATOM     74  O   UNL A   1      40.376  22.728  27.590  1.00  0.00    -0.744 OA
ENDBRANCH  67  71
ENDBRANCH  50  64
BRANCH  51  75
ATOM     75  C   UNL A   1      42.514  34.855  34.029  1.00  0.00     0.023 A 
ATOM     76  C   UNL A   1      42.135  34.717  35.373  1.00  0.00     0.031 A 
ATOM     77  C   UNL A   1      42.900  36.129  33.577  1.00  0.00     0.131 A 
ATOM     78  C   UNL A   1      42.124  35.842  36.213  1.00  0.00     0.055 A 
ATOM     79  C   UNL A   1      42.926  37.236  34.426  1.00  0.00     0.041 A 
ATOM     80  F   UNL A   1      43.267  36.312  32.299  1.00  0.00    -0.206 F 
ATOM     81  C   UNL A   1      42.528  37.098  35.752  1.00  0.00     0.022 A 
BRANCH  78  82
ATOM     82  S   UNL A   1      41.528  35.653  37.916  1.00  0.00     0.124 S 
ATOM     83  O   UNL A   1      42.100  34.365  38.290  1.00  0.00    -0.237 OA
ATOM     84  O   UNL A   1      42.100  36.825  38.571  1.00  0.00    -0.237 OA
ATOM     85  O   UNL A   1      40.073  35.674  37.771  1.00  0.00    -0.744 OA
ENDBRANCH  78  82
ENDBRANCH  51  75
BRANCH  63  86
ATOM     86  C   UNL A   1      47.036  29.756  32.512  1.00  0.00     0.023 A 
ATOM     87  C   UNL A   1      47.256  28.939  33.632  1.00  0.00     0.031 A 
ATOM     88  C   UNL A   1      48.155  30.241  31.810  1.00  0.00     0.131 A 
ATOM     89  C   UNL A   1      48.569  28.646  34.033  1.00  0.00     0.055 A 
ATOM     90  C   UNL A   1      49.456  29.910  32.186  1.00  0.00     0.041 A 
ATOM     91  F   UNL A   1      47.996  31.021  30.729  1.00  0.00    -0.206 F 
ATOM     92  C   UNL A   1      49.670  29.112  33.307  1.00  0.00     0.022 A 
BRANCH  89  93
ATOM     93  S   UNL A   1      48.826  27.665  35.536  1.00  0.00     0.124 S 
ATOM     94  O   UNL A   1      47.458  27.458  36.000  1.00  0.00    -0.237 OA
ATOM     95  O   UNL A   1      49.512  26.480  35.028  1.00  0.00    -0.237 OA
ATOM     96  O   UNL A   1      49.642  28.536  36.380  1.00  0.00    -0.744 OA
ENDBRANCH  89  93
ENDBRANCH  63  86
ENDBRANCH  37  38
ENDBRANCH  30  32
ENDBRANCH  29  30
ENDBRANCH  28  29
ENDBRANCH  27  28
ENDBRANCH  26  27
ENDBRANCH   1  26
TORSDOF 21
ENDMDL
