MODEL 1
REMARK VINA RESULT:     -13.5      0.000      0.000
REMARK SMILES Cc1ccc(-c2cc(C(=O)OCCOCCOCCOC(=O)c3ccc(-c4c5nc(c(-c6cc(S(=O)(=O)[O-])ccc6F)c6ccc([nH]6)c(-c6cc(S(=O)(=O)[O-])ccc6F)c6nc(c(-c7cc(S(=O)(=O)[O-])ccc7F)c7ccc4[nH]7)C=C6)C=C5)cc3)c3c(-c4cccc([N+](=O)[O-])c4)[nH]nc3n2)cc1
REMARK SMILES IDX 16 1 15 2 14 3 13 4 12 5 11 6 9 7 10 8 8 9 6 10 7 11 100 12
REMARK SMILES IDX 99 13 86 14 98 15 87 16 97 17 5 19 1 20 2 21 3 22 102 23
REMARK SMILES IDX 4 24 101 25 88 26 89 27 96 28 90 29 92 30 91 31 93 32 94 33
REMARK SMILES IDX 95 34 17 35 18 36 19 37 20 38 21 39 22 40 23 41 24 42 85 43
REMARK SMILES IDX 25 44 84 45 26 46 27 47 28 48 78 49 29 50 83 51 77 52 79 53
REMARK SMILES IDX 30 54 82 55 76 56 75 57 31 59 63 60 43 61 62 62 44 63 47 64
REMARK SMILES IDX 61 65 80 66 45 67 46 68 60 70 81 71 48 72 32 73 33 74 41 75
REMARK SMILES IDX 34 76 40 77 42 78 39 79 35 80 36 81 37 82 38 83 64 84 65 85
REMARK SMILES IDX 73 86 66 87 72 88 74 89 71 90 67 91 68 92 69 93 70 94 49 95
REMARK SMILES IDX 50 96 58 97 51 98 57 99 59 100 56 101 52 102 53 103 54 104
REMARK SMILES IDX 55 105
REMARK H PARENT 97 18 79 58 47 69
REMARK Flexibility Score: inf
ROOT
ATOM      1  C   UNL A   1      41.293  19.859  26.189  1.00  0.00     0.188 C 
ENDROOT
BRANCH   1   2
ATOM      2  C   UNL A   1      41.095  21.393  26.398  1.00  0.00     0.188 C 
BRANCH   2   3
ATOM      3  O   UNL A   1      39.676  21.759  26.465  1.00  0.00    -0.376 OA
BRANCH   3   4
ATOM      4  C   UNL A   1      39.316  23.172  26.305  1.00  0.00     0.202 C 
BRANCH   4   5
ATOM      5  C   UNL A   1      37.653  23.666  26.447  1.00  0.00     0.261 C 
BRANCH   5   6
ATOM      6  O   UNL A   1      36.521  24.348  25.271  1.00  0.00    -0.460 OA
BRANCH   6   7
ATOM      7  C   UNL A   1      35.146  24.289  24.749  1.00  0.00     0.339 C 
ATOM      8  O   UNL A   1      34.720  24.530  23.621  1.00  0.00    -0.246 OA
BRANCH   7   9
ATOM      9  C   UNL A   1      33.986  24.189  25.633  1.00  0.00     0.075 A 
ATOM     10  C   UNL A   1      32.116  25.699  26.047  1.00  0.00     0.074 A 
ATOM     11  C   UNL A   1      33.480  25.466  25.842  1.00  0.00     0.045 A 
ATOM     12  N   UNL A   1      31.134  24.790  26.167  1.00  0.00    -0.226 NA
ATOM     13  C   UNL A   1      31.556  23.527  25.962  1.00  0.00     0.182 A 
ATOM     14  C   UNL A   1      32.950  23.153  25.690  1.00  0.00     0.061 A 
ATOM     15  N   UNL A   1      30.716  22.502  25.970  1.00  0.00    -0.154 NA
ATOM     16  C   UNL A   1      32.848  21.749  25.538  1.00  0.00     0.076 A 
ATOM     17  N   UNL A   1      31.484  21.494  25.604  1.00  0.00    -0.275 N 
ATOM     18  H   UNL A   1      31.110  20.608  25.390  1.00  0.00     0.190 HD
BRANCH  10  19
ATOM     19  C   UNL A   1      31.715  27.086  26.142  1.00  0.00     0.000 A 
ATOM     20  C   UNL A   1      31.661  31.346  26.378  1.00  0.00     0.044 C 
ATOM     21  C   UNL A   1      31.597  29.855  26.289  1.00  0.00    -0.051 A 
ATOM     22  C   UNL A   1      31.786  29.098  27.452  1.00  0.00     0.004 A 
ATOM     23  C   UNL A   1      31.387  29.218  25.061  1.00  0.00     0.004 A 
ATOM     24  C   UNL A   1      31.835  27.716  27.380  1.00  0.00     0.010 A 
ATOM     25  C   UNL A   1      31.443  27.832  24.985  1.00  0.00     0.010 A 
ENDBRANCH  10  19
BRANCH  16  26
ATOM     26  C   UNL A   1      33.591  20.469  25.455  1.00  0.00     0.007 A 
ATOM     27  C   UNL A   1      35.006  20.488  25.529  1.00  0.00     0.011 A 
ATOM     28  C   UNL A   1      33.009  19.358  24.819  1.00  0.00     0.096 A 
ATOM     29  C   UNL A   1      35.803  19.460  24.986  1.00  0.00     0.008 A 
ATOM     30  C   UNL A   1      33.811  18.302  24.319  1.00  0.00     0.270 A 
ATOM     31  C   UNL A   1      35.209  18.359  24.376  1.00  0.00     0.085 A 
BRANCH  30  32
ATOM     32  N   UNL A   1      33.184  17.090  23.779  1.00  0.00     0.062 N 
ATOM     33  O   UNL A   1      32.910  17.081  22.574  1.00  0.00    -0.258 OA
ATOM     34  O   UNL A   1      32.965  16.154  24.560  1.00  0.00    -0.258 OA
ENDBRANCH  30  32
ENDBRANCH  16  26
ENDBRANCH   7   9
ENDBRANCH   6   7
ENDBRANCH   5   6
ENDBRANCH   4   5
ENDBRANCH   3   4
ENDBRANCH   2   3
ENDBRANCH   1   2
BRANCH   1  35
ATOM     35  O   UNL A   1      42.440  19.667  25.384  1.00  0.00    -0.376 OA
BRANCH  35  36
ATOM     36  C   UNL A   1      43.297  18.573  25.599  1.00  0.00     0.202 C 
BRANCH  36  37
ATOM     37  C   UNL A   1      44.589  18.740  24.780  1.00  0.00     0.261 C 
BRANCH  37  38
ATOM     38  O   UNL A   1      44.631  19.997  24.055  1.00  0.00    -0.460 OA
BRANCH  38  39
ATOM     39  C   UNL A   1      45.471  20.957  24.570  1.00  0.00     0.338 C 
ATOM     40  O   UNL A   1      46.687  20.910  24.445  1.00  0.00    -0.246 OA
BRANCH  39  41
ATOM     41  C   UNL A   1      44.711  22.080  25.203  1.00  0.00     0.060 A 
ATOM     42  C   UNL A   1      44.201  23.247  24.618  1.00  0.00     0.016 A 
ATOM     43  C   UNL A   1      44.669  22.064  26.547  1.00  0.00     0.016 A 
ATOM     44  C   UNL A   1      43.717  24.390  25.408  1.00  0.00     0.010 A 
ATOM     45  C   UNL A   1      44.543  23.306  27.174  1.00  0.00     0.010 A 
ATOM     46  C   UNL A   1      43.925  24.514  26.774  1.00  0.00    -0.014 A 
BRANCH  46  47
ATOM     47  C   UNL A   1      43.460  25.806  27.755  1.00  0.00     0.031 A 
ATOM     48  C   UNL A   1      42.040  26.827  27.786  1.00  0.00     0.074 A 
ATOM     49  C   UNL A   1      44.345  26.249  28.689  1.00  0.00     0.049 A 
ATOM     50  N   UNL A   1      42.007  28.036  28.328  1.00  0.00    -0.248 NA
ATOM     51  C   UNL A   1      40.660  26.635  27.241  1.00  0.00     0.031 C 
ATOM     52  C   UNL A   1      44.067  27.191  29.779  1.00  0.00     0.029 A 
ATOM     53  N   UNL A   1      45.697  26.032  28.857  1.00  0.00    -0.354 N 
ATOM     54  C   UNL A   1      40.691  28.519  28.412  1.00  0.00     0.074 A 
ATOM     55  C   UNL A   1      39.898  27.612  27.694  1.00  0.00     0.031 C 
ATOM     56  C   UNL A   1      45.215  27.736  30.198  1.00  0.00     0.029 A 
ATOM     57  C   UNL A   1      46.270  27.202  29.375  1.00  0.00     0.049 A 
ATOM     58  H   UNL A   1      46.177  25.199  28.649  1.00  0.00     0.167 HD
ATOM     59  C   UNL A   1      40.299  29.607  29.130  1.00  0.00     0.034 A 
ATOM     60  C   UNL A   1      47.255  27.929  28.774  1.00  0.00     0.034 A 
ATOM     61  C   UNL A   1      41.447  30.340  29.595  1.00  0.00     0.049 A 
ATOM     62  C   UNL A   1      46.835  29.372  28.447  1.00  0.00     0.074 A 
ATOM     63  C   UNL A   1      42.096  30.465  30.806  1.00  0.00     0.029 A 
ATOM     64  N   UNL A   1      42.277  30.884  28.636  1.00  0.00    -0.354 N 
ATOM     65  N   UNL A   1      45.771  29.986  28.890  1.00  0.00    -0.248 NA
ATOM     66  C   UNL A   1      47.575  30.205  27.498  1.00  0.00     0.031 C 
ATOM     67  C   UNL A   1      43.358  31.070  30.554  1.00  0.00     0.029 A 
ATOM     68  C   UNL A   1      43.449  31.336  29.199  1.00  0.00     0.049 A 
ATOM     69  H   UNL A   1      42.061  30.940  27.677  1.00  0.00     0.167 HD
ATOM     70  C   UNL A   1      45.593  31.179  28.205  1.00  0.00     0.074 A 
ATOM     71  C   UNL A   1      46.792  31.292  27.399  1.00  0.00     0.031 C 
ATOM     72  C   UNL A   1      44.444  31.926  28.316  1.00  0.00     0.034 A 
BRANCH  59  73
ATOM     73  C   UNL A   1      38.865  29.817  29.624  1.00  0.00     0.023 A 
ATOM     74  C   UNL A   1      38.187  30.991  29.240  1.00  0.00     0.031 A 
ATOM     75  C   UNL A   1      38.153  29.007  30.538  1.00  0.00     0.131 A 
ATOM     76  C   UNL A   1      36.992  31.397  29.868  1.00  0.00     0.055 A 
ATOM     77  C   UNL A   1      37.012  29.449  31.232  1.00  0.00     0.041 A 
ATOM     78  F   UNL A   1      38.486  27.727  30.757  1.00  0.00    -0.206 F 
ATOM     79  C   UNL A   1      36.440  30.670  30.917  1.00  0.00     0.022 A 
BRANCH  76  80
ATOM     80  S   UNL A   1      36.152  32.890  29.276  1.00  0.00     0.124 S 
ATOM     81  O   UNL A   1      35.356  32.379  28.166  1.00  0.00    -0.237 OA
ATOM     82  O   UNL A   1      35.414  33.313  30.462  1.00  0.00    -0.237 OA
ATOM     83  O   UNL A   1      37.254  33.772  28.892  1.00  0.00    -0.744 OA
ENDBRANCH  76  80
ENDBRANCH  59  73
BRANCH  60  84
ATOM     84  C   UNL A   1      48.129  27.081  27.919  1.00  0.00     0.023 A 
ATOM     85  C   UNL A   1      47.854  26.941  26.540  1.00  0.00     0.031 A 
ATOM     86  C   UNL A   1      49.432  26.848  28.349  1.00  0.00     0.131 A 
ATOM     87  C   UNL A   1      48.902  26.695  25.631  1.00  0.00     0.055 A 
ATOM     88  C   UNL A   1      50.452  26.634  27.425  1.00  0.00     0.041 A 
ATOM     89  F   UNL A   1      49.769  27.052  29.630  1.00  0.00    -0.206 F 
ATOM     90  C   UNL A   1      50.213  26.580  26.067  1.00  0.00     0.022 A 
BRANCH  87  91
ATOM     91  S   UNL A   1      48.649  26.725  23.840  1.00  0.00     0.124 S 
ATOM     92  O   UNL A   1      50.020  26.848  23.355  1.00  0.00    -0.237 OA
ATOM     93  O   UNL A   1      47.986  25.454  23.572  1.00  0.00    -0.237 OA
ATOM     94  O   UNL A   1      47.807  27.908  23.666  1.00  0.00    -0.744 OA
ENDBRANCH  87  91
ENDBRANCH  60  84
BRANCH  72  95
ATOM     95  C   UNL A   1      44.061  33.235  27.599  1.00  0.00     0.023 A 
ATOM     96  C   UNL A   1      43.698  34.425  28.243  1.00  0.00     0.031 A 
ATOM     97  C   UNL A   1      44.044  33.313  26.174  1.00  0.00     0.131 A 
ATOM     98  C   UNL A   1      43.338  35.584  27.517  1.00  0.00     0.055 A 
ATOM     99  C   UNL A   1      43.744  34.478  25.455  1.00  0.00     0.041 A 
ATOM    100  F   UNL A   1      44.299  32.252  25.396  1.00  0.00    -0.206 F 
ATOM    101  C   UNL A   1      43.378  35.626  26.127  1.00  0.00     0.022 A 
BRANCH  98 102
ATOM    102  S   UNL A   1      42.708  37.016  28.436  1.00  0.00     0.124 S 
ATOM    103  O   UNL A   1      41.381  36.560  28.840  1.00  0.00    -0.237 OA
ATOM    104  O   UNL A   1      43.687  37.144  29.509  1.00  0.00    -0.237 OA
ATOM    105  O   UNL A   1      42.717  38.092  27.448  1.00  0.00    -0.744 OA
ENDBRANCH  98 102
ENDBRANCH  72  95
ENDBRANCH  46  47
ENDBRANCH  39  41
ENDBRANCH  38  39
ENDBRANCH  37  38
ENDBRANCH  36  37
ENDBRANCH  35  36
ENDBRANCH   1  35
TORSDOF 23
ENDMDL
MODEL 2
REMARK VINA RESULT:     -13.2      1.410      4.480
REMARK SMILES Cc1ccc(-c2cc(C(=O)OCCOCCOCCOC(=O)c3ccc(-c4c5nc(c(-c6cc(S(=O)(=O)[O-])ccc6F)c6ccc([nH]6)c(-c6cc(S(=O)(=O)[O-])ccc6F)c6nc(c(-c7cc(S(=O)(=O)[O-])ccc7F)c7ccc4[nH]7)C=C6)C=C5)cc3)c3c(-c4cccc([N+](=O)[O-])c4)[nH]nc3n2)cc1
REMARK SMILES IDX 16 1 15 2 14 3 13 4 12 5 11 6 9 7 10 8 8 9 6 10 7 11 100 12
REMARK SMILES IDX 99 13 86 14 98 15 87 16 97 17 5 19 1 20 2 21 3 22 102 23
REMARK SMILES IDX 4 24 101 25 88 26 89 27 96 28 90 29 92 30 91 31 93 32 94 33
REMARK SMILES IDX 95 34 17 35 18 36 19 37 20 38 21 39 22 40 23 41 24 42 85 43
REMARK SMILES IDX 25 44 84 45 26 46 27 47 28 48 78 49 29 50 83 51 77 52 79 53
REMARK SMILES IDX 30 54 82 55 76 56 75 57 31 59 63 60 43 61 62 62 44 63 47 64
REMARK SMILES IDX 61 65 80 66 45 67 46 68 60 70 81 71 48 72 32 73 33 74 41 75
REMARK SMILES IDX 34 76 40 77 42 78 39 79 35 80 36 81 37 82 38 83 64 84 65 85
REMARK SMILES IDX 73 86 66 87 72 88 74 89 71 90 67 91 68 92 69 93 70 94 49 95
REMARK SMILES IDX 50 96 58 97 51 98 57 99 59 100 56 101 52 102 53 103 54 104
REMARK SMILES IDX 55 105
REMARK H PARENT 97 18 79 58 47 69
REMARK Flexibility Score: inf
ROOT
ATOM      1  C   UNL A   1      40.404  19.724  26.516  1.00  0.00     0.188 C 
ENDROOT
BRANCH   1   2
ATOM      2  C   UNL A   1      39.808  21.089  26.048  1.00  0.00     0.188 C 
BRANCH   2   3
ATOM      3  O   UNL A   1      38.560  20.914  25.298  1.00  0.00    -0.376 OA
BRANCH   3   4
ATOM      4  C   UNL A   1      37.376  21.656  25.741  1.00  0.00     0.202 C 
BRANCH   4   5
ATOM      5  C   UNL A   1      37.173  23.323  25.280  1.00  0.00     0.261 C 
BRANCH   5   6
ATOM      6  O   UNL A   1      36.072  24.105  24.137  1.00  0.00    -0.460 OA
BRANCH   6   7
ATOM      7  C   UNL A   1      34.780  23.993  23.442  1.00  0.00     0.339 C 
ATOM      8  O   UNL A   1      34.414  24.485  22.377  1.00  0.00    -0.246 OA
BRANCH   7   9
ATOM      9  C   UNL A   1      33.588  23.463  24.102  1.00  0.00     0.075 A 
ATOM     10  C   UNL A   1      33.161  21.355  25.251  1.00  0.00     0.074 A 
ATOM     11  C   UNL A   1      33.710  22.082  24.190  1.00  0.00     0.045 A 
ATOM     12  N   UNL A   1      32.390  21.814  26.252  1.00  0.00    -0.226 NA
ATOM     13  C   UNL A   1      32.241  23.152  26.233  1.00  0.00     0.182 A 
ATOM     14  C   UNL A   1      32.806  24.034  25.202  1.00  0.00     0.061 A 
ATOM     15  N   UNL A   1      31.572  23.792  27.180  1.00  0.00    -0.154 NA
ATOM     16  C   UNL A   1      32.383  25.309  25.650  1.00  0.00     0.076 A 
ATOM     17  N   UNL A   1      31.773  25.059  26.873  1.00  0.00    -0.275 N 
ATOM     18  H   UNL A   1      31.505  25.789  27.478  1.00  0.00     0.190 HD
BRANCH  10  19
ATOM     19  C   UNL A   1      33.458  19.939  25.273  1.00  0.00     0.000 A 
ATOM     20  C   UNL A   1      33.960  15.824  24.259  1.00  0.00     0.044 C 
ATOM     21  C   UNL A   1      33.822  17.251  24.686  1.00  0.00    -0.051 A 
ATOM     22  C   UNL A   1      32.572  17.712  25.117  1.00  0.00     0.004 A 
ATOM     23  C   UNL A   1      34.913  18.126  24.626  1.00  0.00     0.004 A 
ATOM     24  C   UNL A   1      32.393  19.052  25.418  1.00  0.00     0.010 A 
ATOM     25  C   UNL A   1      34.733  19.472  24.921  1.00  0.00     0.010 A 
ENDBRANCH  10  19
BRANCH  16  26
ATOM     26  C   UNL A   1      32.231  26.741  25.300  1.00  0.00     0.007 A 
ATOM     27  C   UNL A   1      32.586  27.725  26.256  1.00  0.00     0.011 A 
ATOM     28  C   UNL A   1      31.312  27.129  24.309  1.00  0.00     0.096 A 
ATOM     29  C   UNL A   1      32.044  29.026  26.235  1.00  0.00     0.008 A 
ATOM     30  C   UNL A   1      30.808  28.453  24.260  1.00  0.00     0.270 A 
ATOM     31  C   UNL A   1      31.149  29.398  25.235  1.00  0.00     0.085 A 
BRANCH  30  32
ATOM     32  N   UNL A   1      29.956  28.878  23.144  1.00  0.00     0.062 N 
ATOM     33  O   UNL A   1      30.323  28.576  22.003  1.00  0.00    -0.258 OA
ATOM     34  O   UNL A   1      28.926  29.512  23.410  1.00  0.00    -0.258 OA
ENDBRANCH  30  32
ENDBRANCH  16  26
ENDBRANCH   7   9
ENDBRANCH   6   7
ENDBRANCH   5   6
ENDBRANCH   4   5
ENDBRANCH   3   4
ENDBRANCH   2   3
ENDBRANCH   1   2
BRANCH   1  35
ATOM     35  O   UNL A   1      41.527  19.430  25.707  1.00  0.00    -0.376 OA
BRANCH  35  36
ATOM     36  C   UNL A   1      42.558  18.598  26.178  1.00  0.00     0.202 C 
BRANCH  36  37
ATOM     37  C   UNL A   1      43.730  18.587  25.183  1.00  0.00     0.261 C 
BRANCH  37  38
ATOM     38  O   UNL A   1      43.818  19.813  24.411  1.00  0.00    -0.460 OA
BRANCH  38  39
ATOM     39  C   UNL A   1      44.974  20.541  24.572  1.00  0.00     0.338 C 
ATOM     40  O   UNL A   1      46.076  20.113  24.256  1.00  0.00    -0.246 OA
BRANCH  39  41
ATOM     41  C   UNL A   1      44.698  21.920  25.083  1.00  0.00     0.060 A 
ATOM     42  C   UNL A   1      45.592  22.969  25.334  1.00  0.00     0.016 A 
ATOM     43  C   UNL A   1      43.451  22.126  25.544  1.00  0.00     0.016 A 
ATOM     44  C   UNL A   1      45.219  24.173  26.093  1.00  0.00     0.010 A 
ATOM     45  C   UNL A   1      43.315  23.099  26.537  1.00  0.00     0.010 A 
ATOM     46  C   UNL A   1      44.039  24.281  26.815  1.00  0.00    -0.014 A 
BRANCH  46  47
ATOM     47  C   UNL A   1      43.547  25.591  27.758  1.00  0.00     0.031 A 
ATOM     48  C   UNL A   1      42.103  26.579  27.764  1.00  0.00     0.074 A 
ATOM     49  C   UNL A   1      44.425  26.084  28.674  1.00  0.00     0.049 A 
ATOM     50  N   UNL A   1      42.043  27.803  28.268  1.00  0.00    -0.248 NA
ATOM     51  C   UNL A   1      40.726  26.337  27.231  1.00  0.00     0.031 C 
ATOM     52  C   UNL A   1      44.128  27.053  29.736  1.00  0.00     0.029 A 
ATOM     53  N   UNL A   1      45.782  25.905  28.843  1.00  0.00    -0.354 N 
ATOM     54  C   UNL A   1      40.717  28.257  28.343  1.00  0.00     0.074 A 
ATOM     55  C   UNL A   1      39.943  27.309  27.657  1.00  0.00     0.031 C 
ATOM     56  C   UNL A   1      45.264  27.638  30.132  1.00  0.00     0.029 A 
ATOM     57  C   UNL A   1      46.329  27.104  29.321  1.00  0.00     0.049 A 
ATOM     58  H   UNL A   1      46.281  25.077  28.658  1.00  0.00     0.167 HD
ATOM     59  C   UNL A   1      40.301  29.357  29.028  1.00  0.00     0.034 A 
ATOM     60  C   UNL A   1      47.294  27.834  28.694  1.00  0.00     0.034 A 
ATOM     61  C   UNL A   1      41.433  30.131  29.466  1.00  0.00     0.049 A 
ATOM     62  C   UNL A   1      46.839  29.257  28.325  1.00  0.00     0.074 A 
ATOM     63  C   UNL A   1      42.084  30.310  30.669  1.00  0.00     0.029 A 
ATOM     64  N   UNL A   1      42.247  30.665  28.486  1.00  0.00    -0.354 N 
ATOM     65  N   UNL A   1      45.762  29.859  28.753  1.00  0.00    -0.248 NA
ATOM     66  C   UNL A   1      47.555  30.077  27.347  1.00  0.00     0.031 C 
ATOM     67  C   UNL A   1      43.330  30.936  30.393  1.00  0.00     0.029 A 
ATOM     68  C   UNL A   1      43.409  31.162  29.030  1.00  0.00     0.049 A 
ATOM     69  H   UNL A   1      42.025  30.686  27.527  1.00  0.00     0.167 HD
ATOM     70  C   UNL A   1      45.553  31.025  28.032  1.00  0.00     0.074 A 
ATOM     71  C   UNL A   1      46.746  31.142  27.217  1.00  0.00     0.031 C 
ATOM     72  C   UNL A   1      44.387  31.748  28.125  1.00  0.00     0.034 A 
BRANCH  59  73
ATOM     73  C   UNL A   1      38.864  29.549  29.522  1.00  0.00     0.023 A 
ATOM     74  C   UNL A   1      38.132  30.653  29.045  1.00  0.00     0.031 A 
ATOM     75  C   UNL A   1      38.198  28.794  30.515  1.00  0.00     0.131 A 
ATOM     76  C   UNL A   1      36.926  31.061  29.651  1.00  0.00     0.055 A 
ATOM     77  C   UNL A   1      37.047  29.246  31.182  1.00  0.00     0.041 A 
ATOM     78  F   UNL A   1      38.590  27.553  30.842  1.00  0.00    -0.206 F 
ATOM     79  C   UNL A   1      36.418  30.408  30.769  1.00  0.00     0.022 A 
BRANCH  76  80
ATOM     80  S   UNL A   1      36.014  32.458  28.941  1.00  0.00     0.124 S 
ATOM     81  O   UNL A   1      34.928  32.637  29.898  1.00  0.00    -0.237 OA
ATOM     82  O   UNL A   1      37.032  33.502  28.913  1.00  0.00    -0.237 OA
ATOM     83  O   UNL A   1      35.603  31.964  27.627  1.00  0.00    -0.744 OA
ENDBRANCH  76  80
ENDBRANCH  59  73
BRANCH  60  84
ATOM     84  C   UNL A   1      48.185  26.981  27.862  1.00  0.00     0.023 A 
ATOM     85  C   UNL A   1      47.950  26.850  26.475  1.00  0.00     0.031 A 
ATOM     86  C   UNL A   1      49.472  26.733  28.329  1.00  0.00     0.131 A 
ATOM     87  C   UNL A   1      49.022  26.598  25.597  1.00  0.00     0.055 A 
ATOM     88  C   UNL A   1      50.517  26.513  27.436  1.00  0.00     0.041 A 
ATOM     89  F   UNL A   1      49.772  26.928  29.621  1.00  0.00    -0.206 F 
ATOM     90  C   UNL A   1      50.319  26.467  26.072  1.00  0.00     0.022 A 
BRANCH  87  91
ATOM     91  S   UNL A   1      48.824  26.638  23.799  1.00  0.00     0.124 S 
ATOM     92  O   UNL A   1      50.213  26.702  23.355  1.00  0.00    -0.237 OA
ATOM     93  O   UNL A   1      48.116  25.397  23.510  1.00  0.00    -0.237 OA
ATOM     94  O   UNL A   1      48.040  27.856  23.601  1.00  0.00    -0.744 OA
ENDBRANCH  87  91
ENDBRANCH  60  84
BRANCH  72  95
ATOM     95  C   UNL A   1      43.970  33.024  27.369  1.00  0.00     0.023 A 
ATOM     96  C   UNL A   1      43.480  34.189  27.974  1.00  0.00     0.031 A 
ATOM     97  C   UNL A   1      44.053  33.095  25.947  1.00  0.00     0.131 A 
ATOM     98  C   UNL A   1      43.097  35.318  27.212  1.00  0.00     0.055 A 
ATOM     99  C   UNL A   1      43.729  34.234  25.197  1.00  0.00     0.041 A 
ATOM    100  F   UNL A   1      44.438  32.051  25.199  1.00  0.00    -0.206 F 
ATOM    101  C   UNL A   1      43.237  35.357  25.829  1.00  0.00     0.022 A 
BRANCH  98 102
ATOM    102  S   UNL A   1      42.304  36.708  28.069  1.00  0.00     0.124 S 
ATOM    103  O   UNL A   1      41.193  36.052  28.753  1.00  0.00    -0.237 OA
ATOM    104  O   UNL A   1      43.380  37.189  28.928  1.00  0.00    -0.237 OA
ATOM    105  O   UNL A   1      41.918  37.607  26.984  1.00  0.00    -0.744 OA
ENDBRANCH  98 102
ENDBRANCH  72  95
ENDBRANCH  46  47
ENDBRANCH  39  41
ENDBRANCH  38  39
ENDBRANCH  37  38
ENDBRANCH  36  37
ENDBRANCH  35  36
ENDBRANCH   1  35
TORSDOF 23
ENDMDL
MODEL 3
REMARK VINA RESULT:     -12.1      4.601     10.461
REMARK SMILES Cc1ccc(-c2cc(C(=O)OCCOCCOCCOC(=O)c3ccc(-c4c5nc(c(-c6cc(S(=O)(=O)[O-])ccc6F)c6ccc([nH]6)c(-c6cc(S(=O)(=O)[O-])ccc6F)c6nc(c(-c7cc(S(=O)(=O)[O-])ccc7F)c7ccc4[nH]7)C=C6)C=C5)cc3)c3c(-c4cccc([N+](=O)[O-])c4)[nH]nc3n2)cc1
REMARK SMILES IDX 16 1 15 2 14 3 13 4 12 5 11 6 9 7 10 8 8 9 6 10 7 11 100 12
REMARK SMILES IDX 99 13 86 14 98 15 87 16 97 17 5 19 1 20 2 21 3 22 102 23
REMARK SMILES IDX 4 24 101 25 88 26 89 27 96 28 90 29 92 30 91 31 93 32 94 33
REMARK SMILES IDX 95 34 17 35 18 36 19 37 20 38 21 39 22 40 23 41 24 42 85 43
REMARK SMILES IDX 25 44 84 45 26 46 27 47 28 48 78 49 29 50 83 51 77 52 79 53
REMARK SMILES IDX 30 54 82 55 76 56 75 57 31 59 63 60 43 61 62 62 44 63 47 64
REMARK SMILES IDX 61 65 80 66 45 67 46 68 60 70 81 71 48 72 32 73 33 74 41 75
REMARK SMILES IDX 34 76 40 77 42 78 39 79 35 80 36 81 37 82 38 83 64 84 65 85
REMARK SMILES IDX 73 86 66 87 72 88 74 89 71 90 67 91 68 92 69 93 70 94 49 95
REMARK SMILES IDX 50 96 58 97 51 98 57 99 59 100 56 101 52 102 53 103 54 104
REMARK SMILES IDX 55 105
REMARK H PARENT 97 18 79 58 47 69
REMARK Flexibility Score: inf
ROOT
ATOM      1  C   UNL A   1      35.089  31.835  27.641  1.00  0.00     0.188 C 
ENDROOT
BRANCH   1   2
ATOM      2  C   UNL A   1      33.566  31.492  27.574  1.00  0.00     0.188 C 
BRANCH   2   3
ATOM      3  O   UNL A   1      33.336  30.059  27.362  1.00  0.00    -0.376 OA
BRANCH   3   4
ATOM      4  C   UNL A   1      32.012  29.631  26.899  1.00  0.00     0.202 C 
BRANCH   4   5
ATOM      5  C   UNL A   1      31.340  28.127  27.460  1.00  0.00     0.261 C 
BRANCH   5   6
ATOM      6  O   UNL A   1      31.802  26.445  27.162  1.00  0.00    -0.460 OA
BRANCH   6   7
ATOM      7  C   UNL A   1      31.384  25.171  26.554  1.00  0.00     0.339 C 
ATOM      8  O   UNL A   1      31.359  24.040  27.034  1.00  0.00    -0.246 OA
BRANCH   7   9
ATOM      9  C   UNL A   1      31.184  25.030  25.113  1.00  0.00     0.075 A 
ATOM     10  C   UNL A   1      30.694  26.661  23.367  1.00  0.00     0.074 A 
ATOM     11  C   UNL A   1      30.497  26.146  24.652  1.00  0.00     0.045 A 
ATOM     12  N   UNL A   1      31.455  26.151  22.383  1.00  0.00    -0.226 NA
ATOM     13  C   UNL A   1      32.161  25.070  22.769  1.00  0.00     0.182 A 
ATOM     14  C   UNL A   1      32.081  24.461  24.102  1.00  0.00     0.061 A 
ATOM     15  N   UNL A   1      33.020  24.473  21.956  1.00  0.00    -0.154 NA
ATOM     16  C   UNL A   1      33.010  23.398  23.991  1.00  0.00     0.076 A 
ATOM     17  N   UNL A   1      33.583  23.572  22.738  1.00  0.00    -0.275 N 
ATOM     18  H   UNL A   1      34.368  23.052  22.448  1.00  0.00     0.190 HD
BRANCH  10  19
ATOM     19  C   UNL A   1      29.994  27.889  23.059  1.00  0.00     0.000 A 
ATOM     20  C   UNL A   1      27.862  31.033  21.115  1.00  0.00     0.044 C 
ATOM     21  C   UNL A   1      28.598  29.972  21.868  1.00  0.00    -0.051 A 
ATOM     22  C   UNL A   1      29.995  29.918  21.774  1.00  0.00     0.004 A 
ATOM     23  C   UNL A   1      27.907  29.021  22.629  1.00  0.00     0.004 A 
ATOM     24  C   UNL A   1      30.691  28.884  22.376  1.00  0.00     0.010 A 
ATOM     25  C   UNL A   1      28.604  27.979  23.228  1.00  0.00     0.010 A 
ENDBRANCH  10  19
BRANCH  16  26
ATOM     26  C   UNL A   1      33.521  22.149  24.603  1.00  0.00     0.007 A 
ATOM     27  C   UNL A   1      34.914  22.004  24.814  1.00  0.00     0.011 A 
ATOM     28  C   UNL A   1      32.772  20.961  24.507  1.00  0.00     0.096 A 
ATOM     29  C   UNL A   1      35.535  20.743  24.912  1.00  0.00     0.008 A 
ATOM     30  C   UNL A   1      33.393  19.695  24.656  1.00  0.00     0.270 A 
ATOM     31  C   UNL A   1      34.776  19.579  24.832  1.00  0.00     0.085 A 
BRANCH  30  32
ATOM     32  N   UNL A   1      32.580  18.475  24.686  1.00  0.00     0.062 N 
ATOM     33  O   UNL A   1      32.368  17.961  25.790  1.00  0.00    -0.258 OA
ATOM     34  O   UNL A   1      32.157  18.033  23.609  1.00  0.00    -0.258 OA
ENDBRANCH  30  32
ENDBRANCH  16  26
ENDBRANCH   7   9
ENDBRANCH   6   7
ENDBRANCH   5   6
ENDBRANCH   4   5
ENDBRANCH   3   4
ENDBRANCH   2   3
ENDBRANCH   1   2
BRANCH   1  35
ATOM     35  O   UNL A   1      35.235  33.063  28.328  1.00  0.00    -0.376 OA
BRANCH  35  36
ATOM     36  C   UNL A   1      34.267  33.491  29.254  1.00  0.00     0.202 C 
BRANCH  36  37
ATOM     37  C   UNL A   1      34.473  32.785  30.605  1.00  0.00     0.261 C 
BRANCH  37  38
ATOM     38  O   UNL A   1      34.131  33.631  31.734  1.00  0.00    -0.460 OA
BRANCH  38  39
ATOM     39  C   UNL A   1      35.021  34.642  32.017  1.00  0.00     0.338 C 
ATOM     40  O   UNL A   1      34.666  35.754  32.382  1.00  0.00    -0.246 OA
BRANCH  39  41
ATOM     41  C   UNL A   1      36.440  34.180  31.909  1.00  0.00     0.060 A 
ATOM     42  C   UNL A   1      37.451  34.616  31.041  1.00  0.00     0.016 A 
ATOM     43  C   UNL A   1      36.741  33.071  32.607  1.00  0.00     0.016 A 
ATOM     44  C   UNL A   1      38.715  33.887  30.859  1.00  0.00     0.010 A 
ATOM     45  C   UNL A   1      37.777  32.284  32.095  1.00  0.00     0.010 A 
ATOM     46  C   UNL A   1      38.931  32.605  31.343  1.00  0.00    -0.014 A 
BRANCH  46  47
ATOM     47  C   UNL A   1      40.319  31.667  31.141  1.00  0.00     0.031 A 
ATOM     48  C   UNL A   1      40.616  30.132  30.356  1.00  0.00     0.074 A 
ATOM     49  C   UNL A   1      41.466  32.086  31.741  1.00  0.00     0.049 A 
ATOM     50  N   UNL A   1      41.641  29.341  30.636  1.00  0.00    -0.248 NA
ATOM     51  C   UNL A   1      39.855  29.384  29.305  1.00  0.00     0.031 C 
ATOM     52  C   UNL A   1      42.816  31.556  31.514  1.00  0.00     0.029 A 
ATOM     53  N   UNL A   1      41.704  33.017  32.730  1.00  0.00    -0.354 N 
ATOM     54  C   UNL A   1      41.751  28.301  29.698  1.00  0.00     0.074 A 
ATOM     55  C   UNL A   1      40.594  28.366  28.909  1.00  0.00     0.031 C 
ATOM     56  C   UNL A   1      43.594  31.864  32.558  1.00  0.00     0.029 A 
ATOM     57  C   UNL A   1      42.776  32.565  33.514  1.00  0.00     0.049 A 
ATOM     58  H   UNL A   1      41.207  33.855  32.864  1.00  0.00     0.167 HD
ATOM     59  C   UNL A   1      42.825  27.475  29.565  1.00  0.00     0.034 A 
ATOM     60  C   UNL A   1      42.720  32.309  34.851  1.00  0.00     0.034 A 
ATOM     61  C   UNL A   1      43.731  27.649  30.670  1.00  0.00     0.049 A 
ATOM     62  C   UNL A   1      43.036  30.846  35.207  1.00  0.00     0.074 A 
ATOM     63  C   UNL A   1      44.942  28.286  30.845  1.00  0.00     0.029 A 
ATOM     64  N   UNL A   1      43.254  27.340  31.929  1.00  0.00    -0.354 N 
ATOM     65  N   UNL A   1      43.557  29.953  34.410  1.00  0.00    -0.248 NA
ATOM     66  C   UNL A   1      42.689  30.265  36.505  1.00  0.00     0.031 C 
ATOM     67  C   UNL A   1      45.175  28.386  32.244  1.00  0.00     0.029 A 
ATOM     68  C   UNL A   1      44.121  27.779  32.904  1.00  0.00     0.049 A 
ATOM     69  H   UNL A   1      42.409  26.868  32.105  1.00  0.00     0.167 HD
ATOM     70  C   UNL A   1      43.478  28.696  34.991  1.00  0.00     0.074 A 
ATOM     71  C   UNL A   1      42.990  28.968  36.329  1.00  0.00     0.031 C 
ATOM     72  C   UNL A   1      43.756  27.544  34.293  1.00  0.00     0.034 A 
BRANCH  59  73
ATOM     73  C   UNL A   1      43.154  26.723  28.272  1.00  0.00     0.023 A 
ATOM     74  C   UNL A   1      42.580  25.453  28.069  1.00  0.00     0.031 A 
ATOM     75  C   UNL A   1      44.080  27.109  27.276  1.00  0.00     0.131 A 
ATOM     76  C   UNL A   1      43.042  24.583  27.061  1.00  0.00     0.055 A 
ATOM     77  C   UNL A   1      44.609  26.215  26.329  1.00  0.00     0.041 A 
ATOM     78  F   UNL A   1      44.470  28.384  27.128  1.00  0.00    -0.206 F 
ATOM     79  C   UNL A   1      44.108  24.927  26.237  1.00  0.00     0.022 A 
BRANCH  76  80
ATOM     80  S   UNL A   1      42.212  22.988  26.827  1.00  0.00     0.124 S 
ATOM     81  O   UNL A   1      42.955  22.412  25.713  1.00  0.00    -0.237 OA
ATOM     82  O   UNL A   1      42.399  22.355  28.128  1.00  0.00    -0.237 OA
ATOM     83  O   UNL A   1      40.832  23.365  26.520  1.00  0.00    -0.744 OA
ENDBRANCH  76  80
ENDBRANCH  59  73
BRANCH  60  84
ATOM     84  C   UNL A   1      41.703  33.153  35.537  1.00  0.00     0.023 A 
ATOM     85  C   UNL A   1      40.366  32.709  35.642  1.00  0.00     0.031 A 
ATOM     86  C   UNL A   1      42.152  34.090  36.462  1.00  0.00     0.131 A 
ATOM     87  C   UNL A   1      39.568  33.119  36.728  1.00  0.00     0.055 A 
ATOM     88  C   UNL A   1      41.350  34.456  37.541  1.00  0.00     0.041 A 
ATOM     89  F   UNL A   1      43.434  34.479  36.464  1.00  0.00    -0.206 F 
ATOM     90  C   UNL A   1      40.072  33.965  37.705  1.00  0.00     0.022 A 
BRANCH  87  91
ATOM     91  S   UNL A   1      37.930  32.417  37.039  1.00  0.00     0.124 S 
ATOM     92  O   UNL A   1      37.497  33.189  38.199  1.00  0.00    -0.237 OA
ATOM     93  O   UNL A   1      37.212  32.672  35.796  1.00  0.00    -0.237 OA
ATOM     94  O   UNL A   1      38.239  31.011  37.294  1.00  0.00    -0.744 OA
ENDBRANCH  87  91
ENDBRANCH  60  84
BRANCH  72  95
ATOM     95  C   UNL A   1      43.674  26.079  34.760  1.00  0.00     0.023 A 
ATOM     96  C   UNL A   1      44.775  25.235  34.952  1.00  0.00     0.031 A 
ATOM     97  C   UNL A   1      42.414  25.464  35.028  1.00  0.00     0.131 A 
ATOM     98  C   UNL A   1      44.621  23.891  35.364  1.00  0.00     0.055 A 
ATOM     99  C   UNL A   1      42.264  24.150  35.493  1.00  0.00     0.041 A 
ATOM    100  F   UNL A   1      41.250  26.101  34.834  1.00  0.00    -0.206 F 
ATOM    101  C   UNL A   1      43.374  23.347  35.656  1.00  0.00     0.022 A 
BRANCH  98 102
ATOM    102  S   UNL A   1      46.091  22.828  35.409  1.00  0.00     0.124 S 
ATOM    103  O   UNL A   1      47.125  23.756  35.859  1.00  0.00    -0.237 OA
ATOM    104  O   UNL A   1      45.697  21.804  36.370  1.00  0.00    -0.237 OA
ATOM    105  O   UNL A   1      46.229  22.371  34.028  1.00  0.00    -0.744 OA
ENDBRANCH  98 102
ENDBRANCH  72  95
ENDBRANCH  46  47
ENDBRANCH  39  41
ENDBRANCH  38  39
ENDBRANCH  37  38
ENDBRANCH  36  37
ENDBRANCH  35  36
ENDBRANCH   1  35
TORSDOF 23
ENDMDL
