MODEL 1
REMARK VINA RESULT:     -10.6      0.000      0.000
REMARK SMILES CC1(C)[C@H]2CC[C@]1(C)[C@](O)(CC(=O)OCCOCCOCCOC(=O)c1ccc(-c3c4nc(c(-c5cc(S(=O)(=O)[O-])ccc5F)c5ccc([nH]5)c(-c5cc(S(=O)(=O)[O-])ccc5F)c5nc(c(-c6cc(S(=O)(=O)[O-])ccc6F)c6ccc3[nH]6)C=C5)C=C4)cc1)C2
REMARK SMILES IDX 19 1 18 2 17 3 16 4 15 5 14 6 12 7 13 8 11 9 9 10 1 11 2 12
REMARK SMILES IDX 3 13 4 14 7 15 5 16 89 17 6 18 8 19 10 20 20 22 21 23 22 24
REMARK SMILES IDX 23 25 24 26 25 27 26 28 27 29 88 30 28 31 87 32 29 33 30 34
REMARK SMILES IDX 31 35 81 36 32 37 86 38 80 39 82 40 33 41 85 42 79 43 78 44
REMARK SMILES IDX 34 46 66 47 46 48 65 49 47 50 50 51 64 52 83 53 48 54 49 55
REMARK SMILES IDX 63 57 84 58 51 59 35 60 36 61 44 62 37 63 43 64 45 65 42 66
REMARK SMILES IDX 38 67 39 68 40 69 41 70 67 71 68 72 76 73 69 74 75 75 77 76
REMARK SMILES IDX 74 77 70 78 71 79 72 80 73 81 52 82 53 83 61 84 54 85 60 86
REMARK SMILES IDX 62 87 59 88 55 89 56 90 57 91 58 92
REMARK H PARENT 10 21 82 45 50 56
REMARK Flexibility Score: inf
ROOT
ATOM      1  C   UNL A   1      32.166  29.300  26.851  1.00  0.00     0.188 C 
ENDROOT
BRANCH   1   2
ATOM      2  C   UNL A   1      31.940  28.259  25.751  1.00  0.00     0.188 C 
BRANCH   2   3
ATOM      3  O   UNL A   1      30.995  28.641  24.750  1.00  0.00    -0.376 OA
BRANCH   3   4
ATOM      4  C   UNL A   1      31.432  28.526  23.394  1.00  0.00     0.202 C 
BRANCH   4   5
ATOM      5  C   UNL A   1      32.446  27.405  23.131  1.00  0.00     0.261 C 
BRANCH   5   6
ATOM      6  O   UNL A   1      32.397  26.936  21.767  1.00  0.00    -0.463 OA
BRANCH   6   7
ATOM      7  C   UNL A   1      32.651  25.618  21.583  1.00  0.00     0.308 C 
ATOM      8  O   UNL A   1      33.228  25.155  20.606  1.00  0.00    -0.252 OA
BRANCH   7   9
ATOM      9  C   UNL A   1      32.274  24.767  22.775  1.00  0.00     0.158 C 
BRANCH   9  10
ATOM     10  C   UNL A   1      33.303  23.798  23.392  1.00  0.00     0.081 C 
ATOM     11  C   UNL A   1      34.100  21.934  26.766  1.00  0.00     0.012 C 
ATOM     12  C   UNL A   1      33.998  22.294  25.259  1.00  0.00    -0.024 C 
ATOM     13  C   UNL A   1      35.316  21.815  24.617  1.00  0.00     0.012 C 
ATOM     14  C   UNL A   1      32.727  21.737  24.579  1.00  0.00    -0.002 C 
ATOM     15  C   UNL A   1      33.555  23.781  24.956  1.00  0.00     0.002 C 
ATOM     16  C   UNL A   1      31.568  22.460  25.311  1.00  0.00     0.005 C 
ATOM     17  C   UNL A   1      32.796  22.334  23.154  1.00  0.00     0.040 C 
ATOM     18  C   UNL A   1      32.172  23.830  25.656  1.00  0.00     0.010 C 
ATOM     19  C   UNL A   1      34.532  24.819  25.492  1.00  0.00     0.015 C 
BRANCH  10  20
ATOM     20  O   UNL A   1      34.523  23.949  22.669  1.00  0.00    -0.389 OA
ATOM     21  H   UNL A   1      34.952  23.085  22.573  1.00  0.00     0.211 HD
ENDBRANCH  10  20
ENDBRANCH   9  10
ENDBRANCH   7   9
ENDBRANCH   6   7
ENDBRANCH   5   6
ENDBRANCH   4   5
ENDBRANCH   3   4
ENDBRANCH   2   3
ENDBRANCH   1   2
BRANCH   1  22
ATOM     22  O   UNL A   1      32.423  30.613  26.356  1.00  0.00    -0.376 OA
BRANCH  22  23
ATOM     23  C   UNL A   1      31.411  31.615  26.496  1.00  0.00     0.202 C 
BRANCH  23  24
ATOM     24  C   UNL A   1      31.798  33.069  26.814  1.00  0.00     0.261 C 
BRANCH  24  25
ATOM     25  O   UNL A   1      32.483  33.255  28.061  1.00  0.00    -0.460 OA
BRANCH  25  26
ATOM     26  C   UNL A   1      33.554  34.093  28.073  1.00  0.00     0.338 C 
ATOM     27  O   UNL A   1      33.528  35.294  27.947  1.00  0.00    -0.246 OA
BRANCH  26  28
ATOM     28  C   UNL A   1      34.728  33.284  28.517  1.00  0.00     0.060 A 
ATOM     29  C   UNL A   1      34.508  31.973  28.962  1.00  0.00     0.016 A 
ATOM     30  C   UNL A   1      36.036  33.764  28.380  1.00  0.00     0.016 A 
ATOM     31  C   UNL A   1      35.592  31.163  29.318  1.00  0.00     0.010 A 
ATOM     32  C   UNL A   1      37.118  32.951  28.731  1.00  0.00     0.010 A 
ATOM     33  C   UNL A   1      36.902  31.659  29.238  1.00  0.00    -0.014 A 
BRANCH  33  34
ATOM     34  C   UNL A   1      38.024  30.924  29.879  1.00  0.00     0.031 A 
ATOM     35  C   UNL A   1      38.329  31.227  31.324  1.00  0.00     0.074 A 
ATOM     36  C   UNL A   1      38.752  30.005  29.218  1.00  0.00     0.049 A 
ATOM     37  N   UNL A   1      39.275  30.755  32.093  1.00  0.00    -0.248 NA
ATOM     38  C   UNL A   1      37.445  32.201  31.982  1.00  0.00     0.031 C 
ATOM     39  C   UNL A   1      38.539  29.595  27.831  1.00  0.00     0.029 A 
ATOM     40  N   UNL A   1      39.825  29.252  29.629  1.00  0.00    -0.354 N 
ATOM     41  C   UNL A   1      39.101  31.376  33.326  1.00  0.00     0.074 A 
ATOM     42  C   UNL A   1      37.990  32.292  33.184  1.00  0.00     0.031 C 
ATOM     43  C   UNL A   1      39.456  28.664  27.508  1.00  0.00     0.029 A 
ATOM     44  C   UNL A   1      40.346  28.440  28.648  1.00  0.00     0.049 A 
ATOM     45  H   UNL A   1      40.189  29.290  30.544  1.00  0.00     0.167 HD
ATOM     46  C   UNL A   1      39.793  31.189  34.477  1.00  0.00     0.034 A 
ATOM     47  C   UNL A   1      41.426  27.630  28.661  1.00  0.00     0.034 A 
ATOM     48  C   UNL A   1      40.907  30.284  34.606  1.00  0.00     0.049 A 
ATOM     49  C   UNL A   1      42.245  27.510  29.929  1.00  0.00     0.074 A 
ATOM     50  C   UNL A   1      41.666  30.010  35.731  1.00  0.00     0.029 A 
ATOM     51  N   UNL A   1      41.437  29.519  33.576  1.00  0.00    -0.354 N 
ATOM     52  N   UNL A   1      42.059  28.088  31.094  1.00  0.00    -0.248 NA
ATOM     53  C   UNL A   1      43.415  26.622  29.884  1.00  0.00     0.031 C 
ATOM     54  C   UNL A   1      42.702  29.148  35.361  1.00  0.00     0.029 A 
ATOM     55  C   UNL A   1      42.536  28.805  34.030  1.00  0.00     0.049 A 
ATOM     56  H   UNL A   1      41.083  29.487  32.657  1.00  0.00     0.167 HD
ATOM     57  C   UNL A   1      43.067  27.603  31.926  1.00  0.00     0.074 A 
ATOM     58  C   UNL A   1      43.850  26.678  31.135  1.00  0.00     0.031 C 
ATOM     59  C   UNL A   1      43.319  27.890  33.231  1.00  0.00     0.034 A 
BRANCH  46  60
ATOM     60  C   UNL A   1      39.392  32.027  35.667  1.00  0.00     0.023 A 
ATOM     61  C   UNL A   1      38.648  31.494  36.735  1.00  0.00     0.031 A 
ATOM     62  C   UNL A   1      39.733  33.390  35.719  1.00  0.00     0.131 A 
ATOM     63  C   UNL A   1      38.209  32.334  37.769  1.00  0.00     0.055 A 
ATOM     64  C   UNL A   1      39.366  34.201  36.793  1.00  0.00     0.041 A 
ATOM     65  F   UNL A   1      40.418  33.962  34.715  1.00  0.00    -0.206 F 
ATOM     66  C   UNL A   1      38.587  33.677  37.820  1.00  0.00     0.022 A 
BRANCH  63  67
ATOM     67  S   UNL A   1      37.012  31.682  38.967  1.00  0.00     0.124 S 
ATOM     68  O   UNL A   1      36.801  30.326  38.464  1.00  0.00    -0.237 OA
ATOM     69  O   UNL A   1      37.737  31.790  40.228  1.00  0.00    -0.237 OA
ATOM     70  O   UNL A   1      35.865  32.575  38.826  1.00  0.00    -0.744 OA
ENDBRANCH  63  67
ENDBRANCH  46  60
BRANCH  47  71
ATOM     71  C   UNL A   1      41.842  26.894  27.428  1.00  0.00     0.023 A 
ATOM     72  C   UNL A   1      41.708  25.500  27.325  1.00  0.00     0.031 A 
ATOM     73  C   UNL A   1      42.455  27.575  26.359  1.00  0.00     0.131 A 
ATOM     74  C   UNL A   1      42.223  24.826  26.206  1.00  0.00     0.055 A 
ATOM     75  C   UNL A   1      42.912  26.906  25.221  1.00  0.00     0.041 A 
ATOM     76  F   UNL A   1      42.621  28.905  26.408  1.00  0.00    -0.206 F 
ATOM     77  C   UNL A   1      42.809  25.521  25.146  1.00  0.00     0.022 A 
BRANCH  74  78
ATOM     78  S   UNL A   1      42.207  23.011  26.196  1.00  0.00     0.124 S 
ATOM     79  O   UNL A   1      43.097  22.701  27.310  1.00  0.00    -0.237 OA
ATOM     80  O   UNL A   1      40.793  22.718  26.403  1.00  0.00    -0.237 OA
ATOM     81  O   UNL A   1      42.724  22.672  24.872  1.00  0.00    -0.744 OA
ENDBRANCH  74  78
ENDBRANCH  47  71
BRANCH  59  82
ATOM     82  C   UNL A   1      44.458  27.154  33.900  1.00  0.00     0.023 A 
ATOM     83  C   UNL A   1      44.318  25.843  34.387  1.00  0.00     0.031 A 
ATOM     84  C   UNL A   1      45.710  27.781  34.049  1.00  0.00     0.131 A 
ATOM     85  C   UNL A   1      45.392  25.222  35.045  1.00  0.00     0.055 A 
ATOM     86  C   UNL A   1      46.793  27.135  34.645  1.00  0.00     0.041 A 
ATOM     87  F   UNL A   1      45.903  29.035  33.606  1.00  0.00    -0.206 F 
ATOM     88  C   UNL A   1      46.634  25.852  35.160  1.00  0.00     0.022 A 
BRANCH  85  89
ATOM     89  S   UNL A   1      45.118  23.613  35.839  1.00  0.00     0.124 S 
ATOM     90  O   UNL A   1      45.313  23.933  37.249  1.00  0.00    -0.237 OA
ATOM     91  O   UNL A   1      43.751  23.296  35.438  1.00  0.00    -0.237 OA
ATOM     92  O   UNL A   1      46.149  22.760  35.249  1.00  0.00    -0.744 OA
ENDBRANCH  85  89
ENDBRANCH  59  82
ENDBRANCH  33  34
ENDBRANCH  26  28
ENDBRANCH  25  26
ENDBRANCH  24  25
ENDBRANCH  23  24
ENDBRANCH  22  23
ENDBRANCH   1  22
TORSDOF 22
ENDMDL
MODEL 2
REMARK VINA RESULT:     -10.1      1.718      2.154
REMARK SMILES CC1(C)[C@H]2CC[C@]1(C)[C@](O)(CC(=O)OCCOCCOCCOC(=O)c1ccc(-c3c4nc(c(-c5cc(S(=O)(=O)[O-])ccc5F)c5ccc([nH]5)c(-c5cc(S(=O)(=O)[O-])ccc5F)c5nc(c(-c6cc(S(=O)(=O)[O-])ccc6F)c6ccc3[nH]6)C=C5)C=C4)cc1)C2
REMARK SMILES IDX 19 1 18 2 17 3 16 4 15 5 14 6 12 7 13 8 11 9 9 10 1 11 2 12
REMARK SMILES IDX 3 13 4 14 7 15 5 16 89 17 6 18 8 19 10 20 20 22 21 23 22 24
REMARK SMILES IDX 23 25 24 26 25 27 26 28 27 29 88 30 28 31 87 32 29 33 30 34
REMARK SMILES IDX 31 35 81 36 32 37 86 38 80 39 82 40 33 41 85 42 79 43 78 44
REMARK SMILES IDX 34 46 66 47 46 48 65 49 47 50 50 51 64 52 83 53 48 54 49 55
REMARK SMILES IDX 63 57 84 58 51 59 35 60 36 61 44 62 37 63 43 64 45 65 42 66
REMARK SMILES IDX 38 67 39 68 40 69 41 70 67 71 68 72 76 73 69 74 75 75 77 76
REMARK SMILES IDX 74 77 70 78 71 79 72 80 73 81 52 82 53 83 61 84 54 85 60 86
REMARK SMILES IDX 62 87 59 88 55 89 56 90 57 91 58 92
REMARK H PARENT 10 21 82 45 50 56
REMARK Flexibility Score: inf
ROOT
ATOM      1  C   UNL A   1      31.880  28.100  26.666  1.00  0.00     0.188 C 
ENDROOT
BRANCH   1   2
ATOM      2  C   UNL A   1      31.470  28.058  25.191  1.00  0.00     0.188 C 
BRANCH   2   3
ATOM      3  O   UNL A   1      30.543  27.025  24.856  1.00  0.00    -0.376 OA
BRANCH   3   4
ATOM      4  C   UNL A   1      29.975  27.088  23.546  1.00  0.00     0.202 C 
BRANCH   4   5
ATOM      5  C   UNL A   1      30.984  26.987  22.394  1.00  0.00     0.261 C 
BRANCH   5   6
ATOM      6  O   UNL A   1      31.769  25.779  22.462  1.00  0.00    -0.463 OA
BRANCH   6   7
ATOM      7  C   UNL A   1      33.107  25.932  22.318  1.00  0.00     0.308 C 
ATOM      8  O   UNL A   1      33.652  26.317  21.289  1.00  0.00    -0.252 OA
BRANCH   7   9
ATOM      9  C   UNL A   1      33.874  25.712  23.603  1.00  0.00     0.158 C 
BRANCH   9  10
ATOM     10  C   UNL A   1      33.589  24.472  24.473  1.00  0.00     0.081 C 
ATOM     11  C   UNL A   1      34.821  20.773  25.013  1.00  0.00     0.012 C 
ATOM     12  C   UNL A   1      34.237  22.191  25.253  1.00  0.00    -0.024 C 
ATOM     13  C   UNL A   1      33.071  22.009  26.248  1.00  0.00     0.012 C 
ATOM     14  C   UNL A   1      35.295  23.223  25.705  1.00  0.00    -0.002 C 
ATOM     15  C   UNL A   1      33.933  23.020  23.942  1.00  0.00     0.002 C 
ATOM     16  C   UNL A   1      36.262  23.315  24.498  1.00  0.00     0.005 C 
ATOM     17  C   UNL A   1      34.503  24.550  25.745  1.00  0.00     0.040 C 
ATOM     18  C   UNL A   1      35.340  23.077  23.291  1.00  0.00     0.010 C 
ATOM     19  C   UNL A   1      32.889  22.366  23.047  1.00  0.00     0.015 C 
BRANCH  10  20
ATOM     20  O   UNL A   1      32.235  24.559  24.915  1.00  0.00    -0.389 OA
ATOM     21  H   UNL A   1      31.925  23.679  25.181  1.00  0.00     0.211 HD
ENDBRANCH  10  20
ENDBRANCH   9  10
ENDBRANCH   7   9
ENDBRANCH   6   7
ENDBRANCH   5   6
ENDBRANCH   4   5
ENDBRANCH   3   4
ENDBRANCH   2   3
ENDBRANCH   1   2
BRANCH   1  22
ATOM     22  O   UNL A   1      32.307  29.388  27.107  1.00  0.00    -0.376 OA
BRANCH  22  23
ATOM     23  C   UNL A   1      31.659  30.550  26.578  1.00  0.00     0.202 C 
BRANCH  23  24
ATOM     24  C   UNL A   1      32.407  31.891  26.507  1.00  0.00     0.261 C 
BRANCH  24  25
ATOM     25  O   UNL A   1      32.759  32.457  27.778  1.00  0.00    -0.460 OA
BRANCH  25  26
ATOM     26  C   UNL A   1      33.775  33.361  27.806  1.00  0.00     0.338 C 
ATOM     27  O   UNL A   1      33.682  34.552  27.625  1.00  0.00    -0.246 OA
BRANCH  26  28
ATOM     28  C   UNL A   1      34.971  32.647  28.343  1.00  0.00     0.060 A 
ATOM     29  C   UNL A   1      34.827  31.315  28.757  1.00  0.00     0.016 A 
ATOM     30  C   UNL A   1      36.240  33.238  28.326  1.00  0.00     0.016 A 
ATOM     31  C   UNL A   1      35.941  30.594  29.198  1.00  0.00     0.010 A 
ATOM     32  C   UNL A   1      37.354  32.514  28.763  1.00  0.00     0.010 A 
ATOM     33  C   UNL A   1      37.206  31.200  29.238  1.00  0.00    -0.014 A 
BRANCH  33  34
ATOM     34  C   UNL A   1      38.327  30.552  29.969  1.00  0.00     0.031 A 
ATOM     35  C   UNL A   1      38.606  31.010  31.377  1.00  0.00     0.074 A 
ATOM     36  C   UNL A   1      39.076  29.579  29.418  1.00  0.00     0.049 A 
ATOM     37  N   UNL A   1      39.546  30.634  32.205  1.00  0.00    -0.248 NA
ATOM     38  C   UNL A   1      37.700  32.035  31.917  1.00  0.00     0.031 C 
ATOM     39  C   UNL A   1      38.890  29.023  28.079  1.00  0.00     0.029 A 
ATOM     40  N   UNL A   1      40.153  28.889  29.921  1.00  0.00    -0.354 N 
ATOM     41  C   UNL A   1      39.346  31.379  33.363  1.00  0.00     0.074 A 
ATOM     42  C   UNL A   1      38.226  32.259  33.110  1.00  0.00     0.031 C 
ATOM     43  C   UNL A   1      39.823  28.076  27.868  1.00  0.00     0.029 A 
ATOM     44  C   UNL A   1      40.698  27.985  29.038  1.00  0.00     0.049 A 
ATOM     45  H   UNL A   1      40.502  29.028  30.831  1.00  0.00     0.167 HD
ATOM     46  C   UNL A   1      40.022  31.324  34.537  1.00  0.00     0.034 A 
ATOM     47  C   UNL A   1      41.788  27.196  29.151  1.00  0.00     0.034 A 
ATOM     48  C   UNL A   1      41.146  30.454  34.776  1.00  0.00     0.049 A 
ATOM     49  C   UNL A   1      42.589  27.222  30.436  1.00  0.00     0.074 A 
ATOM     50  C   UNL A   1      41.890  30.310  35.934  1.00  0.00     0.029 A 
ATOM     51  N   UNL A   1      41.701  29.591  33.839  1.00  0.00    -0.354 N 
ATOM     52  N   UNL A   1      42.378  27.916  31.531  1.00  0.00    -0.248 NA
ATOM     53  C   UNL A   1      43.771  26.351  30.501  1.00  0.00     0.031 C 
ATOM     54  C   UNL A   1      42.943  29.428  35.671  1.00  0.00     0.029 A 
ATOM     55  C   UNL A   1      42.802  28.945  34.381  1.00  0.00     0.049 A 
ATOM     56  H   UNL A   1      41.361  29.459  32.924  1.00  0.00     0.167 HD
ATOM     57  C   UNL A   1      43.379  27.536  32.423  1.00  0.00     0.074 A 
ATOM     58  C   UNL A   1      44.186  26.544  31.744  1.00  0.00     0.031 C 
ATOM     59  C   UNL A   1      43.607  27.962  33.694  1.00  0.00     0.034 A 
BRANCH  46  60
ATOM     60  C   UNL A   1      39.593  32.277  35.627  1.00  0.00     0.023 A 
ATOM     61  C   UNL A   1      40.126  33.573  35.733  1.00  0.00     0.031 A 
ATOM     62  C   UNL A   1      38.659  31.868  36.595  1.00  0.00     0.131 A 
ATOM     63  C   UNL A   1      39.776  34.386  36.821  1.00  0.00     0.055 A 
ATOM     64  C   UNL A   1      38.251  32.713  37.628  1.00  0.00     0.041 A 
ATOM     65  F   UNL A   1      38.138  30.631  36.562  1.00  0.00    -0.206 F 
ATOM     66  C   UNL A   1      38.821  33.976  37.754  1.00  0.00     0.022 A 
BRANCH  63  67
ATOM     67  S   UNL A   1      40.698  35.926  37.086  1.00  0.00     0.124 S 
ATOM     68  O   UNL A   1      39.645  36.822  37.559  1.00  0.00    -0.237 OA
ATOM     69  O   UNL A   1      41.694  35.532  38.075  1.00  0.00    -0.237 OA
ATOM     70  O   UNL A   1      41.224  36.243  35.760  1.00  0.00    -0.744 OA
ENDBRANCH  63  67
ENDBRANCH  46  60
BRANCH  47  71
ATOM     71  C   UNL A   1      42.232  26.341  28.008  1.00  0.00     0.023 A 
ATOM     72  C   UNL A   1      41.748  25.033  27.840  1.00  0.00     0.031 A 
ATOM     73  C   UNL A   1      43.211  26.799  27.107  1.00  0.00     0.131 A 
ATOM     74  C   UNL A   1      42.278  24.214  26.830  1.00  0.00     0.055 A 
ATOM     75  C   UNL A   1      43.692  26.001  26.067  1.00  0.00     0.041 A 
ATOM     76  F   UNL A   1      43.718  28.036  27.227  1.00  0.00    -0.206 F 
ATOM     77  C   UNL A   1      43.235  24.694  25.932  1.00  0.00     0.022 A 
BRANCH  74  78
ATOM     78  S   UNL A   1      41.774  22.471  26.765  1.00  0.00     0.124 S 
ATOM     79  O   UNL A   1      40.369  22.555  27.147  1.00  0.00    -0.237 OA
ATOM     80  O   UNL A   1      42.042  22.129  25.371  1.00  0.00    -0.237 OA
ATOM     81  O   UNL A   1      42.649  21.826  27.741  1.00  0.00    -0.744 OA
ENDBRANCH  74  78
ENDBRANCH  47  71
BRANCH  59  82
ATOM     82  C   UNL A   1      44.746  27.317  34.453  1.00  0.00     0.023 A 
ATOM     83  C   UNL A   1      44.550  26.206  35.292  1.00  0.00     0.031 A 
ATOM     84  C   UNL A   1      46.053  27.825  34.327  1.00  0.00     0.131 A 
ATOM     85  C   UNL A   1      45.632  25.675  36.013  1.00  0.00     0.055 A 
ATOM     86  C   UNL A   1      47.135  27.251  34.995  1.00  0.00     0.041 A 
ATOM     87  F   UNL A   1      46.301  28.886  33.542  1.00  0.00    -0.206 F 
ATOM     88  C   UNL A   1      46.925  26.178  35.856  1.00  0.00     0.022 A 
BRANCH  85  89
ATOM     89  S   UNL A   1      45.311  24.376  37.239  1.00  0.00     0.124 S 
ATOM     90  O   UNL A   1      44.068  24.835  37.850  1.00  0.00    -0.237 OA
ATOM     91  O   UNL A   1      45.210  23.180  36.407  1.00  0.00    -0.237 OA
ATOM     92  O   UNL A   1      46.485  24.427  38.108  1.00  0.00    -0.744 OA
ENDBRANCH  85  89
ENDBRANCH  59  82
ENDBRANCH  33  34
ENDBRANCH  26  28
ENDBRANCH  25  26
ENDBRANCH  24  25
ENDBRANCH  23  24
ENDBRANCH  22  23
ENDBRANCH   1  22
TORSDOF 22
ENDMDL
MODEL 3
REMARK VINA RESULT:     -10.0      1.125      7.633
REMARK SMILES CC1(C)[C@H]2CC[C@]1(C)[C@](O)(CC(=O)OCCOCCOCCOC(=O)c1ccc(-c3c4nc(c(-c5cc(S(=O)(=O)[O-])ccc5F)c5ccc([nH]5)c(-c5cc(S(=O)(=O)[O-])ccc5F)c5nc(c(-c6cc(S(=O)(=O)[O-])ccc6F)c6ccc3[nH]6)C=C5)C=C4)cc1)C2
REMARK SMILES IDX 19 1 18 2 17 3 16 4 15 5 14 6 12 7 13 8 11 9 9 10 1 11 2 12
REMARK SMILES IDX 3 13 4 14 7 15 5 16 89 17 6 18 8 19 10 20 20 22 21 23 22 24
REMARK SMILES IDX 23 25 24 26 25 27 26 28 27 29 88 30 28 31 87 32 29 33 30 34
REMARK SMILES IDX 31 35 81 36 32 37 86 38 80 39 82 40 33 41 85 42 79 43 78 44
REMARK SMILES IDX 34 46 66 47 46 48 65 49 47 50 50 51 64 52 83 53 48 54 49 55
REMARK SMILES IDX 63 57 84 58 51 59 35 60 36 61 44 62 37 63 43 64 45 65 42 66
REMARK SMILES IDX 38 67 39 68 40 69 41 70 67 71 68 72 76 73 69 74 75 75 77 76
REMARK SMILES IDX 74 77 70 78 71 79 72 80 73 81 52 82 53 83 61 84 54 85 60 86
REMARK SMILES IDX 62 87 59 88 55 89 56 90 57 91 58 92
REMARK H PARENT 10 21 82 45 50 56
REMARK Flexibility Score: inf
ROOT
ATOM      1  C   UNL A   1      31.774  29.376  26.548  1.00  0.00     0.188 C 
ENDROOT
BRANCH   1   2
ATOM      2  C   UNL A   1      31.790  29.427  25.017  1.00  0.00     0.188 C 
BRANCH   2   3
ATOM      3  O   UNL A   1      30.787  28.633  24.381  1.00  0.00    -0.376 OA
BRANCH   3   4
ATOM      4  C   UNL A   1      30.718  28.728  22.957  1.00  0.00     0.202 C 
BRANCH   4   5
ATOM      5  C   UNL A   1      31.854  28.025  22.202  1.00  0.00     0.261 C 
BRANCH   5   6
ATOM      6  O   UNL A   1      31.870  26.603  22.444  1.00  0.00    -0.463 OA
BRANCH   6   7
ATOM      7  C   UNL A   1      32.989  25.946  22.052  1.00  0.00     0.308 C 
ATOM      8  O   UNL A   1      33.314  25.773  20.882  1.00  0.00    -0.252 OA
BRANCH   7   9
ATOM      9  C   UNL A   1      33.887  25.558  23.204  1.00  0.00     0.158 C 
BRANCH   9  10
ATOM     10  C   UNL A   1      33.304  24.826  24.429  1.00  0.00     0.081 C 
ATOM     11  C   UNL A   1      32.565  21.192  25.749  1.00  0.00     0.012 C 
ATOM     12  C   UNL A   1      32.902  22.706  25.685  1.00  0.00    -0.024 C 
ATOM     13  C   UNL A   1      32.198  23.351  26.897  1.00  0.00     0.012 C 
ATOM     14  C   UNL A   1      34.418  22.995  25.610  1.00  0.00    -0.002 C 
ATOM     15  C   UNL A   1      32.664  23.385  24.277  1.00  0.00     0.002 C 
ATOM     16  C   UNL A   1      34.849  22.363  24.261  1.00  0.00     0.005 C 
ATOM     17  C   UNL A   1      34.480  24.529  25.424  1.00  0.00     0.040 C 
ATOM     18  C   UNL A   1      33.606  22.545  23.376  1.00  0.00     0.010 C 
ATOM     19  C   UNL A   1      31.210  23.339  23.826  1.00  0.00     0.015 C 
BRANCH  10  20
ATOM     20  O   UNL A   1      32.411  25.727  25.083  1.00  0.00    -0.389 OA
ATOM     21  H   UNL A   1      32.579  25.713  26.038  1.00  0.00     0.211 HD
ENDBRANCH  10  20
ENDBRANCH   9  10
ENDBRANCH   7   9
ENDBRANCH   6   7
ENDBRANCH   5   6
ENDBRANCH   4   5
ENDBRANCH   3   4
ENDBRANCH   2   3
ENDBRANCH   1   2
BRANCH   1  22
ATOM     22  O   UNL A   1      32.069  30.627  27.167  1.00  0.00    -0.376 OA
BRANCH  22  23
ATOM     23  C   UNL A   1      31.445  31.812  26.664  1.00  0.00     0.202 C 
BRANCH  23  24
ATOM     24  C   UNL A   1      32.136  33.177  26.815  1.00  0.00     0.261 C 
BRANCH  24  25
ATOM     25  O   UNL A   1      32.298  33.628  28.167  1.00  0.00    -0.460 OA
BRANCH  25  26
ATOM     26  C   UNL A   1      33.255  34.564  28.409  1.00  0.00     0.338 C 
ATOM     27  O   UNL A   1      33.116  35.763  28.358  1.00  0.00    -0.246 OA
BRANCH  26  28
ATOM     28  C   UNL A   1      34.426  33.842  28.987  1.00  0.00     0.060 A 
ATOM     29  C   UNL A   1      34.193  32.691  29.753  1.00  0.00     0.016 A 
ATOM     30  C   UNL A   1      35.739  34.219  28.677  1.00  0.00     0.016 A 
ATOM     31  C   UNL A   1      35.271  31.949  30.249  1.00  0.00     0.010 A 
ATOM     32  C   UNL A   1      36.814  33.474  29.170  1.00  0.00     0.010 A 
ATOM     33  C   UNL A   1      36.588  32.356  29.991  1.00  0.00    -0.014 A 
BRANCH  33  34
ATOM     34  C   UNL A   1      37.721  31.756  30.743  1.00  0.00     0.031 A 
ATOM     35  C   UNL A   1      38.534  30.689  30.056  1.00  0.00     0.074 A 
ATOM     36  C   UNL A   1      38.039  32.142  31.993  1.00  0.00     0.049 A 
ATOM     37  N   UNL A   1      39.540  29.986  30.509  1.00  0.00    -0.248 NA
ATOM     38  C   UNL A   1      38.151  30.372  28.672  1.00  0.00     0.031 C 
ATOM     39  C   UNL A   1      37.356  33.185  32.756  1.00  0.00     0.029 A 
ATOM     40  N   UNL A   1      39.021  31.694  32.843  1.00  0.00    -0.354 N 
ATOM     41  C   UNL A   1      39.908  29.143  29.465  1.00  0.00     0.074 A 
ATOM     42  C   UNL A   1      38.987  29.391  28.378  1.00  0.00     0.031 C 
ATOM     43  C   UNL A   1      37.941  33.294  33.963  1.00  0.00     0.029 A 
ATOM     44  C   UNL A   1      39.013  32.304  34.076  1.00  0.00     0.049 A 
ATOM     45  H   UNL A   1      39.672  30.998  32.592  1.00  0.00     0.167 HD
ATOM     46  C   UNL A   1      40.931  28.254  29.412  1.00  0.00     0.034 A 
ATOM     47  C   UNL A   1      39.766  32.075  35.173  1.00  0.00     0.034 A 
ATOM     48  C   UNL A   1      41.835  28.003  30.505  1.00  0.00     0.049 A 
ATOM     49  C   UNL A   1      40.839  31.008  35.125  1.00  0.00     0.074 A 
ATOM     50  C   UNL A   1      42.913  27.136  30.547  1.00  0.00     0.029 A 
ATOM     51  N   UNL A   1      41.762  28.604  31.755  1.00  0.00    -0.354 N 
ATOM     52  N   UNL A   1      41.191  30.231  34.125  1.00  0.00    -0.248 NA
ATOM     53  C   UNL A   1      41.622  30.795  36.350  1.00  0.00     0.031 C 
ATOM     54  C   UNL A   1      43.435  27.149  31.844  1.00  0.00     0.029 A 
ATOM     55  C   UNL A   1      42.748  28.095  32.586  1.00  0.00     0.049 A 
ATOM     56  H   UNL A   1      41.105  29.291  32.012  1.00  0.00     0.167 HD
ATOM     57  C   UNL A   1      42.257  29.465  34.594  1.00  0.00     0.074 A 
ATOM     58  C   UNL A   1      42.499  29.882  35.959  1.00  0.00     0.031 C 
ATOM     59  C   UNL A   1      42.978  28.509  33.951  1.00  0.00     0.034 A 
BRANCH  46  60
ATOM     60  C   UNL A   1      41.081  27.450  28.142  1.00  0.00     0.023 A 
ATOM     61  C   UNL A   1      40.713  26.095  28.072  1.00  0.00     0.031 A 
ATOM     62  C   UNL A   1      41.632  28.042  26.992  1.00  0.00     0.131 A 
ATOM     63  C   UNL A   1      40.967  25.360  26.905  1.00  0.00     0.055 A 
ATOM     64  C   UNL A   1      41.803  27.328  25.806  1.00  0.00     0.041 A 
ATOM     65  F   UNL A   1      42.029  29.325  27.007  1.00  0.00    -0.206 F 
ATOM     66  C   UNL A   1      41.483  25.974  25.761  1.00  0.00     0.022 A 
BRANCH  63  67
ATOM     67  S   UNL A   1      40.754  23.559  26.949  1.00  0.00     0.124 S 
ATOM     68  O   UNL A   1      39.297  23.435  26.939  1.00  0.00    -0.237 OA
ATOM     69  O   UNL A   1      41.439  23.130  25.736  1.00  0.00    -0.237 OA
ATOM     70  O   UNL A   1      41.395  23.169  28.202  1.00  0.00    -0.744 OA
ENDBRANCH  63  67
ENDBRANCH  46  60
BRANCH  47  71
ATOM     71  C   UNL A   1      39.515  32.829  36.440  1.00  0.00     0.023 A 
ATOM     72  C   UNL A   1      38.650  32.333  37.429  1.00  0.00     0.031 A 
ATOM     73  C   UNL A   1      40.084  34.100  36.644  1.00  0.00     0.131 A 
ATOM     74  C   UNL A   1      38.339  33.121  38.549  1.00  0.00     0.055 A 
ATOM     75  C   UNL A   1      39.818  34.854  37.789  1.00  0.00     0.041 A 
ATOM     76  F   UNL A   1      40.909  34.629  35.727  1.00  0.00    -0.206 F 
ATOM     77  C   UNL A   1      38.930  34.371  38.744  1.00  0.00     0.022 A 
BRANCH  74  78
ATOM     78  S   UNL A   1      37.068  32.533  39.705  1.00  0.00     0.124 S 
ATOM     79  O   UNL A   1      37.136  33.542  40.756  1.00  0.00    -0.237 OA
ATOM     80  O   UNL A   1      35.869  32.550  38.873  1.00  0.00    -0.237 OA
ATOM     81  O   UNL A   1      37.541  31.204  40.084  1.00  0.00    -0.744 OA
ENDBRANCH  74  78
ENDBRANCH  47  71
BRANCH  59  82
ATOM     82  C   UNL A   1      44.134  27.884  34.701  1.00  0.00     0.023 A 
ATOM     83  C   UNL A   1      44.024  26.637  35.339  1.00  0.00     0.031 A 
ATOM     84  C   UNL A   1      45.371  28.553  34.772  1.00  0.00     0.131 A 
ATOM     85  C   UNL A   1      45.111  26.123  36.064  1.00  0.00     0.055 A 
ATOM     86  C   UNL A   1      46.468  28.007  35.438  1.00  0.00     0.041 A 
ATOM     87  F   UNL A   1      45.535  29.750  34.184  1.00  0.00    -0.206 F 
ATOM     88  C   UNL A   1      46.338  26.791  36.102  1.00  0.00     0.022 A 
BRANCH  85  89
ATOM     89  S   UNL A   1      44.874  24.613  37.043  1.00  0.00     0.124 S 
ATOM     90  O   UNL A   1      43.802  23.945  36.314  1.00  0.00    -0.237 OA
ATOM     91  O   UNL A   1      46.188  23.983  36.967  1.00  0.00    -0.237 OA
ATOM     92  O   UNL A   1      44.505  25.116  38.365  1.00  0.00    -0.744 OA
ENDBRANCH  85  89
ENDBRANCH  59  82
ENDBRANCH  33  34
ENDBRANCH  26  28
ENDBRANCH  25  26
ENDBRANCH  24  25
ENDBRANCH  23  24
ENDBRANCH  22  23
ENDBRANCH   1  22
TORSDOF 22
ENDMDL
