MODEL 1
REMARK VINA RESULT:     -10.1      0.000      0.000
REMARK SMILES Cc1ccc(-c2cc(C(=O)OCCOCCOCCOC(=O)c3ccc(-c4c5nc(c(-c6cc(S(=O)(=O)[O-])ccc6F)c6ccc([nH]6)c(-c6cc(S(=O)(=O)[O-])ccc6F)c6nc(c(-c7cc(S(=O)(=O)[O-])ccc7F)c7ccc4[nH]7)C=C6)C=C5)cc3)c3cc(C)ccc3n2)c(C)c1
REMARK SMILES IDX 16 1 15 2 14 3 13 4 12 5 11 6 9 7 10 8 8 9 6 10 7 11 93 12
REMARK SMILES IDX 92 13 86 14 91 15 87 16 90 17 88 18 89 19 5 20 1 21 2 22
REMARK SMILES IDX 3 23 96 24 4 25 94 26 95 27 17 28 18 29 19 30 20 31 21 32
REMARK SMILES IDX 22 33 23 34 24 35 85 36 25 37 84 38 26 39 27 40 28 41 78 42
REMARK SMILES IDX 29 43 83 44 77 45 79 46 30 47 82 48 76 49 75 50 31 52 63 53
REMARK SMILES IDX 43 54 62 55 44 56 47 57 61 58 80 59 45 60 46 61 60 63 81 64
REMARK SMILES IDX 48 65 32 66 33 67 41 68 34 69 40 70 42 71 39 72 35 73 36 74
REMARK SMILES IDX 37 75 38 76 64 77 65 78 73 79 66 80 72 81 74 82 71 83 67 84
REMARK SMILES IDX 68 85 69 86 70 87 49 88 50 89 58 90 51 91 57 92 59 93 56 94
REMARK SMILES IDX 52 95 53 96 54 97 55 98
REMARK H PARENT 79 51 47 62
REMARK Flexibility Score: inf
ROOT
ATOM      1  C   UNL A   1      45.286  21.809  25.643  1.00  0.00     0.188 C 
ENDROOT
BRANCH   1   2
ATOM      2  C   UNL A   1      44.802  21.305  24.264  1.00  0.00     0.188 C 
BRANCH   2   3
ATOM      3  O   UNL A   1      44.141  20.048  24.174  1.00  0.00    -0.376 OA
BRANCH   3   4
ATOM      4  C   UNL A   1      43.749  19.377  25.366  1.00  0.00     0.202 C 
BRANCH   4   5
ATOM      5  C   UNL A   1      42.258  19.221  25.697  1.00  0.00     0.261 C 
BRANCH   5   6
ATOM      6  O   UNL A   1      41.544  20.466  25.763  1.00  0.00    -0.460 OA
BRANCH   6   7
ATOM      7  C   UNL A   1      40.735  20.641  26.835  1.00  0.00     0.338 C 
ATOM      8  O   UNL A   1      40.727  19.969  27.853  1.00  0.00    -0.246 OA
BRANCH   7   9
ATOM      9  C   UNL A   1      39.953  21.894  26.704  1.00  0.00     0.071 A 
ATOM     10  C   UNL A   1      37.995  22.922  25.793  1.00  0.00     0.072 A 
ATOM     11  C   UNL A   1      38.757  21.785  25.985  1.00  0.00     0.045 A 
ATOM     12  N   UNL A   1      38.379  24.130  26.263  1.00  0.00    -0.248 NA
ATOM     13  C   UNL A   1      39.522  24.236  26.953  1.00  0.00     0.072 A 
ATOM     14  C   UNL A   1      40.361  23.140  27.238  1.00  0.00     0.015 A 
ATOM     15  C   UNL A   1      39.887  25.497  27.397  1.00  0.00     0.029 A 
ATOM     16  C   UNL A   1      41.526  23.365  28.019  1.00  0.00     0.014 A 
ATOM     17  C   UNL A   1      41.039  25.712  28.155  1.00  0.00     0.005 A 
ATOM     18  C   UNL A   1      41.861  24.641  28.487  1.00  0.00    -0.050 A 
ATOM     19  C   UNL A   1      43.049  24.827  29.383  1.00  0.00     0.044 C 
BRANCH  10  20
ATOM     20  C   UNL A   1      36.760  22.904  24.999  1.00  0.00     0.003 A 
ATOM     21  C   UNL A   1      33.155  23.021  22.593  1.00  0.00     0.044 C 
ATOM     22  C   UNL A   1      34.413  22.966  23.410  1.00  0.00    -0.051 A 
ATOM     23  C   UNL A   1      35.671  23.042  22.812  1.00  0.00     0.004 A 
ATOM     24  C   UNL A   1      34.333  22.836  24.802  1.00  0.00     0.007 A 
ATOM     25  C   UNL A   1      36.828  23.007  23.598  1.00  0.00     0.011 A 
ATOM     26  C   UNL A   1      35.489  22.804  25.604  1.00  0.00    -0.041 A 
ATOM     27  C   UNL A   1      35.305  22.636  27.087  1.00  0.00     0.045 C 
ENDBRANCH  10  20
ENDBRANCH   7   9
ENDBRANCH   6   7
ENDBRANCH   5   6
ENDBRANCH   4   5
ENDBRANCH   3   4
ENDBRANCH   2   3
ENDBRANCH   1   2
BRANCH   1  28
ATOM     28  O   UNL A   1      46.388  22.683  25.581  1.00  0.00    -0.376 OA
BRANCH  28  29
ATOM     29  C   UNL A   1      46.290  23.961  26.186  1.00  0.00     0.202 C 
BRANCH  29  30
ATOM     30  C   UNL A   1      46.451  25.307  25.443  1.00  0.00     0.261 C 
BRANCH  30  31
ATOM     31  O   UNL A   1      45.324  25.852  24.749  1.00  0.00    -0.460 OA
BRANCH  31  32
ATOM     32  C   UNL A   1      44.121  25.740  25.357  1.00  0.00     0.338 C 
ATOM     33  O   UNL A   1      43.362  24.780  25.302  1.00  0.00    -0.246 OA
BRANCH  32  34
ATOM     34  C   UNL A   1      43.939  26.895  26.257  1.00  0.00     0.060 A 
ATOM     35  C   UNL A   1      43.047  27.912  25.890  1.00  0.00     0.016 A 
ATOM     36  C   UNL A   1      44.655  26.983  27.454  1.00  0.00     0.016 A 
ATOM     37  C   UNL A   1      42.882  29.027  26.715  1.00  0.00     0.010 A 
ATOM     38  C   UNL A   1      44.501  28.113  28.267  1.00  0.00     0.010 A 
ATOM     39  C   UNL A   1      43.629  29.151  27.892  1.00  0.00    -0.014 A 
BRANCH  39  40
ATOM     40  C   UNL A   1      43.639  30.444  28.626  1.00  0.00     0.031 A 
ATOM     41  C   UNL A   1      44.702  31.453  28.280  1.00  0.00     0.074 A 
ATOM     42  C   UNL A   1      42.704  30.742  29.549  1.00  0.00     0.049 A 
ATOM     43  N   UNL A   1      44.972  32.604  28.838  1.00  0.00    -0.248 NA
ATOM     44  C   UNL A   1      45.575  31.114  27.144  1.00  0.00     0.031 C 
ATOM     45  C   UNL A   1      41.574  29.889  29.915  1.00  0.00     0.029 A 
ATOM     46  N   UNL A   1      42.562  31.847  30.353  1.00  0.00    -0.354 N 
ATOM     47  C   UNL A   1      46.040  33.131  28.120  1.00  0.00     0.074 A 
ATOM     48  C   UNL A   1      46.394  32.153  27.114  1.00  0.00     0.031 C 
ATOM     49  C   UNL A   1      40.864  30.498  30.882  1.00  0.00     0.029 A 
ATOM     50  C   UNL A   1      41.513  31.757  31.240  1.00  0.00     0.049 A 
ATOM     51  H   UNL A   1      43.156  32.631  30.299  1.00  0.00     0.167 HD
ATOM     52  C   UNL A   1      46.661  34.325  28.278  1.00  0.00     0.034 A 
ATOM     53  C   UNL A   1      41.146  32.581  32.247  1.00  0.00     0.034 A 
ATOM     54  C   UNL A   1      46.315  35.285  29.296  1.00  0.00     0.049 A 
ATOM     55  C   UNL A   1      41.950  33.842  32.494  1.00  0.00     0.074 A 
ATOM     56  C   UNL A   1      46.904  36.509  29.562  1.00  0.00     0.029 A 
ATOM     57  N   UNL A   1      45.289  35.130  30.218  1.00  0.00    -0.354 N 
ATOM     58  N   UNL A   1      42.976  34.316  31.825  1.00  0.00    -0.248 NA
ATOM     59  C   UNL A   1      41.540  34.682  33.628  1.00  0.00     0.031 C 
ATOM     60  C   UNL A   1      46.279  37.062  30.685  1.00  0.00     0.029 A 
ATOM     61  C   UNL A   1      45.245  36.224  31.067  1.00  0.00     0.049 A 
ATOM     62  H   UNL A   1      44.682  34.356  30.262  1.00  0.00     0.167 HD
ATOM     63  C   UNL A   1      43.296  35.531  32.431  1.00  0.00     0.074 A 
ATOM     64  C   UNL A   1      42.347  35.723  33.505  1.00  0.00     0.031 C 
ATOM     65  C   UNL A   1      44.282  36.412  32.126  1.00  0.00     0.034 A 
BRANCH  52  66
ATOM     66  C   UNL A   1      47.809  34.638  27.352  1.00  0.00     0.023 A 
ATOM     67  C   UNL A   1      49.144  34.411  27.730  1.00  0.00     0.031 A 
ATOM     68  C   UNL A   1      47.567  35.170  26.074  1.00  0.00     0.131 A 
ATOM     69  C   UNL A   1      50.187  34.760  26.860  1.00  0.00     0.055 A 
ATOM     70  C   UNL A   1      48.606  35.447  25.183  1.00  0.00     0.041 A 
ATOM     71  F   UNL A   1      46.314  35.433  25.668  1.00  0.00    -0.206 F 
ATOM     72  C   UNL A   1      49.925  35.252  25.578  1.00  0.00     0.022 A 
BRANCH  69  73
ATOM     73  S   UNL A   1      51.892  34.675  27.470  1.00  0.00     0.124 S 
ATOM     74  O   UNL A   1      52.626  34.363  26.246  1.00  0.00    -0.237 OA
ATOM     75  O   UNL A   1      52.098  36.012  28.016  1.00  0.00    -0.237 OA
ATOM     76  O   UNL A   1      51.849  33.597  28.456  1.00  0.00    -0.744 OA
ENDBRANCH  69  73
ENDBRANCH  52  66
BRANCH  53  77
ATOM     77  C   UNL A   1      40.007  32.237  33.153  1.00  0.00     0.023 A 
ATOM     78  C   UNL A   1      38.736  32.806  32.965  1.00  0.00     0.031 A 
ATOM     79  C   UNL A   1      40.202  31.439  34.295  1.00  0.00     0.131 A 
ATOM     80  C   UNL A   1      37.741  32.642  33.943  1.00  0.00     0.055 A 
ATOM     81  C   UNL A   1      39.185  31.214  35.224  1.00  0.00     0.041 A 
ATOM     82  F   UNL A   1      41.397  30.878  34.536  1.00  0.00    -0.206 F 
ATOM     83  C   UNL A   1      37.952  31.836  35.062  1.00  0.00     0.022 A 
BRANCH  80  84
ATOM     84  S   UNL A   1      36.223  33.629  33.806  1.00  0.00     0.124 S 
ATOM     85  O   UNL A   1      35.551  32.979  32.686  1.00  0.00    -0.237 OA
ATOM     86  O   UNL A   1      35.617  33.435  35.119  1.00  0.00    -0.237 OA
ATOM     87  O   UNL A   1      36.718  34.978  33.541  1.00  0.00    -0.744 OA
ENDBRANCH  80  84
ENDBRANCH  53  77
BRANCH  65  88
ATOM     88  C   UNL A   1      44.333  37.701  32.914  1.00  0.00     0.023 A 
ATOM     89  C   UNL A   1      43.603  38.840  32.533  1.00  0.00     0.031 A 
ATOM     90  C   UNL A   1      45.133  37.787  34.070  1.00  0.00     0.131 A 
ATOM     91  C   UNL A   1      43.733  40.031  33.263  1.00  0.00     0.055 A 
ATOM     92  C   UNL A   1      45.205  38.954  34.830  1.00  0.00     0.041 A 
ATOM     93  F   UNL A   1      45.854  36.731  34.483  1.00  0.00    -0.206 F 
ATOM     94  C   UNL A   1      44.515  40.090  34.420  1.00  0.00     0.022 A 
BRANCH  91  95
ATOM     95  S   UNL A   1      42.942  41.535  32.628  1.00  0.00     0.124 S 
ATOM     96  O   UNL A   1      43.932  42.558  32.950  1.00  0.00    -0.237 OA
ATOM     97  O   UNL A   1      42.782  41.228  31.211  1.00  0.00    -0.237 OA
ATOM     98  O   UNL A   1      41.696  41.616  33.389  1.00  0.00    -0.744 OA
ENDBRANCH  91  95
ENDBRANCH  65  88
ENDBRANCH  39  40
ENDBRANCH  32  34
ENDBRANCH  31  32
ENDBRANCH  30  31
ENDBRANCH  29  30
ENDBRANCH  28  29
ENDBRANCH   1  28
TORSDOF 21
ENDMDL
MODEL 2
REMARK VINA RESULT:      -9.6      1.335      3.626
REMARK SMILES Cc1ccc(-c2cc(C(=O)OCCOCCOCCOC(=O)c3ccc(-c4c5nc(c(-c6cc(S(=O)(=O)[O-])ccc6F)c6ccc([nH]6)c(-c6cc(S(=O)(=O)[O-])ccc6F)c6nc(c(-c7cc(S(=O)(=O)[O-])ccc7F)c7ccc4[nH]7)C=C6)C=C5)cc3)c3cc(C)ccc3n2)c(C)c1
REMARK SMILES IDX 16 1 15 2 14 3 13 4 12 5 11 6 9 7 10 8 8 9 6 10 7 11 93 12
REMARK SMILES IDX 92 13 86 14 91 15 87 16 90 17 88 18 89 19 5 20 1 21 2 22
REMARK SMILES IDX 3 23 96 24 4 25 94 26 95 27 17 28 18 29 19 30 20 31 21 32
REMARK SMILES IDX 22 33 23 34 24 35 85 36 25 37 84 38 26 39 27 40 28 41 78 42
REMARK SMILES IDX 29 43 83 44 77 45 79 46 30 47 82 48 76 49 75 50 31 52 63 53
REMARK SMILES IDX 43 54 62 55 44 56 47 57 61 58 80 59 45 60 46 61 60 63 81 64
REMARK SMILES IDX 48 65 32 66 33 67 41 68 34 69 40 70 42 71 39 72 35 73 36 74
REMARK SMILES IDX 37 75 38 76 64 77 65 78 73 79 66 80 72 81 74 82 71 83 67 84
REMARK SMILES IDX 68 85 69 86 70 87 49 88 50 89 58 90 51 91 57 92 59 93 56 94
REMARK SMILES IDX 52 95 53 96 54 97 55 98
REMARK H PARENT 79 51 47 62
REMARK Flexibility Score: inf
ROOT
ATOM      1  C   UNL A   1      46.059  20.686  25.013  1.00  0.00     0.188 C 
ENDROOT
BRANCH   1   2
ATOM      2  C   UNL A   1      44.760  20.690  24.174  1.00  0.00     0.188 C 
BRANCH   2   3
ATOM      3  O   UNL A   1      43.981  19.502  24.090  1.00  0.00    -0.376 OA
BRANCH   3   4
ATOM      4  C   UNL A   1      43.985  18.585  25.178  1.00  0.00     0.202 C 
BRANCH   4   5
ATOM      5  C   UNL A   1      42.757  18.486  26.095  1.00  0.00     0.261 C 
BRANCH   5   6
ATOM      6  O   UNL A   1      42.266  19.758  26.547  1.00  0.00    -0.460 OA
BRANCH   6   7
ATOM      7  C   UNL A   1      40.988  20.063  26.216  1.00  0.00     0.338 C 
ATOM      8  O   UNL A   1      40.142  19.287  25.805  1.00  0.00    -0.246 OA
BRANCH   7   9
ATOM      9  C   UNL A   1      40.668  21.461  26.592  1.00  0.00     0.071 A 
ATOM     10  C   UNL A   1      41.417  23.430  27.726  1.00  0.00     0.072 A 
ATOM     11  C   UNL A   1      41.663  22.134  27.311  1.00  0.00     0.045 A 
ATOM     12  N   UNL A   1      40.246  24.054  27.473  1.00  0.00    -0.248 NA
ATOM     13  C   UNL A   1      39.293  23.412  26.782  1.00  0.00     0.072 A 
ATOM     14  C   UNL A   1      39.445  22.103  26.282  1.00  0.00     0.015 A 
ATOM     15  C   UNL A   1      38.099  24.082  26.565  1.00  0.00     0.029 A 
ATOM     16  C   UNL A   1      38.383  21.542  25.524  1.00  0.00     0.014 A 
ATOM     17  C   UNL A   1      37.057  23.520  25.828  1.00  0.00     0.005 A 
ATOM     18  C   UNL A   1      37.197  22.247  25.286  1.00  0.00    -0.050 A 
ATOM     19  C   UNL A   1      36.135  21.658  24.408  1.00  0.00     0.044 C 
BRANCH  10  20
ATOM     20  C   UNL A   1      42.384  24.182  28.535  1.00  0.00     0.003 A 
ATOM     21  C   UNL A   1      45.147  26.350  31.079  1.00  0.00     0.044 C 
ATOM     22  C   UNL A   1      44.206  25.582  30.196  1.00  0.00    -0.051 A 
ATOM     23  C   UNL A   1      44.070  24.198  30.310  1.00  0.00     0.004 A 
ATOM     24  C   UNL A   1      43.447  26.259  29.233  1.00  0.00     0.007 A 
ATOM     25  C   UNL A   1      43.172  23.508  29.487  1.00  0.00     0.011 A 
ATOM     26  C   UNL A   1      42.538  25.578  28.402  1.00  0.00    -0.041 A 
ATOM     27  C   UNL A   1      41.786  26.386  27.382  1.00  0.00     0.045 C 
ENDBRANCH  10  20
ENDBRANCH   7   9
ENDBRANCH   6   7
ENDBRANCH   5   6
ENDBRANCH   4   5
ENDBRANCH   3   4
ENDBRANCH   2   3
ENDBRANCH   1   2
BRANCH   1  28
ATOM     28  O   UNL A   1      46.141  21.734  25.949  1.00  0.00    -0.376 OA
BRANCH  28  29
ATOM     29  C   UNL A   1      45.008  22.559  26.163  1.00  0.00     0.202 C 
BRANCH  29  30
ATOM     30  C   UNL A   1      44.899  24.040  25.735  1.00  0.00     0.261 C 
BRANCH  30  31
ATOM     31  O   UNL A   1      45.661  25.023  26.443  1.00  0.00    -0.460 OA
BRANCH  31  32
ATOM     32  C   UNL A   1      46.024  26.128  25.753  1.00  0.00     0.338 C 
ATOM     33  O   UNL A   1      46.414  26.168  24.592  1.00  0.00    -0.246 OA
BRANCH  32  34
ATOM     34  C   UNL A   1      45.701  27.317  26.565  1.00  0.00     0.060 A 
ATOM     35  C   UNL A   1      44.635  28.139  26.176  1.00  0.00     0.016 A 
ATOM     36  C   UNL A   1      46.455  27.628  27.700  1.00  0.00     0.016 A 
ATOM     37  C   UNL A   1      44.331  29.285  26.916  1.00  0.00     0.010 A 
ATOM     38  C   UNL A   1      46.158  28.789  28.426  1.00  0.00     0.010 A 
ATOM     39  C   UNL A   1      45.108  29.635  28.026  1.00  0.00    -0.014 A 
BRANCH  39  40
ATOM     40  C   UNL A   1      44.943  30.975  28.649  1.00  0.00     0.031 A 
ATOM     41  C   UNL A   1      45.865  32.083  28.214  1.00  0.00     0.074 A 
ATOM     42  C   UNL A   1      43.971  31.222  29.549  1.00  0.00     0.049 A 
ATOM     43  N   UNL A   1      45.976  33.302  28.672  1.00  0.00    -0.248 NA
ATOM     44  C   UNL A   1      46.781  31.768  27.106  1.00  0.00     0.031 C 
ATOM     45  C   UNL A   1      42.962  30.261  29.991  1.00  0.00     0.029 A 
ATOM     46  N   UNL A   1      43.680  32.362  30.258  1.00  0.00    -0.354 N 
ATOM     47  C   UNL A   1      46.970  33.904  27.907  1.00  0.00     0.074 A 
ATOM     48  C   UNL A   1      47.456  32.901  26.984  1.00  0.00     0.031 C 
ATOM     49  C   UNL A   1      42.172  30.849  30.908  1.00  0.00     0.029 A 
ATOM     50  C   UNL A   1      42.647  32.209  31.156  1.00  0.00     0.049 A 
ATOM     51  H   UNL A   1      44.165  33.210  30.136  1.00  0.00     0.167 HD
ATOM     52  C   UNL A   1      47.426  35.179  27.961  1.00  0.00     0.034 A 
ATOM     53  C   UNL A   1      42.168  33.058  32.092  1.00  0.00     0.034 A 
ATOM     54  C   UNL A   1      46.950  36.166  28.897  1.00  0.00     0.049 A 
ATOM     55  C   UNL A   1      42.797  34.430  32.228  1.00  0.00     0.074 A 
ATOM     56  C   UNL A   1      47.370  37.476  29.056  1.00  0.00     0.029 A 
ATOM     57  N   UNL A   1      45.948  35.954  29.834  1.00  0.00    -0.354 N 
ATOM     58  N   UNL A   1      43.755  34.979  31.517  1.00  0.00    -0.248 NA
ATOM     59  C   UNL A   1      42.272  35.300  33.291  1.00  0.00     0.031 C 
ATOM     60  C   UNL A   1      46.672  38.033  30.132  1.00  0.00     0.029 A 
ATOM     61  C   UNL A   1      45.755  37.100  30.589  1.00  0.00     0.049 A 
ATOM     62  H   UNL A   1      45.449  35.113  29.947  1.00  0.00     0.167 HD
ATOM     63  C   UNL A   1      43.907  36.271  32.017  1.00  0.00     0.074 A 
ATOM     64  C   UNL A   1      42.936  36.425  33.076  1.00  0.00     0.031 C 
ATOM     65  C   UNL A   1      44.770  37.247  31.634  1.00  0.00     0.034 A 
BRANCH  52  66
ATOM     66  C   UNL A   1      48.528  35.563  27.005  1.00  0.00     0.023 A 
ATOM     67  C   UNL A   1      49.877  35.291  27.290  1.00  0.00     0.031 A 
ATOM     68  C   UNL A   1      48.225  36.208  25.793  1.00  0.00     0.131 A 
ATOM     69  C   UNL A   1      50.877  35.707  26.399  1.00  0.00     0.055 A 
ATOM     70  C   UNL A   1      49.219  36.553  24.876  1.00  0.00     0.041 A 
ATOM     71  F   UNL A   1      46.956  36.516  25.481  1.00  0.00    -0.206 F 
ATOM     72  C   UNL A   1      50.555  36.312  25.181  1.00  0.00     0.022 A 
BRANCH  69  73
ATOM     73  S   UNL A   1      52.611  35.553  26.906  1.00  0.00     0.124 S 
ATOM     74  O   UNL A   1      52.534  35.899  28.323  1.00  0.00    -0.237 OA
ATOM     75  O   UNL A   1      52.904  34.156  26.605  1.00  0.00    -0.237 OA
ATOM     76  O   UNL A   1      53.301  36.531  26.069  1.00  0.00    -0.744 OA
ENDBRANCH  69  73
ENDBRANCH  52  66
BRANCH  53  77
ATOM     77  C   UNL A   1      41.080  32.643  33.031  1.00  0.00     0.023 A 
ATOM     78  C   UNL A   1      39.742  32.996  32.787  1.00  0.00     0.031 A 
ATOM     79  C   UNL A   1      41.374  32.003  34.248  1.00  0.00     0.131 A 
ATOM     80  C   UNL A   1      38.768  32.787  33.777  1.00  0.00     0.055 A 
ATOM     81  C   UNL A   1      40.388  31.726  35.196  1.00  0.00     0.041 A 
ATOM     82  F   UNL A   1      42.636  31.653  34.544  1.00  0.00    -0.206 F 
ATOM     83  C   UNL A   1      39.079  32.139  34.973  1.00  0.00     0.022 A 
BRANCH  80  84
ATOM     84  S   UNL A   1      37.123  33.519  33.542  1.00  0.00     0.124 S 
ATOM     85  O   UNL A   1      37.275  34.804  34.215  1.00  0.00    -0.237 OA
ATOM     86  O   UNL A   1      37.017  33.563  32.088  1.00  0.00    -0.237 OA
ATOM     87  O   UNL A   1      36.231  32.568  34.202  1.00  0.00    -0.744 OA
ENDBRANCH  80  84
ENDBRANCH  53  77
BRANCH  65  88
ATOM     88  C   UNL A   1      44.645  38.593  32.311  1.00  0.00     0.023 A 
ATOM     89  C   UNL A   1      43.691  39.545  31.912  1.00  0.00     0.031 A 
ATOM     90  C   UNL A   1      45.504  38.925  33.376  1.00  0.00     0.131 A 
ATOM     91  C   UNL A   1      43.658  40.803  32.532  1.00  0.00     0.055 A 
ATOM     92  C   UNL A   1      45.421  40.153  34.033  1.00  0.00     0.041 A 
ATOM     93  F   UNL A   1      46.436  38.057  33.800  1.00  0.00    -0.206 F 
ATOM     94  C   UNL A   1      44.504  41.106  33.602  1.00  0.00     0.022 A 
BRANCH  91  95
ATOM     95  S   UNL A   1      42.557  42.078  31.859  1.00  0.00     0.124 S 
ATOM     96  O   UNL A   1      43.361  42.632  30.774  1.00  0.00    -0.237 OA
ATOM     97  O   UNL A   1      41.390  41.302  31.454  1.00  0.00    -0.237 OA
ATOM     98  O   UNL A   1      42.339  42.977  32.991  1.00  0.00    -0.744 OA
ENDBRANCH  91  95
ENDBRANCH  65  88
ENDBRANCH  39  40
ENDBRANCH  32  34
ENDBRANCH  31  32
ENDBRANCH  30  31
ENDBRANCH  29  30
ENDBRANCH  28  29
ENDBRANCH   1  28
TORSDOF 21
ENDMDL
MODEL 3
REMARK VINA RESULT:      -9.6      4.166      9.541
REMARK SMILES Cc1ccc(-c2cc(C(=O)OCCOCCOCCOC(=O)c3ccc(-c4c5nc(c(-c6cc(S(=O)(=O)[O-])ccc6F)c6ccc([nH]6)c(-c6cc(S(=O)(=O)[O-])ccc6F)c6nc(c(-c7cc(S(=O)(=O)[O-])ccc7F)c7ccc4[nH]7)C=C6)C=C5)cc3)c3cc(C)ccc3n2)c(C)c1
REMARK SMILES IDX 16 1 15 2 14 3 13 4 12 5 11 6 9 7 10 8 8 9 6 10 7 11 93 12
REMARK SMILES IDX 92 13 86 14 91 15 87 16 90 17 88 18 89 19 5 20 1 21 2 22
REMARK SMILES IDX 3 23 96 24 4 25 94 26 95 27 17 28 18 29 19 30 20 31 21 32
REMARK SMILES IDX 22 33 23 34 24 35 85 36 25 37 84 38 26 39 27 40 28 41 78 42
REMARK SMILES IDX 29 43 83 44 77 45 79 46 30 47 82 48 76 49 75 50 31 52 63 53
REMARK SMILES IDX 43 54 62 55 44 56 47 57 61 58 80 59 45 60 46 61 60 63 81 64
REMARK SMILES IDX 48 65 32 66 33 67 41 68 34 69 40 70 42 71 39 72 35 73 36 74
REMARK SMILES IDX 37 75 38 76 64 77 65 78 73 79 66 80 72 81 74 82 71 83 67 84
REMARK SMILES IDX 68 85 69 86 70 87 49 88 50 89 58 90 51 91 57 92 59 93 56 94
REMARK SMILES IDX 52 95 53 96 54 97 55 98
REMARK H PARENT 79 51 47 62
REMARK Flexibility Score: inf
ROOT
ATOM      1  C   UNL A   1      35.943  32.640  28.172  1.00  0.00     0.188 C 
ENDROOT
BRANCH   1   2
ATOM      2  C   UNL A   1      34.399  32.583  28.136  1.00  0.00     0.188 C 
BRANCH   2   3
ATOM      3  O   UNL A   1      33.755  31.367  27.775  1.00  0.00    -0.376 OA
BRANCH   3   4
ATOM      4  C   UNL A   1      34.516  30.322  27.181  1.00  0.00     0.202 C 
BRANCH   4   5
ATOM      5  C   UNL A   1      33.801  29.212  26.395  1.00  0.00     0.261 C 
BRANCH   5   6
ATOM      6  O   UNL A   1      32.807  29.698  25.478  1.00  0.00    -0.460 OA
BRANCH   6   7
ATOM      7  C   UNL A   1      32.839  29.183  24.225  1.00  0.00     0.338 C 
ATOM      8  O   UNL A   1      33.702  29.377  23.385  1.00  0.00    -0.246 OA
BRANCH   7   9
ATOM      9  C   UNL A   1      31.763  28.180  24.043  1.00  0.00     0.071 A 
ATOM     10  C   UNL A   1      31.214  25.853  23.971  1.00  0.00     0.072 A 
ATOM     11  C   UNL A   1      32.159  26.843  24.165  1.00  0.00     0.045 A 
ATOM     12  N   UNL A   1      29.932  26.139  23.653  1.00  0.00    -0.248 NA
ATOM     13  C   UNL A   1      29.550  27.418  23.538  1.00  0.00     0.072 A 
ATOM     14  C   UNL A   1      30.419  28.509  23.745  1.00  0.00     0.015 A 
ATOM     15  C   UNL A   1      28.231  27.664  23.189  1.00  0.00     0.029 A 
ATOM     16  C   UNL A   1      29.890  29.823  23.641  1.00  0.00     0.014 A 
ATOM     17  C   UNL A   1      27.722  28.958  23.078  1.00  0.00     0.005 A 
ATOM     18  C   UNL A   1      28.547  30.051  23.320  1.00  0.00    -0.050 A 
ATOM     19  C   UNL A   1      28.003  31.448  23.306  1.00  0.00     0.044 C 
BRANCH  10  20
ATOM     20  C   UNL A   1      31.561  24.428  24.022  1.00  0.00     0.003 A 
ATOM     21  C   UNL A   1      32.469  20.188  24.031  1.00  0.00     0.044 C 
ATOM     22  C   UNL A   1      32.175  21.660  24.017  1.00  0.00    -0.051 A 
ATOM     23  C   UNL A   1      32.437  22.441  22.891  1.00  0.00     0.004 A 
ATOM     24  C   UNL A   1      31.628  22.271  25.151  1.00  0.00     0.007 A 
ATOM     25  C   UNL A   1      32.137  23.808  22.897  1.00  0.00     0.011 A 
ATOM     26  C   UNL A   1      31.317  23.643  25.169  1.00  0.00    -0.041 A 
ATOM     27  C   UNL A   1      30.755  24.215  26.441  1.00  0.00     0.045 C 
ENDBRANCH  10  20
ENDBRANCH   7   9
ENDBRANCH   6   7
ENDBRANCH   5   6
ENDBRANCH   4   5
ENDBRANCH   3   4
ENDBRANCH   2   3
ENDBRANCH   1   2
BRANCH   1  28
ATOM     28  O   UNL A   1      36.490  32.602  29.469  1.00  0.00    -0.376 OA
BRANCH  28  29
ATOM     29  C   UNL A   1      35.637  32.340  30.570  1.00  0.00     0.202 C 
BRANCH  29  30
ATOM     30  C   UNL A   1      36.055  31.586  31.853  1.00  0.00     0.261 C 
BRANCH  30  31
ATOM     31  O   UNL A   1      36.678  30.303  31.730  1.00  0.00    -0.460 OA
BRANCH  31  32
ATOM     32  C   UNL A   1      37.716  30.047  32.558  1.00  0.00     0.338 C 
ATOM     33  O   UNL A   1      37.663  29.469  33.638  1.00  0.00    -0.246 OA
BRANCH  32  34
ATOM     34  C   UNL A   1      38.968  30.415  31.871  1.00  0.00     0.060 A 
ATOM     35  C   UNL A   1      40.064  30.844  32.633  1.00  0.00     0.016 A 
ATOM     36  C   UNL A   1      39.060  30.352  30.478  1.00  0.00     0.016 A 
ATOM     37  C   UNL A   1      41.249  31.224  31.999  1.00  0.00     0.010 A 
ATOM     38  C   UNL A   1      40.244  30.753  29.846  1.00  0.00     0.010 A 
ATOM     39  C   UNL A   1      41.338  31.212  30.601  1.00  0.00    -0.014 A 
BRANCH  39  40
ATOM     40  C   UNL A   1      42.500  31.853  29.931  1.00  0.00     0.031 A 
ATOM     41  C   UNL A   1      43.655  30.981  29.515  1.00  0.00     0.074 A 
ATOM     42  C   UNL A   1      42.519  33.171  29.654  1.00  0.00     0.049 A 
ATOM     43  N   UNL A   1      44.808  31.315  29.001  1.00  0.00    -0.248 NA
ATOM     44  C   UNL A   1      43.475  29.532  29.702  1.00  0.00     0.031 C 
ATOM     45  C   UNL A   1      41.430  34.109  29.927  1.00  0.00     0.029 A 
ATOM     46  N   UNL A   1      43.496  33.951  29.085  1.00  0.00    -0.354 N 
ATOM     47  C   UNL A   1      45.492  30.121  28.797  1.00  0.00     0.074 A 
ATOM     48  C   UNL A   1      44.638  29.059  29.282  1.00  0.00     0.031 C 
ATOM     49  C   UNL A   1      41.808  35.341  29.538  1.00  0.00     0.029 A 
ATOM     50  C   UNL A   1      43.180  35.290  29.036  1.00  0.00     0.049 A 
ATOM     51  H   UNL A   1      44.345  33.585  28.744  1.00  0.00     0.167 HD
ATOM     52  C   UNL A   1      46.715  29.928  28.246  1.00  0.00     0.034 A 
ATOM     53  C   UNL A   1      43.928  36.352  28.663  1.00  0.00     0.034 A 
ATOM     54  C   UNL A   1      47.568  30.994  27.782  1.00  0.00     0.049 A 
ATOM     55  C   UNL A   1      45.347  36.119  28.186  1.00  0.00     0.074 A 
ATOM     56  C   UNL A   1      48.838  30.907  27.239  1.00  0.00     0.029 A 
ATOM     57  N   UNL A   1      47.240  32.342  27.809  1.00  0.00    -0.354 N 
ATOM     58  N   UNL A   1      45.993  34.987  28.023  1.00  0.00    -0.248 NA
ATOM     59  C   UNL A   1      46.136  37.309  27.834  1.00  0.00     0.031 C 
ATOM     60  C   UNL A   1      49.304  32.203  27.001  1.00  0.00     0.029 A 
ATOM     61  C   UNL A   1      48.292  33.096  27.315  1.00  0.00     0.049 A 
ATOM     62  H   UNL A   1      46.386  32.709  28.133  1.00  0.00     0.167 HD
ATOM     63  C   UNL A   1      47.241  35.332  27.505  1.00  0.00     0.074 A 
ATOM     64  C   UNL A   1      47.252  36.771  27.368  1.00  0.00     0.031 C 
ATOM     65  C   UNL A   1      48.285  34.532  27.168  1.00  0.00     0.034 A 
BRANCH  52  66
ATOM     66  C   UNL A   1      47.218  28.509  28.153  1.00  0.00     0.023 A 
ATOM     67  C   UNL A   1      46.828  27.657  27.106  1.00  0.00     0.031 A 
ATOM     68  C   UNL A   1      48.100  28.003  29.123  1.00  0.00     0.131 A 
ATOM     69  C   UNL A   1      47.277  26.329  27.081  1.00  0.00     0.055 A 
ATOM     70  C   UNL A   1      48.604  26.703  29.052  1.00  0.00     0.041 A 
ATOM     71  F   UNL A   1      48.487  28.763  30.160  1.00  0.00    -0.206 F 
ATOM     72  C   UNL A   1      48.185  25.854  28.032  1.00  0.00     0.022 A 
BRANCH  69  73
ATOM     73  S   UNL A   1      46.570  25.195  25.856  1.00  0.00     0.124 S 
ATOM     74  O   UNL A   1      46.975  25.827  24.603  1.00  0.00    -0.237 OA
ATOM     75  O   UNL A   1      47.227  23.934  26.177  1.00  0.00    -0.237 OA
ATOM     76  O   UNL A   1      45.136  25.242  26.134  1.00  0.00    -0.744 OA
ENDBRANCH  69  73
ENDBRANCH  52  66
BRANCH  53  77
ATOM     77  C   UNL A   1      43.402  37.748  28.774  1.00  0.00     0.023 A 
ATOM     78  C   UNL A   1      43.628  38.516  29.928  1.00  0.00     0.031 A 
ATOM     79  C   UNL A   1      42.558  38.287  27.786  1.00  0.00     0.131 A 
ATOM     80  C   UNL A   1      42.953  39.736  30.104  1.00  0.00     0.055 A 
ATOM     81  C   UNL A   1      41.951  39.536  27.931  1.00  0.00     0.041 A 
ATOM     82  F   UNL A   1      42.294  37.595  26.666  1.00  0.00    -0.206 F 
ATOM     83  C   UNL A   1      42.129  40.258  29.106  1.00  0.00     0.022 A 
BRANCH  80  84
ATOM     84  S   UNL A   1      43.044  40.548  31.725  1.00  0.00     0.124 S 
ATOM     85  O   UNL A   1      41.774  41.265  31.765  1.00  0.00    -0.237 OA
ATOM     86  O   UNL A   1      43.168  39.410  32.628  1.00  0.00    -0.237 OA
ATOM     87  O   UNL A   1      44.234  41.390  31.617  1.00  0.00    -0.744 OA
ENDBRANCH  80  84
ENDBRANCH  53  77
BRANCH  65  88
ATOM     88  C   UNL A   1      49.494  35.190  26.543  1.00  0.00     0.023 A 
ATOM     89  C   UNL A   1      50.624  35.550  27.299  1.00  0.00     0.031 A 
ATOM     90  C   UNL A   1      49.509  35.464  25.162  1.00  0.00     0.131 A 
ATOM     91  C   UNL A   1      51.694  36.216  26.682  1.00  0.00     0.055 A 
ATOM     92  C   UNL A   1      50.605  36.066  24.543  1.00  0.00     0.041 A 
ATOM     93  F   UNL A   1      48.458  35.145  24.390  1.00  0.00    -0.206 F 
ATOM     94  C   UNL A   1      51.700  36.459  25.306  1.00  0.00     0.022 A 
BRANCH  91  95
ATOM     95  S   UNL A   1      53.041  36.848  27.719  1.00  0.00     0.124 S 
ATOM     96  O   UNL A   1      52.367  37.064  28.995  1.00  0.00    -0.237 OA
ATOM     97  O   UNL A   1      54.003  35.752  27.685  1.00  0.00    -0.237 OA
ATOM     98  O   UNL A   1      53.465  38.064  27.027  1.00  0.00    -0.744 OA
ENDBRANCH  91  95
ENDBRANCH  65  88
ENDBRANCH  39  40
ENDBRANCH  32  34
ENDBRANCH  31  32
ENDBRANCH  30  31
ENDBRANCH  29  30
ENDBRANCH  28  29
ENDBRANCH   1  28
TORSDOF 21
ENDMDL
