MODEL 1
REMARK VINA RESULT:     -10.4      0.000      0.000
REMARK SMILES COc1ccc2[nH]c(C(=O)c3cc(C)ccn3)c(CC(=O)OCCOCCOCCOC(=O)c3ccc(-c4c5nc(c(-c6cc(S(=O)(=O)[O-])ccc6F)c6ccc([nH]6)c(-c6cc(S(=O)(=O)[O-])ccc6F)c6nc(c(-c7cc(S(=O)(=O)[O-])ccc7F)c7ccc4[nH]7)C=C6)C=C5)cc3)c2c1
REMARK SMILES IDX 26 1 25 2 24 3 23 4 22 5 20 6 21 7 19 8 18 9 3 10 4 11 98 12
REMARK SMILES IDX 5 13 97 14 6 15 7 16 8 17 2 19 1 20 9 21 10 22 11 23 12 24
REMARK SMILES IDX 17 25 13 26 16 27 14 28 15 29 27 30 28 31 29 32 30 33 31 34
REMARK SMILES IDX 32 35 33 36 34 37 35 38 96 39 36 40 95 41 37 42 38 43 39 44
REMARK SMILES IDX 89 45 40 46 94 47 88 48 90 49 41 50 93 51 87 52 86 53 42 55
REMARK SMILES IDX 74 56 54 57 73 58 55 59 58 60 72 61 91 62 56 63 57 64 71 66
REMARK SMILES IDX 92 67 59 68 43 69 44 70 52 71 45 72 51 73 53 74 50 75 46 76
REMARK SMILES IDX 47 77 48 78 49 79 75 80 76 81 84 82 77 83 83 84 85 85 82 86
REMARK SMILES IDX 78 87 79 88 80 89 81 90 60 91 61 92 69 93 62 94 68 95 70 96
REMARK SMILES IDX 67 97 63 98 64 99 65 100 66 101
REMARK H PARENT 7 18 90 54 58 65
REMARK Flexibility Score: inf
ROOT
ATOM      1  C   UNL A   1      34.320  32.220  27.980  1.00  0.00     0.188 C 
ENDROOT
BRANCH   1   2
ATOM      2  O   UNL A   1      33.476  31.076  27.868  1.00  0.00    -0.376 OA
BRANCH   2   3
ATOM      3  C   UNL A   1      33.987  29.927  27.205  1.00  0.00     0.202 C 
BRANCH   3   4
ATOM      4  C   UNL A   1      33.231  28.611  27.441  1.00  0.00     0.261 C 
BRANCH   4   5
ATOM      5  O   UNL A   1      32.857  27.953  26.210  1.00  0.00    -0.463 OA
BRANCH   5   6
ATOM      6  C   UNL A   1      32.734  26.598  26.248  1.00  0.00     0.310 C 
ATOM      7  O   UNL A   1      31.783  26.030  26.780  1.00  0.00    -0.252 OA
BRANCH   6   8
ATOM      8  C   UNL A   1      33.769  25.843  25.415  1.00  0.00     0.161 C 
BRANCH   8   9
ATOM      9  C   UNL A   1      33.322  25.089  24.180  1.00  0.00     0.000 A 
ATOM     10  C   UNL A   1      32.957  21.314  24.654  1.00  0.00     0.119 A 
ATOM     11  C   UNL A   1      32.394  21.057  23.404  1.00  0.00     0.048 A 
ATOM     12  C   UNL A   1      33.365  22.606  25.004  1.00  0.00     0.057 A 
ATOM     13  C   UNL A   1      32.258  22.076  22.457  1.00  0.00     0.030 A 
ATOM     14  C   UNL A   1      33.184  23.661  24.090  1.00  0.00     0.008 A 
ATOM     15  C   UNL A   1      32.646  23.362  22.840  1.00  0.00     0.046 A 
ATOM     16  N   UNL A   1      32.544  24.547  22.158  1.00  0.00    -0.352 N 
ATOM     17  C   UNL A   1      32.686  25.600  23.035  1.00  0.00     0.093 A 
ATOM     18  H   UNL A   1      32.391  24.633  21.189  1.00  0.00     0.167 HD
BRANCH  10  19
ATOM     19  O   UNL A   1      33.053  20.375  25.647  1.00  0.00    -0.497 OA
ATOM     20  C   UNL A   1      32.724  19.058  25.227  1.00  0.00     0.278 C 
ENDBRANCH  10  19
BRANCH  17  21
ATOM     21  C   UNL A   1      32.145  26.928  22.775  1.00  0.00     0.227 C 
ATOM     22  O   UNL A   1      32.824  27.841  22.321  1.00  0.00    -0.285 OA
BRANCH  21  23
ATOM     23  C   UNL A   1      30.712  27.213  23.110  1.00  0.00     0.113 A 
ATOM     24  C   UNL A   1      30.111  28.406  22.714  1.00  0.00     0.036 A 
ATOM     25  N   UNL A   1      30.057  26.213  23.755  1.00  0.00    -0.253 NA
ATOM     26  C   UNL A   1      28.742  28.572  22.959  1.00  0.00    -0.047 A 
ATOM     27  C   UNL A   1      28.723  26.374  23.906  1.00  0.00     0.112 A 
ATOM     28  C   UNL A   1      28.008  29.835  22.612  1.00  0.00     0.044 C 
ATOM     29  C   UNL A   1      28.032  27.511  23.526  1.00  0.00     0.023 A 
ENDBRANCH  21  23
ENDBRANCH  17  21
ENDBRANCH   8   9
ENDBRANCH   6   8
ENDBRANCH   5   6
ENDBRANCH   4   5
ENDBRANCH   3   4
ENDBRANCH   2   3
ENDBRANCH   1   2
BRANCH   1  30
ATOM     30  C   UNL A   1      33.672  33.615  28.136  1.00  0.00     0.188 C 
BRANCH  30  31
ATOM     31  O   UNL A   1      34.567  34.694  27.908  1.00  0.00    -0.376 OA
BRANCH  31  32
ATOM     32  C   UNL A   1      34.146  35.927  28.470  1.00  0.00     0.202 C 
BRANCH  32  33
ATOM     33  C   UNL A   1      32.939  35.770  29.395  1.00  0.00     0.261 C 
BRANCH  33  34
ATOM     34  O   UNL A   1      33.115  36.487  30.639  1.00  0.00    -0.460 OA
BRANCH  34  35
ATOM     35  C   UNL A   1      32.718  35.891  31.777  1.00  0.00     0.338 C 
ATOM     36  O   UNL A   1      31.587  35.950  32.258  1.00  0.00    -0.246 OA
BRANCH  35  37
ATOM     37  C   UNL A   1      33.843  35.173  32.435  1.00  0.00     0.060 A 
ATOM     38  C   UNL A   1      35.161  35.639  32.412  1.00  0.00     0.016 A 
ATOM     39  C   UNL A   1      33.589  33.923  32.997  1.00  0.00     0.016 A 
ATOM     40  C   UNL A   1      36.218  34.843  32.876  1.00  0.00     0.010 A 
ATOM     41  C   UNL A   1      34.638  33.158  33.525  1.00  0.00     0.010 A 
ATOM     42  C   UNL A   1      35.975  33.592  33.448  1.00  0.00    -0.014 A 
BRANCH  42  43
ATOM     43  C   UNL A   1      37.082  32.706  33.922  1.00  0.00     0.031 A 
ATOM     44  C   UNL A   1      37.775  33.006  35.227  1.00  0.00     0.074 A 
ATOM     45  C   UNL A   1      37.505  31.651  33.194  1.00  0.00     0.049 A 
ATOM     46  N   UNL A   1      38.921  32.568  35.686  1.00  0.00    -0.248 NA
ATOM     47  C   UNL A   1      37.085  33.939  36.130  1.00  0.00     0.031 C 
ATOM     48  C   UNL A   1      36.883  31.162  31.964  1.00  0.00     0.029 A 
ATOM     49  N   UNL A   1      38.578  30.809  33.378  1.00  0.00    -0.354 N 
ATOM     50  C   UNL A   1      39.116  33.210  36.906  1.00  0.00     0.074 A 
ATOM     51  C   UNL A   1      37.971  34.076  37.105  1.00  0.00     0.031 C 
ATOM     52  C   UNL A   1      37.582  30.111  31.506  1.00  0.00     0.029 A 
ATOM     53  C   UNL A   1      38.756  29.911  32.348  1.00  0.00     0.049 A 
ATOM     54  H   UNL A   1      39.162  30.843  34.170  1.00  0.00     0.167 HD
ATOM     55  C   UNL A   1      40.158  33.092  37.771  1.00  0.00     0.034 A 
ATOM     56  C   UNL A   1      39.774  29.071  32.068  1.00  0.00     0.034 A 
ATOM     57  C   UNL A   1      41.281  32.204  37.572  1.00  0.00     0.049 A 
ATOM     58  C   UNL A   1      40.974  29.033  32.984  1.00  0.00     0.074 A 
ATOM     59  C   UNL A   1      42.385  32.013  38.387  1.00  0.00     0.029 A 
ATOM     60  N   UNL A   1      41.447  31.354  36.485  1.00  0.00    -0.354 N 
ATOM     61  N   UNL A   1      41.194  29.704  34.091  1.00  0.00    -0.248 NA
ATOM     62  C   UNL A   1      42.069  28.129  32.603  1.00  0.00     0.031 C 
ATOM     63  C   UNL A   1      43.249  31.109  37.759  1.00  0.00     0.029 A 
ATOM     64  C   UNL A   1      42.648  30.666  36.593  1.00  0.00     0.049 A 
ATOM     65  H   UNL A   1      40.806  31.255  35.743  1.00  0.00     0.167 HD
ATOM     66  C   UNL A   1      42.439  29.282  34.550  1.00  0.00     0.074 A 
ATOM     67  C   UNL A   1      42.913  28.286  33.612  1.00  0.00     0.031 C 
ATOM     68  C   UNL A   1      43.128  29.681  35.650  1.00  0.00     0.034 A 
BRANCH  55  69
ATOM     69  C   UNL A   1      40.165  33.999  38.980  1.00  0.00     0.023 A 
ATOM     70  C   UNL A   1      39.553  33.638  40.192  1.00  0.00     0.031 A 
ATOM     71  C   UNL A   1      40.778  35.265  38.906  1.00  0.00     0.131 A 
ATOM     72  C   UNL A   1      39.502  34.558  41.254  1.00  0.00     0.055 A 
ATOM     73  C   UNL A   1      40.801  36.139  39.994  1.00  0.00     0.041 A 
ATOM     74  F   UNL A   1      41.359  35.677  37.769  1.00  0.00    -0.206 F 
ATOM     75  C   UNL A   1      40.148  35.794  41.172  1.00  0.00     0.022 A 
BRANCH  72  76
ATOM     76  S   UNL A   1      38.451  34.175  42.682  1.00  0.00     0.124 S 
ATOM     77  O   UNL A   1      37.653  33.058  42.177  1.00  0.00    -0.237 OA
ATOM     78  O   UNL A   1      39.426  33.843  43.714  1.00  0.00    -0.237 OA
ATOM     79  O   UNL A   1      37.705  35.412  42.900  1.00  0.00    -0.744 OA
ENDBRANCH  72  76
ENDBRANCH  55  69
BRANCH  56  80
ATOM     80  C   UNL A   1      39.756  28.253  30.818  1.00  0.00     0.023 A 
ATOM     81  C   UNL A   1      40.477  28.650  29.680  1.00  0.00     0.031 A 
ATOM     82  C   UNL A   1      38.966  27.092  30.724  1.00  0.00     0.131 A 
ATOM     83  C   UNL A   1      40.362  27.915  28.489  1.00  0.00     0.055 A 
ATOM     84  C   UNL A   1      38.908  26.328  29.558  1.00  0.00     0.041 A 
ATOM     85  F   UNL A   1      38.243  26.675  31.776  1.00  0.00    -0.206 F 
ATOM     86  C   UNL A   1      39.599  26.747  28.425  1.00  0.00     0.022 A 
BRANCH  83  87
ATOM     87  S   UNL A   1      41.143  28.567  26.987  1.00  0.00     0.124 S 
ATOM     88  O   UNL A   1      41.537  27.341  26.301  1.00  0.00    -0.237 OA
ATOM     89  O   UNL A   1      40.053  29.320  26.378  1.00  0.00    -0.237 OA
ATOM     90  O   UNL A   1      42.247  29.377  27.500  1.00  0.00    -0.744 OA
ENDBRANCH  83  87
ENDBRANCH  56  80
BRANCH  68  91
ATOM     91  C   UNL A   1      44.446  28.994  35.925  1.00  0.00     0.023 A 
ATOM     92  C   UNL A   1      44.525  27.805  36.672  1.00  0.00     0.031 A 
ATOM     93  C   UNL A   1      45.647  29.556  35.455  1.00  0.00     0.131 A 
ATOM     94  C   UNL A   1      45.779  27.253  36.982  1.00  0.00     0.055 A 
ATOM     95  C   UNL A   1      46.887  28.966  35.711  1.00  0.00     0.041 A 
ATOM     96  F   UNL A   1      45.637  30.691  34.739  1.00  0.00    -0.206 F 
ATOM     97  C   UNL A   1      46.959  27.817  36.492  1.00  0.00     0.022 A 
BRANCH  94  98
ATOM     98  S   UNL A   1      45.857  25.845  38.126  1.00  0.00     0.124 S 
ATOM     99  O   UNL A   1      45.626  24.716  37.231  1.00  0.00    -0.237 OA
ATOM    100  O   UNL A   1      47.205  25.961  38.671  1.00  0.00    -0.237 OA
ATOM    101  O   UNL A   1      44.779  26.114  39.076  1.00  0.00    -0.744 OA
ENDBRANCH  94  98
ENDBRANCH  68  91
ENDBRANCH  42  43
ENDBRANCH  35  37
ENDBRANCH  34  35
ENDBRANCH  33  34
ENDBRANCH  32  33
ENDBRANCH  31  32
ENDBRANCH  30  31
ENDBRANCH   1  30
TORSDOF 24
ENDMDL
MODEL 2
REMARK VINA RESULT:     -10.1      6.352     12.040
REMARK SMILES COc1ccc2[nH]c(C(=O)c3cc(C)ccn3)c(CC(=O)OCCOCCOCCOC(=O)c3ccc(-c4c5nc(c(-c6cc(S(=O)(=O)[O-])ccc6F)c6ccc([nH]6)c(-c6cc(S(=O)(=O)[O-])ccc6F)c6nc(c(-c7cc(S(=O)(=O)[O-])ccc7F)c7ccc4[nH]7)C=C6)C=C5)cc3)c2c1
REMARK SMILES IDX 26 1 25 2 24 3 23 4 22 5 20 6 21 7 19 8 18 9 3 10 4 11 98 12
REMARK SMILES IDX 5 13 97 14 6 15 7 16 8 17 2 19 1 20 9 21 10 22 11 23 12 24
REMARK SMILES IDX 17 25 13 26 16 27 14 28 15 29 27 30 28 31 29 32 30 33 31 34
REMARK SMILES IDX 32 35 33 36 34 37 35 38 96 39 36 40 95 41 37 42 38 43 39 44
REMARK SMILES IDX 89 45 40 46 94 47 88 48 90 49 41 50 93 51 87 52 86 53 42 55
REMARK SMILES IDX 74 56 54 57 73 58 55 59 58 60 72 61 91 62 56 63 57 64 71 66
REMARK SMILES IDX 92 67 59 68 43 69 44 70 52 71 45 72 51 73 53 74 50 75 46 76
REMARK SMILES IDX 47 77 48 78 49 79 75 80 76 81 84 82 77 83 83 84 85 85 82 86
REMARK SMILES IDX 78 87 79 88 80 89 81 90 60 91 61 92 69 93 62 94 68 95 70 96
REMARK SMILES IDX 67 97 63 98 64 99 65 100 66 101
REMARK H PARENT 7 18 90 54 58 65
REMARK Flexibility Score: inf
ROOT
ATOM      1  C   UNL A   1      38.194  23.028  25.347  1.00  0.00     0.188 C 
ENDROOT
BRANCH   1   2
ATOM      2  O   UNL A   1      36.783  22.824  25.396  1.00  0.00    -0.376 OA
BRANCH   2   3
ATOM      3  C   UNL A   1      36.136  22.325  24.233  1.00  0.00     0.202 C 
BRANCH   3   4
ATOM      4  C   UNL A   1      35.565  23.373  23.268  1.00  0.00     0.261 C 
BRANCH   4   5
ATOM      5  O   UNL A   1      34.533  22.838  22.408  1.00  0.00    -0.463 OA
BRANCH   5   6
ATOM      6  C   UNL A   1      33.391  23.568  22.288  1.00  0.00     0.310 C 
ATOM      7  O   UNL A   1      33.333  24.614  21.645  1.00  0.00    -0.252 OA
BRANCH   6   8
ATOM      8  C   UNL A   1      32.142  22.892  22.854  1.00  0.00     0.161 C 
BRANCH   8   9
ATOM      9  C   UNL A   1      32.245  22.099  24.140  1.00  0.00     0.000 A 
ATOM     10  C   UNL A   1      32.766  18.342  23.668  1.00  0.00     0.119 A 
ATOM     11  C   UNL A   1      32.971  18.047  25.016  1.00  0.00     0.048 A 
ATOM     12  C   UNL A   1      32.455  19.644  23.260  1.00  0.00     0.057 A 
ATOM     13  C   UNL A   1      32.834  19.034  25.995  1.00  0.00     0.030 A 
ATOM     14  C   UNL A   1      32.369  20.670  24.221  1.00  0.00     0.008 A 
ATOM     15  C   UNL A   1      32.550  20.332  25.560  1.00  0.00     0.046 A 
ATOM     16  N   UNL A   1      32.451  21.494  26.280  1.00  0.00    -0.352 N 
ATOM     17  C   UNL A   1      32.541  22.574  25.430  1.00  0.00     0.093 A 
ATOM     18  H   UNL A   1      32.333  21.549  27.256  1.00  0.00     0.167 HD
BRANCH  10  19
ATOM     19  O   UNL A   1      32.955  17.436  22.658  1.00  0.00    -0.497 OA
ATOM     20  C   UNL A   1      34.169  16.705  22.761  1.00  0.00     0.278 C 
ENDBRANCH  10  19
BRANCH  17  21
ATOM     21  C   UNL A   1      32.977  23.895  25.867  1.00  0.00     0.227 C 
ATOM     22  O   UNL A   1      34.031  24.079  26.464  1.00  0.00    -0.285 OA
BRANCH  21  23
ATOM     23  C   UNL A   1      32.090  25.077  25.618  1.00  0.00     0.113 A 
ATOM     24  C   UNL A   1      32.604  26.372  25.648  1.00  0.00     0.036 A 
ATOM     25  N   UNL A   1      30.801  24.781  25.311  1.00  0.00    -0.253 NA
ATOM     26  C   UNL A   1      31.754  27.430  25.301  1.00  0.00    -0.047 A 
ATOM     27  C   UNL A   1      30.030  25.817  24.909  1.00  0.00     0.112 A 
ATOM     28  C   UNL A   1      32.196  28.865  25.341  1.00  0.00     0.044 C 
ATOM     29  C   UNL A   1      30.456  27.134  24.881  1.00  0.00     0.023 A 
ENDBRANCH  21  23
ENDBRANCH  17  21
ENDBRANCH   8   9
ENDBRANCH   6   8
ENDBRANCH   5   6
ENDBRANCH   4   5
ENDBRANCH   3   4
ENDBRANCH   2   3
ENDBRANCH   1   2
BRANCH   1  30
ATOM     30  C   UNL A   1      39.031  22.779  26.623  1.00  0.00     0.188 C 
BRANCH  30  31
ATOM     31  O   UNL A   1      39.521  21.450  26.739  1.00  0.00    -0.376 OA
BRANCH  31  32
ATOM     32  C   UNL A   1      39.237  20.625  25.621  1.00  0.00     0.202 C 
BRANCH  32  33
ATOM     33  C   UNL A   1      39.870  19.238  25.738  1.00  0.00     0.261 C 
BRANCH  33  34
ATOM     34  O   UNL A   1      41.017  19.240  26.619  1.00  0.00    -0.460 OA
BRANCH  34  35
ATOM     35  C   UNL A   1      42.234  19.417  26.077  1.00  0.00     0.338 C 
ATOM     36  O   UNL A   1      42.896  18.548  25.509  1.00  0.00    -0.246 OA
BRANCH  35  37
ATOM     37  C   UNL A   1      42.729  20.804  26.289  1.00  0.00     0.060 A 
ATOM     38  C   UNL A   1      42.908  21.362  27.558  1.00  0.00     0.016 A 
ATOM     39  C   UNL A   1      42.907  21.619  25.172  1.00  0.00     0.016 A 
ATOM     40  C   UNL A   1      43.190  22.727  27.715  1.00  0.00     0.010 A 
ATOM     41  C   UNL A   1      43.259  22.967  25.328  1.00  0.00     0.010 A 
ATOM     42  C   UNL A   1      43.378  23.551  26.603  1.00  0.00    -0.014 A 
BRANCH  42  43
ATOM     43  C   UNL A   1      43.648  25.016  26.736  1.00  0.00     0.031 A 
ATOM     44  C   UNL A   1      45.021  25.557  26.424  1.00  0.00     0.074 A 
ATOM     45  C   UNL A   1      42.698  25.875  27.161  1.00  0.00     0.049 A 
ATOM     46  N   UNL A   1      45.559  26.709  26.739  1.00  0.00    -0.248 NA
ATOM     47  C   UNL A   1      45.911  24.668  25.663  1.00  0.00     0.031 C 
ATOM     48  C   UNL A   1      41.296  25.538  27.410  1.00  0.00     0.029 A 
ATOM     49  N   UNL A   1      42.777  27.212  27.480  1.00  0.00    -0.354 N 
ATOM     50  C   UNL A   1      46.866  26.665  26.263  1.00  0.00     0.074 A 
ATOM     51  C   UNL A   1      47.039  25.364  25.647  1.00  0.00     0.031 C 
ATOM     52  C   UNL A   1      40.651  26.634  27.840  1.00  0.00     0.029 A 
ATOM     53  C   UNL A   1      41.607  27.724  27.995  1.00  0.00     0.049 A 
ATOM     54  H   UNL A   1      43.591  27.750  27.352  1.00  0.00     0.167 HD
ATOM     55  C   UNL A   1      47.831  27.619  26.340  1.00  0.00     0.034 A 
ATOM     56  C   UNL A   1      41.340  28.907  28.589  1.00  0.00     0.034 A 
ATOM     57  C   UNL A   1      47.636  28.923  26.934  1.00  0.00     0.049 A 
ATOM     58  C   UNL A   1      42.453  29.913  28.765  1.00  0.00     0.074 A 
ATOM     59  C   UNL A   1      48.549  29.957  27.063  1.00  0.00     0.029 A 
ATOM     60  N   UNL A   1      46.449  29.378  27.495  1.00  0.00    -0.354 N 
ATOM     61  N   UNL A   1      43.709  29.833  28.390  1.00  0.00    -0.248 NA
ATOM     62  C   UNL A   1      42.111  31.164  29.456  1.00  0.00     0.031 C 
ATOM     63  C   UNL A   1      47.940  31.002  27.766  1.00  0.00     0.029 A 
ATOM     64  C   UNL A   1      46.619  30.660  28.000  1.00  0.00     0.049 A 
ATOM     65  H   UNL A   1      45.609  28.865  27.531  1.00  0.00     0.167 HD
ATOM     66  C   UNL A   1      44.297  31.036  28.777  1.00  0.00     0.074 A 
ATOM     67  C   UNL A   1      43.256  31.828  29.396  1.00  0.00     0.031 C 
ATOM     68  C   UNL A   1      45.583  31.447  28.630  1.00  0.00     0.034 A 
BRANCH  55  69
ATOM     69  C   UNL A   1      49.208  27.259  25.832  1.00  0.00     0.023 A 
ATOM     70  C   UNL A   1      49.644  27.601  24.541  1.00  0.00     0.031 A 
ATOM     71  C   UNL A   1      50.094  26.536  26.653  1.00  0.00     0.131 A 
ATOM     72  C   UNL A   1      50.896  27.157  24.082  1.00  0.00     0.055 A 
ATOM     73  C   UNL A   1      51.372  26.174  26.223  1.00  0.00     0.041 A 
ATOM     74  F   UNL A   1      49.728  26.159  27.888  1.00  0.00    -0.206 F 
ATOM     75  C   UNL A   1      51.774  26.471  24.925  1.00  0.00     0.022 A 
BRANCH  72  76
ATOM     76  S   UNL A   1      51.295  27.356  22.324  1.00  0.00     0.124 S 
ATOM     77  O   UNL A   1      52.294  26.308  22.123  1.00  0.00    -0.237 OA
ATOM     78  O   UNL A   1      50.006  27.137  21.679  1.00  0.00    -0.237 OA
ATOM     79  O   UNL A   1      51.812  28.720  22.242  1.00  0.00    -0.744 OA
ENDBRANCH  72  76
ENDBRANCH  55  69
BRANCH  56  80
ATOM     80  C   UNL A   1      39.982  29.183  29.147  1.00  0.00     0.023 A 
ATOM     81  C   UNL A   1      39.713  29.024  30.515  1.00  0.00     0.031 A 
ATOM     82  C   UNL A   1      38.916  29.552  28.305  1.00  0.00     0.131 A 
ATOM     83  C   UNL A   1      38.404  29.194  30.995  1.00  0.00     0.055 A 
ATOM     84  C   UNL A   1      37.631  29.786  28.797  1.00  0.00     0.041 A 
ATOM     85  F   UNL A   1      39.112  29.702  26.986  1.00  0.00    -0.206 F 
ATOM     86  C   UNL A   1      37.366  29.593  30.149  1.00  0.00     0.022 A 
BRANCH  83  87
ATOM     87  S   UNL A   1      38.052  28.785  32.727  1.00  0.00     0.124 S 
ATOM     88  O   UNL A   1      39.146  29.460  33.418  1.00  0.00    -0.237 OA
ATOM     89  O   UNL A   1      36.725  29.359  32.912  1.00  0.00    -0.237 OA
ATOM     90  O   UNL A   1      38.107  27.324  32.750  1.00  0.00    -0.744 OA
ENDBRANCH  83  87
ENDBRANCH  56  80
BRANCH  68  91
ATOM     91  C   UNL A   1      45.917  32.844  29.103  1.00  0.00     0.023 A 
ATOM     92  C   UNL A   1      45.749  33.970  28.276  1.00  0.00     0.031 A 
ATOM     93  C   UNL A   1      46.440  33.047  30.393  1.00  0.00     0.131 A 
ATOM     94  C   UNL A   1      46.162  35.236  28.724  1.00  0.00     0.055 A 
ATOM     95  C   UNL A   1      46.788  34.318  30.856  1.00  0.00     0.041 A 
ATOM     96  F   UNL A   1      46.626  32.012  31.226  1.00  0.00    -0.206 F 
ATOM     97  C   UNL A   1      46.663  35.419  30.015  1.00  0.00     0.022 A 
BRANCH  94  98
ATOM     98  S   UNL A   1      46.133  36.628  27.560  1.00  0.00     0.124 S 
ATOM     99  O   UNL A   1      46.631  37.724  28.384  1.00  0.00    -0.237 OA
ATOM    100  O   UNL A   1      47.027  36.168  26.502  1.00  0.00    -0.237 OA
ATOM    101  O   UNL A   1      44.725  36.728  27.179  1.00  0.00    -0.744 OA
ENDBRANCH  94  98
ENDBRANCH  68  91
ENDBRANCH  42  43
ENDBRANCH  35  37
ENDBRANCH  34  35
ENDBRANCH  33  34
ENDBRANCH  32  33
ENDBRANCH  31  32
ENDBRANCH  30  31
ENDBRANCH   1  30
TORSDOF 24
ENDMDL
MODEL 3
REMARK VINA RESULT:      -9.8      2.058      2.360
REMARK SMILES COc1ccc2[nH]c(C(=O)c3cc(C)ccn3)c(CC(=O)OCCOCCOCCOC(=O)c3ccc(-c4c5nc(c(-c6cc(S(=O)(=O)[O-])ccc6F)c6ccc([nH]6)c(-c6cc(S(=O)(=O)[O-])ccc6F)c6nc(c(-c7cc(S(=O)(=O)[O-])ccc7F)c7ccc4[nH]7)C=C6)C=C5)cc3)c2c1
REMARK SMILES IDX 26 1 25 2 24 3 23 4 22 5 20 6 21 7 19 8 18 9 3 10 4 11 98 12
REMARK SMILES IDX 5 13 97 14 6 15 7 16 8 17 2 19 1 20 9 21 10 22 11 23 12 24
REMARK SMILES IDX 17 25 13 26 16 27 14 28 15 29 27 30 28 31 29 32 30 33 31 34
REMARK SMILES IDX 32 35 33 36 34 37 35 38 96 39 36 40 95 41 37 42 38 43 39 44
REMARK SMILES IDX 89 45 40 46 94 47 88 48 90 49 41 50 93 51 87 52 86 53 42 55
REMARK SMILES IDX 74 56 54 57 73 58 55 59 58 60 72 61 91 62 56 63 57 64 71 66
REMARK SMILES IDX 92 67 59 68 43 69 44 70 52 71 45 72 51 73 53 74 50 75 46 76
REMARK SMILES IDX 47 77 48 78 49 79 75 80 76 81 84 82 77 83 83 84 85 85 82 86
REMARK SMILES IDX 78 87 79 88 80 89 81 90 60 91 61 92 69 93 62 94 68 95 70 96
REMARK SMILES IDX 67 97 63 98 64 99 65 100 66 101
REMARK H PARENT 7 18 90 54 58 65
REMARK Flexibility Score: inf
ROOT
ATOM      1  C   UNL A   1      34.173  31.585  28.102  1.00  0.00     0.188 C 
ENDROOT
BRANCH   1   2
ATOM      2  O   UNL A   1      33.521  30.618  27.281  1.00  0.00    -0.376 OA
BRANCH   2   3
ATOM      3  C   UNL A   1      34.244  29.451  26.915  1.00  0.00     0.202 C 
BRANCH   3   4
ATOM      4  C   UNL A   1      33.408  28.240  26.478  1.00  0.00     0.261 C 
BRANCH   4   5
ATOM      5  O   UNL A   1      34.179  27.018  26.426  1.00  0.00    -0.463 OA
BRANCH   5   6
ATOM      6  C   UNL A   1      33.591  25.944  25.830  1.00  0.00     0.310 C 
ATOM      7  O   UNL A   1      32.406  25.662  25.984  1.00  0.00    -0.252 OA
BRANCH   6   8
ATOM      8  C   UNL A   1      34.471  25.227  24.805  1.00  0.00     0.161 C 
BRANCH   8   9
ATOM      9  C   UNL A   1      33.821  24.384  23.728  1.00  0.00     0.000 A 
ATOM     10  C   UNL A   1      33.091  20.773  24.745  1.00  0.00     0.119 A 
ATOM     11  C   UNL A   1      32.379  20.432  23.595  1.00  0.00     0.048 A 
ATOM     12  C   UNL A   1      33.672  22.038  24.879  1.00  0.00     0.057 A 
ATOM     13  C   UNL A   1      32.261  21.331  22.532  1.00  0.00     0.030 A 
ATOM     14  C   UNL A   1      33.517  22.984  23.847  1.00  0.00     0.008 A 
ATOM     15  C   UNL A   1      32.826  22.598  22.701  1.00  0.00     0.046 A 
ATOM     16  N   UNL A   1      32.786  23.691  21.874  1.00  0.00    -0.352 N 
ATOM     17  C   UNL A   1      33.131  24.821  22.583  1.00  0.00     0.093 A 
ATOM     18  H   UNL A   1      32.546  23.672  20.919  1.00  0.00     0.167 HD
BRANCH  10  19
ATOM     19  O   UNL A   1      33.182  19.962  25.846  1.00  0.00    -0.497 OA
ATOM     20  C   UNL A   1      32.763  18.624  25.611  1.00  0.00     0.278 C 
ENDBRANCH  10  19
BRANCH  17  21
ATOM     21  C   UNL A   1      32.717  26.162  22.191  1.00  0.00     0.227 C 
ATOM     22  O   UNL A   1      33.392  26.875  21.458  1.00  0.00    -0.285 OA
BRANCH  21  23
ATOM     23  C   UNL A   1      31.434  26.718  22.730  1.00  0.00     0.113 A 
ATOM     24  C   UNL A   1      31.135  28.073  22.601  1.00  0.00     0.036 A 
ATOM     25  N   UNL A   1      30.592  25.806  23.281  1.00  0.00    -0.253 NA
ATOM     26  C   UNL A   1      29.876  28.517  23.026  1.00  0.00    -0.047 A 
ATOM     27  C   UNL A   1      29.359  26.254  23.610  1.00  0.00     0.112 A 
ATOM     28  C   UNL A   1      29.469  29.961  22.971  1.00  0.00     0.044 C 
ATOM     29  C   UNL A   1      28.959  27.574  23.497  1.00  0.00     0.023 A 
ENDBRANCH  21  23
ENDBRANCH  17  21
ENDBRANCH   8   9
ENDBRANCH   6   8
ENDBRANCH   5   6
ENDBRANCH   4   5
ENDBRANCH   3   4
ENDBRANCH   2   3
ENDBRANCH   1   2
BRANCH   1  30
ATOM     30  C   UNL A   1      33.711  33.059  28.032  1.00  0.00     0.188 C 
BRANCH  30  31
ATOM     31  O   UNL A   1      34.767  34.000  28.168  1.00  0.00    -0.376 OA
BRANCH  31  32
ATOM     32  C   UNL A   1      34.334  35.325  28.431  1.00  0.00     0.202 C 
BRANCH  32  33
ATOM     33  C   UNL A   1      33.092  35.373  29.321  1.00  0.00     0.261 C 
BRANCH  33  34
ATOM     34  O   UNL A   1      33.357  36.032  30.582  1.00  0.00    -0.460 OA
BRANCH  34  35
ATOM     35  C   UNL A   1      33.047  35.379  31.716  1.00  0.00     0.338 C 
ATOM     36  O   UNL A   1      31.932  35.340  32.236  1.00  0.00    -0.246 OA
BRANCH  35  37
ATOM     37  C   UNL A   1      34.245  34.734  32.317  1.00  0.00     0.060 A 
ATOM     38  C   UNL A   1      35.465  35.397  32.482  1.00  0.00     0.016 A 
ATOM     39  C   UNL A   1      34.181  33.375  32.620  1.00  0.00     0.016 A 
ATOM     40  C   UNL A   1      36.619  34.703  32.872  1.00  0.00     0.010 A 
ATOM     41  C   UNL A   1      35.319  32.697  33.079  1.00  0.00     0.010 A 
ATOM     42  C   UNL A   1      36.565  33.343  33.186  1.00  0.00    -0.014 A 
BRANCH  42  43
ATOM     43  C   UNL A   1      37.783  32.567  33.575  1.00  0.00     0.031 A 
ATOM     44  C   UNL A   1      38.361  32.724  34.959  1.00  0.00     0.074 A 
ATOM     45  C   UNL A   1      38.406  31.746  32.704  1.00  0.00     0.049 A 
ATOM     46  N   UNL A   1      39.543  32.391  35.415  1.00  0.00    -0.248 NA
ATOM     47  C   UNL A   1      37.487  33.353  35.960  1.00  0.00     0.031 C 
ATOM     48  C   UNL A   1      37.927  31.403  31.365  1.00  0.00     0.029 A 
ATOM     49  N   UNL A   1      39.595  31.061  32.813  1.00  0.00    -0.354 N 
ATOM     50  C   UNL A   1      39.576  32.818  36.739  1.00  0.00     0.074 A 
ATOM     51  C   UNL A   1      38.296  33.442  37.006  1.00  0.00     0.031 C 
ATOM     52  C   UNL A   1      38.810  30.578  30.780  1.00  0.00     0.029 A 
ATOM     53  C   UNL A   1      39.964  30.411  31.656  1.00  0.00     0.049 A 
ATOM     54  H   UNL A   1      40.132  31.039  33.638  1.00  0.00     0.167 HD
ATOM     55  C   UNL A   1      40.585  32.704  37.643  1.00  0.00     0.034 A 
ATOM     56  C   UNL A   1      41.119  29.806  31.306  1.00  0.00     0.034 A 
ATOM     57  C   UNL A   1      41.848  32.055  37.371  1.00  0.00     0.049 A 
ATOM     58  C   UNL A   1      42.268  29.785  32.285  1.00  0.00     0.074 A 
ATOM     59  C   UNL A   1      42.932  31.889  38.218  1.00  0.00     0.029 A 
ATOM     60  N   UNL A   1      42.199  31.459  36.166  1.00  0.00    -0.354 N 
ATOM     61  N   UNL A   1      42.326  30.265  33.506  1.00  0.00    -0.248 NA
ATOM     62  C   UNL A   1      43.513  29.150  31.830  1.00  0.00     0.031 C 
ATOM     63  C   UNL A   1      43.961  31.264  37.504  1.00  0.00     0.029 A 
ATOM     64  C   UNL A   1      43.492  30.958  36.238  1.00  0.00     0.049 A 
ATOM     65  H   UNL A   1      41.615  31.401  35.374  1.00  0.00     0.167 HD
ATOM     66  C   UNL A   1      43.603  29.964  33.972  1.00  0.00     0.074 A 
ATOM     67  C   UNL A   1      44.276  29.246  32.909  1.00  0.00     0.031 C 
ATOM     68  C   UNL A   1      44.169  30.253  35.172  1.00  0.00     0.034 A 
BRANCH  55  69
ATOM     69  C   UNL A   1      40.390  33.360  38.990  1.00  0.00     0.023 A 
ATOM     70  C   UNL A   1      39.771  32.698  40.065  1.00  0.00     0.031 A 
ATOM     71  C   UNL A   1      40.812  34.688  39.194  1.00  0.00     0.131 A 
ATOM     72  C   UNL A   1      39.525  33.386  41.265  1.00  0.00     0.055 A 
ATOM     73  C   UNL A   1      40.644  35.337  40.419  1.00  0.00     0.041 A 
ATOM     74  F   UNL A   1      41.388  35.382  38.201  1.00  0.00    -0.206 F 
ATOM     75  C   UNL A   1      39.984  34.691  41.459  1.00  0.00     0.022 A 
BRANCH  72  76
ATOM     76  S   UNL A   1      38.464  32.602  42.511  1.00  0.00     0.124 S 
ATOM     77  O   UNL A   1      37.444  33.628  42.724  1.00  0.00    -0.237 OA
ATOM     78  O   UNL A   1      38.016  31.393  41.831  1.00  0.00    -0.237 OA
ATOM     79  O   UNL A   1      39.364  32.388  43.641  1.00  0.00    -0.744 OA
ENDBRANCH  72  76
ENDBRANCH  55  69
BRANCH  56  80
ATOM     80  C   UNL A   1      41.290  29.243  29.933  1.00  0.00     0.023 A 
ATOM     81  C   UNL A   1      40.843  27.951  29.616  1.00  0.00     0.031 A 
ATOM     82  C   UNL A   1      41.962  29.970  28.932  1.00  0.00     0.131 A 
ATOM     83  C   UNL A   1      41.107  27.411  28.347  1.00  0.00     0.055 A 
ATOM     84  C   UNL A   1      42.163  29.455  27.651  1.00  0.00     0.041 A 
ATOM     85  F   UNL A   1      42.427  31.204  29.184  1.00  0.00    -0.206 F 
ATOM     86  C   UNL A   1      41.746  28.161  27.356  1.00  0.00     0.022 A 
BRANCH  83  87
ATOM     87  S   UNL A   1      40.695  25.671  28.039  1.00  0.00     0.124 S 
ATOM     88  O   UNL A   1      39.402  25.550  28.705  1.00  0.00    -0.237 OA
ATOM     89  O   UNL A   1      40.673  25.616  26.582  1.00  0.00    -0.237 OA
ATOM     90  O   UNL A   1      41.793  24.943  28.672  1.00  0.00    -0.744 OA
ENDBRANCH  83  87
ENDBRANCH  56  80
BRANCH  68  91
ATOM     91  C   UNL A   1      45.570  29.741  35.416  1.00  0.00     0.023 A 
ATOM     92  C   UNL A   1      46.708  30.514  35.123  1.00  0.00     0.031 A 
ATOM     93  C   UNL A   1      45.769  28.443  35.922  1.00  0.00     0.131 A 
ATOM     94  C   UNL A   1      47.990  29.961  35.277  1.00  0.00     0.055 A 
ATOM     95  C   UNL A   1      47.048  27.923  36.134  1.00  0.00     0.041 A 
ATOM     96  F   UNL A   1      44.723  27.656  36.217  1.00  0.00    -0.206 F 
ATOM     97  C   UNL A   1      48.167  28.677  35.797  1.00  0.00     0.022 A 
BRANCH  94  98
ATOM     98  S   UNL A   1      49.425  30.904  34.688  1.00  0.00     0.124 S 
ATOM     99  O   UNL A   1      50.478  30.447  35.589  1.00  0.00    -0.237 OA
ATOM    100  O   UNL A   1      49.539  30.466  33.301  1.00  0.00    -0.237 OA
ATOM    101  O   UNL A   1      49.017  32.297  34.866  1.00  0.00    -0.744 OA
ENDBRANCH  94  98
ENDBRANCH  68  91
ENDBRANCH  42  43
ENDBRANCH  35  37
ENDBRANCH  34  35
ENDBRANCH  33  34
ENDBRANCH  32  33
ENDBRANCH  31  32
ENDBRANCH  30  31
ENDBRANCH   1  30
TORSDOF 24
ENDMDL
