MODEL 1
REMARK VINA RESULT:      -9.4      0.000      0.000
REMARK SMILES CCC[NH2+][C@]1(C(=O)OCCOCCOCCOC(=O)c2ccc(-c3c4nc(c(-c5cc(S(=O)(=O)[O-])ccc5F)c5ccc([nH]5)c(-c5cc(S(=O)(=O)[O-])ccc5F)c5nc(c(-c6cc(S(=O)(=O)[O-])ccc6F)c6ccc3[nH]6)C=C5)C=C4)cc2)CCC[C@H](n2ccc(C)n2)C1
REMARK SMILES IDX 12 1 11 2 10 3 9 4 8 5 6 6 7 7 5 8 83 9 93 10 84 11 86 12
REMARK SMILES IDX 85 13 4 14 3 17 2 18 1 19 87 20 88 21 92 22 89 23 90 24
REMARK SMILES IDX 91 25 13 26 14 27 15 28 16 29 17 30 18 31 19 32 20 33 21 34
REMARK SMILES IDX 82 35 22 36 81 37 23 38 24 39 25 40 75 41 26 42 80 43 74 44
REMARK SMILES IDX 76 45 27 46 79 47 73 48 72 49 28 51 60 52 40 53 59 54 41 55
REMARK SMILES IDX 44 56 58 57 77 58 42 59 43 60 57 62 78 63 45 64 29 65 30 66
REMARK SMILES IDX 38 67 31 68 37 69 39 70 36 71 32 72 33 73 34 74 35 75 61 76
REMARK SMILES IDX 62 77 70 78 63 79 69 80 71 81 68 82 64 83 65 84 66 85 67 86
REMARK SMILES IDX 46 87 47 88 55 89 48 90 54 91 56 92 53 93 49 94 50 95 51 96
REMARK SMILES IDX 52 97
REMARK H PARENT 4 15 4 16 76 50 44 61
REMARK Flexibility Score: inf
ROOT
ATOM      1  C   UNL A   1      29.793  28.512  23.242  1.00  0.00     0.188 C 
ENDROOT
BRANCH   1   2
ATOM      2  O   UNL A   1      30.333  27.397  22.541  1.00  0.00    -0.376 OA
BRANCH   2   3
ATOM      3  C   UNL A   1      31.075  26.413  23.244  1.00  0.00     0.202 C 
BRANCH   3   4
ATOM      4  C   UNL A   1      32.608  26.422  23.197  1.00  0.00     0.261 C 
BRANCH   4   5
ATOM      5  O   UNL A   1      33.282  25.460  24.018  1.00  0.00    -0.459 OA
BRANCH   5   6
ATOM      6  C   UNL A   1      33.820  24.391  23.361  1.00  0.00     0.368 C 
ATOM      7  O   UNL A   1      34.301  24.462  22.233  1.00  0.00    -0.245 OA
BRANCH   6   8
ATOM      8  C   UNL A   1      33.766  23.051  24.192  1.00  0.00     0.196 C 
ATOM      9  C   UNL A   1      33.338  23.512  25.613  1.00  0.00     0.081 C 
ATOM     10  C   UNL A   1      32.669  22.144  23.532  1.00  0.00     0.108 C 
ATOM     11  C   UNL A   1      32.710  22.423  26.467  1.00  0.00     0.009 C 
ATOM     12  C   UNL A   1      31.854  21.162  24.435  1.00  0.00     0.114 C 
ATOM     13  C   UNL A   1      31.486  21.851  25.760  1.00  0.00     0.028 C 
BRANCH   8  14
ATOM     14  N   UNL A   1      35.151  22.510  24.266  1.00  0.00    -0.332 N 
ATOM     15  H   UNL A   1      35.090  21.505  24.101  1.00  0.00     0.347 HD
ATOM     16  H   UNL A   1      35.668  23.049  23.572  1.00  0.00     0.347 HD
BRANCH  14  17
ATOM     17  C   UNL A   1      35.900  22.695  25.487  1.00  0.00     0.261 C 
BRANCH  17  18
ATOM     18  C   UNL A   1      36.854  23.890  25.476  1.00  0.00     0.058 C 
ATOM     19  C   UNL A   1      38.177  23.591  26.164  1.00  0.00     0.010 C 
ENDBRANCH  17  18
ENDBRANCH  14  17
ENDBRANCH   8  14
BRANCH  12  20
ATOM     20  N   UNL A   1      32.426  19.820  24.594  1.00  0.00    -0.269 N 
ATOM     21  C   UNL A   1      32.810  19.183  25.746  1.00  0.00     0.109 A 
ATOM     22  N   UNL A   1      32.631  19.048  23.503  1.00  0.00    -0.178 NA
ATOM     23  C   UNL A   1      33.453  18.031  25.361  1.00  0.00     0.045 A 
ATOM     24  C   UNL A   1      33.350  18.013  23.955  1.00  0.00     0.059 A 
ATOM     25  C   UNL A   1      33.969  17.052  23.012  1.00  0.00     0.069 C 
ENDBRANCH  12  20
ENDBRANCH   6   8
ENDBRANCH   5   6
ENDBRANCH   4   5
ENDBRANCH   3   4
ENDBRANCH   2   3
ENDBRANCH   1   2
BRANCH   1  26
ATOM     26  C   UNL A   1      30.724  29.596  23.828  1.00  0.00     0.188 C 
BRANCH  26  27
ATOM     27  O   UNL A   1      31.141  29.320  25.148  1.00  0.00    -0.376 OA
BRANCH  27  28
ATOM     28  C   UNL A   1      31.789  30.339  25.885  1.00  0.00     0.202 C 
BRANCH  28  29
ATOM     29  C   UNL A   1      32.606  30.062  27.164  1.00  0.00     0.261 C 
BRANCH  29  30
ATOM     30  O   UNL A   1      34.028  30.207  27.101  1.00  0.00    -0.460 OA
BRANCH  30  31
ATOM     31  C   UNL A   1      34.552  31.263  27.771  1.00  0.00     0.338 C 
ATOM     32  O   UNL A   1      34.067  32.373  27.869  1.00  0.00    -0.246 OA
BRANCH  31  33
ATOM     33  C   UNL A   1      35.760  30.817  28.499  1.00  0.00     0.060 A 
ATOM     34  C   UNL A   1      36.968  31.484  28.265  1.00  0.00     0.016 A 
ATOM     35  C   UNL A   1      35.710  29.729  29.375  1.00  0.00     0.016 A 
ATOM     36  C   UNL A   1      38.140  31.043  28.883  1.00  0.00     0.010 A 
ATOM     37  C   UNL A   1      36.889  29.277  29.978  1.00  0.00     0.010 A 
ATOM     38  C   UNL A   1      38.116  29.912  29.710  1.00  0.00    -0.014 A 
BRANCH  38  39
ATOM     39  C   UNL A   1      39.392  29.271  30.121  1.00  0.00     0.031 A 
ATOM     40  C   UNL A   1      40.122  29.838  31.311  1.00  0.00     0.074 A 
ATOM     41  C   UNL A   1      39.887  28.200  29.474  1.00  0.00     0.049 A 
ATOM     42  N   UNL A   1      41.268  29.487  31.833  1.00  0.00    -0.248 NA
ATOM     43  C   UNL A   1      39.464  30.961  31.997  1.00  0.00     0.031 C 
ATOM     44  C   UNL A   1      39.254  27.533  28.338  1.00  0.00     0.029 A 
ATOM     45  N   UNL A   1      41.045  27.491  29.679  1.00  0.00    -0.354 N 
ATOM     46  C   UNL A   1      41.471  30.345  32.909  1.00  0.00     0.074 A 
ATOM     47  C   UNL A   1      40.348  31.257  32.937  1.00  0.00     0.031 C 
ATOM     48  C   UNL A   1      40.038  26.515  27.940  1.00  0.00     0.029 A 
ATOM     49  C   UNL A   1      41.244  26.480  28.767  1.00  0.00     0.049 A 
ATOM     50  H   UNL A   1      41.673  27.687  30.412  1.00  0.00     0.167 HD
ATOM     51  C   UNL A   1      42.494  30.365  33.799  1.00  0.00     0.034 A 
ATOM     52  C   UNL A   1      42.290  25.644  28.606  1.00  0.00     0.034 A 
ATOM     53  C   UNL A   1      43.620  29.464  33.748  1.00  0.00     0.049 A 
ATOM     54  C   UNL A   1      43.464  25.741  29.555  1.00  0.00     0.074 A 
ATOM     55  C   UNL A   1      44.713  29.398  34.595  1.00  0.00     0.029 A 
ATOM     56  N   UNL A   1      43.806  28.478  32.786  1.00  0.00    -0.354 N 
ATOM     57  N   UNL A   1      43.644  26.553  30.572  1.00  0.00    -0.248 NA
ATOM     58  C   UNL A   1      44.571  24.799  29.337  1.00  0.00     0.031 C 
ATOM     59  C   UNL A   1      45.591  28.425  34.106  1.00  0.00     0.029 A 
ATOM     60  C   UNL A   1      45.009  27.821  33.003  1.00  0.00     0.049 A 
ATOM     61  H   UNL A   1      43.176  28.276  32.057  1.00  0.00     0.167 HD
ATOM     62  C   UNL A   1      44.866  26.190  31.137  1.00  0.00     0.074 A 
ATOM     63  C   UNL A   1      45.372  25.083  30.354  1.00  0.00     0.031 C 
ATOM     64  C   UNL A   1      45.507  26.719  32.212  1.00  0.00     0.034 A 
BRANCH  51  65
ATOM     65  C   UNL A   1      42.461  31.436  34.864  1.00  0.00     0.023 A 
ATOM     66  C   UNL A   1      43.140  32.658  34.707  1.00  0.00     0.031 A 
ATOM     67  C   UNL A   1      41.777  31.214  36.072  1.00  0.00     0.131 A 
ATOM     68  C   UNL A   1      43.183  33.576  35.768  1.00  0.00     0.055 A 
ATOM     69  C   UNL A   1      41.756  32.167  37.092  1.00  0.00     0.041 A 
ATOM     70  F   UNL A   1      41.132  30.057  36.290  1.00  0.00    -0.206 F 
ATOM     71  C   UNL A   1      42.475  33.350  36.949  1.00  0.00     0.022 A 
BRANCH  68  72
ATOM     72  S   UNL A   1      44.301  34.998  35.639  1.00  0.00     0.124 S 
ATOM     73  O   UNL A   1      45.372  34.459  34.805  1.00  0.00    -0.237 OA
ATOM     74  O   UNL A   1      43.455  36.011  35.018  1.00  0.00    -0.237 OA
ATOM     75  O   UNL A   1      44.677  35.266  37.026  1.00  0.00    -0.744 OA
ENDBRANCH  68  72
ENDBRANCH  51  65
BRANCH  52  76
ATOM     76  C   UNL A   1      42.309  24.660  27.484  1.00  0.00     0.023 A 
ATOM     77  C   UNL A   1      41.698  23.401  27.606  1.00  0.00     0.031 A 
ATOM     78  C   UNL A   1      43.005  24.940  26.294  1.00  0.00     0.131 A 
ATOM     79  C   UNL A   1      41.834  22.454  26.578  1.00  0.00     0.055 A 
ATOM     80  C   UNL A   1      43.091  24.014  25.253  1.00  0.00     0.041 A 
ATOM     81  F   UNL A   1      43.614  26.124  26.126  1.00  0.00    -0.206 F 
ATOM     82  C   UNL A   1      42.515  22.756  25.398  1.00  0.00     0.022 A 
BRANCH  79  83
ATOM     83  S   UNL A   1      41.182  20.781  26.845  1.00  0.00     0.124 S 
ATOM     84  O   UNL A   1      42.356  19.958  26.582  1.00  0.00    -0.237 OA
ATOM     85  O   UNL A   1      40.741  20.846  28.235  1.00  0.00    -0.237 OA
ATOM     86  O   UNL A   1      40.108  20.673  25.859  1.00  0.00    -0.744 OA
ENDBRANCH  79  83
ENDBRANCH  52  76
BRANCH  64  87
ATOM     87  C   UNL A   1      46.797  26.059  32.641  1.00  0.00     0.023 A 
ATOM     88  C   UNL A   1      48.048  26.474  32.153  1.00  0.00     0.031 A 
ATOM     89  C   UNL A   1      46.769  24.985  33.550  1.00  0.00     0.131 A 
ATOM     90  C   UNL A   1      49.212  25.782  32.527  1.00  0.00     0.055 A 
ATOM     91  C   UNL A   1      47.934  24.342  33.968  1.00  0.00     0.041 A 
ATOM     92  F   UNL A   1      45.603  24.543  34.049  1.00  0.00    -0.206 F 
ATOM     93  C   UNL A   1      49.164  24.730  33.445  1.00  0.00     0.022 A 
BRANCH  90  94
ATOM     94  S   UNL A   1      50.781  26.208  31.721  1.00  0.00     0.124 S 
ATOM     95  O   UNL A   1      51.292  27.263  32.589  1.00  0.00    -0.237 OA
ATOM     96  O   UNL A   1      51.505  24.942  31.760  1.00  0.00    -0.237 OA
ATOM     97  O   UNL A   1      50.372  26.646  30.387  1.00  0.00    -0.744 OA
ENDBRANCH  90  94
ENDBRANCH  64  87
ENDBRANCH  38  39
ENDBRANCH  31  33
ENDBRANCH  30  31
ENDBRANCH  29  30
ENDBRANCH  28  29
ENDBRANCH  27  28
ENDBRANCH  26  27
ENDBRANCH   1  26
TORSDOF 24
ENDMDL
MODEL 2
REMARK VINA RESULT:      -9.4      1.854      2.268
REMARK SMILES CCC[NH2+][C@]1(C(=O)OCCOCCOCCOC(=O)c2ccc(-c3c4nc(c(-c5cc(S(=O)(=O)[O-])ccc5F)c5ccc([nH]5)c(-c5cc(S(=O)(=O)[O-])ccc5F)c5nc(c(-c6cc(S(=O)(=O)[O-])ccc6F)c6ccc3[nH]6)C=C5)C=C4)cc2)CCC[C@H](n2ccc(C)n2)C1
REMARK SMILES IDX 12 1 11 2 10 3 9 4 8 5 6 6 7 7 5 8 83 9 93 10 84 11 86 12
REMARK SMILES IDX 85 13 4 14 3 17 2 18 1 19 87 20 88 21 92 22 89 23 90 24
REMARK SMILES IDX 91 25 13 26 14 27 15 28 16 29 17 30 18 31 19 32 20 33 21 34
REMARK SMILES IDX 82 35 22 36 81 37 23 38 24 39 25 40 75 41 26 42 80 43 74 44
REMARK SMILES IDX 76 45 27 46 79 47 73 48 72 49 28 51 60 52 40 53 59 54 41 55
REMARK SMILES IDX 44 56 58 57 77 58 42 59 43 60 57 62 78 63 45 64 29 65 30 66
REMARK SMILES IDX 38 67 31 68 37 69 39 70 36 71 32 72 33 73 34 74 35 75 61 76
REMARK SMILES IDX 62 77 70 78 63 79 69 80 71 81 68 82 64 83 65 84 66 85 67 86
REMARK SMILES IDX 46 87 47 88 55 89 48 90 54 91 56 92 53 93 49 94 50 95 51 96
REMARK SMILES IDX 52 97
REMARK H PARENT 4 15 4 16 76 50 44 61
REMARK Flexibility Score: inf
ROOT
ATOM      1  C   UNL A   1      30.697  29.069  23.681  1.00  0.00     0.188 C 
ENDROOT
BRANCH   1   2
ATOM      2  O   UNL A   1      30.787  28.031  22.710  1.00  0.00    -0.376 OA
BRANCH   2   3
ATOM      3  C   UNL A   1      31.386  26.792  23.054  1.00  0.00     0.202 C 
BRANCH   3   4
ATOM      4  C   UNL A   1      32.815  26.472  22.597  1.00  0.00     0.261 C 
BRANCH   4   5
ATOM      5  O   UNL A   1      33.496  25.426  23.301  1.00  0.00    -0.459 OA
BRANCH   5   6
ATOM      6  C   UNL A   1      33.501  24.204  22.690  1.00  0.00     0.368 C 
ATOM      7  O   UNL A   1      33.371  24.054  21.478  1.00  0.00    -0.245 OA
BRANCH   6   8
ATOM      8  C   UNL A   1      33.693  23.002  23.692  1.00  0.00     0.196 C 
ATOM      9  C   UNL A   1      33.371  23.620  25.081  1.00  0.00     0.081 C 
ATOM     10  C   UNL A   1      32.644  21.904  23.299  1.00  0.00     0.108 C 
ATOM     11  C   UNL A   1      32.970  22.611  26.143  1.00  0.00     0.009 C 
ATOM     12  C   UNL A   1      32.051  20.988  24.419  1.00  0.00     0.114 C 
ATOM     13  C   UNL A   1      31.751  21.823  25.675  1.00  0.00     0.028 C 
BRANCH   8  14
ATOM     14  N   UNL A   1      35.132  22.618  23.666  1.00  0.00    -0.332 N 
ATOM     15  H   UNL A   1      35.205  21.701  24.107  1.00  0.00     0.347 HD
ATOM     16  H   UNL A   1      35.385  22.664  22.680  1.00  0.00     0.347 HD
BRANCH  14  17
ATOM     17  C   UNL A   1      36.089  23.482  24.318  1.00  0.00     0.261 C 
BRANCH  17  18
ATOM     18  C   UNL A   1      37.226  22.751  25.033  1.00  0.00     0.058 C 
ATOM     19  C   UNL A   1      37.940  23.628  26.049  1.00  0.00     0.010 C 
ENDBRANCH  17  18
ENDBRANCH  14  17
ENDBRANCH   8  14
BRANCH  12  20
ATOM     20  N   UNL A   1      32.788  19.747  24.684  1.00  0.00    -0.269 N 
ATOM     21  C   UNL A   1      34.075  19.424  24.337  1.00  0.00     0.109 A 
ATOM     22  N   UNL A   1      32.183  18.741  25.353  1.00  0.00    -0.178 NA
ATOM     23  C   UNL A   1      34.239  18.093  24.638  1.00  0.00     0.045 A 
ATOM     24  C   UNL A   1      33.022  17.704  25.231  1.00  0.00     0.059 A 
ATOM     25  C   UNL A   1      32.607  16.342  25.644  1.00  0.00     0.069 C 
ENDBRANCH  12  20
ENDBRANCH   6   8
ENDBRANCH   5   6
ENDBRANCH   4   5
ENDBRANCH   3   4
ENDBRANCH   2   3
ENDBRANCH   1   2
BRANCH   1  26
ATOM     26  C   UNL A   1      31.895  29.387  24.602  1.00  0.00     0.188 C 
BRANCH  26  27
ATOM     27  O   UNL A   1      31.512  29.878  25.869  1.00  0.00    -0.376 OA
BRANCH  27  28
ATOM     28  C   UNL A   1      31.964  31.158  26.269  1.00  0.00     0.202 C 
BRANCH  28  29
ATOM     29  C   UNL A   1      32.888  31.380  27.484  1.00  0.00     0.261 C 
BRANCH  29  30
ATOM     30  O   UNL A   1      34.248  30.948  27.386  1.00  0.00    -0.460 OA
BRANCH  30  31
ATOM     31  C   UNL A   1      34.496  29.664  27.742  1.00  0.00     0.338 C 
ATOM     32  O   UNL A   1      33.748  28.716  27.606  1.00  0.00    -0.246 OA
BRANCH  31  33
ATOM     33  C   UNL A   1      35.897  29.556  28.202  1.00  0.00     0.060 A 
ATOM     34  C   UNL A   1      36.925  29.815  27.287  1.00  0.00     0.016 A 
ATOM     35  C   UNL A   1      36.196  29.167  29.511  1.00  0.00     0.016 A 
ATOM     36  C   UNL A   1      38.258  29.654  27.670  1.00  0.00     0.010 A 
ATOM     37  C   UNL A   1      37.533  28.987  29.886  1.00  0.00     0.010 A 
ATOM     38  C   UNL A   1      38.569  29.198  28.959  1.00  0.00    -0.014 A 
BRANCH  38  39
ATOM     39  C   UNL A   1      39.950  28.744  29.267  1.00  0.00     0.031 A 
ATOM     40  C   UNL A   1      40.724  29.488  30.324  1.00  0.00     0.074 A 
ATOM     41  C   UNL A   1      40.502  27.687  28.646  1.00  0.00     0.049 A 
ATOM     42  N   UNL A   1      41.953  29.315  30.736  1.00  0.00    -0.248 NA
ATOM     43  C   UNL A   1      40.009  30.581  31.000  1.00  0.00     0.031 C 
ATOM     44  C   UNL A   1      39.842  26.859  27.638  1.00  0.00     0.029 A 
ATOM     45  N   UNL A   1      41.753  27.134  28.768  1.00  0.00    -0.354 N 
ATOM     46  C   UNL A   1      42.160  30.277  31.720  1.00  0.00     0.074 A 
ATOM     47  C   UNL A   1      40.942  31.054  31.810  1.00  0.00     0.031 C 
ATOM     48  C   UNL A   1      40.698  25.908  27.227  1.00  0.00     0.029 A 
ATOM     49  C   UNL A   1      41.979  26.080  27.912  1.00  0.00     0.049 A 
ATOM     50  H   UNL A   1      42.426  27.461  29.408  1.00  0.00     0.167 HD
ATOM     51  C   UNL A   1      43.260  30.487  32.485  1.00  0.00     0.034 A 
ATOM     52  C   UNL A   1      43.098  25.358  27.693  1.00  0.00     0.034 A 
ATOM     53  C   UNL A   1      44.476  29.720  32.370  1.00  0.00     0.049 A 
ATOM     54  C   UNL A   1      44.343  25.667  28.494  1.00  0.00     0.074 A 
ATOM     55  C   UNL A   1      45.651  29.850  33.091  1.00  0.00     0.029 A 
ATOM     56  N   UNL A   1      44.681  28.685  31.465  1.00  0.00    -0.354 N 
ATOM     57  N   UNL A   1      44.527  26.576  29.424  1.00  0.00    -0.248 NA
ATOM     58  C   UNL A   1      45.528  24.843  28.219  1.00  0.00     0.031 C 
ATOM     59  C   UNL A   1      46.586  28.946  32.575  1.00  0.00     0.029 A 
ATOM     60  C   UNL A   1      45.971  28.190  31.590  1.00  0.00     0.049 A 
ATOM     61  H   UNL A   1      44.008  28.352  30.828  1.00  0.00     0.167 HD
ATOM     62  C   UNL A   1      45.836  26.403  29.872  1.00  0.00     0.074 A 
ATOM     63  C   UNL A   1      46.390  25.300  29.117  1.00  0.00     0.031 C 
ATOM     64  C   UNL A   1      46.515  27.089  30.827  1.00  0.00     0.034 A 
BRANCH  51  65
ATOM     65  C   UNL A   1      43.206  31.633  33.468  1.00  0.00     0.023 A 
ATOM     66  C   UNL A   1      42.744  31.457  34.785  1.00  0.00     0.031 A 
ATOM     67  C   UNL A   1      43.579  32.928  33.069  1.00  0.00     0.131 A 
ATOM     68  C   UNL A   1      42.596  32.569  35.629  1.00  0.00     0.055 A 
ATOM     69  C   UNL A   1      43.506  34.017  33.941  1.00  0.00     0.041 A 
ATOM     70  F   UNL A   1      44.003  33.163  31.817  1.00  0.00    -0.206 F 
ATOM     71  C   UNL A   1      42.998  33.843  35.224  1.00  0.00     0.022 A 
BRANCH  68  72
ATOM     72  S   UNL A   1      41.730  32.351  37.208  1.00  0.00     0.124 S 
ATOM     73  O   UNL A   1      41.931  30.926  37.461  1.00  0.00    -0.237 OA
ATOM     74  O   UNL A   1      42.447  33.264  38.090  1.00  0.00    -0.237 OA
ATOM     75  O   UNL A   1      40.353  32.733  36.900  1.00  0.00    -0.744 OA
ENDBRANCH  68  72
ENDBRANCH  51  65
BRANCH  52  76
ATOM     76  C   UNL A   1      43.120  24.292  26.648  1.00  0.00     0.023 A 
ATOM     77  C   UNL A   1      42.520  23.041  26.868  1.00  0.00     0.031 A 
ATOM     78  C   UNL A   1      43.808  24.488  25.437  1.00  0.00     0.131 A 
ATOM     79  C   UNL A   1      42.660  22.020  25.913  1.00  0.00     0.055 A 
ATOM     80  C   UNL A   1      43.898  23.487  24.468  1.00  0.00     0.041 A 
ATOM     81  F   UNL A   1      44.406  25.661  25.178  1.00  0.00    -0.206 F 
ATOM     82  C   UNL A   1      43.334  22.239  24.711  1.00  0.00     0.022 A 
BRANCH  79  83
ATOM     83  S   UNL A   1      42.024  20.367  26.309  1.00  0.00     0.124 S 
ATOM     84  O   UNL A   1      40.607  20.510  25.995  1.00  0.00    -0.237 OA
ATOM     85  O   UNL A   1      42.799  19.521  25.408  1.00  0.00    -0.237 OA
ATOM     86  O   UNL A   1      42.336  20.212  27.728  1.00  0.00    -0.744 OA
ENDBRANCH  79  83
ENDBRANCH  52  76
BRANCH  64  87
ATOM     87  C   UNL A   1      47.914  26.620  31.153  1.00  0.00     0.023 A 
ATOM     88  C   UNL A   1      48.178  25.729  32.208  1.00  0.00     0.031 A 
ATOM     89  C   UNL A   1      49.006  27.086  30.397  1.00  0.00     0.131 A 
ATOM     90  C   UNL A   1      49.503  25.380  32.517  1.00  0.00     0.055 A 
ATOM     91  C   UNL A   1      50.315  26.686  30.667  1.00  0.00     0.041 A 
ATOM     92  F   UNL A   1      48.817  27.941  29.379  1.00  0.00    -0.206 F 
ATOM     93  C   UNL A   1      50.571  25.839  31.742  1.00  0.00     0.022 A 
BRANCH  90  94
ATOM     94  S   UNL A   1      49.824  24.398  34.008  1.00  0.00     0.124 S 
ATOM     95  O   UNL A   1      48.642  23.545  34.071  1.00  0.00    -0.237 OA
ATOM     96  O   UNL A   1      51.077  23.727  33.676  1.00  0.00    -0.237 OA
ATOM     97  O   UNL A   1      49.921  25.402  35.065  1.00  0.00    -0.744 OA
ENDBRANCH  90  94
ENDBRANCH  64  87
ENDBRANCH  38  39
ENDBRANCH  31  33
ENDBRANCH  30  31
ENDBRANCH  29  30
ENDBRANCH  28  29
ENDBRANCH  27  28
ENDBRANCH  26  27
ENDBRANCH   1  26
TORSDOF 24
ENDMDL
MODEL 3
REMARK VINA RESULT:      -9.3      3.255      4.180
REMARK SMILES CCC[NH2+][C@]1(C(=O)OCCOCCOCCOC(=O)c2ccc(-c3c4nc(c(-c5cc(S(=O)(=O)[O-])ccc5F)c5ccc([nH]5)c(-c5cc(S(=O)(=O)[O-])ccc5F)c5nc(c(-c6cc(S(=O)(=O)[O-])ccc6F)c6ccc3[nH]6)C=C5)C=C4)cc2)CCC[C@H](n2ccc(C)n2)C1
REMARK SMILES IDX 12 1 11 2 10 3 9 4 8 5 6 6 7 7 5 8 83 9 93 10 84 11 86 12
REMARK SMILES IDX 85 13 4 14 3 17 2 18 1 19 87 20 88 21 92 22 89 23 90 24
REMARK SMILES IDX 91 25 13 26 14 27 15 28 16 29 17 30 18 31 19 32 20 33 21 34
REMARK SMILES IDX 82 35 22 36 81 37 23 38 24 39 25 40 75 41 26 42 80 43 74 44
REMARK SMILES IDX 76 45 27 46 79 47 73 48 72 49 28 51 60 52 40 53 59 54 41 55
REMARK SMILES IDX 44 56 58 57 77 58 42 59 43 60 57 62 78 63 45 64 29 65 30 66
REMARK SMILES IDX 38 67 31 68 37 69 39 70 36 71 32 72 33 73 34 74 35 75 61 76
REMARK SMILES IDX 62 77 70 78 63 79 69 80 71 81 68 82 64 83 65 84 66 85 67 86
REMARK SMILES IDX 46 87 47 88 55 89 48 90 54 91 56 92 53 93 49 94 50 95 51 96
REMARK SMILES IDX 52 97
REMARK H PARENT 4 15 4 16 76 50 44 61
REMARK Flexibility Score: inf
ROOT
ATOM      1  C   UNL A   1      34.120  30.494  27.251  1.00  0.00     0.188 C 
ENDROOT
BRANCH   1   2
ATOM      2  O   UNL A   1      32.760  30.208  26.942  1.00  0.00    -0.376 OA
BRANCH   2   3
ATOM      3  C   UNL A   1      32.440  29.490  25.761  1.00  0.00     0.202 C 
BRANCH   3   4
ATOM      4  C   UNL A   1      33.482  28.573  25.109  1.00  0.00     0.261 C 
BRANCH   4   5
ATOM      5  O   UNL A   1      33.425  27.184  25.457  1.00  0.00    -0.459 OA
BRANCH   5   6
ATOM      6  C   UNL A   1      33.215  26.320  24.420  1.00  0.00     0.368 C 
ATOM      7  O   UNL A   1      33.050  26.684  23.259  1.00  0.00    -0.245 OA
BRANCH   6   8
ATOM      8  C   UNL A   1      33.208  24.805  24.858  1.00  0.00     0.196 C 
ATOM      9  C   UNL A   1      32.739  24.847  26.339  1.00  0.00     0.081 C 
ATOM     10  C   UNL A   1      32.162  24.069  23.950  1.00  0.00     0.108 C 
ATOM     11  C   UNL A   1      32.148  23.546  26.852  1.00  0.00     0.009 C 
ATOM     12  C   UNL A   1      31.378  22.849  24.534  1.00  0.00     0.114 C 
ATOM     13  C   UNL A   1      30.960  23.139  25.985  1.00  0.00     0.028 C 
BRANCH   8  14
ATOM     14  N   UNL A   1      34.614  24.316  24.820  1.00  0.00    -0.332 N 
ATOM     15  H   UNL A   1      35.217  25.126  24.969  1.00  0.00     0.347 HD
ATOM     16  H   UNL A   1      34.648  23.592  25.537  1.00  0.00     0.347 HD
BRANCH  14  17
ATOM     17  C   UNL A   1      35.082  23.652  23.626  1.00  0.00     0.261 C 
BRANCH  17  18
ATOM     18  C   UNL A   1      36.022  22.473  23.877  1.00  0.00     0.058 C 
ATOM     19  C   UNL A   1      36.181  22.153  25.355  1.00  0.00     0.010 C 
ENDBRANCH  17  18
ENDBRANCH  14  17
ENDBRANCH   8  14
BRANCH  12  20
ATOM     20  N   UNL A   1      32.005  21.536  24.340  1.00  0.00    -0.269 N 
ATOM     21  C   UNL A   1      32.523  20.995  23.191  1.00  0.00     0.109 A 
ATOM     22  N   UNL A   1      32.122  20.690  25.388  1.00  0.00    -0.178 NA
ATOM     23  C   UNL A   1      32.820  19.683  23.475  1.00  0.00     0.045 A 
ATOM     24  C   UNL A   1      32.516  19.533  24.842  1.00  0.00     0.059 A 
ATOM     25  C   UNL A   1      32.539  18.287  25.645  1.00  0.00     0.069 C 
ENDBRANCH  12  20
ENDBRANCH   6   8
ENDBRANCH   5   6
ENDBRANCH   4   5
ENDBRANCH   3   4
ENDBRANCH   2   3
ENDBRANCH   1   2
BRANCH   1  26
ATOM     26  C   UNL A   1      34.479  31.646  28.215  1.00  0.00     0.188 C 
BRANCH  26  27
ATOM     27  O   UNL A   1      34.339  32.926  27.635  1.00  0.00    -0.376 OA
BRANCH  27  28
ATOM     28  C   UNL A   1      33.094  33.588  27.738  1.00  0.00     0.202 C 
BRANCH  28  29
ATOM     29  C   UNL A   1      32.904  34.902  28.523  1.00  0.00     0.261 C 
BRANCH  29  30
ATOM     30  O   UNL A   1      32.559  34.818  29.910  1.00  0.00    -0.460 OA
BRANCH  30  31
ATOM     31  C   UNL A   1      33.483  35.284  30.786  1.00  0.00     0.338 C 
ATOM     32  O   UNL A   1      33.385  36.272  31.487  1.00  0.00    -0.246 OA
BRANCH  31  33
ATOM     33  C   UNL A   1      34.594  34.313  30.870  1.00  0.00     0.060 A 
ATOM     34  C   UNL A   1      34.398  33.130  31.592  1.00  0.00     0.016 A 
ATOM     35  C   UNL A   1      35.831  34.582  30.276  1.00  0.00     0.016 A 
ATOM     36  C   UNL A   1      35.450  32.225  31.750  1.00  0.00     0.010 A 
ATOM     37  C   UNL A   1      36.889  33.683  30.452  1.00  0.00     0.010 A 
ATOM     38  C   UNL A   1      36.713  32.516  31.217  1.00  0.00    -0.014 A 
BRANCH  38  39
ATOM     39  C   UNL A   1      37.892  31.713  31.634  1.00  0.00     0.031 A 
ATOM     40  C   UNL A   1      38.492  31.980  32.990  1.00  0.00     0.074 A 
ATOM     41  C   UNL A   1      38.410  30.754  30.845  1.00  0.00     0.049 A 
ATOM     42  N   UNL A   1      39.543  31.448  33.558  1.00  0.00    -0.248 NA
ATOM     43  C   UNL A   1      37.810  32.993  33.810  1.00  0.00     0.031 C 
ATOM     44  C   UNL A   1      37.894  30.371  29.532  1.00  0.00     0.029 A 
ATOM     45  N   UNL A   1      39.494  29.933  31.034  1.00  0.00    -0.354 N 
ATOM     46  C   UNL A   1      39.650  32.062  34.802  1.00  0.00     0.074 A 
ATOM     47  C   UNL A   1      38.581  33.034  34.885  1.00  0.00     0.031 C 
ATOM     48  C   UNL A   1      38.669  29.394  29.029  1.00  0.00     0.029 A 
ATOM     49  C   UNL A   1      39.756  29.107  29.965  1.00  0.00     0.049 A 
ATOM     50  H   UNL A   1      40.033  29.934  31.858  1.00  0.00     0.167 HD
ATOM     51  C   UNL A   1      40.551  31.830  35.790  1.00  0.00     0.034 A 
ATOM     52  C   UNL A   1      40.770  28.241  29.758  1.00  0.00     0.034 A 
ATOM     53  C   UNL A   1      41.626  30.874  35.686  1.00  0.00     0.049 A 
ATOM     54  C   UNL A   1      41.816  28.062  30.836  1.00  0.00     0.074 A 
ATOM     55  C   UNL A   1      42.597  30.561  36.623  1.00  0.00     0.029 A 
ATOM     56  N   UNL A   1      41.883  30.083  34.572  1.00  0.00    -0.354 N 
ATOM     57  N   UNL A   1      41.907  28.644  32.010  1.00  0.00    -0.248 NA
ATOM     58  C   UNL A   1      42.893  27.100  30.561  1.00  0.00     0.031 C 
ATOM     59  C   UNL A   1      43.479  29.638  36.051  1.00  0.00     0.029 A 
ATOM     60  C   UNL A   1      43.012  29.307  34.788  1.00  0.00     0.049 A 
ATOM     61  H   UNL A   1      41.342  30.075  33.750  1.00  0.00     0.167 HD
ATOM     62  C   UNL A   1      43.026  28.087  32.627  1.00  0.00     0.074 A 
ATOM     63  C   UNL A   1      43.571  27.118  31.700  1.00  0.00     0.031 C 
ATOM     64  C   UNL A   1      43.550  28.345  33.853  1.00  0.00     0.034 A 
BRANCH  51  65
ATOM     65  C   UNL A   1      40.436  32.673  37.038  1.00  0.00     0.023 A 
ATOM     66  C   UNL A   1      39.562  32.330  38.085  1.00  0.00     0.031 A 
ATOM     67  C   UNL A   1      41.178  33.859  37.163  1.00  0.00     0.131 A 
ATOM     68  C   UNL A   1      39.396  33.202  39.172  1.00  0.00     0.055 A 
ATOM     69  C   UNL A   1      41.069  34.682  38.287  1.00  0.00     0.041 A 
ATOM     70  F   UNL A   1      42.011  34.253  36.185  1.00  0.00    -0.206 F 
ATOM     71  C   UNL A   1      40.163  34.363  39.292  1.00  0.00     0.022 A 
BRANCH  68  72
ATOM     72  S   UNL A   1      38.056  32.875  40.351  1.00  0.00     0.124 S 
ATOM     73  O   UNL A   1      38.157  34.029  41.241  1.00  0.00    -0.237 OA
ATOM     74  O   UNL A   1      36.880  32.832  39.489  1.00  0.00    -0.237 OA
ATOM     75  O   UNL A   1      38.435  31.598  40.954  1.00  0.00    -0.744 OA
ENDBRANCH  68  72
ENDBRANCH  51  65
BRANCH  52  76
ATOM     76  C   UNL A   1      40.882  27.496  28.470  1.00  0.00     0.023 A 
ATOM     77  C   UNL A   1      40.660  26.111  28.406  1.00  0.00     0.031 A 
ATOM     78  C   UNL A   1      41.284  28.152  27.293  1.00  0.00     0.131 A 
ATOM     79  C   UNL A   1      40.888  25.419  27.205  1.00  0.00     0.055 A 
ATOM     80  C   UNL A   1      41.457  27.469  26.088  1.00  0.00     0.041 A 
ATOM     81  F   UNL A   1      41.517  29.474  27.298  1.00  0.00    -0.206 F 
ATOM     82  C   UNL A   1      41.272  26.091  26.043  1.00  0.00     0.022 A 
BRANCH  79  83
ATOM     83  S   UNL A   1      40.761  23.609  27.205  1.00  0.00     0.124 S 
ATOM     84  O   UNL A   1      41.506  23.258  26.002  1.00  0.00    -0.237 OA
ATOM     85  O   UNL A   1      41.390  23.262  28.475  1.00  0.00    -0.237 OA
ATOM     86  O   UNL A   1      39.321  23.368  27.141  1.00  0.00    -0.744 OA
ENDBRANCH  79  83
ENDBRANCH  52  76
BRANCH  64  87
ATOM     87  C   UNL A   1      44.740  27.519  34.285  1.00  0.00     0.023 A 
ATOM     88  C   UNL A   1      44.595  26.260  34.893  1.00  0.00     0.031 A 
ATOM     89  C   UNL A   1      46.044  28.012  34.095  1.00  0.00     0.131 A 
ATOM     90  C   UNL A   1      45.729  25.564  35.342  1.00  0.00     0.055 A 
ATOM     91  C   UNL A   1      47.171  27.288  34.485  1.00  0.00     0.041 A 
ATOM     92  F   UNL A   1      46.245  29.210  33.522  1.00  0.00    -0.206 F 
ATOM     93  C   UNL A   1      47.017  26.062  35.126  1.00  0.00     0.022 A 
BRANCH  90  94
ATOM     94  S   UNL A   1      45.498  24.044  36.306  1.00  0.00     0.124 S 
ATOM     95  O   UNL A   1      46.701  23.287  35.974  1.00  0.00    -0.237 OA
ATOM     96  O   UNL A   1      45.419  24.549  37.672  1.00  0.00    -0.237 OA
ATOM     97  O   UNL A   1      44.253  23.490  35.777  1.00  0.00    -0.744 OA
ENDBRANCH  90  94
ENDBRANCH  64  87
ENDBRANCH  38  39
ENDBRANCH  31  33
ENDBRANCH  30  31
ENDBRANCH  29  30
ENDBRANCH  28  29
ENDBRANCH  27  28
ENDBRANCH  26  27
ENDBRANCH   1  26
TORSDOF 24
ENDMDL
