MODEL 1
REMARK VINA RESULT:     -10.2      0.000      0.000
REMARK SMILES CC(C)Cc1cc2c(cc1Cl)C=C(C(=O)OCCOCCOCCOC(=O)c1ccc(-c3c4nc(c(-c5cc(S(=O)(=O)[O-])ccc5F)c5ccc([nH]5)c(-c5cc(S(=O)(=O)[O-])ccc5F)c5nc(c(-c6cc(S(=O)(=O)[O-])ccc6F)c6ccc3[nH]6)C=C5)C=C4)cc1)[C@@H](C(F)(F)F)O2
REMARK SMILES IDX 21 1 20 2 19 3 18 4 17 5 16 6 14 7 15 8 13 9 5 10 6 11 10 12
REMARK SMILES IDX 7 13 9 14 11 15 8 16 96 17 12 18 91 19 4 20 2 21 1 22 3 23
REMARK SMILES IDX 92 24 93 25 94 26 95 27 22 28 23 29 24 30 25 31 26 32 27 33
REMARK SMILES IDX 28 34 29 35 90 36 30 37 89 38 31 39 32 40 33 41 83 42 34 43
REMARK SMILES IDX 88 44 82 45 84 46 35 47 87 48 81 49 80 50 36 52 68 53 48 54
REMARK SMILES IDX 67 55 49 56 52 57 66 58 85 59 50 60 51 61 65 63 86 64 53 65
REMARK SMILES IDX 37 66 38 67 46 68 39 69 45 70 47 71 44 72 40 73 41 74 42 75
REMARK SMILES IDX 43 76 69 77 70 78 78 79 71 80 77 81 79 82 76 83 72 84 73 85
REMARK SMILES IDX 74 86 75 87 54 88 55 89 63 90 56 91 62 92 64 93 61 94 57 95
REMARK SMILES IDX 58 96 59 97 60 98
REMARK H PARENT 84 51 52 62
REMARK Flexibility Score: inf
ROOT
ATOM      1  C   UNL A   1      31.473  29.461  24.781  1.00  0.00     0.188 C 
ENDROOT
BRANCH   1   2
ATOM      2  C   UNL A   1      30.295  29.615  23.794  1.00  0.00     0.188 C 
BRANCH   2   3
ATOM      3  O   UNL A   1      30.389  28.731  22.693  1.00  0.00    -0.376 OA
BRANCH   3   4
ATOM      4  C   UNL A   1      29.677  27.509  22.760  1.00  0.00     0.202 C 
BRANCH   4   5
ATOM      5  C   UNL A   1      30.213  26.380  23.656  1.00  0.00     0.261 C 
BRANCH   5   6
ATOM      6  O   UNL A   1      31.003  25.376  23.003  1.00  0.00    -0.460 OA
BRANCH   6   7
ATOM      7  C   UNL A   1      32.288  25.250  23.398  1.00  0.00     0.338 C 
ATOM      8  O   UNL A   1      33.138  26.123  23.379  1.00  0.00    -0.246 OA
BRANCH   7   9
ATOM      9  C   UNL A   1      32.478  23.899  23.974  1.00  0.00     0.087 C 
ATOM     10  C   UNL A   1      32.681  18.930  24.806  1.00  0.00    -0.025 A 
ATOM     11  C   UNL A   1      32.925  20.076  25.589  1.00  0.00     0.052 A 
ATOM     12  C   UNL A   1      32.381  19.112  23.446  1.00  0.00     0.045 A 
ATOM     13  C   UNL A   1      32.834  21.361  25.042  1.00  0.00     0.128 A 
ATOM     14  C   UNL A   1      32.317  20.396  22.894  1.00  0.00     0.032 A 
ATOM     15  Cl  UNL A   1      32.009  17.788  22.403  1.00  0.00    -0.084 Cl
ATOM     16  C   UNL A   1      32.518  21.524  23.694  1.00  0.00     0.019 A 
ATOM     17  O   UNL A   1      33.056  22.400  25.899  1.00  0.00    -0.475 OA
ATOM     18  C   UNL A   1      32.353  22.858  23.141  1.00  0.00     0.027 C 
ATOM     19  C   UNL A   1      32.827  23.760  25.434  1.00  0.00     0.316 C 
BRANCH  10  20
ATOM     20  C   UNL A   1      32.687  17.570  25.474  1.00  0.00     0.040 C 
BRANCH  20  21
ATOM     21  C   UNL A   1      33.410  16.446  24.704  1.00  0.00    -0.013 C 
ATOM     22  C   UNL A   1      34.929  16.623  24.710  1.00  0.00     0.008 C 
ATOM     23  C   UNL A   1      33.043  15.088  25.313  1.00  0.00     0.008 C 
ENDBRANCH  20  21
ENDBRANCH  10  20
BRANCH  19  24
ATOM     24  C   UNL A   1      31.780  24.420  26.345  1.00  0.00     0.430 C 
ATOM     25  F   UNL A   1      30.523  24.209  25.883  1.00  0.00    -0.167 F 
ATOM     26  F   UNL A   1      31.816  23.914  27.601  1.00  0.00    -0.167 F 
ATOM     27  F   UNL A   1      31.955  25.756  26.443  1.00  0.00    -0.167 F 
ENDBRANCH  19  24
ENDBRANCH   7   9
ENDBRANCH   6   7
ENDBRANCH   5   6
ENDBRANCH   4   5
ENDBRANCH   3   4
ENDBRANCH   2   3
ENDBRANCH   1   2
BRANCH   1  28
ATOM     28  O   UNL A   1      32.778  29.192  24.278  1.00  0.00    -0.376 OA
BRANCH  28  29
ATOM     29  C   UNL A   1      33.886  29.247  25.172  1.00  0.00     0.202 C 
BRANCH  29  30
ATOM     30  C   UNL A   1      33.834  28.442  26.480  1.00  0.00     0.261 C 
BRANCH  30  31
ATOM     31  O   UNL A   1      33.588  29.224  27.659  1.00  0.00    -0.460 OA
BRANCH  31  32
ATOM     32  C   UNL A   1      34.290  30.384  27.751  1.00  0.00     0.338 C 
ATOM     33  O   UNL A   1      33.864  31.515  27.593  1.00  0.00    -0.246 OA
BRANCH  32  34
ATOM     34  C   UNL A   1      35.636  30.089  28.287  1.00  0.00     0.060 A 
ATOM     35  C   UNL A   1      35.803  29.561  29.568  1.00  0.00     0.016 A 
ATOM     36  C   UNL A   1      36.749  30.354  27.478  1.00  0.00     0.016 A 
ATOM     37  C   UNL A   1      37.093  29.286  30.035  1.00  0.00     0.010 A 
ATOM     38  C   UNL A   1      38.036  30.100  27.954  1.00  0.00     0.010 A 
ATOM     39  C   UNL A   1      38.217  29.551  29.231  1.00  0.00    -0.014 A 
BRANCH  39  40
ATOM     40  C   UNL A   1      39.569  29.120  29.661  1.00  0.00     0.031 A 
ATOM     41  C   UNL A   1      40.336  29.863  30.711  1.00  0.00     0.074 A 
ATOM     42  C   UNL A   1      40.115  28.048  29.054  1.00  0.00     0.049 A 
ATOM     43  N   UNL A   1      41.505  29.581  31.223  1.00  0.00    -0.248 NA
ATOM     44  C   UNL A   1      39.717  31.081  31.256  1.00  0.00     0.031 C 
ATOM     45  C   UNL A   1      39.464  27.272  27.999  1.00  0.00     0.029 A 
ATOM     46  N   UNL A   1      41.330  27.434  29.221  1.00  0.00    -0.354 N 
ATOM     47  C   UNL A   1      41.758  30.566  32.168  1.00  0.00     0.074 A 
ATOM     48  C   UNL A   1      40.639  31.484  32.124  1.00  0.00     0.031 C 
ATOM     49  C   UNL A   1      40.281  26.280  27.618  1.00  0.00     0.029 A 
ATOM     50  C   UNL A   1      41.527  26.365  28.379  1.00  0.00     0.049 A 
ATOM     51  H   UNL A   1      41.998  27.729  29.883  1.00  0.00     0.167 HD
ATOM     52  C   UNL A   1      42.817  30.673  33.006  1.00  0.00     0.034 A 
ATOM     53  C   UNL A   1      42.588  25.545  28.229  1.00  0.00     0.034 A 
ATOM     54  C   UNL A   1      43.928  29.753  33.021  1.00  0.00     0.049 A 
ATOM     55  C   UNL A   1      43.777  25.718  29.139  1.00  0.00     0.074 A 
ATOM     56  C   UNL A   1      45.020  29.749  33.872  1.00  0.00     0.029 A 
ATOM     57  N   UNL A   1      44.106  28.691  32.145  1.00  0.00    -0.354 N 
ATOM     58  N   UNL A   1      43.949  26.581  30.112  1.00  0.00    -0.248 NA
ATOM     59  C   UNL A   1      44.911  24.802  28.948  1.00  0.00     0.031 C 
ATOM     60  C   UNL A   1      45.889  28.738  33.466  1.00  0.00     0.029 A 
ATOM     61  C   UNL A   1      45.306  28.052  32.411  1.00  0.00     0.049 A 
ATOM     62  H   UNL A   1      43.472  28.430  31.438  1.00  0.00     0.167 HD
ATOM     63  C   UNL A   1      45.193  26.294  30.667  1.00  0.00     0.074 A 
ATOM     64  C   UNL A   1      45.725  25.166  29.932  1.00  0.00     0.031 C 
ATOM     65  C   UNL A   1      45.829  26.913  31.692  1.00  0.00     0.034 A 
BRANCH  52  66
ATOM     66  C   UNL A   1      42.842  31.796  34.014  1.00  0.00     0.023 A 
ATOM     67  C   UNL A   1      42.265  31.621  35.286  1.00  0.00     0.031 A 
ATOM     68  C   UNL A   1      43.276  33.085  33.653  1.00  0.00     0.131 A 
ATOM     69  C   UNL A   1      42.099  32.723  36.134  1.00  0.00     0.055 A 
ATOM     70  C   UNL A   1      43.144  34.173  34.518  1.00  0.00     0.041 A 
ATOM     71  F   UNL A   1      43.825  33.306  32.448  1.00  0.00    -0.206 F 
ATOM     72  C   UNL A   1      42.538  33.997  35.758  1.00  0.00     0.022 A 
BRANCH  69  73
ATOM     73  S   UNL A   1      41.231  32.569  37.721  1.00  0.00     0.124 S 
ATOM     74  O   UNL A   1      41.243  33.949  38.202  1.00  0.00    -0.237 OA
ATOM     75  O   UNL A   1      39.925  32.065  37.308  1.00  0.00    -0.237 OA
ATOM     76  O   UNL A   1      42.057  31.639  38.482  1.00  0.00    -0.744 OA
ENDBRANCH  69  73
ENDBRANCH  52  66
BRANCH  53  77
ATOM     77  C   UNL A   1      42.517  24.452  27.218  1.00  0.00     0.023 A 
ATOM     78  C   UNL A   1      41.849  23.245  27.504  1.00  0.00     0.031 A 
ATOM     79  C   UNL A   1      43.217  24.547  26.005  1.00  0.00     0.131 A 
ATOM     80  C   UNL A   1      41.959  22.162  26.621  1.00  0.00     0.055 A 
ATOM     81  C   UNL A   1      43.263  23.490  25.095  1.00  0.00     0.041 A 
ATOM     82  F   UNL A   1      43.882  25.671  25.695  1.00  0.00    -0.206 F 
ATOM     83  C   UNL A   1      42.647  22.283  25.411  1.00  0.00     0.022 A 
BRANCH  80  84
ATOM     84  S   UNL A   1      41.330  20.523  27.081  1.00  0.00     0.124 S 
ATOM     85  O   UNL A   1      40.791  20.767  28.415  1.00  0.00    -0.237 OA
ATOM     86  O   UNL A   1      40.339  20.281  26.034  1.00  0.00    -0.237 OA
ATOM     87  O   UNL A   1      42.513  19.671  27.023  1.00  0.00    -0.744 OA
ENDBRANCH  80  84
ENDBRANCH  53  77
BRANCH  65  88
ATOM     88  C   UNL A   1      47.186  26.407  32.125  1.00  0.00     0.023 A 
ATOM     89  C   UNL A   1      48.347  26.859  31.464  1.00  0.00     0.031 A 
ATOM     90  C   UNL A   1      47.314  25.350  33.043  1.00  0.00     0.131 A 
ATOM     91  C   UNL A   1      49.571  26.214  31.684  1.00  0.00     0.055 A 
ATOM     92  C   UNL A   1      48.548  24.747  33.298  1.00  0.00     0.041 A 
ATOM     93  F   UNL A   1      46.238  24.878  33.692  1.00  0.00    -0.206 F 
ATOM     94  C   UNL A   1      49.679  25.165  32.602  1.00  0.00     0.022 A 
BRANCH  91  95
ATOM     95  S   UNL A   1      51.043  26.645  30.714  1.00  0.00     0.124 S 
ATOM     96  O   UNL A   1      50.645  27.911  30.104  1.00  0.00    -0.237 OA
ATOM     97  O   UNL A   1      52.070  26.747  31.747  1.00  0.00    -0.237 OA
ATOM     98  O   UNL A   1      51.192  25.530  29.785  1.00  0.00    -0.744 OA
ENDBRANCH  91  95
ENDBRANCH  65  88
ENDBRANCH  39  40
ENDBRANCH  32  34
ENDBRANCH  31  32
ENDBRANCH  30  31
ENDBRANCH  29  30
ENDBRANCH  28  29
ENDBRANCH   1  28
TORSDOF 23
ENDMDL
MODEL 2
REMARK VINA RESULT:      -9.5      3.861      8.349
REMARK SMILES CC(C)Cc1cc2c(cc1Cl)C=C(C(=O)OCCOCCOCCOC(=O)c1ccc(-c3c4nc(c(-c5cc(S(=O)(=O)[O-])ccc5F)c5ccc([nH]5)c(-c5cc(S(=O)(=O)[O-])ccc5F)c5nc(c(-c6cc(S(=O)(=O)[O-])ccc6F)c6ccc3[nH]6)C=C5)C=C4)cc1)[C@@H](C(F)(F)F)O2
REMARK SMILES IDX 21 1 20 2 19 3 18 4 17 5 16 6 14 7 15 8 13 9 5 10 6 11 10 12
REMARK SMILES IDX 7 13 9 14 11 15 8 16 96 17 12 18 91 19 4 20 2 21 1 22 3 23
REMARK SMILES IDX 92 24 93 25 94 26 95 27 22 28 23 29 24 30 25 31 26 32 27 33
REMARK SMILES IDX 28 34 29 35 90 36 30 37 89 38 31 39 32 40 33 41 83 42 34 43
REMARK SMILES IDX 88 44 82 45 84 46 35 47 87 48 81 49 80 50 36 52 68 53 48 54
REMARK SMILES IDX 67 55 49 56 52 57 66 58 85 59 50 60 51 61 65 63 86 64 53 65
REMARK SMILES IDX 37 66 38 67 46 68 39 69 45 70 47 71 44 72 40 73 41 74 42 75
REMARK SMILES IDX 43 76 69 77 70 78 78 79 71 80 77 81 79 82 76 83 72 84 73 85
REMARK SMILES IDX 74 86 75 87 54 88 55 89 63 90 56 91 62 92 64 93 61 94 57 95
REMARK SMILES IDX 58 96 59 97 60 98
REMARK H PARENT 84 51 52 62
REMARK Flexibility Score: inf
ROOT
ATOM      1  C   UNL A   1      34.436  25.505  24.057  1.00  0.00     0.188 C 
ENDROOT
BRANCH   1   2
ATOM      2  C   UNL A   1      34.107  26.213  22.725  1.00  0.00     0.188 C 
BRANCH   2   3
ATOM      3  O   UNL A   1      33.335  25.405  21.856  1.00  0.00    -0.376 OA
BRANCH   3   4
ATOM      4  C   UNL A   1      32.061  25.880  21.464  1.00  0.00     0.202 C 
BRANCH   4   5
ATOM      5  C   UNL A   1      30.962  26.036  22.529  1.00  0.00     0.261 C 
BRANCH   5   6
ATOM      6  O   UNL A   1      30.512  24.827  23.156  1.00  0.00    -0.460 OA
BRANCH   6   7
ATOM      7  C   UNL A   1      30.829  24.653  24.457  1.00  0.00     0.338 C 
ATOM      8  O   UNL A   1      30.436  25.329  25.393  1.00  0.00    -0.246 OA
BRANCH   7   9
ATOM      9  C   UNL A   1      31.648  23.427  24.588  1.00  0.00     0.087 C 
ATOM     10  C   UNL A   1      33.681  18.839  24.102  1.00  0.00    -0.025 A 
ATOM     11  C   UNL A   1      33.883  19.923  24.978  1.00  0.00     0.052 A 
ATOM     12  C   UNL A   1      32.780  19.009  23.038  1.00  0.00     0.045 A 
ATOM     13  C   UNL A   1      33.180  21.123  24.821  1.00  0.00     0.128 A 
ATOM     14  C   UNL A   1      32.099  20.219  22.865  1.00  0.00     0.032 A 
ATOM     15  Cl  UNL A   1      32.411  17.734  21.934  1.00  0.00    -0.084 Cl
ATOM     16  C   UNL A   1      32.277  21.269  23.769  1.00  0.00     0.019 A 
ATOM     17  O   UNL A   1      33.427  22.094  25.748  1.00  0.00    -0.475 OA
ATOM     18  C   UNL A   1      31.494  22.488  23.646  1.00  0.00     0.027 C 
ATOM     19  C   UNL A   1      32.621  23.306  25.734  1.00  0.00     0.316 C 
BRANCH  10  20
ATOM     20  C   UNL A   1      34.387  17.527  24.382  1.00  0.00     0.040 C 
BRANCH  20  21
ATOM     21  C   UNL A   1      33.775  16.658  25.499  1.00  0.00    -0.013 C 
ATOM     22  C   UNL A   1      32.265  16.863  25.631  1.00  0.00     0.008 C 
ATOM     23  C   UNL A   1      34.076  15.181  25.223  1.00  0.00     0.008 C 
ENDBRANCH  20  21
ENDBRANCH  10  20
BRANCH  19  24
ATOM     24  C   UNL A   1      31.929  23.451  27.098  1.00  0.00     0.430 C 
ATOM     25  F   UNL A   1      32.612  22.797  28.070  1.00  0.00    -0.167 F 
ATOM     26  F   UNL A   1      31.854  24.746  27.488  1.00  0.00    -0.167 F 
ATOM     27  F   UNL A   1      30.670  22.959  27.089  1.00  0.00    -0.167 F 
ENDBRANCH  19  24
ENDBRANCH   7   9
ENDBRANCH   6   7
ENDBRANCH   5   6
ENDBRANCH   4   5
ENDBRANCH   3   4
ENDBRANCH   2   3
ENDBRANCH   1   2
BRANCH   1  28
ATOM     28  O   UNL A   1      35.267  24.348  24.050  1.00  0.00    -0.376 OA
BRANCH  28  29
ATOM     29  C   UNL A   1      36.152  24.129  25.145  1.00  0.00     0.202 C 
BRANCH  29  30
ATOM     30  C   UNL A   1      37.332  23.161  24.971  1.00  0.00     0.261 C 
BRANCH  30  31
ATOM     31  O   UNL A   1      37.864  22.633  26.196  1.00  0.00    -0.460 OA
BRANCH  31  32
ATOM     32  C   UNL A   1      39.209  22.747  26.349  1.00  0.00     0.338 C 
ATOM     33  O   UNL A   1      40.061  21.963  25.968  1.00  0.00    -0.246 OA
BRANCH  32  34
ATOM     34  C   UNL A   1      39.521  24.094  26.874  1.00  0.00     0.060 A 
ATOM     35  C   UNL A   1      39.194  24.451  28.183  1.00  0.00     0.016 A 
ATOM     36  C   UNL A   1      40.154  25.011  26.024  1.00  0.00     0.016 A 
ATOM     37  C   UNL A   1      39.515  25.733  28.645  1.00  0.00     0.010 A 
ATOM     38  C   UNL A   1      40.453  26.295  26.480  1.00  0.00     0.010 A 
ATOM     39  C   UNL A   1      40.148  26.661  27.798  1.00  0.00    -0.014 A 
BRANCH  39  40
ATOM     40  C   UNL A   1      40.626  27.961  28.330  1.00  0.00     0.031 A 
ATOM     41  C   UNL A   1      42.083  28.303  28.380  1.00  0.00     0.074 A 
ATOM     42  C   UNL A   1      39.710  28.826  28.807  1.00  0.00     0.049 A 
ATOM     43  N   UNL A   1      42.649  29.414  28.773  1.00  0.00    -0.248 NA
ATOM     44  C   UNL A   1      43.029  27.268  27.935  1.00  0.00     0.031 C 
ATOM     45  C   UNL A   1      38.269  28.577  28.831  1.00  0.00     0.029 A 
ATOM     46  N   UNL A   1      39.845  30.072  29.365  1.00  0.00    -0.354 N 
ATOM     47  C   UNL A   1      44.015  29.229  28.603  1.00  0.00     0.074 A 
ATOM     48  C   UNL A   1      44.196  27.877  28.116  1.00  0.00     0.031 C 
ATOM     49  C   UNL A   1      37.651  29.638  29.369  1.00  0.00     0.029 A 
ATOM     50  C   UNL A   1      38.651  30.632  29.755  1.00  0.00     0.049 A 
ATOM     51  H   UNL A   1      40.714  30.522  29.475  1.00  0.00     0.167 HD
ATOM     52  C   UNL A   1      45.015  30.119  28.815  1.00  0.00     0.034 A 
ATOM     53  C   UNL A   1      38.386  31.810  30.358  1.00  0.00     0.034 A 
ATOM     54  C   UNL A   1      44.809  31.457  29.315  1.00  0.00     0.049 A 
ATOM     55  C   UNL A   1      39.524  32.761  30.631  1.00  0.00     0.074 A 
ATOM     56  C   UNL A   1      45.756  32.448  29.509  1.00  0.00     0.029 A 
ATOM     57  N   UNL A   1      43.591  31.988  29.716  1.00  0.00    -0.354 N 
ATOM     58  N   UNL A   1      40.798  32.620  30.352  1.00  0.00    -0.248 NA
ATOM     59  C   UNL A   1      39.194  34.036  31.284  1.00  0.00     0.031 C 
ATOM     60  C   UNL A   1      45.127  33.546  30.094  1.00  0.00     0.029 A 
ATOM     61  C   UNL A   1      43.770  33.277  30.192  1.00  0.00     0.049 A 
ATOM     62  H   UNL A   1      42.727  31.518  29.670  1.00  0.00     0.167 HD
ATOM     63  C   UNL A   1      41.416  33.797  30.768  1.00  0.00     0.074 A 
ATOM     64  C   UNL A   1      40.372  34.646  31.302  1.00  0.00     0.031 C 
ATOM     65  C   UNL A   1      42.727  34.135  30.707  1.00  0.00     0.034 A 
BRANCH  52  66
ATOM     66  C   UNL A   1      46.432  29.719  28.485  1.00  0.00     0.023 A 
ATOM     67  C   UNL A   1      47.241  29.104  29.459  1.00  0.00     0.031 A 
ATOM     68  C   UNL A   1      47.030  30.106  27.272  1.00  0.00     0.131 A 
ATOM     69  C   UNL A   1      48.611  28.932  29.220  1.00  0.00     0.055 A 
ATOM     70  C   UNL A   1      48.387  29.896  27.023  1.00  0.00     0.041 A 
ATOM     71  F   UNL A   1      46.303  30.705  26.314  1.00  0.00    -0.206 F 
ATOM     72  C   UNL A   1      49.187  29.321  28.006  1.00  0.00     0.022 A 
BRANCH  69  73
ATOM     73  S   UNL A   1      49.715  28.276  30.502  1.00  0.00     0.124 S 
ATOM     74  O   UNL A   1      48.823  27.375  31.230  1.00  0.00    -0.237 OA
ATOM     75  O   UNL A   1      50.750  27.620  29.708  1.00  0.00    -0.237 OA
ATOM     76  O   UNL A   1      50.139  29.460  31.239  1.00  0.00    -0.744 OA
ENDBRANCH  69  73
ENDBRANCH  52  66
BRANCH  53  77
ATOM     77  C   UNL A   1      36.970  32.159  30.666  1.00  0.00     0.023 A 
ATOM     78  C   UNL A   1      36.137  32.730  29.686  1.00  0.00     0.031 A 
ATOM     79  C   UNL A   1      36.469  32.043  31.973  1.00  0.00     0.131 A 
ATOM     80  C   UNL A   1      34.877  33.228  30.046  1.00  0.00     0.055 A 
ATOM     81  C   UNL A   1      35.186  32.475  32.311  1.00  0.00     0.041 A 
ATOM     82  F   UNL A   1      37.232  31.521  32.945  1.00  0.00    -0.206 F 
ATOM     83  C   UNL A   1      34.390  33.088  31.349  1.00  0.00     0.022 A 
BRANCH  80  84
ATOM     84  S   UNL A   1      33.890  34.195  28.870  1.00  0.00     0.124 S 
ATOM     85  O   UNL A   1      34.885  35.109  28.317  1.00  0.00    -0.237 OA
ATOM     86  O   UNL A   1      33.412  33.157  27.959  1.00  0.00    -0.237 OA
ATOM     87  O   UNL A   1      32.863  34.810  29.704  1.00  0.00    -0.744 OA
ENDBRANCH  80  84
ENDBRANCH  53  77
BRANCH  65  88
ATOM     88  C   UNL A   1      43.160  35.490  31.219  1.00  0.00     0.023 A 
ATOM     89  C   UNL A   1      43.383  36.544  30.311  1.00  0.00     0.031 A 
ATOM     90  C   UNL A   1      43.534  35.679  32.560  1.00  0.00     0.131 A 
ATOM     91  C   UNL A   1      44.020  37.715  30.742  1.00  0.00     0.055 A 
ATOM     92  C   UNL A   1      44.120  36.870  32.997  1.00  0.00     0.041 A 
ATOM     93  F   UNL A   1      43.350  34.703  33.463  1.00  0.00    -0.206 F 
ATOM     94  C   UNL A   1      44.383  37.886  32.082  1.00  0.00     0.022 A 
BRANCH  91  95
ATOM     95  S   UNL A   1      44.491  39.013  29.566  1.00  0.00     0.124 S 
ATOM     96  O   UNL A   1      43.190  39.533  29.151  1.00  0.00    -0.237 OA
ATOM     97  O   UNL A   1      45.284  39.910  30.401  1.00  0.00    -0.237 OA
ATOM     98  O   UNL A   1      45.230  38.299  28.530  1.00  0.00    -0.744 OA
ENDBRANCH  91  95
ENDBRANCH  65  88
ENDBRANCH  39  40
ENDBRANCH  32  34
ENDBRANCH  31  32
ENDBRANCH  30  31
ENDBRANCH  29  30
ENDBRANCH  28  29
ENDBRANCH   1  28
TORSDOF 23
ENDMDL
MODEL 3
REMARK VINA RESULT:      -9.5      3.376      5.591
REMARK SMILES CC(C)Cc1cc2c(cc1Cl)C=C(C(=O)OCCOCCOCCOC(=O)c1ccc(-c3c4nc(c(-c5cc(S(=O)(=O)[O-])ccc5F)c5ccc([nH]5)c(-c5cc(S(=O)(=O)[O-])ccc5F)c5nc(c(-c6cc(S(=O)(=O)[O-])ccc6F)c6ccc3[nH]6)C=C5)C=C4)cc1)[C@@H](C(F)(F)F)O2
REMARK SMILES IDX 21 1 20 2 19 3 18 4 17 5 16 6 14 7 15 8 13 9 5 10 6 11 10 12
REMARK SMILES IDX 7 13 9 14 11 15 8 16 96 17 12 18 91 19 4 20 2 21 1 22 3 23
REMARK SMILES IDX 92 24 93 25 94 26 95 27 22 28 23 29 24 30 25 31 26 32 27 33
REMARK SMILES IDX 28 34 29 35 90 36 30 37 89 38 31 39 32 40 33 41 83 42 34 43
REMARK SMILES IDX 88 44 82 45 84 46 35 47 87 48 81 49 80 50 36 52 68 53 48 54
REMARK SMILES IDX 67 55 49 56 52 57 66 58 85 59 50 60 51 61 65 63 86 64 53 65
REMARK SMILES IDX 37 66 38 67 46 68 39 69 45 70 47 71 44 72 40 73 41 74 42 75
REMARK SMILES IDX 43 76 69 77 70 78 78 79 71 80 77 81 79 82 76 83 72 84 73 85
REMARK SMILES IDX 74 86 75 87 54 88 55 89 63 90 56 91 62 92 64 93 61 94 57 95
REMARK SMILES IDX 58 96 59 97 60 98
REMARK H PARENT 84 51 52 62
REMARK Flexibility Score: inf
ROOT
ATOM      1  C   UNL A   1      33.588  36.980  31.932  1.00  0.00     0.188 C 
ENDROOT
BRANCH   1   2
ATOM      2  C   UNL A   1      32.489  36.465  30.978  1.00  0.00     0.188 C 
BRANCH   2   3
ATOM      3  O   UNL A   1      32.735  35.146  30.527  1.00  0.00    -0.376 OA
BRANCH   3   4
ATOM      4  C   UNL A   1      33.645  34.969  29.457  1.00  0.00     0.202 C 
BRANCH   4   5
ATOM      5  C   UNL A   1      33.273  34.013  28.311  1.00  0.00     0.261 C 
BRANCH   5   6
ATOM      6  O   UNL A   1      33.644  32.639  28.489  1.00  0.00    -0.460 OA
BRANCH   6   7
ATOM      7  C   UNL A   1      34.797  32.233  27.916  1.00  0.00     0.338 C 
ATOM      8  O   UNL A   1      35.843  32.857  27.877  1.00  0.00    -0.246 OA
BRANCH   7   9
ATOM      9  C   UNL A   1      34.626  30.843  27.435  1.00  0.00     0.087 C 
ATOM     10  C   UNL A   1      32.813  26.372  25.969  1.00  0.00    -0.025 A 
ATOM     11  C   UNL A   1      34.104  26.902  26.159  1.00  0.00     0.052 A 
ATOM     12  C   UNL A   1      31.716  27.234  26.126  1.00  0.00     0.045 A 
ATOM     13  C   UNL A   1      34.291  28.239  26.531  1.00  0.00     0.128 A 
ATOM     14  C   UNL A   1      31.905  28.577  26.471  1.00  0.00     0.032 A 
ATOM     15  Cl  UNL A   1      30.086  26.684  25.974  1.00  0.00    -0.084 Cl
ATOM     16  C   UNL A   1      33.190  29.077  26.699  1.00  0.00     0.019 A 
ATOM     17  O   UNL A   1      35.583  28.637  26.722  1.00  0.00    -0.475 OA
ATOM     18  C   UNL A   1      33.379  30.445  27.154  1.00  0.00     0.027 C 
ATOM     19  C   UNL A   1      35.840  29.967  27.257  1.00  0.00     0.316 C 
BRANCH  10  20
ATOM     20  C   UNL A   1      32.663  24.893  25.673  1.00  0.00     0.040 C 
BRANCH  20  21
ATOM     21  C   UNL A   1      32.311  23.997  26.877  1.00  0.00    -0.013 C 
ATOM     22  C   UNL A   1      30.976  23.275  26.692  1.00  0.00     0.008 C 
ATOM     23  C   UNL A   1      33.429  22.974  27.100  1.00  0.00     0.008 C 
ENDBRANCH  20  21
ENDBRANCH  10  20
BRANCH  19  24
ATOM     24  C   UNL A   1      36.647  29.825  28.557  1.00  0.00     0.430 C 
ATOM     25  F   UNL A   1      35.875  30.068  29.645  1.00  0.00    -0.167 F 
ATOM     26  F   UNL A   1      37.137  28.571  28.709  1.00  0.00    -0.167 F 
ATOM     27  F   UNL A   1      37.694  30.678  28.606  1.00  0.00    -0.167 F 
ENDBRANCH  19  24
ENDBRANCH   7   9
ENDBRANCH   6   7
ENDBRANCH   5   6
ENDBRANCH   4   5
ENDBRANCH   3   4
ENDBRANCH   2   3
ENDBRANCH   1   2
BRANCH   1  28
ATOM     28  O   UNL A   1      33.562  36.598  33.304  1.00  0.00    -0.376 OA
BRANCH  28  29
ATOM     29  C   UNL A   1      34.522  35.658  33.776  1.00  0.00     0.202 C 
BRANCH  29  30
ATOM     30  C   UNL A   1      35.330  34.838  32.759  1.00  0.00     0.261 C 
BRANCH  30  31
ATOM     31  O   UNL A   1      35.733  33.538  33.216  1.00  0.00    -0.460 OA
BRANCH  31  32
ATOM     32  C   UNL A   1      35.620  32.534  32.307  1.00  0.00     0.338 C 
ATOM     33  O   UNL A   1      34.664  32.298  31.590  1.00  0.00    -0.246 OA
BRANCH  32  34
ATOM     34  C   UNL A   1      36.934  31.873  32.155  1.00  0.00     0.060 A 
ATOM     35  C   UNL A   1      37.952  32.456  31.400  1.00  0.00     0.016 A 
ATOM     36  C   UNL A   1      37.136  30.639  32.789  1.00  0.00     0.016 A 
ATOM     37  C   UNL A   1      39.185  31.802  31.290  1.00  0.00     0.010 A 
ATOM     38  C   UNL A   1      38.358  29.979  32.659  1.00  0.00     0.010 A 
ATOM     39  C   UNL A   1      39.397  30.562  31.920  1.00  0.00    -0.014 A 
BRANCH  39  40
ATOM     40  C   UNL A   1      40.745  29.945  31.932  1.00  0.00     0.031 A 
ATOM     41  C   UNL A   1      41.790  30.356  32.923  1.00  0.00     0.074 A 
ATOM     42  C   UNL A   1      41.026  29.017  30.997  1.00  0.00     0.049 A 
ATOM     43  N   UNL A   1      42.995  29.876  33.087  1.00  0.00    -0.248 NA
ATOM     44  C   UNL A   1      41.443  31.445  33.849  1.00  0.00     0.031 C 
ATOM     45  C   UNL A   1      40.089  28.568  29.967  1.00  0.00     0.029 A 
ATOM     46  N   UNL A   1      42.167  28.296  30.750  1.00  0.00    -0.354 N 
ATOM     47  C   UNL A   1      43.547  30.582  34.148  1.00  0.00     0.074 A 
ATOM     48  C   UNL A   1      42.561  31.560  34.558  1.00  0.00     0.031 C 
ATOM     49  C   UNL A   1      40.688  27.643  29.205  1.00  0.00     0.029 A 
ATOM     50  C   UNL A   1      42.061  27.453  29.669  1.00  0.00     0.049 A 
ATOM     51  H   UNL A   1      42.983  28.375  31.295  1.00  0.00     0.167 HD
ATOM     52  C   UNL A   1      44.758  30.408  34.732  1.00  0.00     0.034 A 
ATOM     53  C   UNL A   1      42.965  26.621  29.109  1.00  0.00     0.034 A 
ATOM     54  C   UNL A   1      45.730  29.435  34.295  1.00  0.00     0.049 A 
ATOM     55  C   UNL A   1      44.323  26.484  29.748  1.00  0.00     0.074 A 
ATOM     56  C   UNL A   1      46.961  29.148  34.860  1.00  0.00     0.029 A 
ATOM     57  N   UNL A   1      45.600  28.608  33.188  1.00  0.00    -0.354 N 
ATOM     58  N   UNL A   1      44.788  27.071  30.825  1.00  0.00    -0.248 NA
ATOM     59  C   UNL A   1      45.277  25.564  29.111  1.00  0.00     0.031 C 
ATOM     60  C   UNL A   1      47.603  28.207  34.057  1.00  0.00     0.029 A 
ATOM     61  C   UNL A   1      46.744  27.841  33.033  1.00  0.00     0.049 A 
ATOM     62  H   UNL A   1      44.812  28.572  32.600  1.00  0.00     0.167 HD
ATOM     63  C   UNL A   1      46.074  26.571  31.012  1.00  0.00     0.074 A 
ATOM     64  C   UNL A   1      46.309  25.621  29.945  1.00  0.00     0.031 C 
ATOM     65  C   UNL A   1      46.972  26.876  31.981  1.00  0.00     0.034 A 
BRANCH  52  66
ATOM     66  C   UNL A   1      45.118  31.248  35.933  1.00  0.00     0.023 A 
ATOM     67  C   UNL A   1      44.642  30.901  37.211  1.00  0.00     0.031 A 
ATOM     68  C   UNL A   1      45.780  32.480  35.783  1.00  0.00     0.131 A 
ATOM     69  C   UNL A   1      44.796  31.793  38.279  1.00  0.00     0.055 A 
ATOM     70  C   UNL A   1      45.967  33.349  36.859  1.00  0.00     0.041 A 
ATOM     71  F   UNL A   1      46.246  32.862  34.582  1.00  0.00    -0.206 F 
ATOM     72  C   UNL A   1      45.460  33.013  38.111  1.00  0.00     0.022 A 
BRANCH  69  73
ATOM     73  S   UNL A   1      44.072  31.449  39.907  1.00  0.00     0.124 S 
ATOM     74  O   UNL A   1      44.637  32.526  40.718  1.00  0.00    -0.237 OA
ATOM     75  O   UNL A   1      42.642  31.558  39.636  1.00  0.00    -0.237 OA
ATOM     76  O   UNL A   1      44.556  30.111  40.229  1.00  0.00    -0.744 OA
ENDBRANCH  69  73
ENDBRANCH  52  66
BRANCH  53  77
ATOM     77  C   UNL A   1      42.562  25.814  27.922  1.00  0.00     0.023 A 
ATOM     78  C   UNL A   1      42.117  24.486  28.069  1.00  0.00     0.031 A 
ATOM     79  C   UNL A   1      42.734  26.312  26.621  1.00  0.00     0.131 A 
ATOM     80  C   UNL A   1      41.930  23.685  26.935  1.00  0.00     0.055 A 
ATOM     81  C   UNL A   1      42.477  25.532  25.493  1.00  0.00     0.041 A 
ATOM     82  F   UNL A   1      43.173  27.567  26.431  1.00  0.00    -0.206 F 
ATOM     83  C   UNL A   1      42.090  24.205  25.647  1.00  0.00     0.022 A 
BRANCH  80  84
ATOM     84  S   UNL A   1      41.608  21.906  27.097  1.00  0.00     0.124 S 
ATOM     85  O   UNL A   1      41.447  21.498  25.705  1.00  0.00    -0.237 OA
ATOM     86  O   UNL A   1      42.830  21.443  27.753  1.00  0.00    -0.237 OA
ATOM     87  O   UNL A   1      40.403  21.846  27.917  1.00  0.00    -0.744 OA
ENDBRANCH  80  84
ENDBRANCH  53  77
BRANCH  65  88
ATOM     88  C   UNL A   1      48.317  26.186  31.979  1.00  0.00     0.023 A 
ATOM     89  C   UNL A   1      48.562  25.126  32.875  1.00  0.00     0.031 A 
ATOM     90  C   UNL A   1      49.399  26.696  31.242  1.00  0.00     0.131 A 
ATOM     91  C   UNL A   1      49.868  24.653  33.056  1.00  0.00     0.055 A 
ATOM     92  C   UNL A   1      50.690  26.184  31.387  1.00  0.00     0.041 A 
ATOM     93  F   UNL A   1      49.219  27.711  30.382  1.00  0.00    -0.206 F 
ATOM     94  C   UNL A   1      50.932  25.172  32.312  1.00  0.00     0.022 A 
BRANCH  91  95
ATOM     95  S   UNL A   1      50.249  23.421  34.333  1.00  0.00     0.124 S 
ATOM     96  O   UNL A   1      49.123  22.499  34.211  1.00  0.00    -0.237 OA
ATOM     97  O   UNL A   1      51.534  22.898  33.879  1.00  0.00    -0.237 OA
ATOM     98  O   UNL A   1      50.285  24.195  35.569  1.00  0.00    -0.744 OA
ENDBRANCH  91  95
ENDBRANCH  65  88
ENDBRANCH  39  40
ENDBRANCH  32  34
ENDBRANCH  31  32
ENDBRANCH  30  31
ENDBRANCH  29  30
ENDBRANCH  28  29
ENDBRANCH   1  28
TORSDOF 23
ENDMDL
