MODEL 1
REMARK VINA RESULT:     -10.9      0.000      0.000
REMARK SMILES C[C@H](NC(=O)c1cccc(NC(=O)c2ccccc2C(=O)OCCOCCOCCOC(=O)c2ccc(-c3c4nc(c(-c5cc(S(=O)(=O)[O-])ccc5F)c5ccc([nH]5)c(-c5cc(S(=O)(=O)[O-])ccc5F)c5nc(c(-c6cc(S(=O)(=O)[O-])ccc6F)c6ccc3[nH]6)C=C5)C=C4)cc2)c1)c1ccccc1
REMARK SMILES IDX 26 1 25 2 24 3 23 4 22 5 20 6 21 7 19 8 14 9 15 10 16 11
REMARK SMILES IDX 18 12 17 13 12 14 11 15 13 17 10 18 6 19 7 20 97 21 8 22
REMARK SMILES IDX 9 23 4 24 3 25 5 27 2 28 1 29 98 30 99 31 103 32 100 33
REMARK SMILES IDX 102 34 101 35 27 36 28 37 29 38 30 39 31 40 32 41 33 42
REMARK SMILES IDX 34 43 35 44 96 45 36 46 95 47 37 48 38 49 39 50 89 51 40 52
REMARK SMILES IDX 94 53 88 54 90 55 41 56 93 57 87 58 86 59 42 61 74 62 54 63
REMARK SMILES IDX 73 64 55 65 58 66 72 67 91 68 56 69 57 70 71 72 92 73 59 74
REMARK SMILES IDX 43 75 44 76 52 77 45 78 51 79 53 80 50 81 46 82 47 83 48 84
REMARK SMILES IDX 49 85 75 86 76 87 84 88 77 89 83 90 85 91 82 92 78 93 79 94
REMARK SMILES IDX 80 95 81 96 60 97 61 98 69 99 62 100 68 101 70 102 67 103
REMARK SMILES IDX 63 104 64 105 65 106 66 107
REMARK H PARENT 11 16 3 26 90 60 58 71
REMARK Flexibility Score: inf
ROOT
ATOM      1  C   UNL A   1      33.828  33.700  28.004  1.00  0.00     0.188 C 
ENDROOT
BRANCH   1   2
ATOM      2  O   UNL A   1      34.762  32.707  27.600  1.00  0.00    -0.376 OA
BRANCH   2   3
ATOM      3  C   UNL A   1      34.495  31.362  27.940  1.00  0.00     0.202 C 
BRANCH   3   4
ATOM      4  C   UNL A   1      33.179  30.760  27.463  1.00  0.00     0.261 C 
BRANCH   4   5
ATOM      5  O   UNL A   1      33.182  30.218  26.142  1.00  0.00    -0.460 OA
BRANCH   5   6
ATOM      6  C   UNL A   1      32.349  29.173  25.953  1.00  0.00     0.339 C 
ATOM      7  O   UNL A   1      32.069  28.309  26.768  1.00  0.00    -0.246 OA
BRANCH   6   8
ATOM      8  C   UNL A   1      31.694  29.256  24.633  1.00  0.00     0.072 A 
ATOM      9  C   UNL A   1      32.205  28.735  23.432  1.00  0.00     0.054 A 
ATOM     10  C   UNL A   1      31.469  28.956  22.249  1.00  0.00     0.015 A 
ATOM     11  C   UNL A   1      30.243  29.630  22.266  1.00  0.00     0.001 A 
ATOM     12  C   UNL A   1      30.450  29.919  24.642  1.00  0.00     0.016 A 
ATOM     13  C   UNL A   1      29.729  30.106  23.466  1.00  0.00     0.001 A 
BRANCH   9  14
ATOM     14  C   UNL A   1      33.505  28.030  23.246  1.00  0.00     0.256 C 
ATOM     15  N   UNL A   1      33.710  26.676  23.407  1.00  0.00    -0.322 N 
ATOM     16  H   UNL A   1      34.659  26.415  23.385  1.00  0.00     0.170 HD
ATOM     17  O   UNL A   1      34.485  28.721  22.945  1.00  0.00    -0.269 OA
BRANCH  15  18
ATOM     18  C   UNL A   1      32.833  25.598  23.598  1.00  0.00     0.042 A 
ATOM     19  C   UNL A   1      31.716  24.162  25.213  1.00  0.00     0.041 A 
ATOM     20  C   UNL A   1      30.839  23.745  24.205  1.00  0.00     0.014 A 
ATOM     21  C   UNL A   1      32.735  25.067  24.898  1.00  0.00     0.040 A 
ATOM     22  C   UNL A   1      31.005  24.190  22.893  1.00  0.00     0.003 A 
ATOM     23  C   UNL A   1      32.025  25.088  22.584  1.00  0.00     0.026 A 
BRANCH  19  24
ATOM     24  C   UNL A   1      31.624  23.479  26.526  1.00  0.00     0.251 C 
ATOM     25  N   UNL A   1      32.116  22.225  26.780  1.00  0.00    -0.346 N 
ATOM     26  H   UNL A   1      31.830  21.851  27.644  1.00  0.00     0.164 HD
ATOM     27  O   UNL A   1      31.062  24.075  27.446  1.00  0.00    -0.269 OA
BRANCH  25  28
ATOM     28  C   UNL A   1      32.986  21.341  26.014  1.00  0.00     0.109 C 
ATOM     29  C   UNL A   1      32.155  20.567  24.984  1.00  0.00     0.036 C 
BRANCH  28  30
ATOM     30  C   UNL A   1      34.151  22.061  25.344  1.00  0.00    -0.026 A 
ATOM     31  C   UNL A   1      35.130  22.695  26.132  1.00  0.00     0.006 A 
ATOM     32  C   UNL A   1      34.279  22.154  23.950  1.00  0.00     0.006 A 
ATOM     33  C   UNL A   1      36.152  23.451  25.554  1.00  0.00     0.000 A 
ATOM     34  C   UNL A   1      35.309  22.902  23.370  1.00  0.00     0.000 A 
ATOM     35  C   UNL A   1      36.235  23.563  24.171  1.00  0.00     0.000 A 
ENDBRANCH  28  30
ENDBRANCH  25  28
ENDBRANCH  19  24
ENDBRANCH  15  18
ENDBRANCH   9  14
ENDBRANCH   6   8
ENDBRANCH   5   6
ENDBRANCH   4   5
ENDBRANCH   3   4
ENDBRANCH   2   3
ENDBRANCH   1   2
BRANCH   1  36
ATOM     36  C   UNL A   1      34.272  35.183  28.047  1.00  0.00     0.188 C 
BRANCH  36  37
ATOM     37  O   UNL A   1      33.733  35.897  29.146  1.00  0.00    -0.376 OA
BRANCH  37  38
ATOM     38  C   UNL A   1      33.214  35.126  30.214  1.00  0.00     0.202 C 
BRANCH  38  39
ATOM     39  C   UNL A   1      34.120  34.868  31.430  1.00  0.00     0.261 C 
BRANCH  39  40
ATOM     40  O   UNL A   1      35.351  34.171  31.188  1.00  0.00    -0.460 OA
BRANCH  40  41
ATOM     41  C   UNL A   1      35.500  32.930  31.709  1.00  0.00     0.338 C 
ATOM     42  O   UNL A   1      34.631  32.253  32.228  1.00  0.00    -0.246 OA
BRANCH  41  43
ATOM     43  C   UNL A   1      36.852  32.455  31.316  1.00  0.00     0.060 A 
ATOM     44  C   UNL A   1      37.350  32.766  30.041  1.00  0.00     0.016 A 
ATOM     45  C   UNL A   1      37.665  31.798  32.245  1.00  0.00     0.016 A 
ATOM     46  C   UNL A   1      38.656  32.403  29.687  1.00  0.00     0.010 A 
ATOM     47  C   UNL A   1      38.955  31.404  31.878  1.00  0.00     0.010 A 
ATOM     48  C   UNL A   1      39.447  31.676  30.588  1.00  0.00    -0.014 A 
BRANCH  48  49
ATOM     49  C   UNL A   1      40.636  30.920  30.116  1.00  0.00     0.031 A 
ATOM     50  C   UNL A   1      41.931  31.685  30.035  1.00  0.00     0.074 A 
ATOM     51  C   UNL A   1      40.580  29.637  29.714  1.00  0.00     0.049 A 
ATOM     52  N   UNL A   1      43.066  31.355  29.477  1.00  0.00    -0.248 NA
ATOM     53  C   UNL A   1      41.928  33.019  30.656  1.00  0.00     0.031 C 
ATOM     54  C   UNL A   1      39.409  28.769  29.801  1.00  0.00     0.029 A 
ATOM     55  N   UNL A   1      41.541  28.850  29.123  1.00  0.00    -0.354 N 
ATOM     56  C   UNL A   1      43.905  32.449  29.665  1.00  0.00     0.074 A 
ATOM     57  C   UNL A   1      43.141  33.456  30.365  1.00  0.00     0.031 C 
ATOM     58  C   UNL A   1      39.713  27.575  29.255  1.00  0.00     0.029 A 
ATOM     59  C   UNL A   1      41.079  27.613  28.733  1.00  0.00     0.049 A 
ATOM     60  H   UNL A   1      42.471  29.144  28.992  1.00  0.00     0.167 HD
ATOM     61  C   UNL A   1      45.195  32.603  29.281  1.00  0.00     0.034 A 
ATOM     62  C   UNL A   1      41.679  26.647  28.002  1.00  0.00     0.034 A 
ATOM     63  C   UNL A   1      45.933  31.604  28.555  1.00  0.00     0.049 A 
ATOM     64  C   UNL A   1      43.088  26.878  27.491  1.00  0.00     0.074 A 
ATOM     65  C   UNL A   1      47.238  31.657  28.101  1.00  0.00     0.029 A 
ATOM     66  N   UNL A   1      45.423  30.373  28.164  1.00  0.00    -0.354 N 
ATOM     67  N   UNL A   1      43.868  27.922  27.655  1.00  0.00    -0.248 NA
ATOM     68  C   UNL A   1      43.694  25.800  26.695  1.00  0.00     0.031 C 
ATOM     69  C   UNL A   1      47.495  30.490  27.375  1.00  0.00     0.029 A 
ATOM     70  C   UNL A   1      46.380  29.669  27.452  1.00  0.00     0.049 A 
ATOM     71  H   UNL A   1      44.515  30.048  28.361  1.00  0.00     0.167 HD
ATOM     72  C   UNL A   1      45.070  27.605  27.023  1.00  0.00     0.074 A 
ATOM     73  C   UNL A   1      44.911  26.277  26.470  1.00  0.00     0.031 C 
ATOM     74  C   UNL A   1      46.208  28.337  26.921  1.00  0.00     0.034 A 
BRANCH  61  75
ATOM     75  C   UNL A   1      45.845  33.929  29.584  1.00  0.00     0.023 A 
ATOM     76  C   UNL A   1      46.522  34.160  30.795  1.00  0.00     0.031 A 
ATOM     77  C   UNL A   1      45.731  34.997  28.678  1.00  0.00     0.131 A 
ATOM     78  C   UNL A   1      46.990  35.447  31.099  1.00  0.00     0.055 A 
ATOM     79  C   UNL A   1      46.276  36.253  28.949  1.00  0.00     0.041 A 
ATOM     80  F   UNL A   1      45.068  34.844  27.520  1.00  0.00    -0.206 F 
ATOM     81  C   UNL A   1      46.895  36.488  30.174  1.00  0.00     0.022 A 
BRANCH  78  82
ATOM     82  S   UNL A   1      47.578  35.777  32.782  1.00  0.00     0.124 S 
ATOM     83  O   UNL A   1      47.354  37.216  32.896  1.00  0.00    -0.237 OA
ATOM     84  O   UNL A   1      46.710  34.931  33.592  1.00  0.00    -0.237 OA
ATOM     85  O   UNL A   1      48.982  35.374  32.740  1.00  0.00    -0.744 OA
ENDBRANCH  78  82
ENDBRANCH  61  75
BRANCH  62  86
ATOM     86  C   UNL A   1      40.949  25.394  27.646  1.00  0.00     0.023 A 
ATOM     87  C   UNL A   1      41.525  24.131  27.858  1.00  0.00     0.031 A 
ATOM     88  C   UNL A   1      39.692  25.442  27.015  1.00  0.00     0.131 A 
ATOM     89  C   UNL A   1      40.871  22.974  27.403  1.00  0.00     0.055 A 
ATOM     90  C   UNL A   1      39.020  24.286  26.614  1.00  0.00     0.041 A 
ATOM     91  F   UNL A   1      39.098  26.622  26.775  1.00  0.00    -0.206 F 
ATOM     92  C   UNL A   1      39.615  23.041  26.796  1.00  0.00     0.022 A 
BRANCH  89  93
ATOM     93  S   UNL A   1      41.729  21.380  27.532  1.00  0.00     0.124 S 
ATOM     94  O   UNL A   1      41.901  21.023  26.127  1.00  0.00    -0.237 OA
ATOM     95  O   UNL A   1      42.942  21.745  28.254  1.00  0.00    -0.237 OA
ATOM     96  O   UNL A   1      40.789  20.545  28.277  1.00  0.00    -0.744 OA
ENDBRANCH  89  93
ENDBRANCH  62  86
BRANCH  74  97
ATOM     97  C   UNL A   1      47.406  27.691  26.267  1.00  0.00     0.023 A 
ATOM     98  C   UNL A   1      48.434  27.087  27.007  1.00  0.00     0.031 A 
ATOM     99  C   UNL A   1      47.484  27.647  24.862  1.00  0.00     0.131 A 
ATOM    100  C   UNL A   1      49.516  26.489  26.337  1.00  0.00     0.055 A 
ATOM    101  C   UNL A   1      48.534  27.007  24.202  1.00  0.00     0.041 A 
ATOM    102  F   UNL A   1      46.526  28.208  24.106  1.00  0.00    -0.206 F 
ATOM    103  C   UNL A   1      49.562  26.429  24.942  1.00  0.00     0.022 A 
BRANCH 100 104
ATOM    104  S   UNL A   1      50.897  25.834  27.314  1.00  0.00     0.124 S 
ATOM    105  O   UNL A   1      50.518  24.434  27.477  1.00  0.00    -0.237 OA
ATOM    106  O   UNL A   1      52.043  26.087  26.446  1.00  0.00    -0.237 OA
ATOM    107  O   UNL A   1      50.862  26.633  28.538  1.00  0.00    -0.744 OA
ENDBRANCH 100 104
ENDBRANCH  74  97
ENDBRANCH  48  49
ENDBRANCH  41  43
ENDBRANCH  40  41
ENDBRANCH  39  40
ENDBRANCH  38  39
ENDBRANCH  37  38
ENDBRANCH  36  37
ENDBRANCH   1  36
TORSDOF 25
ENDMDL
MODEL 2
REMARK VINA RESULT:     -10.6      3.685      4.172
REMARK SMILES C[C@H](NC(=O)c1cccc(NC(=O)c2ccccc2C(=O)OCCOCCOCCOC(=O)c2ccc(-c3c4nc(c(-c5cc(S(=O)(=O)[O-])ccc5F)c5ccc([nH]5)c(-c5cc(S(=O)(=O)[O-])ccc5F)c5nc(c(-c6cc(S(=O)(=O)[O-])ccc6F)c6ccc3[nH]6)C=C5)C=C4)cc2)c1)c1ccccc1
REMARK SMILES IDX 26 1 25 2 24 3 23 4 22 5 20 6 21 7 19 8 14 9 15 10 16 11
REMARK SMILES IDX 18 12 17 13 12 14 11 15 13 17 10 18 6 19 7 20 97 21 8 22
REMARK SMILES IDX 9 23 4 24 3 25 5 27 2 28 1 29 98 30 99 31 103 32 100 33
REMARK SMILES IDX 102 34 101 35 27 36 28 37 29 38 30 39 31 40 32 41 33 42
REMARK SMILES IDX 34 43 35 44 96 45 36 46 95 47 37 48 38 49 39 50 89 51 40 52
REMARK SMILES IDX 94 53 88 54 90 55 41 56 93 57 87 58 86 59 42 61 74 62 54 63
REMARK SMILES IDX 73 64 55 65 58 66 72 67 91 68 56 69 57 70 71 72 92 73 59 74
REMARK SMILES IDX 43 75 44 76 52 77 45 78 51 79 53 80 50 81 46 82 47 83 48 84
REMARK SMILES IDX 49 85 75 86 76 87 84 88 77 89 83 90 85 91 82 92 78 93 79 94
REMARK SMILES IDX 80 95 81 96 60 97 61 98 69 99 62 100 68 101 70 102 67 103
REMARK SMILES IDX 63 104 64 105 65 106 66 107
REMARK H PARENT 11 16 3 26 90 60 58 71
REMARK Flexibility Score: inf
ROOT
ATOM      1  C   UNL A   1      33.945  33.596  28.051  1.00  0.00     0.188 C 
ENDROOT
BRANCH   1   2
ATOM      2  O   UNL A   1      34.891  32.563  27.804  1.00  0.00    -0.376 OA
BRANCH   2   3
ATOM      3  C   UNL A   1      34.422  31.232  27.730  1.00  0.00     0.202 C 
BRANCH   3   4
ATOM      4  C   UNL A   1      33.138  30.978  26.951  1.00  0.00     0.261 C 
BRANCH   4   5
ATOM      5  O   UNL A   1      33.191  29.931  25.982  1.00  0.00    -0.460 OA
BRANCH   5   6
ATOM      6  C   UNL A   1      32.077  29.172  25.901  1.00  0.00     0.339 C 
ATOM      7  O   UNL A   1      31.516  28.602  26.822  1.00  0.00    -0.246 OA
BRANCH   6   8
ATOM      8  C   UNL A   1      31.520  29.202  24.534  1.00  0.00     0.072 A 
ATOM      9  C   UNL A   1      32.143  28.685  23.386  1.00  0.00     0.054 A 
ATOM     10  C   UNL A   1      31.489  28.851  22.147  1.00  0.00     0.015 A 
ATOM     11  C   UNL A   1      30.237  29.469  22.059  1.00  0.00     0.001 A 
ATOM     12  C   UNL A   1      30.251  29.808  24.437  1.00  0.00     0.016 A 
ATOM     13  C   UNL A   1      29.614  29.941  23.207  1.00  0.00     0.001 A 
BRANCH   9  14
ATOM     14  C   UNL A   1      33.484  28.037  23.311  1.00  0.00     0.256 C 
ATOM     15  N   UNL A   1      33.740  26.702  23.543  1.00  0.00    -0.322 N 
ATOM     16  H   UNL A   1      34.699  26.487  23.591  1.00  0.00     0.170 HD
ATOM     17  O   UNL A   1      34.448  28.763  23.044  1.00  0.00    -0.269 OA
BRANCH  15  18
ATOM     18  C   UNL A   1      32.903  25.591  23.724  1.00  0.00     0.042 A 
ATOM     19  C   UNL A   1      31.840  24.101  25.326  1.00  0.00     0.041 A 
ATOM     20  C   UNL A   1      30.978  23.661  24.314  1.00  0.00     0.014 A 
ATOM     21  C   UNL A   1      32.824  25.045  25.019  1.00  0.00     0.040 A 
ATOM     22  C   UNL A   1      31.127  24.123  23.006  1.00  0.00     0.003 A 
ATOM     23  C   UNL A   1      32.113  25.061  22.705  1.00  0.00     0.026 A 
BRANCH  19  24
ATOM     24  C   UNL A   1      31.773  23.403  26.632  1.00  0.00     0.251 C 
ATOM     25  N   UNL A   1      32.308  22.164  26.874  1.00  0.00    -0.346 N 
ATOM     26  H   UNL A   1      32.035  21.772  27.735  1.00  0.00     0.164 HD
ATOM     27  O   UNL A   1      31.193  23.971  27.559  1.00  0.00    -0.269 OA
BRANCH  25  28
ATOM     28  C   UNL A   1      33.206  21.317  26.098  1.00  0.00     0.109 C 
ATOM     29  C   UNL A   1      32.407  20.569  25.024  1.00  0.00     0.036 C 
BRANCH  28  30
ATOM     30  C   UNL A   1      34.375  22.074  25.480  1.00  0.00    -0.026 A 
ATOM     31  C   UNL A   1      35.272  22.776  26.306  1.00  0.00     0.006 A 
ATOM     32  C   UNL A   1      34.587  22.133  24.094  1.00  0.00     0.006 A 
ATOM     33  C   UNL A   1      36.293  23.565  25.769  1.00  0.00     0.000 A 
ATOM     34  C   UNL A   1      35.616  22.913  23.555  1.00  0.00     0.000 A 
ATOM     35  C   UNL A   1      36.458  23.640  24.391  1.00  0.00     0.000 A 
ENDBRANCH  28  30
ENDBRANCH  25  28
ENDBRANCH  19  24
ENDBRANCH  15  18
ENDBRANCH   9  14
ENDBRANCH   6   8
ENDBRANCH   5   6
ENDBRANCH   4   5
ENDBRANCH   3   4
ENDBRANCH   2   3
ENDBRANCH   1   2
BRANCH   1  36
ATOM     36  C   UNL A   1      34.360  35.071  27.827  1.00  0.00     0.188 C 
BRANCH  36  37
ATOM     37  O   UNL A   1      33.993  35.925  28.896  1.00  0.00    -0.376 OA
BRANCH  37  38
ATOM     38  C   UNL A   1      33.421  35.308  30.036  1.00  0.00     0.202 C 
BRANCH  38  39
ATOM     39  C   UNL A   1      34.301  35.135  31.285  1.00  0.00     0.261 C 
BRANCH  39  40
ATOM     40  O   UNL A   1      35.347  34.156  31.214  1.00  0.00    -0.460 OA
BRANCH  40  41
ATOM     41  C   UNL A   1      35.108  32.921  31.714  1.00  0.00     0.338 C 
ATOM     42  O   UNL A   1      34.026  32.366  31.789  1.00  0.00    -0.246 OA
BRANCH  41  43
ATOM     43  C   UNL A   1      36.430  32.277  31.930  1.00  0.00     0.060 A 
ATOM     44  C   UNL A   1      37.579  32.850  31.361  1.00  0.00     0.016 A 
ATOM     45  C   UNL A   1      36.546  31.175  32.782  1.00  0.00     0.016 A 
ATOM     46  C   UNL A   1      38.842  32.308  31.627  1.00  0.00     0.010 A 
ATOM     47  C   UNL A   1      37.804  30.613  33.018  1.00  0.00     0.010 A 
ATOM     48  C   UNL A   1      38.955  31.156  32.418  1.00  0.00    -0.014 A 
BRANCH  48  49
ATOM     49  C   UNL A   1      40.184  30.322  32.376  1.00  0.00     0.031 A 
ATOM     50  C   UNL A   1      41.254  30.648  33.386  1.00  0.00     0.074 A 
ATOM     51  C   UNL A   1      40.391  29.363  31.456  1.00  0.00     0.049 A 
ATOM     52  N   UNL A   1      42.492  30.237  33.458  1.00  0.00    -0.248 NA
ATOM     53  C   UNL A   1      40.865  31.587  34.451  1.00  0.00     0.031 C 
ATOM     54  C   UNL A   1      39.417  28.909  30.467  1.00  0.00     0.029 A 
ATOM     55  N   UNL A   1      41.514  28.614  31.192  1.00  0.00    -0.354 N 
ATOM     56  C   UNL A   1      43.035  30.883  34.564  1.00  0.00     0.074 A 
ATOM     57  C   UNL A   1      41.999  31.727  35.115  1.00  0.00     0.031 C 
ATOM     58  C   UNL A   1      39.995  27.976  29.685  1.00  0.00     0.029 A 
ATOM     59  C   UNL A   1      41.393  27.808  30.082  1.00  0.00     0.049 A 
ATOM     60  H   UNL A   1      42.327  28.650  31.745  1.00  0.00     0.167 HD
ATOM     61  C   UNL A   1      44.287  30.787  35.071  1.00  0.00     0.034 A 
ATOM     62  C   UNL A   1      42.318  27.060  29.441  1.00  0.00     0.034 A 
ATOM     63  C   UNL A   1      45.318  29.967  34.492  1.00  0.00     0.049 A 
ATOM     64  C   UNL A   1      43.742  27.044  29.960  1.00  0.00     0.074 A 
ATOM     65  C   UNL A   1      46.626  29.804  34.910  1.00  0.00     0.029 A 
ATOM     66  N   UNL A   1      45.160  29.181  33.358  1.00  0.00    -0.354 N 
ATOM     67  N   UNL A   1      44.254  27.672  30.995  1.00  0.00    -0.248 NA
ATOM     68  C   UNL A   1      44.713  26.220  29.224  1.00  0.00     0.031 C 
ATOM     69  C   UNL A   1      47.278  28.977  33.990  1.00  0.00     0.029 A 
ATOM     70  C   UNL A   1      46.354  28.552  33.048  1.00  0.00     0.049 A 
ATOM     71  H   UNL A   1      44.324  29.086  32.848  1.00  0.00     0.167 HD
ATOM     72  C   UNL A   1      45.591  27.281  31.058  1.00  0.00     0.074 A 
ATOM     73  C   UNL A   1      45.809  26.369  29.955  1.00  0.00     0.031 C 
ATOM     74  C   UNL A   1      46.549  27.631  31.953  1.00  0.00     0.034 A 
BRANCH  61  75
ATOM     75  C   UNL A   1      44.610  31.648  36.265  1.00  0.00     0.023 A 
ATOM     76  C   UNL A   1      44.207  31.291  37.564  1.00  0.00     0.031 A 
ATOM     77  C   UNL A   1      45.273  32.876  36.094  1.00  0.00     0.131 A 
ATOM     78  C   UNL A   1      44.402  32.186  38.627  1.00  0.00     0.055 A 
ATOM     79  C   UNL A   1      45.542  33.722  37.171  1.00  0.00     0.041 A 
ATOM     80  F   UNL A   1      45.653  33.283  34.873  1.00  0.00    -0.206 F 
ATOM     81  C   UNL A   1      45.090  33.387  38.444  1.00  0.00     0.022 A 
BRANCH  78  82
ATOM     82  S   UNL A   1      43.602  31.828  40.215  1.00  0.00     0.124 S 
ATOM     83  O   UNL A   1      44.140  30.506  40.525  1.00  0.00    -0.237 OA
ATOM     84  O   UNL A   1      44.071  32.921  41.058  1.00  0.00    -0.237 OA
ATOM     85  O   UNL A   1      42.177  31.853  39.894  1.00  0.00    -0.744 OA
ENDBRANCH  78  82
ENDBRANCH  61  75
BRANCH  62  86
ATOM     86  C   UNL A   1      41.965  26.305  28.201  1.00  0.00     0.023 A 
ATOM     87  C   UNL A   1      41.758  24.916  28.228  1.00  0.00     0.031 A 
ATOM     88  C   UNL A   1      41.905  26.952  26.952  1.00  0.00     0.131 A 
ATOM     89  C   UNL A   1      41.548  24.213  27.031  1.00  0.00     0.055 A 
ATOM     90  C   UNL A   1      41.640  26.257  25.771  1.00  0.00     0.041 A 
ATOM     91  F   UNL A   1      42.106  28.276  26.864  1.00  0.00    -0.206 F 
ATOM     92  C   UNL A   1      41.473  24.876  25.803  1.00  0.00     0.022 A 
BRANCH  89  93
ATOM     93  S   UNL A   1      41.467  22.401  27.087  1.00  0.00     0.124 S 
ATOM     94  O   UNL A   1      41.991  22.041  25.773  1.00  0.00    -0.237 OA
ATOM     95  O   UNL A   1      42.325  22.094  28.226  1.00  0.00    -0.237 OA
ATOM     96  O   UNL A   1      40.045  22.129  27.288  1.00  0.00    -0.744 OA
ENDBRANCH  89  93
ENDBRANCH  62  86
BRANCH  74  97
ATOM     97  C   UNL A   1      47.897  26.961  31.841  1.00  0.00     0.023 A 
ATOM     98  C   UNL A   1      48.263  25.866  32.640  1.00  0.00     0.031 A 
ATOM     99  C   UNL A   1      48.814  27.412  30.873  1.00  0.00     0.131 A 
ATOM    100  C   UNL A   1      49.528  25.277  32.477  1.00  0.00     0.055 A 
ATOM    101  C   UNL A   1      50.048  26.791  30.680  1.00  0.00     0.041 A 
ATOM    102  F   UNL A   1      48.514  28.455  30.081  1.00  0.00    -0.206 F 
ATOM    103  C   UNL A   1      50.414  25.720  31.491  1.00  0.00     0.022 A 
BRANCH 100 104
ATOM    104  S   UNL A   1      50.030  23.951  33.609  1.00  0.00     0.124 S 
ATOM    105  O   UNL A   1      48.778  23.644  34.292  1.00  0.00    -0.237 OA
ATOM    106  O   UNL A   1      50.524  22.927  32.693  1.00  0.00    -0.237 OA
ATOM    107  O   UNL A   1      51.054  24.580  34.442  1.00  0.00    -0.744 OA
ENDBRANCH 100 104
ENDBRANCH  74  97
ENDBRANCH  48  49
ENDBRANCH  41  43
ENDBRANCH  40  41
ENDBRANCH  39  40
ENDBRANCH  38  39
ENDBRANCH  37  38
ENDBRANCH  36  37
ENDBRANCH   1  36
TORSDOF 25
ENDMDL
MODEL 3
REMARK VINA RESULT:     -10.1      4.370      8.992
REMARK SMILES C[C@H](NC(=O)c1cccc(NC(=O)c2ccccc2C(=O)OCCOCCOCCOC(=O)c2ccc(-c3c4nc(c(-c5cc(S(=O)(=O)[O-])ccc5F)c5ccc([nH]5)c(-c5cc(S(=O)(=O)[O-])ccc5F)c5nc(c(-c6cc(S(=O)(=O)[O-])ccc6F)c6ccc3[nH]6)C=C5)C=C4)cc2)c1)c1ccccc1
REMARK SMILES IDX 26 1 25 2 24 3 23 4 22 5 20 6 21 7 19 8 14 9 15 10 16 11
REMARK SMILES IDX 18 12 17 13 12 14 11 15 13 17 10 18 6 19 7 20 97 21 8 22
REMARK SMILES IDX 9 23 4 24 3 25 5 27 2 28 1 29 98 30 99 31 103 32 100 33
REMARK SMILES IDX 102 34 101 35 27 36 28 37 29 38 30 39 31 40 32 41 33 42
REMARK SMILES IDX 34 43 35 44 96 45 36 46 95 47 37 48 38 49 39 50 89 51 40 52
REMARK SMILES IDX 94 53 88 54 90 55 41 56 93 57 87 58 86 59 42 61 74 62 54 63
REMARK SMILES IDX 73 64 55 65 58 66 72 67 91 68 56 69 57 70 71 72 92 73 59 74
REMARK SMILES IDX 43 75 44 76 52 77 45 78 51 79 53 80 50 81 46 82 47 83 48 84
REMARK SMILES IDX 49 85 75 86 76 87 84 88 77 89 83 90 85 91 82 92 78 93 79 94
REMARK SMILES IDX 80 95 81 96 60 97 61 98 69 99 62 100 68 101 70 102 67 103
REMARK SMILES IDX 63 104 64 105 65 106 66 107
REMARK H PARENT 11 16 3 26 90 60 58 71
REMARK Flexibility Score: inf
ROOT
ATOM      1  C   UNL A   1      36.320  30.083  29.000  1.00  0.00     0.188 C 
ENDROOT
BRANCH   1   2
ATOM      2  O   UNL A   1      35.432  30.503  27.971  1.00  0.00    -0.376 OA
BRANCH   2   3
ATOM      3  C   UNL A   1      34.581  29.538  27.389  1.00  0.00     0.202 C 
BRANCH   3   4
ATOM      4  C   UNL A   1      33.130  29.931  27.142  1.00  0.00     0.261 C 
BRANCH   4   5
ATOM      5  O   UNL A   1      32.343  28.992  26.410  1.00  0.00    -0.460 OA
BRANCH   5   6
ATOM      6  C   UNL A   1      31.786  29.473  25.278  1.00  0.00     0.339 C 
ATOM      7  O   UNL A   1      31.078  30.461  25.179  1.00  0.00    -0.246 OA
BRANCH   6   8
ATOM      8  C   UNL A   1      32.242  28.707  24.102  1.00  0.00     0.072 A 
ATOM      9  C   UNL A   1      31.497  27.724  23.428  1.00  0.00     0.054 A 
ATOM     10  C   UNL A   1      32.113  27.050  22.353  1.00  0.00     0.015 A 
ATOM     11  C   UNL A   1      33.408  27.373  21.932  1.00  0.00     0.001 A 
ATOM     12  C   UNL A   1      33.539  29.037  23.660  1.00  0.00     0.016 A 
ATOM     13  C   UNL A   1      34.119  28.374  22.583  1.00  0.00     0.001 A 
BRANCH   9  14
ATOM     14  C   UNL A   1      30.130  27.244  23.776  1.00  0.00     0.256 C 
ATOM     15  N   UNL A   1      29.844  26.108  24.505  1.00  0.00    -0.322 N 
ATOM     16  H   UNL A   1      28.889  25.873  24.511  1.00  0.00     0.170 HD
ATOM     17  O   UNL A   1      29.174  27.904  23.355  1.00  0.00    -0.269 OA
BRANCH  15  18
ATOM     18  C   UNL A   1      30.647  25.223  25.240  1.00  0.00     0.042 A 
ATOM     19  C   UNL A   1      31.901  23.139  25.219  1.00  0.00     0.041 A 
ATOM     20  C   UNL A   1      32.553  23.543  26.391  1.00  0.00     0.014 A 
ATOM     21  C   UNL A   1      30.924  23.971  24.662  1.00  0.00     0.040 A 
ATOM     22  C   UNL A   1      32.200  24.737  27.022  1.00  0.00     0.003 A 
ATOM     23  C   UNL A   1      31.221  25.559  26.465  1.00  0.00     0.026 A 
BRANCH  19  24
ATOM     24  C   UNL A   1      32.162  21.764  24.731  1.00  0.00     0.251 C 
ATOM     25  N   UNL A   1      33.116  21.442  23.800  1.00  0.00    -0.346 N 
ATOM     26  H   UNL A   1      33.050  20.520  23.463  1.00  0.00     0.164 HD
ATOM     27  O   UNL A   1      31.470  20.851  25.186  1.00  0.00    -0.269 OA
BRANCH  25  28
ATOM     28  C   UNL A   1      34.212  22.207  23.218  1.00  0.00     0.109 C 
ATOM     29  C   UNL A   1      33.662  23.487  22.577  1.00  0.00     0.036 C 
BRANCH  28  30
ATOM     30  C   UNL A   1      35.326  22.528  24.207  1.00  0.00    -0.026 A 
ATOM     31  C   UNL A   1      35.448  23.830  24.728  1.00  0.00     0.006 A 
ATOM     32  C   UNL A   1      36.276  21.576  24.608  1.00  0.00     0.006 A 
ATOM     33  C   UNL A   1      36.516  24.186  25.555  1.00  0.00     0.000 A 
ATOM     34  C   UNL A   1      37.339  21.929  25.446  1.00  0.00     0.000 A 
ATOM     35  C   UNL A   1      37.468  23.236  25.906  1.00  0.00     0.000 A 
ENDBRANCH  28  30
ENDBRANCH  25  28
ENDBRANCH  19  24
ENDBRANCH  15  18
ENDBRANCH   9  14
ENDBRANCH   6   8
ENDBRANCH   5   6
ENDBRANCH   4   5
ENDBRANCH   3   4
ENDBRANCH   2   3
ENDBRANCH   1   2
BRANCH   1  36
ATOM     36  C   UNL A   1      36.753  31.097  30.087  1.00  0.00     0.188 C 
BRANCH  36  37
ATOM     37  O   UNL A   1      35.716  31.420  30.996  1.00  0.00    -0.376 OA
BRANCH  37  38
ATOM     38  C   UNL A   1      35.061  32.661  30.802  1.00  0.00     0.202 C 
BRANCH  38  39
ATOM     39  C   UNL A   1      35.651  33.907  31.483  1.00  0.00     0.261 C 
BRANCH  39  40
ATOM     40  O   UNL A   1      36.916  34.378  30.995  1.00  0.00    -0.460 OA
BRANCH  40  41
ATOM     41  C   UNL A   1      37.934  34.519  31.877  1.00  0.00     0.338 C 
ATOM     42  O   UNL A   1      37.855  34.451  33.090  1.00  0.00    -0.246 OA
BRANCH  41  43
ATOM     43  C   UNL A   1      39.192  34.530  31.087  1.00  0.00     0.060 A 
ATOM     44  C   UNL A   1      40.420  34.332  31.740  1.00  0.00     0.016 A 
ATOM     45  C   UNL A   1      39.148  34.627  29.693  1.00  0.00     0.016 A 
ATOM     46  C   UNL A   1      41.606  34.251  31.000  1.00  0.00     0.010 A 
ATOM     47  C   UNL A   1      40.337  34.582  28.959  1.00  0.00     0.010 A 
ATOM     48  C   UNL A   1      41.574  34.426  29.609  1.00  0.00    -0.014 A 
BRANCH  48  49
ATOM     49  C   UNL A   1      42.810  34.768  28.857  1.00  0.00     0.031 A 
ATOM     50  C   UNL A   1      43.784  33.644  28.615  1.00  0.00     0.074 A 
ATOM     51  C   UNL A   1      43.105  36.018  28.458  1.00  0.00     0.049 A 
ATOM     52  N   UNL A   1      45.014  33.681  28.178  1.00  0.00    -0.248 NA
ATOM     53  C   UNL A   1      43.295  32.293  28.934  1.00  0.00     0.031 C 
ATOM     54  C   UNL A   1      42.226  37.178  28.574  1.00  0.00     0.029 A 
ATOM     55  N   UNL A   1      44.253  36.521  27.892  1.00  0.00    -0.354 N 
ATOM     56  C   UNL A   1      45.452  32.360  28.187  1.00  0.00     0.074 A 
ATOM     57  C   UNL A   1      44.365  31.555  28.695  1.00  0.00     0.031 C 
ATOM     58  C   UNL A   1      42.878  38.265  28.118  1.00  0.00     0.029 A 
ATOM     59  C   UNL A   1      44.238  37.888  27.729  1.00  0.00     0.049 A 
ATOM     60  H   UNL A   1      45.015  35.956  27.626  1.00  0.00     0.167 HD
ATOM     61  C   UNL A   1      46.656  31.864  27.814  1.00  0.00     0.034 A 
ATOM     62  C   UNL A   1      45.222  38.734  27.354  1.00  0.00     0.034 A 
ATOM     63  C   UNL A   1      47.741  32.683  27.342  1.00  0.00     0.049 A 
ATOM     64  C   UNL A   1      46.595  38.174  27.038  1.00  0.00     0.074 A 
ATOM     65  C   UNL A   1      49.009  32.292  26.951  1.00  0.00     0.029 A 
ATOM     66  N   UNL A   1      47.690  34.064  27.210  1.00  0.00    -0.354 N 
ATOM     67  N   UNL A   1      47.008  36.927  27.068  1.00  0.00    -0.248 NA
ATOM     68  C   UNL A   1      47.634  39.136  26.641  1.00  0.00     0.031 C 
ATOM     69  C   UNL A   1      49.746  33.441  26.651  1.00  0.00     0.029 A 
ATOM     70  C   UNL A   1      48.912  34.543  26.769  1.00  0.00     0.049 A 
ATOM     71  H   UNL A   1      46.903  34.622  27.404  1.00  0.00     0.167 HD
ATOM     72  C   UNL A   1      48.338  36.954  26.649  1.00  0.00     0.074 A 
ATOM     73  C   UNL A   1      48.661  38.340  26.379  1.00  0.00     0.031 C 
ATOM     74  C   UNL A   1      49.211  35.927  26.488  1.00  0.00     0.034 A 
BRANCH  61  75
ATOM     75  C   UNL A   1      46.865  30.380  27.976  1.00  0.00     0.023 A 
ATOM     76  C   UNL A   1      46.605  29.478  26.929  1.00  0.00     0.031 A 
ATOM     77  C   UNL A   1      47.268  29.854  29.216  1.00  0.00     0.131 A 
ATOM     78  C   UNL A   1      46.675  28.097  27.163  1.00  0.00     0.055 A 
ATOM     79  C   UNL A   1      47.421  28.481  29.417  1.00  0.00     0.041 A 
ATOM     80  F   UNL A   1      47.500  30.664  30.260  1.00  0.00    -0.206 F 
ATOM     81  C   UNL A   1      47.107  27.593  28.392  1.00  0.00     0.022 A 
BRANCH  78  82
ATOM     82  S   UNL A   1      46.040  26.971  25.891  1.00  0.00     0.124 S 
ATOM     83  O   UNL A   1      45.148  26.118  26.671  1.00  0.00    -0.237 OA
ATOM     84  O   UNL A   1      45.394  27.884  24.956  1.00  0.00    -0.237 OA
ATOM     85  O   UNL A   1      47.242  26.310  25.389  1.00  0.00    -0.744 OA
ENDBRANCH  78  82
ENDBRANCH  61  75
BRANCH  62  86
ATOM     86  C   UNL A   1      44.986  40.208  27.308  1.00  0.00     0.023 A 
ATOM     87  C   UNL A   1      44.675  40.858  26.102  1.00  0.00     0.031 A 
ATOM     88  C   UNL A   1      45.144  41.003  28.458  1.00  0.00     0.131 A 
ATOM     89  C   UNL A   1      44.578  42.259  26.063  1.00  0.00     0.055 A 
ATOM     90  C   UNL A   1      44.992  42.391  28.426  1.00  0.00     0.041 A 
ATOM     91  F   UNL A   1      45.453  40.439  29.636  1.00  0.00    -0.206 F 
ATOM     92  C   UNL A   1      44.720  43.029  27.220  1.00  0.00     0.022 A 
BRANCH  89  93
ATOM     93  S   UNL A   1      44.356  43.073  24.456  1.00  0.00     0.124 S 
ATOM     94  O   UNL A   1      42.908  43.002  24.287  1.00  0.00    -0.237 OA
ATOM     95  O   UNL A   1      44.909  44.399  24.708  1.00  0.00    -0.237 OA
ATOM     96  O   UNL A   1      45.133  42.239  23.541  1.00  0.00    -0.744 OA
ENDBRANCH  89  93
ENDBRANCH  62  86
BRANCH  74  97
ATOM     97  C   UNL A   1      50.569  36.241  25.909  1.00  0.00     0.023 A 
ATOM     98  C   UNL A   1      51.728  36.303  26.699  1.00  0.00     0.031 A 
ATOM     99  C   UNL A   1      50.700  36.435  24.521  1.00  0.00     0.131 A 
ATOM    100  C   UNL A   1      52.967  36.585  26.097  1.00  0.00     0.055 A 
ATOM    101  C   UNL A   1      51.939  36.663  23.922  1.00  0.00     0.041 A 
ATOM    102  F   UNL A   1      49.623  36.385  23.719  1.00  0.00    -0.206 F 
ATOM    103  C   UNL A   1      53.081  36.746  24.714  1.00  0.00     0.022 A 
BRANCH 100 104
ATOM    104  S   UNL A   1      54.427  36.793  27.153  1.00  0.00     0.124 S 
ATOM    105  O   UNL A   1      53.911  37.640  28.223  1.00  0.00    -0.237 OA
ATOM    106  O   UNL A   1      54.744  35.417  27.525  1.00  0.00    -0.237 OA
ATOM    107  O   UNL A   1      55.401  37.433  26.270  1.00  0.00    -0.744 OA
ENDBRANCH 100 104
ENDBRANCH  74  97
ENDBRANCH  48  49
ENDBRANCH  41  43
ENDBRANCH  40  41
ENDBRANCH  39  40
ENDBRANCH  38  39
ENDBRANCH  37  38
ENDBRANCH  36  37
ENDBRANCH   1  36
TORSDOF 25
ENDMDL
