MODEL 1
REMARK VINA RESULT:      -9.8      0.000      0.000
REMARK SMILES Cc1cccc(-c2ncc(C[NH+]3CCC4(CC3)NC(=O)C[C@H]4C(=O)OCCOCCOCCOC(=O)c3ccc(-c4c5nc(c(-c6cc(S(=O)(=O)[O-])ccc6F)c6ccc([nH]6)c(-c6cc(S(=O)(=O)[O-])ccc6F)c6nc(c(-c7cc(S(=O)(=O)[O-])ccc7F)c7ccc4[nH]7)C=C6)C=C5)cc3)cn2)c1
REMARK SMILES IDX 29 1 28 2 27 3 26 4 25 5 23 6 24 7 22 8 12 9 13 10 17 11
REMARK SMILES IDX 14 13 16 14 15 15 18 16 19 17 21 19 20 20 11 21 10 22 7 23
REMARK SMILES IDX 8 24 101 25 9 26 100 27 6 28 1 29 2 30 3 31 102 32 4 33 5 34
REMARK SMILES IDX 30 35 31 36 32 37 33 38 34 39 35 40 36 41 37 42 38 43 99 44
REMARK SMILES IDX 39 45 98 46 40 47 41 48 42 49 92 50 43 51 97 52 91 53 93 54
REMARK SMILES IDX 44 55 96 56 90 57 89 58 45 60 77 61 57 62 76 63 58 64 61 65
REMARK SMILES IDX 75 66 94 67 59 68 60 69 74 71 95 72 62 73 46 74 47 75 55 76
REMARK SMILES IDX 48 77 54 78 56 79 53 80 49 81 50 82 51 83 52 84 78 85 79 86
REMARK SMILES IDX 87 87 80 88 86 89 88 90 85 91 81 92 82 93 83 94 84 95 63 96
REMARK SMILES IDX 64 97 72 98 65 99 71 100 73 101 70 102 66 103 67 104 68 105
REMARK SMILES IDX 69 106
REMARK H PARENT 12 12 18 18 93 59 61 70
REMARK Flexibility Score: inf
ROOT
ATOM      1  C   UNL A   1      41.426  25.088  27.202  1.00  0.00     0.188 C 
ENDROOT
BRANCH   1   2
ATOM      2  O   UNL A   1      40.763  26.368  26.994  1.00  0.00    -0.376 OA
BRANCH   2   3
ATOM      3  C   UNL A   1      40.521  27.508  27.874  1.00  0.00     0.202 C 
BRANCH   3   4
ATOM      4  C   UNL A   1      41.497  28.648  28.868  1.00  0.00     0.261 C 
BRANCH   4   5
ATOM      5  O   UNL A   1      41.467  29.742  30.372  1.00  0.00    -0.463 OA
BRANCH   5   6
ATOM      6  C   UNL A   1      40.734  30.726  31.331  1.00  0.00     0.311 C 
ATOM      7  O   UNL A   1      40.794  31.970  31.389  1.00  0.00    -0.252 OA
BRANCH   6   8
ATOM      8  C   UNL A   1      39.568  30.334  32.128  1.00  0.00     0.134 C 
ATOM      9  N   UNL A   1      36.236  33.498  30.062  1.00  0.00    -0.331 N 
ATOM     10  C   UNL A   1      36.441  33.098  31.692  1.00  0.00     0.264 C 
ATOM     11  C   UNL A   1      37.886  33.094  29.167  1.00  0.00     0.264 C 
ATOM     12  H   UNL A   1      36.065  34.476  29.831  1.00  0.00     0.348 HD
ATOM     13  C   UNL A   1      37.112  31.530  32.344  1.00  0.00     0.091 C 
ATOM     14  C   UNL A   1      38.680  31.034  29.526  1.00  0.00     0.091 C 
ATOM     15  C   UNL A   1      38.289  30.433  31.370  1.00  0.00     0.064 C 
ATOM     16  N   UNL A   1      37.805  29.089  31.576  1.00  0.00    -0.349 N 
ATOM     17  C   UNL A   1      38.507  28.339  32.510  1.00  0.00     0.221 C 
ATOM     18  H   UNL A   1      37.030  28.729  31.088  1.00  0.00     0.164 HD
ATOM     19  C   UNL A   1      39.671  29.117  32.995  1.00  0.00     0.117 C 
ATOM     20  O   UNL A   1      38.195  27.228  32.902  1.00  0.00    -0.275 OA
BRANCH   9  21
ATOM     21  C   UNL A   1      34.796  32.584  29.583  1.00  0.00     0.302 C 
BRANCH  21  22
ATOM     22  C   UNL A   1      34.526  31.644  28.221  1.00  0.00     0.043 A 
ATOM     23  C   UNL A   1      33.599  29.309  26.902  1.00  0.00     0.159 A 
ATOM     24  N   UNL A   1      32.783  30.381  27.012  1.00  0.00    -0.236 NA
ATOM     25  N   UNL A   1      34.918  29.443  27.147  1.00  0.00    -0.236 NA
ATOM     26  C   UNL A   1      33.299  31.543  27.571  1.00  0.00     0.124 A 
ATOM     27  C   UNL A   1      35.346  30.618  27.756  1.00  0.00     0.124 A 
BRANCH  23  28
ATOM     28  C   UNL A   1      33.025  27.956  26.491  1.00  0.00     0.019 A 
ATOM     29  C   UNL A   1      34.228  24.356  25.567  1.00  0.00     0.044 C 
ATOM     30  C   UNL A   1      33.309  25.524  25.850  1.00  0.00    -0.050 A 
ATOM     31  C   UNL A   1      31.942  25.328  25.924  1.00  0.00     0.003 A 
ATOM     32  C   UNL A   1      33.805  26.828  26.111  1.00  0.00     0.015 A 
ATOM     33  C   UNL A   1      31.116  26.419  26.196  1.00  0.00     0.001 A 
ATOM     34  C   UNL A   1      31.646  27.705  26.465  1.00  0.00     0.012 A 
ENDBRANCH  23  28
ENDBRANCH  21  22
ENDBRANCH   9  21
ENDBRANCH   6   8
ENDBRANCH   5   6
ENDBRANCH   4   5
ENDBRANCH   3   4
ENDBRANCH   2   3
ENDBRANCH   1   2
BRANCH   1  35
ATOM     35  C   UNL A   1      42.956  24.882  27.134  1.00  0.00     0.188 C 
BRANCH  35  36
ATOM     36  O   UNL A   1      43.579  25.700  26.149  1.00  0.00    -0.376 OA
BRANCH  36  37
ATOM     37  C   UNL A   1      44.669  26.522  26.589  1.00  0.00     0.202 C 
BRANCH  37  38
ATOM     38  C   UNL A   1      45.127  27.716  25.684  1.00  0.00     0.261 C 
BRANCH  38  39
ATOM     39  O   UNL A   1      44.592  29.008  26.155  1.00  0.00    -0.460 OA
BRANCH  39  40
ATOM     40  C   UNL A   1      45.415  30.118  26.035  1.00  0.00     0.338 C 
ATOM     41  O   UNL A   1      46.479  30.048  25.451  1.00  0.00    -0.246 OA
BRANCH  40  42
ATOM     42  C   UNL A   1      44.855  31.310  26.969  1.00  0.00     0.060 A 
ATOM     43  C   UNL A   1      45.398  33.060  27.271  1.00  0.00     0.016 A 
ATOM     44  C   UNL A   1      44.911  30.386  28.308  1.00  0.00     0.016 A 
ATOM     45  C   UNL A   1      46.153  33.423  29.059  1.00  0.00     0.010 A 
ATOM     46  C   UNL A   1      45.602  30.829  29.742  1.00  0.00     0.010 A 
ATOM     47  C   UNL A   1      46.081  32.214  30.373  1.00  0.00    -0.014 A 
BRANCH  47  48
ATOM     48  C   UNL A   1      45.534  32.198  32.180  1.00  0.00     0.031 A 
ATOM     49  C   UNL A   1      44.705  30.815  33.202  1.00  0.00     0.074 A 
ATOM     50  C   UNL A   1      45.916  33.210  32.975  1.00  0.00     0.049 A 
ATOM     51  N   UNL A   1      43.437  30.792  33.596  1.00  0.00    -0.248 NA
ATOM     52  C   UNL A   1      45.048  29.178  33.233  1.00  0.00     0.031 C 
ATOM     53  C   UNL A   1      45.837  33.333  34.429  1.00  0.00     0.029 A 
ATOM     54  N   UNL A   1      46.456  34.421  32.582  1.00  0.00    -0.354 N 
ATOM     55  C   UNL A   1      43.101  29.455  33.972  1.00  0.00     0.074 A 
ATOM     56  C   UNL A   1      43.869  28.590  33.191  1.00  0.00     0.031 C 
ATOM     57  C   UNL A   1      45.926  34.644  34.741  1.00  0.00     0.029 A 
ATOM     58  C   UNL A   1      45.947  35.371  33.476  1.00  0.00     0.049 A 
ATOM     59  H   UNL A   1      47.072  34.581  31.830  1.00  0.00     0.167 HD
ATOM     60  C   UNL A   1      42.804  29.089  35.257  1.00  0.00     0.034 A 
ATOM     61  C   UNL A   1      44.977  36.188  32.976  1.00  0.00     0.034 A 
ATOM     62  C   UNL A   1      42.871  30.300  36.029  1.00  0.00     0.049 A 
ATOM     63  C   UNL A   1      43.659  35.803  33.641  1.00  0.00     0.074 A 
ATOM     64  C   UNL A   1      43.863  30.895  36.787  1.00  0.00     0.029 A 
ATOM     65  N   UNL A   1      42.040  31.304  35.598  1.00  0.00    -0.354 N 
ATOM     66  N   UNL A   1      43.347  34.608  34.092  1.00  0.00    -0.248 NA
ATOM     67  C   UNL A   1      42.695  36.817  34.042  1.00  0.00     0.031 C 
ATOM     68  C   UNL A   1      43.621  32.306  36.747  1.00  0.00     0.029 A 
ATOM     69  C   UNL A   1      42.498  32.538  35.969  1.00  0.00     0.049 A 
ATOM     70  H   UNL A   1      41.215  31.153  35.083  1.00  0.00     0.167 HD
ATOM     71  C   UNL A   1      42.223  34.690  34.877  1.00  0.00     0.074 A 
ATOM     72  C   UNL A   1      41.858  36.096  34.805  1.00  0.00     0.031 C 
ATOM     73  C   UNL A   1      41.666  33.657  35.588  1.00  0.00     0.034 A 
BRANCH  60  74
ATOM     74  C   UNL A   1      42.877  27.670  35.839  1.00  0.00     0.023 A 
ATOM     75  C   UNL A   1      43.782  27.455  36.892  1.00  0.00     0.031 A 
ATOM     76  C   UNL A   1      42.131  26.517  35.466  1.00  0.00     0.131 A 
ATOM     77  C   UNL A   1      43.964  26.185  37.475  1.00  0.00     0.055 A 
ATOM     78  C   UNL A   1      42.366  25.234  35.995  1.00  0.00     0.041 A 
ATOM     79  F   UNL A   1      41.095  26.573  34.617  1.00  0.00    -0.206 F 
ATOM     80  C   UNL A   1      43.287  25.062  37.013  1.00  0.00     0.022 A 
BRANCH  77  81
ATOM     81  S   UNL A   1      45.065  26.053  38.905  1.00  0.00     0.124 S 
ATOM     82  O   UNL A   1      46.360  26.389  38.320  1.00  0.00    -0.237 OA
ATOM     83  O   UNL A   1      44.493  27.031  39.822  1.00  0.00    -0.237 OA
ATOM     84  O   UNL A   1      44.916  24.658  39.320  1.00  0.00    -0.744 OA
ENDBRANCH  77  81
ENDBRANCH  60  74
BRANCH  61  85
ATOM     85  C   UNL A   1      45.283  36.524  31.522  1.00  0.00     0.023 A 
ATOM     86  C   UNL A   1      44.430  35.955  30.522  1.00  0.00     0.031 A 
ATOM     87  C   UNL A   1      46.006  37.665  31.148  1.00  0.00     0.131 A 
ATOM     88  C   UNL A   1      44.198  36.610  29.294  1.00  0.00     0.055 A 
ATOM     89  C   UNL A   1      45.810  38.285  29.898  1.00  0.00     0.041 A 
ATOM     90  F   UNL A   1      46.831  38.267  32.016  1.00  0.00    -0.206 F 
ATOM     91  C   UNL A   1      44.876  37.787  28.986  1.00  0.00     0.022 A 
BRANCH  88  92
ATOM     92  S   UNL A   1      42.815  36.082  28.221  1.00  0.00     0.124 S 
ATOM     93  O   UNL A   1      42.562  34.722  28.686  1.00  0.00    -0.237 OA
ATOM     94  O   UNL A   1      41.770  37.058  28.515  1.00  0.00    -0.237 OA
ATOM     95  O   UNL A   1      43.364  36.197  26.870  1.00  0.00    -0.744 OA
ENDBRANCH  88  92
ENDBRANCH  61  85
BRANCH  73  96
ATOM     96  C   UNL A   1      40.190  33.575  35.973  1.00  0.00     0.023 A 
ATOM     97  C   UNL A   1      39.791  33.586  37.303  1.00  0.00     0.031 A 
ATOM     98  C   UNL A   1      39.119  33.602  35.030  1.00  0.00     0.131 A 
ATOM     99  C   UNL A   1      38.445  33.449  37.656  1.00  0.00     0.055 A 
ATOM    100  C   UNL A   1      37.773  33.665  35.390  1.00  0.00     0.041 A 
ATOM    101  F   UNL A   1      39.306  33.570  33.703  1.00  0.00    -0.206 F 
ATOM    102  C   UNL A   1      37.424  33.536  36.718  1.00  0.00     0.022 A 
BRANCH  99 103
ATOM    103  S   UNL A   1      38.114  32.949  39.354  1.00  0.00     0.124 S 
ATOM    104  O   UNL A   1      37.974  34.244  40.018  1.00  0.00    -0.237 OA
ATOM    105  O   UNL A   1      36.886  32.173  39.219  1.00  0.00    -0.237 OA
ATOM    106  O   UNL A   1      39.304  32.188  39.723  1.00  0.00    -0.744 OA
ENDBRANCH  99 103
ENDBRANCH  73  96
ENDBRANCH  47  48
ENDBRANCH  40  42
ENDBRANCH  39  40
ENDBRANCH  38  39
ENDBRANCH  37  38
ENDBRANCH  36  37
ENDBRANCH  35  36
ENDBRANCH   1  35
TORSDOF 23
ENDMDL
MODEL 2
REMARK VINA RESULT:      -9.3      4.864     11.528
REMARK SMILES Cc1cccc(-c2ncc(C[NH+]3CCC4(CC3)NC(=O)C[C@H]4C(=O)OCCOCCOCCOC(=O)c3ccc(-c4c5nc(c(-c6cc(S(=O)(=O)[O-])ccc6F)c6ccc([nH]6)c(-c6cc(S(=O)(=O)[O-])ccc6F)c6nc(c(-c7cc(S(=O)(=O)[O-])ccc7F)c7ccc4[nH]7)C=C6)C=C5)cc3)cn2)c1
REMARK SMILES IDX 29 1 28 2 27 3 26 4 25 5 23 6 24 7 22 8 12 9 13 10 17 11
REMARK SMILES IDX 14 13 16 14 15 15 18 16 19 17 21 19 20 20 11 21 10 22 7 23
REMARK SMILES IDX 8 24 101 25 9 26 100 27 6 28 1 29 2 30 3 31 102 32 4 33 5 34
REMARK SMILES IDX 30 35 31 36 32 37 33 38 34 39 35 40 36 41 37 42 38 43 99 44
REMARK SMILES IDX 39 45 98 46 40 47 41 48 42 49 92 50 43 51 97 52 91 53 93 54
REMARK SMILES IDX 44 55 96 56 90 57 89 58 45 60 77 61 57 62 76 63 58 64 61 65
REMARK SMILES IDX 75 66 94 67 59 68 60 69 74 71 95 72 62 73 46 74 47 75 55 76
REMARK SMILES IDX 48 77 54 78 56 79 53 80 49 81 50 82 51 83 52 84 78 85 79 86
REMARK SMILES IDX 87 87 80 88 86 89 88 90 85 91 81 92 82 93 83 94 84 95 63 96
REMARK SMILES IDX 64 97 72 98 65 99 71 100 73 101 70 102 66 103 67 104 68 105
REMARK SMILES IDX 69 106
REMARK H PARENT 12 12 18 18 93 59 61 70
REMARK Flexibility Score: inf
ROOT
ATOM      1  C   UNL A   1      36.899  34.206  32.365  1.00  0.00     0.188 C 
ENDROOT
BRANCH   1   2
ATOM      2  O   UNL A   1      37.950  34.627  31.449  1.00  0.00    -0.376 OA
BRANCH   2   3
ATOM      3  C   UNL A   1      38.878  33.882  30.603  1.00  0.00     0.202 C 
BRANCH   3   4
ATOM      4  C   UNL A   1      40.555  34.076  29.979  1.00  0.00     0.261 C 
BRANCH   4   5
ATOM      5  O   UNL A   1      42.286  33.402  30.073  1.00  0.00    -0.463 OA
BRANCH   5   6
ATOM      6  C   UNL A   1      43.616  32.957  29.397  1.00  0.00     0.311 C 
ATOM      7  O   UNL A   1      44.495  32.176  29.813  1.00  0.00    -0.252 OA
BRANCH   6   8
ATOM      8  C   UNL A   1      43.882  33.149  27.968  1.00  0.00     0.134 C 
ATOM      9  N   UNL A   1      42.998  38.105  27.773  1.00  0.00    -0.331 N 
ATOM     10  C   UNL A   1      42.534  36.907  26.674  1.00  0.00     0.264 C 
ATOM     11  C   UNL A   1      43.330  37.236  29.453  1.00  0.00     0.264 C 
ATOM     12  H   UNL A   1      42.317  38.828  28.002  1.00  0.00     0.348 HD
ATOM     13  C   UNL A   1      43.395  35.325  26.375  1.00  0.00     0.091 C 
ATOM     14  C   UNL A   1      44.712  35.480  29.355  1.00  0.00     0.091 C 
ATOM     15  C   UNL A   1      44.474  34.482  27.664  1.00  0.00     0.064 C 
ATOM     16  N   UNL A   1      45.646  34.044  26.944  1.00  0.00    -0.349 N 
ATOM     17  C   UNL A   1      45.674  32.696  26.613  1.00  0.00     0.221 C 
ATOM     18  H   UNL A   1      46.376  34.660  26.703  1.00  0.00     0.164 HD
ATOM     19  C   UNL A   1      44.490  32.020  27.195  1.00  0.00     0.117 C 
ATOM     20  O   UNL A   1      46.518  32.156  25.919  1.00  0.00    -0.275 OA
BRANCH   9  21
ATOM     21  C   UNL A   1      44.364  38.903  26.976  1.00  0.00     0.302 C 
BRANCH  21  22
ATOM     22  C   UNL A   1      44.446  40.404  26.234  1.00  0.00     0.043 A 
ATOM     23  C   UNL A   1      44.304  42.124  23.982  1.00  0.00     0.159 A 
ATOM     24  N   UNL A   1      43.207  41.939  24.751  1.00  0.00    -0.236 NA
ATOM     25  N   UNL A   1      45.513  41.740  24.437  1.00  0.00    -0.236 NA
ATOM     26  C   UNL A   1      43.335  41.174  25.903  1.00  0.00     0.124 A 
ATOM     27  C   UNL A   1      45.551  40.931  25.568  1.00  0.00     0.124 A 
BRANCH  23  28
ATOM     28  C   UNL A   1      44.169  42.776  22.609  1.00  0.00     0.019 A 
ATOM     29  C   UNL A   1      41.519  43.261  19.780  1.00  0.00     0.044 C 
ATOM     30  C   UNL A   1      42.818  43.356  20.549  1.00  0.00    -0.050 A 
ATOM     31  C   UNL A   1      43.828  44.190  20.102  1.00  0.00     0.003 A 
ATOM     32  C   UNL A   1      43.027  42.661  21.767  1.00  0.00     0.015 A 
ATOM     33  C   UNL A   1      45.013  44.269  20.833  1.00  0.00     0.001 A 
ATOM     34  C   UNL A   1      45.182  43.570  22.054  1.00  0.00     0.012 A 
ENDBRANCH  23  28
ENDBRANCH  21  22
ENDBRANCH   9  21
ENDBRANCH   6   8
ENDBRANCH   5   6
ENDBRANCH   4   5
ENDBRANCH   3   4
ENDBRANCH   2   3
ENDBRANCH   1   2
BRANCH   1  35
ATOM     35  C   UNL A   1      35.426  33.986  31.955  1.00  0.00     0.188 C 
BRANCH  35  36
ATOM     36  O   UNL A   1      35.092  34.634  30.732  1.00  0.00    -0.376 OA
BRANCH  36  37
ATOM     37  C   UNL A   1      35.254  33.868  29.531  1.00  0.00     0.202 C 
BRANCH  37  38
ATOM     38  C   UNL A   1      34.961  32.329  29.572  1.00  0.00     0.261 C 
BRANCH  38  39
ATOM     39  O   UNL A   1      36.128  31.552  30.033  1.00  0.00    -0.460 OA
BRANCH  39  40
ATOM     40  C   UNL A   1      36.887  30.912  29.065  1.00  0.00     0.338 C 
ATOM     41  O   UNL A   1      36.827  31.248  27.899  1.00  0.00    -0.246 OA
BRANCH  40  42
ATOM     42  C   UNL A   1      37.574  29.596  29.700  1.00  0.00     0.060 A 
ATOM     43  C   UNL A   1      37.506  28.800  31.377  1.00  0.00     0.016 A 
ATOM     44  C   UNL A   1      39.070  30.090  29.292  1.00  0.00     0.016 A 
ATOM     45  C   UNL A   1      39.166  28.904  32.440  1.00  0.00     0.010 A 
ATOM     46  C   UNL A   1      40.370  30.136  30.312  1.00  0.00     0.010 A 
ATOM     47  C   UNL A   1      40.697  29.496  31.736  1.00  0.00    -0.014 A 
BRANCH  47  48
ATOM     48  C   UNL A   1      42.483  28.887  31.652  1.00  0.00     0.031 A 
ATOM     49  C   UNL A   1      43.311  27.665  30.441  1.00  0.00     0.074 A 
ATOM     50  C   UNL A   1      43.405  29.497  32.413  1.00  0.00     0.049 A 
ATOM     51  N   UNL A   1      43.688  26.424  30.725  1.00  0.00    -0.248 NA
ATOM     52  C   UNL A   1      43.133  27.543  28.783  1.00  0.00     0.031 C 
ATOM     53  C   UNL A   1      44.862  29.392  32.375  1.00  0.00     0.029 A 
ATOM     54  N   UNL A   1      43.176  30.367  33.464  1.00  0.00    -0.354 N 
ATOM     55  C   UNL A   1      43.886  25.717  29.499  1.00  0.00     0.074 A 
ATOM     56  C   UNL A   1      43.006  26.251  28.556  1.00  0.00     0.031 C 
ATOM     57  C   UNL A   1      45.341  29.824  33.562  1.00  0.00     0.029 A 
ATOM     58  C   UNL A   1      44.181  30.100  34.403  1.00  0.00     0.049 A 
ATOM     59  H   UNL A   1      42.456  31.035  33.537  1.00  0.00     0.167 HD
ATOM     60  C   UNL A   1      45.110  25.275  29.076  1.00  0.00     0.034 A 
ATOM     61  C   UNL A   1      43.783  29.415  35.512  1.00  0.00     0.034 A 
ATOM     62  C   UNL A   1      46.033  25.639  30.117  1.00  0.00     0.049 A 
ATOM     63  C   UNL A   1      44.382  28.014  35.431  1.00  0.00     0.074 A 
ATOM     64  C   UNL A   1      46.869  26.722  30.315  1.00  0.00     0.029 A 
ATOM     65  N   UNL A   1      45.728  25.136  31.357  1.00  0.00    -0.354 N 
ATOM     66  N   UNL A   1      44.673  27.366  34.324  1.00  0.00    -0.248 NA
ATOM     67  C   UNL A   1      44.903  27.349  36.617  1.00  0.00     0.031 C 
ATOM     68  C   UNL A   1      47.010  26.879  31.732  1.00  0.00     0.029 A 
ATOM     69  C   UNL A   1      46.260  25.899  32.361  1.00  0.00     0.049 A 
ATOM     70  H   UNL A   1      45.191  24.325  31.506  1.00  0.00     0.167 HD
ATOM     71  C   UNL A   1      45.452  26.274  34.620  1.00  0.00     0.074 A 
ATOM     72  C   UNL A   1      45.560  26.314  36.070  1.00  0.00     0.031 C 
ATOM     73  C   UNL A   1      46.019  25.424  33.704  1.00  0.00     0.034 A 
BRANCH  60  74
ATOM     74  C   UNL A   1      45.505  24.929  27.633  1.00  0.00     0.023 A 
ATOM     75  C   UNL A   1      44.853  23.839  27.033  1.00  0.00     0.031 A 
ATOM     76  C   UNL A   1      46.450  25.579  26.791  1.00  0.00     0.131 A 
ATOM     77  C   UNL A   1      45.164  23.405  25.730  1.00  0.00     0.055 A 
ATOM     78  C   UNL A   1      46.816  25.102  25.518  1.00  0.00     0.041 A 
ATOM     79  F   UNL A   1      47.028  26.743  27.120  1.00  0.00    -0.206 F 
ATOM     80  C   UNL A   1      46.166  24.007  24.977  1.00  0.00     0.022 A 
BRANCH  77  81
ATOM     81  S   UNL A   1      44.174  22.069  25.015  1.00  0.00     0.124 S 
ATOM     82  O   UNL A   1      44.625  20.915  25.787  1.00  0.00    -0.237 OA
ATOM     83  O   UNL A   1      42.814  22.529  25.269  1.00  0.00    -0.237 OA
ATOM     84  O   UNL A   1      44.572  22.067  23.608  1.00  0.00    -0.744 OA
ENDBRANCH  77  81
ENDBRANCH  60  74
BRANCH  61  85
ATOM     85  C   UNL A   1      42.387  29.865  35.924  1.00  0.00     0.023 A 
ATOM     86  C   UNL A   1      42.253  31.193  36.445  1.00  0.00     0.031 A 
ATOM     87  C   UNL A   1      41.223  29.276  35.412  1.00  0.00     0.131 A 
ATOM     88  C   UNL A   1      41.057  31.926  36.289  1.00  0.00     0.055 A 
ATOM     89  C   UNL A   1      40.017  29.996  35.307  1.00  0.00     0.041 A 
ATOM     90  F   UNL A   1      41.251  28.036  34.904  1.00  0.00    -0.206 F 
ATOM     91  C   UNL A   1      39.941  31.335  35.703  1.00  0.00     0.022 A 
BRANCH  88  92
ATOM     92  S   UNL A   1      41.042  33.729  36.593  1.00  0.00     0.124 S 
ATOM     93  O   UNL A   1      42.242  33.918  37.401  1.00  0.00    -0.237 OA
ATOM     94  O   UNL A   1      41.086  34.297  35.249  1.00  0.00    -0.237 OA
ATOM     95  O   UNL A   1      39.772  33.951  37.285  1.00  0.00    -0.744 OA
ENDBRANCH  88  92
ENDBRANCH  61  85
BRANCH  73  96
ATOM     96  C   UNL A   1      46.378  23.967  33.990  1.00  0.00     0.023 A 
ATOM     97  C   UNL A   1      47.657  23.607  34.395  1.00  0.00     0.031 A 
ATOM     98  C   UNL A   1      45.432  22.899  33.985  1.00  0.00     0.131 A 
ATOM     99  C   UNL A   1      48.001  22.267  34.597  1.00  0.00     0.055 A 
ATOM    100  C   UNL A   1      45.735  21.596  34.380  1.00  0.00     0.041 A 
ATOM    101  F   UNL A   1      44.157  23.048  33.601  1.00  0.00    -0.206 F 
ATOM    102  C   UNL A   1      47.046  21.259  34.641  1.00  0.00     0.022 A 
BRANCH  99 103
ATOM    103  S   UNL A   1      49.761  21.887  34.590  1.00  0.00     0.124 S 
ATOM    104  O   UNL A   1      50.292  22.948  35.445  1.00  0.00    -0.237 OA
ATOM    105  O   UNL A   1      49.795  20.544  35.156  1.00  0.00    -0.237 OA
ATOM    106  O   UNL A   1      50.125  21.987  33.179  1.00  0.00    -0.744 OA
ENDBRANCH  99 103
ENDBRANCH  73  96
ENDBRANCH  47  48
ENDBRANCH  40  42
ENDBRANCH  39  40
ENDBRANCH  38  39
ENDBRANCH  37  38
ENDBRANCH  36  37
ENDBRANCH  35  36
ENDBRANCH   1  35
TORSDOF 23
ENDMDL
MODEL 3
REMARK VINA RESULT:      -9.2      3.807      9.519
REMARK SMILES Cc1cccc(-c2ncc(C[NH+]3CCC4(CC3)NC(=O)C[C@H]4C(=O)OCCOCCOCCOC(=O)c3ccc(-c4c5nc(c(-c6cc(S(=O)(=O)[O-])ccc6F)c6ccc([nH]6)c(-c6cc(S(=O)(=O)[O-])ccc6F)c6nc(c(-c7cc(S(=O)(=O)[O-])ccc7F)c7ccc4[nH]7)C=C6)C=C5)cc3)cn2)c1
REMARK SMILES IDX 29 1 28 2 27 3 26 4 25 5 23 6 24 7 22 8 12 9 13 10 17 11
REMARK SMILES IDX 14 13 16 14 15 15 18 16 19 17 21 19 20 20 11 21 10 22 7 23
REMARK SMILES IDX 8 24 101 25 9 26 100 27 6 28 1 29 2 30 3 31 102 32 4 33 5 34
REMARK SMILES IDX 30 35 31 36 32 37 33 38 34 39 35 40 36 41 37 42 38 43 99 44
REMARK SMILES IDX 39 45 98 46 40 47 41 48 42 49 92 50 43 51 97 52 91 53 93 54
REMARK SMILES IDX 44 55 96 56 90 57 89 58 45 60 77 61 57 62 76 63 58 64 61 65
REMARK SMILES IDX 75 66 94 67 59 68 60 69 74 71 95 72 62 73 46 74 47 75 55 76
REMARK SMILES IDX 48 77 54 78 56 79 53 80 49 81 50 82 51 83 52 84 78 85 79 86
REMARK SMILES IDX 87 87 80 88 86 89 88 90 85 91 81 92 82 93 83 94 84 95 63 96
REMARK SMILES IDX 64 97 72 98 65 99 71 100 73 101 70 102 66 103 67 104 68 105
REMARK SMILES IDX 69 106
REMARK H PARENT 12 12 18 18 93 59 61 70
REMARK Flexibility Score: inf
ROOT
ATOM      1  C   UNL A   1      35.638  21.554  24.778  1.00  0.00     0.188 C 
ENDROOT
BRANCH   1   2
ATOM      2  O   UNL A   1      36.519  20.548  25.354  1.00  0.00    -0.376 OA
BRANCH   2   3
ATOM      3  C   UNL A   1      37.761  19.940  24.886  1.00  0.00     0.202 C 
BRANCH   3   4
ATOM      4  C   UNL A   1      39.342  19.442  25.588  1.00  0.00     0.261 C 
BRANCH   4   5
ATOM      5  O   UNL A   1      41.179  19.424  25.302  1.00  0.00    -0.463 OA
BRANCH   5   6
ATOM      6  C   UNL A   1      42.644  19.389  25.832  1.00  0.00     0.311 C 
ATOM      7  O   UNL A   1      43.159  18.650  26.693  1.00  0.00    -0.252 OA
BRANCH   6   8
ATOM      8  C   UNL A   1      43.756  20.036  25.128  1.00  0.00     0.134 C 
ATOM      9  N   UNL A   1      42.753  24.783  26.483  1.00  0.00    -0.331 N 
ATOM     10  C   UNL A   1      43.231  24.197  24.971  1.00  0.00     0.264 C 
ATOM     11  C   UNL A   1      41.992  23.308  27.449  1.00  0.00     0.264 C 
ATOM     12  H   UNL A   1      42.023  25.494  26.508  1.00  0.00     0.348 HD
ATOM     13  C   UNL A   1      44.222  22.695  24.660  1.00  0.00     0.091 C 
ATOM     14  C   UNL A   1      43.261  21.469  27.525  1.00  0.00     0.091 C 
ATOM     15  C   UNL A   1      44.275  21.234  25.843  1.00  0.00     0.064 C 
ATOM     16  N   UNL A   1      45.667  20.862  25.917  1.00  0.00    -0.349 N 
ATOM     17  C   UNL A   1      46.029  19.756  25.160  1.00  0.00     0.221 C 
ATOM     18  H   UNL A   1      46.317  21.359  26.465  1.00  0.00     0.164 HD
ATOM     19  C   UNL A   1      44.822  19.171  24.529  1.00  0.00     0.117 C 
ATOM     20  O   UNL A   1      47.168  19.348  25.004  1.00  0.00    -0.275 OA
BRANCH   9  21
ATOM     21  C   UNL A   1      44.227  25.519  27.135  1.00  0.00     0.302 C 
BRANCH  21  22
ATOM     22  C   UNL A   1      44.769  25.614  28.718  1.00  0.00     0.043 A 
ATOM     23  C   UNL A   1      44.714  24.883  31.459  1.00  0.00     0.159 A 
ATOM     24  N   UNL A   1      45.558  24.247  30.616  1.00  0.00    -0.236 NA
ATOM     25  N   UNL A   1      44.126  26.034  31.077  1.00  0.00    -0.236 NA
ATOM     26  C   UNL A   1      45.636  24.696  29.304  1.00  0.00     0.124 A 
ATOM     27  C   UNL A   1      44.207  26.386  29.733  1.00  0.00     0.124 A 
BRANCH  23  28
ATOM     28  C   UNL A   1      44.438  24.300  32.843  1.00  0.00     0.019 A 
ATOM     29  C   UNL A   1      45.199  21.092  34.938  1.00  0.00     0.044 C 
ATOM     30  C   UNL A   1      44.676  22.462  34.566  1.00  0.00    -0.050 A 
ATOM     31  C   UNL A   1      44.110  23.273  35.533  1.00  0.00     0.003 A 
ATOM     32  C   UNL A   1      44.801  22.987  33.254  1.00  0.00     0.015 A 
ATOM     33  C   UNL A   1      43.644  24.537  35.168  1.00  0.00     0.001 A 
ATOM     34  C   UNL A   1      43.797  25.034  33.850  1.00  0.00     0.012 A 
ENDBRANCH  23  28
ENDBRANCH  21  22
ENDBRANCH   9  21
ENDBRANCH   6   8
ENDBRANCH   5   6
ENDBRANCH   4   5
ENDBRANCH   3   4
ENDBRANCH   2   3
ENDBRANCH   1   2
BRANCH   1  35
ATOM     35  C   UNL A   1      35.145  22.811  25.529  1.00  0.00     0.188 C 
BRANCH  35  36
ATOM     36  O   UNL A   1      36.180  23.454  26.265  1.00  0.00    -0.376 OA
BRANCH  36  37
ATOM     37  C   UNL A   1      37.340  23.861  25.527  1.00  0.00     0.202 C 
BRANCH  37  38
ATOM     38  C   UNL A   1      38.740  23.800  26.227  1.00  0.00     0.261 C 
BRANCH  38  39
ATOM     39  O   UNL A   1      39.286  25.144  26.498  1.00  0.00    -0.460 OA
BRANCH  39  40
ATOM     40  C   UNL A   1      39.298  25.571  27.817  1.00  0.00     0.338 C 
ATOM     41  O   UNL A   1      38.920  24.843  28.715  1.00  0.00    -0.246 OA
BRANCH  40  42
ATOM     42  C   UNL A   1      39.619  27.152  27.872  1.00  0.00     0.060 A 
ATOM     43  C   UNL A   1      40.857  28.236  27.009  1.00  0.00     0.016 A 
ATOM     44  C   UNL A   1      39.808  27.133  29.487  1.00  0.00     0.016 A 
ATOM     45  C   UNL A   1      42.293  28.968  28.149  1.00  0.00     0.010 A 
ATOM     46  C   UNL A   1      41.091  27.781  30.304  1.00  0.00     0.010 A 
ATOM     47  C   UNL A   1      42.255  28.804  29.928  1.00  0.00    -0.014 A 
BRANCH  47  48
ATOM     48  C   UNL A   1      42.450  29.963  31.406  1.00  0.00     0.031 A 
ATOM     49  C   UNL A   1      41.180  31.123  32.236  1.00  0.00     0.074 A 
ATOM     50  C   UNL A   1      43.567  29.878  32.145  1.00  0.00     0.049 A 
ATOM     51  N   UNL A   1      41.165  32.449  32.149  1.00  0.00    -0.248 NA
ATOM     52  C   UNL A   1      39.573  30.838  32.600  1.00  0.00     0.031 C 
ATOM     53  C   UNL A   1      43.871  30.472  33.445  1.00  0.00     0.029 A 
ATOM     54  N   UNL A   1      44.736  29.216  31.817  1.00  0.00    -0.354 N 
ATOM     55  C   UNL A   1      39.876  32.915  32.552  1.00  0.00     0.074 A 
ATOM     56  C   UNL A   1      38.945  31.931  32.217  1.00  0.00     0.031 C 
ATOM     57  C   UNL A   1      45.213  30.482  33.594  1.00  0.00     0.029 A 
ATOM     58  C   UNL A   1      45.774  29.999  32.337  1.00  0.00     0.049 A 
ATOM     59  H   UNL A   1      44.820  28.369  31.320  1.00  0.00     0.167 HD
ATOM     60  C   UNL A   1      39.666  33.659  33.682  1.00  0.00     0.034 A 
ATOM     61  C   UNL A   1      46.488  30.713  31.421  1.00  0.00     0.034 A 
ATOM     62  C   UNL A   1      40.967  33.856  34.262  1.00  0.00     0.049 A 
ATOM     63  C   UNL A   1      46.146  32.187  31.616  1.00  0.00     0.074 A 
ATOM     64  C   UNL A   1      41.686  33.194  35.239  1.00  0.00     0.029 A 
ATOM     65  N   UNL A   1      41.879  34.463  33.435  1.00  0.00    -0.354 N 
ATOM     66  N   UNL A   1      45.008  32.657  32.078  1.00  0.00    -0.248 NA
ATOM     67  C   UNL A   1      47.169  33.217  31.509  1.00  0.00     0.031 C 
ATOM     68  C   UNL A   1      43.072  33.386  34.931  1.00  0.00     0.029 A 
ATOM     69  C   UNL A   1      43.165  34.152  33.780  1.00  0.00     0.049 A 
ATOM     70  H   UNL A   1      41.637  35.051  32.683  1.00  0.00     0.167 HD
ATOM     71  C   UNL A   1      45.151  33.987  32.391  1.00  0.00     0.074 A 
ATOM     72  C   UNL A   1      46.523  34.281  32.011  1.00  0.00     0.031 C 
ATOM     73  C   UNL A   1      44.198  34.776  32.984  1.00  0.00     0.034 A 
BRANCH  60  74
ATOM     74  C   UNL A   1      38.336  33.820  34.431  1.00  0.00     0.023 A 
ATOM     75  C   UNL A   1      38.284  33.348  35.754  1.00  0.00     0.031 A 
ATOM     76  C   UNL A   1      37.123  34.405  33.973  1.00  0.00     0.131 A 
ATOM     77  C   UNL A   1      37.105  33.403  36.523  1.00  0.00     0.055 A 
ATOM     78  C   UNL A   1      35.925  34.394  34.713  1.00  0.00     0.041 A 
ATOM     79  F   UNL A   1      37.038  35.074  32.814  1.00  0.00    -0.206 F 
ATOM     80  C   UNL A   1      35.912  33.893  36.002  1.00  0.00     0.022 A 
BRANCH  77  81
ATOM     81  S   UNL A   1      37.189  32.880  38.253  1.00  0.00     0.124 S 
ATOM     82  O   UNL A   1      35.783  32.903  38.643  1.00  0.00    -0.237 OA
ATOM     83  O   UNL A   1      37.811  31.566  38.145  1.00  0.00    -0.237 OA
ATOM     84  O   UNL A   1      38.023  33.906  38.879  1.00  0.00    -0.744 OA
ENDBRANCH  77  81
ENDBRANCH  60  74
BRANCH  61  85
ATOM     85  C   UNL A   1      46.646  29.901  30.143  1.00  0.00     0.023 A 
ATOM     86  C   UNL A   1      45.987  30.388  28.969  1.00  0.00     0.031 A 
ATOM     87  C   UNL A   1      47.719  29.023  29.935  1.00  0.00     0.131 A 
ATOM     88  C   UNL A   1      46.500  30.137  27.678  1.00  0.00     0.055 A 
ATOM     89  C   UNL A   1      48.196  28.734  28.641  1.00  0.00     0.041 A 
ATOM     90  F   UNL A   1      48.397  28.515  30.973  1.00  0.00    -0.206 F 
ATOM     91  C   UNL A   1      47.618  29.323  27.513  1.00  0.00     0.022 A 
BRANCH  88  92
ATOM     92  S   UNL A   1      45.885  31.092  26.245  1.00  0.00     0.124 S 
ATOM     93  O   UNL A   1      44.470  31.251  26.562  1.00  0.00    -0.237 OA
ATOM     94  O   UNL A   1      46.685  32.314  26.287  1.00  0.00    -0.237 OA
ATOM     95  O   UNL A   1      46.186  30.230  25.103  1.00  0.00    -0.744 OA
ENDBRANCH  88  92
ENDBRANCH  61  85
BRANCH  73  96
ATOM     96  C   UNL A   1      44.115  36.293  32.824  1.00  0.00     0.023 A 
ATOM     97  C   UNL A   1      44.025  36.880  31.569  1.00  0.00     0.031 A 
ATOM     98  C   UNL A   1      44.004  37.203  33.917  1.00  0.00     0.131 A 
ATOM     99  C   UNL A   1      44.011  38.270  31.420  1.00  0.00     0.055 A 
ATOM    100  C   UNL A   1      43.792  38.573  33.764  1.00  0.00     0.041 A 
ATOM    101  F   UNL A   1      44.093  36.827  35.200  1.00  0.00    -0.206 F 
ATOM    102  C   UNL A   1      43.846  39.126  32.502  1.00  0.00     0.022 A 
BRANCH  99 103
ATOM    103  S   UNL A   1      44.427  38.901  29.785  1.00  0.00     0.124 S 
ATOM    104  O   UNL A   1      43.116  39.327  29.296  1.00  0.00    -0.237 OA
ATOM    105  O   UNL A   1      45.366  39.973  30.091  1.00  0.00    -0.237 OA
ATOM    106  O   UNL A   1      44.994  37.738  29.106  1.00  0.00    -0.744 OA
ENDBRANCH  99 103
ENDBRANCH  73  96
ENDBRANCH  47  48
ENDBRANCH  40  42
ENDBRANCH  39  40
ENDBRANCH  38  39
ENDBRANCH  37  38
ENDBRANCH  36  37
ENDBRANCH  35  36
ENDBRANCH   1  35
TORSDOF 23
ENDMDL
