MODEL 1
REMARK VINA RESULT:     -12.6      0.000      0.000
REMARK SMILES Cc1cccc(CNC(=O)N[C@@H](CC2=c3ccccc3=NC2)C(=O)OCCOCCOCCOC(=O)c2ccc(-c3c4nc(c(-c5cc(S(=O)(=O)[O-])ccc5F)c5ccc([nH]5)c(-c5cc(S(=O)(=O)[O-])ccc5F)c5nc(c(-c6cc(S(=O)(=O)[O-])ccc6F)c6ccc3[nH]6)C=C5)C=C4)cc2)c1
REMARK SMILES IDX 29 1 28 2 27 3 26 4 25 5 23 6 24 7 12 8 11 9 8 10 9 11 10 13
REMARK SMILES IDX 7 15 6 16 1 17 2 18 3 19 100 20 4 21 5 22 13 23 14 24 15 25
REMARK SMILES IDX 22 26 16 27 20 28 21 29 17 30 19 31 18 32 30 33 31 34 32 35
REMARK SMILES IDX 33 36 34 37 35 38 36 39 37 40 38 41 99 42 39 43 98 44 40 45
REMARK SMILES IDX 41 46 42 47 92 48 43 49 97 50 91 51 93 52 44 53 96 54 90 55
REMARK SMILES IDX 89 56 45 58 77 59 57 60 76 61 58 62 61 63 75 64 94 65 59 66
REMARK SMILES IDX 60 67 74 69 95 70 62 71 46 72 47 73 55 74 48 75 54 76 56 77
REMARK SMILES IDX 53 78 49 79 50 80 51 81 52 82 78 83 79 84 87 85 80 86 86 87
REMARK SMILES IDX 88 88 85 89 81 90 82 91 83 92 84 93 63 94 64 95 72 96 65 97
REMARK SMILES IDX 71 98 73 99 70 100 66 101 67 102 68 103 69 104
REMARK H PARENT 8 12 11 14 93 57 61 68
REMARK Flexibility Score: inf
ROOT
ATOM      1  C   UNL A   1      35.152  33.436  30.814  1.00  0.00     0.188 C 
ENDROOT
BRANCH   1   2
ATOM      2  O   UNL A   1      34.194  32.651  30.130  1.00  0.00    -0.376 OA
BRANCH   2   3
ATOM      3  C   UNL A   1      34.822  31.803  29.186  1.00  0.00     0.202 C 
BRANCH   3   4
ATOM      4  C   UNL A   1      34.251  31.901  27.767  1.00  0.00     0.261 C 
BRANCH   4   5
ATOM      5  O   UNL A   1      33.005  30.878  27.332  1.00  0.00    -0.462 OA
BRANCH   5   6
ATOM      6  C   UNL A   1      32.093  30.363  26.364  1.00  0.00     0.329 C 
ATOM      7  O   UNL A   1      31.354  31.238  25.901  1.00  0.00    -0.250 OA
BRANCH   6   8
ATOM      8  C   UNL A   1      31.902  28.829  25.614  1.00  0.00     0.198 C 
BRANCH   8   9
ATOM      9  N   UNL A   1      32.970  28.550  24.557  1.00  0.00    -0.324 N 
ATOM     10  N   UNL A   1      32.079  28.394  22.365  1.00  0.00    -0.334 N 
ATOM     11  C   UNL A   1      33.095  28.380  23.231  1.00  0.00     0.315 C 
ATOM     12  H   UNL A   1      32.191  28.965  21.572  1.00  0.00     0.165 HD
ATOM     13  O   UNL A   1      34.242  28.378  22.772  1.00  0.00    -0.249 OA
ATOM     14  H   UNL A   1      33.851  28.467  24.988  1.00  0.00     0.166 HD
BRANCH  10  15
ATOM     15  C   UNL A   1      30.843  27.671  22.458  1.00  0.00     0.153 C 
BRANCH  15  16
ATOM     16  C   UNL A   1      29.620  28.475  22.831  1.00  0.00    -0.028 A 
ATOM     17  C   UNL A   1      28.693  32.103  22.197  1.00  0.00     0.044 C 
ATOM     18  C   UNL A   1      28.583  30.683  22.667  1.00  0.00    -0.051 A 
ATOM     19  C   UNL A   1      27.338  30.115  22.952  1.00  0.00     0.003 A 
ATOM     20  C   UNL A   1      29.713  29.860  22.629  1.00  0.00     0.009 A 
ATOM     21  C   UNL A   1      27.233  28.745  23.207  1.00  0.00     0.001 A 
ATOM     22  C   UNL A   1      28.369  27.929  23.160  1.00  0.00     0.005 A 
ENDBRANCH  15  16
ENDBRANCH  10  15
ENDBRANCH   8   9
BRANCH   8  23
ATOM     23  C   UNL A   1      31.299  27.349  26.247  1.00  0.00     0.070 C 
BRANCH  23  24
ATOM     24  C   UNL A   1      31.979  25.748  26.128  1.00  0.00    -0.037 C 
ATOM     25  C   UNL A   1      33.319  24.764  25.547  1.00  0.00     0.001 A 
ATOM     26  C   UNL A   1      30.302  24.859  25.530  1.00  0.00     0.174 C 
ATOM     27  C   UNL A   1      34.751  24.864  25.004  1.00  0.00     0.010 A 
ATOM     28  C   UNL A   1      32.735  23.236  24.594  1.00  0.00     0.065 A 
ATOM     29  N   UNL A   1      31.272  23.212  24.424  1.00  0.00    -0.280 NA
ATOM     30  C   UNL A   1      35.412  23.938  24.295  1.00  0.00     0.001 A 
ATOM     31  C   UNL A   1      33.677  22.250  24.087  1.00  0.00     0.028 A 
ATOM     32  C   UNL A   1      34.951  22.618  23.986  1.00  0.00     0.002 A 
ENDBRANCH  23  24
ENDBRANCH   8  23
ENDBRANCH   6   8
ENDBRANCH   5   6
ENDBRANCH   4   5
ENDBRANCH   3   4
ENDBRANCH   2   3
ENDBRANCH   1   2
BRANCH   1  33
ATOM     33  C   UNL A   1      36.486  33.419  30.103  1.00  0.00     0.188 C 
BRANCH  33  34
ATOM     34  O   UNL A   1      37.598  33.118  30.943  1.00  0.00    -0.376 OA
BRANCH  34  35
ATOM     35  C   UNL A   1      38.609  32.264  30.467  1.00  0.00     0.202 C 
BRANCH  35  36
ATOM     36  C   UNL A   1      38.091  30.838  30.541  1.00  0.00     0.261 C 
BRANCH  36  37
ATOM     37  O   UNL A   1      38.291  30.352  31.899  1.00  0.00    -0.460 OA
BRANCH  37  38
ATOM     38  C   UNL A   1      38.002  29.032  32.092  1.00  0.00     0.338 C 
ATOM     39  O   UNL A   1      37.092  28.623  32.800  1.00  0.00    -0.246 OA
BRANCH  38  40
ATOM     40  C   UNL A   1      39.103  28.165  31.549  1.00  0.00     0.060 A 
ATOM     41  C   UNL A   1      40.339  28.266  32.154  1.00  0.00     0.016 A 
ATOM     42  C   UNL A   1      39.052  27.558  30.291  1.00  0.00     0.016 A 
ATOM     43  C   UNL A   1      41.494  28.024  31.385  1.00  0.00     0.010 A 
ATOM     44  C   UNL A   1      40.238  27.311  29.546  1.00  0.00     0.010 A 
ATOM     45  C   UNL A   1      41.512  27.668  30.017  1.00  0.00    -0.014 A 
BRANCH  45  46
ATOM     46  C   UNL A   1      42.688  27.662  28.923  1.00  0.00     0.031 A 
ATOM     47  C   UNL A   1      43.074  25.790  28.776  1.00  0.00     0.074 A 
ATOM     48  C   UNL A   1      43.480  28.851  28.088  1.00  0.00     0.049 A 
ATOM     49  N   UNL A   1      44.263  25.082  27.548  1.00  0.00    -0.248 NA
ATOM     50  C   UNL A   1      43.030  24.278  30.082  1.00  0.00     0.031 C 
ATOM     51  C   UNL A   1      44.290  28.864  26.656  1.00  0.00     0.029 A 
ATOM     52  N   UNL A   1      43.832  30.263  28.216  1.00  0.00    -0.354 N 
ATOM     53  C   UNL A   1      44.820  23.537  27.901  1.00  0.00     0.074 A 
ATOM     54  C   UNL A   1      43.989  23.125  29.507  1.00  0.00     0.031 C 
ATOM     55  C   UNL A   1      44.612  30.052  26.150  1.00  0.00     0.029 A 
ATOM     56  C   UNL A   1      44.596  30.920  27.254  1.00  0.00     0.049 A 
ATOM     57  H   UNL A   1      43.521  30.765  29.004  1.00  0.00     0.167 HD
ATOM     58  C   UNL A   1      45.655  23.207  26.860  1.00  0.00     0.034 A 
ATOM     59  C   UNL A   1      45.644  31.724  27.566  1.00  0.00     0.034 A 
ATOM     60  C   UNL A   1      46.307  24.516  26.249  1.00  0.00     0.049 A 
ATOM     61  C   UNL A   1      46.922  30.838  27.400  1.00  0.00     0.074 A 
ATOM     62  C   UNL A   1      45.995  25.289  25.125  1.00  0.00     0.029 A 
ATOM     63  N   UNL A   1      47.192  25.370  26.979  1.00  0.00    -0.354 N 
ATOM     64  N   UNL A   1      46.895  29.546  27.119  1.00  0.00    -0.248 NA
ATOM     65  C   UNL A   1      48.289  31.329  27.437  1.00  0.00     0.031 C 
ATOM     66  C   UNL A   1      46.635  26.574  25.212  1.00  0.00     0.029 A 
ATOM     67  C   UNL A   1      47.383  26.650  26.379  1.00  0.00     0.049 A 
ATOM     68  H   UNL A   1      47.629  25.099  27.819  1.00  0.00     0.167 HD
ATOM     69  C   UNL A   1      48.140  29.005  27.001  1.00  0.00     0.074 A 
ATOM     70  C   UNL A   1      48.980  30.207  27.145  1.00  0.00     0.031 C 
ATOM     71  C   UNL A   1      48.415  27.652  26.828  1.00  0.00     0.034 A 
BRANCH  58  72
ATOM     72  C   UNL A   1      45.146  22.096  25.941  1.00  0.00     0.023 A 
ATOM     73  C   UNL A   1      44.007  21.342  26.313  1.00  0.00     0.031 A 
ATOM     74  C   UNL A   1      45.829  21.642  24.794  1.00  0.00     0.131 A 
ATOM     75  C   UNL A   1      43.633  20.174  25.619  1.00  0.00     0.055 A 
ATOM     76  C   UNL A   1      45.444  20.487  24.091  1.00  0.00     0.041 A 
ATOM     77  F   UNL A   1      46.901  22.289  24.315  1.00  0.00    -0.206 F 
ATOM     78  C   UNL A   1      44.347  19.743  24.505  1.00  0.00     0.022 A 
BRANCH  75  79
ATOM     79  S   UNL A   1      42.196  19.207  26.177  1.00  0.00     0.124 S 
ATOM     80  O   UNL A   1      42.576  17.848  25.808  1.00  0.00    -0.237 OA
ATOM     81  O   UNL A   1      42.144  19.496  27.606  1.00  0.00    -0.237 OA
ATOM     82  O   UNL A   1      41.092  19.772  25.401  1.00  0.00    -0.744 OA
ENDBRANCH  75  79
ENDBRANCH  58  72
BRANCH  59  83
ATOM     83  C   UNL A   1      45.261  32.755  28.598  1.00  0.00     0.023 A 
ATOM     84  C   UNL A   1      45.890  32.733  29.892  1.00  0.00     0.031 A 
ATOM     85  C   UNL A   1      44.600  33.929  28.252  1.00  0.00     0.131 A 
ATOM     86  C   UNL A   1      45.976  33.896  30.696  1.00  0.00     0.055 A 
ATOM     87  C   UNL A   1      44.712  35.078  29.047  1.00  0.00     0.041 A 
ATOM     88  F   UNL A   1      43.965  34.034  27.078  1.00  0.00    -0.206 F 
ATOM     89  C   UNL A   1      45.456  35.093  30.227  1.00  0.00     0.022 A 
BRANCH  86  90
ATOM     90  S   UNL A   1      46.847  33.934  32.311  1.00  0.00     0.124 S 
ATOM     91  O   UNL A   1      46.661  35.320  32.723  1.00  0.00    -0.237 OA
ATOM     92  O   UNL A   1      46.130  32.940  33.101  1.00  0.00    -0.237 OA
ATOM     93  O   UNL A   1      48.226  33.586  31.970  1.00  0.00    -0.744 OA
ENDBRANCH  86  90
ENDBRANCH  59  83
BRANCH  71  94
ATOM     94  C   UNL A   1      49.850  27.183  26.898  1.00  0.00     0.023 A 
ATOM     95  C   UNL A   1      50.727  27.300  25.812  1.00  0.00     0.031 A 
ATOM     96  C   UNL A   1      50.385  26.600  28.066  1.00  0.00     0.131 A 
ATOM     97  C   UNL A   1      51.981  26.680  25.835  1.00  0.00     0.055 A 
ATOM     98  C   UNL A   1      51.696  26.133  28.141  1.00  0.00     0.041 A 
ATOM     99  F   UNL A   1      49.653  26.442  29.177  1.00  0.00    -0.206 F 
ATOM    100  C   UNL A   1      52.492  26.131  27.005  1.00  0.00     0.022 A 
BRANCH  97 101
ATOM    101  S   UNL A   1      52.833  26.456  24.254  1.00  0.00     0.124 S 
ATOM    102  O   UNL A   1      53.822  27.530  24.301  1.00  0.00    -0.237 OA
ATOM    103  O   UNL A   1      53.366  25.103  24.372  1.00  0.00    -0.237 OA
ATOM    104  O   UNL A   1      51.770  26.627  23.268  1.00  0.00    -0.744 OA
ENDBRANCH  97 101
ENDBRANCH  71  94
ENDBRANCH  45  46
ENDBRANCH  38  40
ENDBRANCH  37  38
ENDBRANCH  36  37
ENDBRANCH  35  36
ENDBRANCH  34  35
ENDBRANCH  33  34
ENDBRANCH   1  33
TORSDOF 25
ENDMDL
MODEL 2
REMARK VINA RESULT:     -12.4      2.028      2.470
REMARK SMILES Cc1cccc(CNC(=O)N[C@@H](CC2=c3ccccc3=NC2)C(=O)OCCOCCOCCOC(=O)c2ccc(-c3c4nc(c(-c5cc(S(=O)(=O)[O-])ccc5F)c5ccc([nH]5)c(-c5cc(S(=O)(=O)[O-])ccc5F)c5nc(c(-c6cc(S(=O)(=O)[O-])ccc6F)c6ccc3[nH]6)C=C5)C=C4)cc2)c1
REMARK SMILES IDX 29 1 28 2 27 3 26 4 25 5 23 6 24 7 12 8 11 9 8 10 9 11 10 13
REMARK SMILES IDX 7 15 6 16 1 17 2 18 3 19 100 20 4 21 5 22 13 23 14 24 15 25
REMARK SMILES IDX 22 26 16 27 20 28 21 29 17 30 19 31 18 32 30 33 31 34 32 35
REMARK SMILES IDX 33 36 34 37 35 38 36 39 37 40 38 41 99 42 39 43 98 44 40 45
REMARK SMILES IDX 41 46 42 47 92 48 43 49 97 50 91 51 93 52 44 53 96 54 90 55
REMARK SMILES IDX 89 56 45 58 77 59 57 60 76 61 58 62 61 63 75 64 94 65 59 66
REMARK SMILES IDX 60 67 74 69 95 70 62 71 46 72 47 73 55 74 48 75 54 76 56 77
REMARK SMILES IDX 53 78 49 79 50 80 51 81 52 82 78 83 79 84 87 85 80 86 86 87
REMARK SMILES IDX 88 88 85 89 81 90 82 91 83 92 84 93 63 94 64 95 72 96 65 97
REMARK SMILES IDX 71 98 73 99 70 100 66 101 67 102 68 103 69 104
REMARK H PARENT 8 12 11 14 93 57 61 68
REMARK Flexibility Score: inf
ROOT
ATOM      1  C   UNL A   1      35.184  32.914  30.280  1.00  0.00     0.188 C 
ENDROOT
BRANCH   1   2
ATOM      2  O   UNL A   1      34.510  31.852  29.633  1.00  0.00    -0.376 OA
BRANCH   2   3
ATOM      3  C   UNL A   1      35.087  31.588  28.367  1.00  0.00     0.202 C 
BRANCH   3   4
ATOM      4  C   UNL A   1      34.074  31.394  27.235  1.00  0.00     0.261 C 
BRANCH   4   5
ATOM      5  O   UNL A   1      33.768  29.847  26.688  1.00  0.00    -0.462 OA
BRANCH   5   6
ATOM      6  C   UNL A   1      33.065  28.937  25.844  1.00  0.00     0.329 C 
ATOM      7  O   UNL A   1      31.965  29.375  25.493  1.00  0.00    -0.250 OA
BRANCH   6   8
ATOM      8  C   UNL A   1      33.480  27.440  25.111  1.00  0.00     0.198 C 
BRANCH   8   9
ATOM      9  N   UNL A   1      33.934  27.598  23.660  1.00  0.00    -0.324 N 
ATOM     10  N   UNL A   1      32.124  27.755  22.138  1.00  0.00    -0.334 N 
ATOM     11  C   UNL A   1      33.427  27.743  22.426  1.00  0.00     0.315 C 
ATOM     12  H   UNL A   1      31.810  28.494  21.569  1.00  0.00     0.165 HD
ATOM     13  O   UNL A   1      34.217  28.053  21.528  1.00  0.00    -0.249 OA
ATOM     14  H   UNL A   1      34.918  27.589  23.616  1.00  0.00     0.166 HD
BRANCH  10  15
ATOM     15  C   UNL A   1      31.128  26.813  22.562  1.00  0.00     0.153 C 
BRANCH  15  16
ATOM     16  C   UNL A   1      29.812  27.388  23.029  1.00  0.00    -0.028 A 
ATOM     17  C   UNL A   1      27.887  30.481  21.957  1.00  0.00     0.044 C 
ATOM     18  C   UNL A   1      28.224  29.217  22.688  1.00  0.00    -0.051 A 
ATOM     19  C   UNL A   1      27.230  28.467  23.324  1.00  0.00     0.003 A 
ATOM     20  C   UNL A   1      29.509  28.678  22.566  1.00  0.00     0.009 A 
ATOM     21  C   UNL A   1      27.527  27.201  23.838  1.00  0.00     0.001 A 
ATOM     22  C   UNL A   1      28.813  26.668  23.704  1.00  0.00     0.005 A 
ENDBRANCH  15  16
ENDBRANCH  10  15
ENDBRANCH   8   9
BRANCH   8  23
ATOM     23  C   UNL A   1      34.168  26.020  25.792  1.00  0.00     0.070 C 
BRANCH  23  24
ATOM     24  C   UNL A   1      34.269  24.417  25.114  1.00  0.00    -0.037 C 
ATOM     25  C   UNL A   1      33.566  23.250  23.997  1.00  0.00     0.001 A 
ATOM     26  C   UNL A   1      34.524  23.479  26.851  1.00  0.00     0.174 C 
ATOM     27  C   UNL A   1      32.573  23.133  22.832  1.00  0.00     0.010 A 
ATOM     28  C   UNL A   1      33.311  21.551  24.791  1.00  0.00     0.065 A 
ATOM     29  N   UNL A   1      33.648  21.550  26.224  1.00  0.00    -0.280 NA
ATOM     30  C   UNL A   1      31.964  22.020  22.400  1.00  0.00     0.001 A 
ATOM     31  C   UNL A   1      32.807  20.422  24.024  1.00  0.00     0.028 A 
ATOM     32  C   UNL A   1      32.195  20.689  22.873  1.00  0.00     0.002 A 
ENDBRANCH  23  24
ENDBRANCH   8  23
ENDBRANCH   6   8
ENDBRANCH   5   6
ENDBRANCH   4   5
ENDBRANCH   3   4
ENDBRANCH   2   3
ENDBRANCH   1   2
BRANCH   1  33
ATOM     33  C   UNL A   1      36.496  33.229  29.598  1.00  0.00     0.188 C 
BRANCH  33  34
ATOM     34  O   UNL A   1      37.629  33.216  30.465  1.00  0.00    -0.376 OA
BRANCH  34  35
ATOM     35  C   UNL A   1      38.802  32.560  30.054  1.00  0.00     0.202 C 
BRANCH  35  36
ATOM     36  C   UNL A   1      38.510  31.070  29.991  1.00  0.00     0.261 C 
BRANCH  36  37
ATOM     37  O   UNL A   1      38.408  30.570  31.355  1.00  0.00    -0.460 OA
BRANCH  37  38
ATOM     38  C   UNL A   1      38.005  29.271  31.469  1.00  0.00     0.338 C 
ATOM     39  O   UNL A   1      36.998  28.913  32.064  1.00  0.00    -0.246 OA
BRANCH  38  40
ATOM     40  C   UNL A   1      39.091  28.338  31.011  1.00  0.00     0.060 A 
ATOM     41  C   UNL A   1      40.295  28.398  31.681  1.00  0.00     0.016 A 
ATOM     42  C   UNL A   1      39.080  27.700  29.768  1.00  0.00     0.016 A 
ATOM     43  C   UNL A   1      41.478  28.081  30.985  1.00  0.00     0.010 A 
ATOM     44  C   UNL A   1      40.291  27.377  29.097  1.00  0.00     0.010 A 
ATOM     45  C   UNL A   1      41.554  27.686  29.629  1.00  0.00    -0.014 A 
BRANCH  45  46
ATOM     46  C   UNL A   1      42.786  27.594  28.604  1.00  0.00     0.031 A 
ATOM     47  C   UNL A   1      43.097  25.704  28.536  1.00  0.00     0.074 A 
ATOM     48  C   UNL A   1      43.674  28.720  27.778  1.00  0.00     0.049 A 
ATOM     49  N   UNL A   1      44.319  24.906  27.399  1.00  0.00    -0.248 NA
ATOM     50  C   UNL A   1      42.915  24.239  29.884  1.00  0.00     0.031 C 
ATOM     51  C   UNL A   1      44.560  28.651  26.394  1.00  0.00     0.029 A 
ATOM     52  N   UNL A   1      44.080  30.119  27.882  1.00  0.00    -0.354 N 
ATOM     53  C   UNL A   1      44.787  23.351  27.830  1.00  0.00     0.074 A 
ATOM     54  C   UNL A   1      43.852  23.028  29.400  1.00  0.00     0.031 C 
ATOM     55  C   UNL A   1      44.962  29.807  25.870  1.00  0.00     0.029 A 
ATOM     56  C   UNL A   1      44.923  30.711  26.945  1.00  0.00     0.049 A 
ATOM     57  H   UNL A   1      43.749  30.660  28.635  1.00  0.00     0.167 HD
ATOM     58  C   UNL A   1      45.663  22.952  26.849  1.00  0.00     0.034 A 
ATOM     59  C   UNL A   1      45.987  31.480  27.289  1.00  0.00     0.034 A 
ATOM     60  C   UNL A   1      46.404  24.211  26.235  1.00  0.00     0.049 A 
ATOM     61  C   UNL A   1      47.232  30.536  27.223  1.00  0.00     0.074 A 
ATOM     62  C   UNL A   1      46.187  24.959  25.072  1.00  0.00     0.029 A 
ATOM     63  N   UNL A   1      47.284  25.050  26.987  1.00  0.00    -0.354 N 
ATOM     64  N   UNL A   1      47.164  29.238  26.981  1.00  0.00    -0.248 NA
ATOM     65  C   UNL A   1      48.615  30.970  27.321  1.00  0.00     0.031 C 
ATOM     66  C   UNL A   1      46.878  26.217  25.154  1.00  0.00     0.029 A 
ATOM     67  C   UNL A   1      47.564  26.301  26.359  1.00  0.00     0.049 A 
ATOM     68  H   UNL A   1      47.663  24.789  27.857  1.00  0.00     0.167 HD
ATOM     69  C   UNL A   1      48.388  28.641  26.949  1.00  0.00     0.074 A 
ATOM     70  C   UNL A   1      49.272  29.811  27.102  1.00  0.00     0.031 C 
ATOM     71  C   UNL A   1      48.613  27.272  26.834  1.00  0.00     0.034 A 
BRANCH  58  72
ATOM     72  C   UNL A   1      45.156  21.833  25.938  1.00  0.00     0.023 A 
ATOM     73  C   UNL A   1      43.986  21.117  26.287  1.00  0.00     0.031 A 
ATOM     74  C   UNL A   1      45.865  21.336  24.825  1.00  0.00     0.131 A 
ATOM     75  C   UNL A   1      43.606  19.942  25.606  1.00  0.00     0.055 A 
ATOM     76  C   UNL A   1      45.474  20.176  24.134  1.00  0.00     0.041 A 
ATOM     77  F   UNL A   1      46.969  21.945  24.368  1.00  0.00    -0.206 F 
ATOM     78  C   UNL A   1      44.345  19.469  24.527  1.00  0.00     0.022 A 
BRANCH  75  79
ATOM     79  S   UNL A   1      42.127  19.025  26.135  1.00  0.00     0.124 S 
ATOM     80  O   UNL A   1      42.034  19.377  27.548  1.00  0.00    -0.237 OA
ATOM     81  O   UNL A   1      41.083  19.562  25.268  1.00  0.00    -0.237 OA
ATOM     82  O   UNL A   1      42.483  17.632  25.868  1.00  0.00    -0.744 OA
ENDBRANCH  75  79
ENDBRANCH  58  72
BRANCH  59  83
ATOM     83  C   UNL A   1      45.595  32.560  28.266  1.00  0.00     0.023 A 
ATOM     84  C   UNL A   1      44.750  33.640  27.830  1.00  0.00     0.031 A 
ATOM     85  C   UNL A   1      45.713  32.385  29.640  1.00  0.00     0.131 A 
ATOM     86  C   UNL A   1      43.952  34.374  28.741  1.00  0.00     0.055 A 
ATOM     87  C   UNL A   1      44.901  33.103  30.529  1.00  0.00     0.041 A 
ATOM     88  F   UNL A   1      46.496  31.420  30.140  1.00  0.00    -0.206 F 
ATOM     89  C   UNL A   1      43.968  34.042  30.087  1.00  0.00     0.022 A 
BRANCH  86  90
ATOM     90  S   UNL A   1      42.794  35.699  28.216  1.00  0.00     0.124 S 
ATOM     91  O   UNL A   1      41.501  35.134  28.584  1.00  0.00    -0.237 OA
ATOM     92  O   UNL A   1      43.225  36.850  29.000  1.00  0.00    -0.237 OA
ATOM     93  O   UNL A   1      43.018  35.804  26.775  1.00  0.00    -0.744 OA
ENDBRANCH  86  90
ENDBRANCH  59  83
BRANCH  71  94
ATOM     94  C   UNL A   1      50.020  26.746  26.998  1.00  0.00     0.023 A 
ATOM     95  C   UNL A   1      50.667  26.720  28.240  1.00  0.00     0.031 A 
ATOM     96  C   UNL A   1      50.760  26.251  25.904  1.00  0.00     0.131 A 
ATOM     97  C   UNL A   1      52.030  26.418  28.330  1.00  0.00     0.055 A 
ATOM     98  C   UNL A   1      52.069  25.790  26.028  1.00  0.00     0.041 A 
ATOM     99  F   UNL A   1      50.250  26.209  24.665  1.00  0.00    -0.206 F 
ATOM    100  C   UNL A   1      52.730  25.912  27.241  1.00  0.00     0.022 A 
BRANCH  97 101
ATOM    101  S   UNL A   1      52.890  26.880  29.854  1.00  0.00     0.124 S 
ATOM    102  O   UNL A   1      54.271  26.986  29.388  1.00  0.00    -0.237 OA
ATOM    103  O   UNL A   1      52.246  28.140  30.211  1.00  0.00    -0.237 OA
ATOM    104  O   UNL A   1      52.617  25.761  30.751  1.00  0.00    -0.744 OA
ENDBRANCH  97 101
ENDBRANCH  71  94
ENDBRANCH  45  46
ENDBRANCH  38  40
ENDBRANCH  37  38
ENDBRANCH  36  37
ENDBRANCH  35  36
ENDBRANCH  34  35
ENDBRANCH  33  34
ENDBRANCH   1  33
TORSDOF 25
ENDMDL
MODEL 3
REMARK VINA RESULT:     -11.8      5.119     10.616
REMARK SMILES Cc1cccc(CNC(=O)N[C@@H](CC2=c3ccccc3=NC2)C(=O)OCCOCCOCCOC(=O)c2ccc(-c3c4nc(c(-c5cc(S(=O)(=O)[O-])ccc5F)c5ccc([nH]5)c(-c5cc(S(=O)(=O)[O-])ccc5F)c5nc(c(-c6cc(S(=O)(=O)[O-])ccc6F)c6ccc3[nH]6)C=C5)C=C4)cc2)c1
REMARK SMILES IDX 29 1 28 2 27 3 26 4 25 5 23 6 24 7 12 8 11 9 8 10 9 11 10 13
REMARK SMILES IDX 7 15 6 16 1 17 2 18 3 19 100 20 4 21 5 22 13 23 14 24 15 25
REMARK SMILES IDX 22 26 16 27 20 28 21 29 17 30 19 31 18 32 30 33 31 34 32 35
REMARK SMILES IDX 33 36 34 37 35 38 36 39 37 40 38 41 99 42 39 43 98 44 40 45
REMARK SMILES IDX 41 46 42 47 92 48 43 49 97 50 91 51 93 52 44 53 96 54 90 55
REMARK SMILES IDX 89 56 45 58 77 59 57 60 76 61 58 62 61 63 75 64 94 65 59 66
REMARK SMILES IDX 60 67 74 69 95 70 62 71 46 72 47 73 55 74 48 75 54 76 56 77
REMARK SMILES IDX 53 78 49 79 50 80 51 81 52 82 78 83 79 84 87 85 80 86 86 87
REMARK SMILES IDX 88 88 85 89 81 90 82 91 83 92 84 93 63 94 64 95 72 96 65 97
REMARK SMILES IDX 71 98 73 99 70 100 66 101 67 102 68 103 69 104
REMARK H PARENT 8 12 11 14 93 57 61 68
REMARK Flexibility Score: inf
ROOT
ATOM      1  C   UNL A   1      39.253  34.289  29.728  1.00  0.00     0.188 C 
ENDROOT
BRANCH   1   2
ATOM      2  O   UNL A   1      40.422  33.526  29.958  1.00  0.00    -0.376 OA
BRANCH   2   3
ATOM      3  C   UNL A   1      41.572  34.226  29.520  1.00  0.00     0.202 C 
BRANCH   3   4
ATOM      4  C   UNL A   1      42.898  33.640  30.014  1.00  0.00     0.261 C 
BRANCH   4   5
ATOM      5  O   UNL A   1      43.696  32.534  29.051  1.00  0.00    -0.462 OA
BRANCH   5   6
ATOM      6  C   UNL A   1      44.898  31.950  28.553  1.00  0.00     0.329 C 
ATOM      7  O   UNL A   1      45.074  30.802  28.972  1.00  0.00    -0.250 OA
BRANCH   6   8
ATOM      8  C   UNL A   1      46.067  32.451  27.397  1.00  0.00     0.198 C 
BRANCH   8   9
ATOM      9  N   UNL A   1      46.240  31.447  26.257  1.00  0.00    -0.324 N 
ATOM     10  N   UNL A   1      46.861  29.289  27.016  1.00  0.00    -0.334 N 
ATOM     11  C   UNL A   1      46.545  30.156  26.052  1.00  0.00     0.315 C 
ATOM     12  H   UNL A   1      46.384  28.428  27.001  1.00  0.00     0.165 HD
ATOM     13  O   UNL A   1      46.356  29.709  24.916  1.00  0.00    -0.249 OA
ATOM     14  H   UNL A   1      46.074  31.891  25.394  1.00  0.00     0.166 HD
BRANCH  10  15
ATOM     15  C   UNL A   1      47.816  29.467  28.071  1.00  0.00     0.153 C 
BRANCH  15  16
ATOM     16  C   UNL A   1      48.107  28.257  28.928  1.00  0.00    -0.028 A 
ATOM     17  C   UNL A   1      49.534  24.843  28.073  1.00  0.00     0.044 C 
ATOM     18  C   UNL A   1      48.978  25.973  28.888  1.00  0.00    -0.051 A 
ATOM     19  C   UNL A   1      49.180  26.030  30.270  1.00  0.00     0.003 A 
ATOM     20  C   UNL A   1      48.425  27.079  28.235  1.00  0.00     0.009 A 
ATOM     21  C   UNL A   1      48.821  27.176  30.985  1.00  0.00     0.001 A 
ATOM     22  C   UNL A   1      48.276  28.280  30.321  1.00  0.00     0.005 A 
ENDBRANCH  15  16
ENDBRANCH  10  15
ENDBRANCH   8   9
BRANCH   8  23
ATOM     23  C   UNL A   1      46.501  34.026  26.864  1.00  0.00     0.070 C 
BRANCH  23  24
ATOM     24  C   UNL A   1      45.472  35.394  26.533  1.00  0.00    -0.037 C 
ATOM     25  C   UNL A   1      44.768  36.884  27.155  1.00  0.00     0.001 A 
ATOM     26  C   UNL A   1      43.988  34.341  25.728  1.00  0.00     0.174 C 
ATOM     27  C   UNL A   1      44.888  37.895  28.304  1.00  0.00     0.010 A 
ATOM     28  C   UNL A   1      42.903  36.987  26.847  1.00  0.00     0.065 A 
ATOM     29  N   UNL A   1      42.371  35.756  26.241  1.00  0.00    -0.280 NA
ATOM     30  C   UNL A   1      43.955  38.766  28.713  1.00  0.00     0.001 A 
ATOM     31  C   UNL A   1      42.136  38.166  27.219  1.00  0.00     0.028 A 
ATOM     32  C   UNL A   1      42.687  39.004  28.092  1.00  0.00     0.002 A 
ENDBRANCH  23  24
ENDBRANCH   8  23
ENDBRANCH   6   8
ENDBRANCH   5   6
ENDBRANCH   4   5
ENDBRANCH   3   4
ENDBRANCH   2   3
ENDBRANCH   1   2
BRANCH   1  33
ATOM     33  C   UNL A   1      38.658  34.788  31.025  1.00  0.00     0.188 C 
BRANCH  33  34
ATOM     34  O   UNL A   1      37.643  33.946  31.570  1.00  0.00    -0.376 OA
BRANCH  34  35
ATOM     35  C   UNL A   1      36.560  33.562  30.759  1.00  0.00     0.202 C 
BRANCH  35  36
ATOM     36  C   UNL A   1      36.328  32.073  30.962  1.00  0.00     0.261 C 
BRANCH  36  37
ATOM     37  O   UNL A   1      35.415  31.611  29.926  1.00  0.00    -0.460 OA
BRANCH  37  38
ATOM     38  C   UNL A   1      35.964  31.485  28.683  1.00  0.00     0.338 C 
ATOM     39  O   UNL A   1      35.609  32.128  27.705  1.00  0.00    -0.246 OA
BRANCH  38  40
ATOM     40  C   UNL A   1      36.856  30.276  28.619  1.00  0.00     0.060 A 
ATOM     41  C   UNL A   1      36.765  29.373  29.657  1.00  0.00     0.016 A 
ATOM     42  C   UNL A   1      37.982  30.196  27.796  1.00  0.00     0.016 A 
ATOM     43  C   UNL A   1      37.905  28.624  30.009  1.00  0.00     0.010 A 
ATOM     44  C   UNL A   1      39.112  29.418  28.170  1.00  0.00     0.010 A 
ATOM     45  C   UNL A   1      39.167  28.701  29.377  1.00  0.00    -0.014 A 
BRANCH  45  46
ATOM     46  C   UNL A   1      40.622  28.185  29.817  1.00  0.00     0.031 A 
ATOM     47  C   UNL A   1      40.777  26.557  28.816  1.00  0.00     0.074 A 
ATOM     48  C   UNL A   1      41.776  28.760  30.855  1.00  0.00     0.049 A 
ATOM     49  N   UNL A   1      42.314  25.528  28.764  1.00  0.00    -0.248 NA
ATOM     50  C   UNL A   1      39.453  25.178  28.235  1.00  0.00     0.031 C 
ATOM     51  C   UNL A   1      43.405  28.553  30.944  1.00  0.00     0.029 A 
ATOM     52  N   UNL A   1      41.888  29.585  32.055  1.00  0.00    -0.354 N 
ATOM     53  C   UNL A   1      42.095  23.941  28.258  1.00  0.00     0.074 A 
ATOM     54  C   UNL A   1      40.269  23.823  27.953  1.00  0.00     0.031 C 
ATOM     55  C   UNL A   1      44.076  29.354  31.769  1.00  0.00     0.029 A 
ATOM     56  C   UNL A   1      43.111  29.799  32.687  1.00  0.00     0.049 A 
ATOM     57  H   UNL A   1      41.078  30.001  32.429  1.00  0.00     0.167 HD
ATOM     58  C   UNL A   1      43.349  23.380  28.272  1.00  0.00     0.034 A 
ATOM     59  C   UNL A   1      43.277  29.695  34.030  1.00  0.00     0.034 A 
ATOM     60  C   UNL A   1      44.251  24.088  29.367  1.00  0.00     0.049 A 
ATOM     61  C   UNL A   1      43.856  28.263  34.274  1.00  0.00     0.074 A 
ATOM     62  C   UNL A   1      45.221  25.093  29.283  1.00  0.00     0.029 A 
ATOM     63  N   UNL A   1      43.972  24.038  30.768  1.00  0.00    -0.354 N 
ATOM     64  N   UNL A   1      44.016  27.357  33.324  1.00  0.00    -0.248 NA
ATOM     65  C   UNL A   1      44.375  27.777  35.541  1.00  0.00     0.031 C 
ATOM     66  C   UNL A   1      45.473  25.650  30.585  1.00  0.00     0.029 A 
ATOM     67  C   UNL A   1      44.686  25.009  31.532  1.00  0.00     0.049 A 
ATOM     68  H   UNL A   1      43.346  23.393  31.169  1.00  0.00     0.167 HD
ATOM     69  C   UNL A   1      44.562  26.197  33.786  1.00  0.00     0.074 A 
ATOM     70  C   UNL A   1      44.831  26.556  35.190  1.00  0.00     0.031 C 
ATOM     71  C   UNL A   1      44.733  25.036  33.038  1.00  0.00     0.034 A 
BRANCH  58  72
ATOM     72  C   UNL A   1      43.927  23.039  26.898  1.00  0.00     0.023 A 
ATOM     73  C   UNL A   1      43.813  21.721  26.394  1.00  0.00     0.031 A 
ATOM     74  C   UNL A   1      44.726  23.915  26.135  1.00  0.00     0.131 A 
ATOM     75  C   UNL A   1      44.515  21.304  25.245  1.00  0.00     0.055 A 
ATOM     76  C   UNL A   1      45.411  23.504  24.979  1.00  0.00     0.041 A 
ATOM     77  F   UNL A   1      44.884  25.201  26.483  1.00  0.00    -0.206 F 
ATOM     78  C   UNL A   1      45.314  22.193  24.532  1.00  0.00     0.022 A 
BRANCH  75  79
ATOM     79  S   UNL A   1      44.382  19.581  24.676  1.00  0.00     0.124 S 
ATOM     80  O   UNL A   1      44.664  19.705  23.250  1.00  0.00    -0.237 OA
ATOM     81  O   UNL A   1      45.392  18.895  25.475  1.00  0.00    -0.237 OA
ATOM     82  O   UNL A   1      43.002  19.226  25.004  1.00  0.00    -0.744 OA
ENDBRANCH  75  79
ENDBRANCH  58  72
BRANCH  59  83
ATOM     83  C   UNL A   1      42.251  30.506  34.779  1.00  0.00     0.023 A 
ATOM     84  C   UNL A   1      42.175  31.928  34.566  1.00  0.00     0.031 A 
ATOM     85  C   UNL A   1      41.152  29.915  35.392  1.00  0.00     0.131 A 
ATOM     86  C   UNL A   1      40.983  32.653  34.811  1.00  0.00     0.055 A 
ATOM     87  C   UNL A   1      39.972  30.640  35.609  1.00  0.00     0.041 A 
ATOM     88  F   UNL A   1      41.141  28.601  35.653  1.00  0.00    -0.206 F 
ATOM     89  C   UNL A   1      39.853  31.984  35.255  1.00  0.00     0.022 A 
BRANCH  86  90
ATOM     90  S   UNL A   1      40.817  34.449  34.469  1.00  0.00     0.124 S 
ATOM     91  O   UNL A   1      41.429  34.563  33.150  1.00  0.00    -0.237 OA
ATOM     92  O   UNL A   1      39.376  34.666  34.516  1.00  0.00    -0.237 OA
ATOM     93  O   UNL A   1      41.580  35.079  35.544  1.00  0.00    -0.744 OA
ENDBRANCH  86  90
ENDBRANCH  59  83
BRANCH  71  94
ATOM     94  C   UNL A   1      45.183  23.775  33.739  1.00  0.00     0.023 A 
ATOM     95  C   UNL A   1      46.503  23.590  34.170  1.00  0.00     0.031 A 
ATOM     96  C   UNL A   1      44.293  22.712  33.997  1.00  0.00     0.131 A 
ATOM     97  C   UNL A   1      46.937  22.343  34.632  1.00  0.00     0.055 A 
ATOM     98  C   UNL A   1      44.694  21.528  34.614  1.00  0.00     0.041 A 
ATOM     99  F   UNL A   1      43.001  22.769  33.646  1.00  0.00    -0.206 F 
ATOM    100  C   UNL A   1      46.036  21.319  34.897  1.00  0.00     0.022 A 
BRANCH  97 101
ATOM    101  S   UNL A   1      48.722  22.050  34.696  1.00  0.00     0.124 S 
ATOM    102  O   UNL A   1      48.962  22.030  36.137  1.00  0.00    -0.237 OA
ATOM    103  O   UNL A   1      48.855  20.766  34.016  1.00  0.00    -0.237 OA
ATOM    104  O   UNL A   1      49.280  23.197  33.985  1.00  0.00    -0.744 OA
ENDBRANCH  97 101
ENDBRANCH  71  94
ENDBRANCH  45  46
ENDBRANCH  38  40
ENDBRANCH  37  38
ENDBRANCH  36  37
ENDBRANCH  35  36
ENDBRANCH  34  35
ENDBRANCH  33  34
ENDBRANCH   1  33
TORSDOF 25
ENDMDL
