MODEL 1
REMARK VINA RESULT:     -10.0      0.000      0.000
REMARK SMILES O=C(OCCOCCOCCOC(=O)c1cccc(Nc2ccnc3ccc(F)cc23)c1)c1ccc(-c2c3nc(c(-c4cc(S(=O)(=O)[O-])ccc4F)c4ccc([nH]4)c(-c4cc(S(=O)(=O)[O-])ccc4F)c4nc(c(-c5cc(S(=O)(=O)[O-])ccc5F)c5ccc2[nH]5)C=C4)C=C3)cc1
REMARK SMILES IDX 7 1 6 2 5 3 4 4 3 5 2 6 1 7 33 8 34 9 95 10 35 11 94 12
REMARK SMILES IDX 36 13 37 14 38 15 88 16 39 17 93 18 87 19 89 20 40 21 92 22
REMARK SMILES IDX 86 23 85 24 41 26 73 27 53 28 72 29 54 30 57 31 71 32 90 33
REMARK SMILES IDX 55 34 56 35 70 37 91 38 58 39 42 40 43 41 51 42 44 43 50 44
REMARK SMILES IDX 52 45 49 46 45 47 46 48 47 49 48 50 74 51 75 52 83 53 76 54
REMARK SMILES IDX 82 55 84 56 81 57 77 58 78 59 79 60 80 61 59 62 60 63 68 64
REMARK SMILES IDX 61 65 67 66 69 67 66 68 62 69 63 70 64 71 65 72 8 73 9 74
REMARK SMILES IDX 10 75 11 76 12 77 13 78 14 79 15 80 16 81 32 82 17 83 19 84
REMARK SMILES IDX 18 85 20 86 21 88 22 89 31 90 23 91 25 92 30 93 24 94 26 95
REMARK SMILES IDX 28 96 27 97 29 98
REMARK H PARENT 89 25 57 36 20 87
REMARK Flexibility Score: inf
ROOT
ATOM      1  C   UNL A   1      43.310  18.251  25.862  1.00  0.00     0.188 C 
ENDROOT
BRANCH   1   2
ATOM      2  O   UNL A   1      44.273  18.447  24.827  1.00  0.00    -0.376 OA
BRANCH   2   3
ATOM      3  C   UNL A   1      45.550  18.894  25.302  1.00  0.00     0.202 C 
BRANCH   3   4
ATOM      4  C   UNL A   1      45.952  20.315  24.866  1.00  0.00     0.261 C 
BRANCH   4   5
ATOM      5  O   UNL A   1      45.260  21.344  25.597  1.00  0.00    -0.460 OA
BRANCH   5   6
ATOM      6  C   UNL A   1      44.451  22.317  25.101  1.00  0.00     0.338 C 
ATOM      7  O   UNL A   1      43.800  22.080  24.084  1.00  0.00    -0.246 OA
BRANCH   6   8
ATOM      8  C   UNL A   1      44.305  23.665  25.731  1.00  0.00     0.060 A 
ATOM      9  C   UNL A   1      44.044  24.834  25.022  1.00  0.00     0.016 A 
ATOM     10  C   UNL A   1      44.377  23.753  27.132  1.00  0.00     0.016 A 
ATOM     11  C   UNL A   1      43.996  26.068  25.646  1.00  0.00     0.010 A 
ATOM     12  C   UNL A   1      44.239  24.987  27.782  1.00  0.00     0.010 A 
ATOM     13  C   UNL A   1      44.083  26.159  27.031  1.00  0.00    -0.014 A 
BRANCH  13  14
ATOM     14  C   UNL A   1      44.111  27.512  27.626  1.00  0.00     0.031 A 
ATOM     15  C   UNL A   1      42.828  28.101  28.122  1.00  0.00     0.074 A 
ATOM     16  C   UNL A   1      45.293  28.111  27.877  1.00  0.00     0.049 A 
ATOM     17  N   UNL A   1      42.613  29.262  28.675  1.00  0.00    -0.248 NA
ATOM     18  C   UNL A   1      41.631  27.251  28.012  1.00  0.00     0.031 C 
ATOM     19  C   UNL A   1      46.602  27.522  27.589  1.00  0.00     0.029 A 
ATOM     20  N   UNL A   1      45.598  29.312  28.457  1.00  0.00    -0.354 N 
ATOM     21  C   UNL A   1      41.259  29.283  28.985  1.00  0.00     0.074 A 
ATOM     22  C   UNL A   1      40.695  28.035  28.522  1.00  0.00     0.031 C 
ATOM     23  C   UNL A   1      47.568  28.362  27.991  1.00  0.00     0.029 A 
ATOM     24  C   UNL A   1      46.948  29.577  28.492  1.00  0.00     0.049 A 
ATOM     25  H   UNL A   1      44.918  29.926  28.816  1.00  0.00     0.167 HD
ATOM     26  C   UNL A   1      40.559  30.259  29.612  1.00  0.00     0.034 A 
ATOM     27  C   UNL A   1      47.606  30.698  28.844  1.00  0.00     0.034 A 
ATOM     28  C   UNL A   1      41.157  31.500  30.035  1.00  0.00     0.049 A 
ATOM     29  C   UNL A   1      46.782  31.843  29.364  1.00  0.00     0.074 A 
ATOM     30  C   UNL A   1      40.550  32.608  30.598  1.00  0.00     0.029 A 
ATOM     31  N   UNL A   1      42.512  31.798  29.934  1.00  0.00    -0.354 N 
ATOM     32  N   UNL A   1      45.485  31.892  29.569  1.00  0.00    -0.248 NA
ATOM     33  C   UNL A   1      47.500  33.073  29.707  1.00  0.00     0.031 C 
ATOM     34  C   UNL A   1      41.527  33.595  30.777  1.00  0.00     0.029 A 
ATOM     35  C   UNL A   1      42.757  33.079  30.396  1.00  0.00     0.049 A 
ATOM     36  H   UNL A   1      43.199  31.185  29.583  1.00  0.00     0.167 HD
ATOM     37  C   UNL A   1      45.233  33.154  30.091  1.00  0.00     0.074 A 
ATOM     38  C   UNL A   1      46.519  33.821  30.188  1.00  0.00     0.031 C 
ATOM     39  C   UNL A   1      44.053  33.715  30.460  1.00  0.00     0.034 A 
BRANCH  26  40
ATOM     40  C   UNL A   1      39.079  30.034  29.778  1.00  0.00     0.023 A 
ATOM     41  C   UNL A   1      38.133  30.691  28.970  1.00  0.00     0.031 A 
ATOM     42  C   UNL A   1      38.605  29.217  30.819  1.00  0.00     0.131 A 
ATOM     43  C   UNL A   1      36.764  30.578  29.263  1.00  0.00     0.055 A 
ATOM     44  C   UNL A   1      37.239  29.049  31.058  1.00  0.00     0.041 A 
ATOM     45  F   UNL A   1      39.462  28.594  31.642  1.00  0.00    -0.206 F 
ATOM     46  C   UNL A   1      36.311  29.742  30.287  1.00  0.00     0.022 A 
BRANCH  43  47
ATOM     47  S   UNL A   1      35.594  31.649  28.384  1.00  0.00     0.124 S 
ATOM     48  O   UNL A   1      35.101  30.753  27.340  1.00  0.00    -0.237 OA
ATOM     49  O   UNL A   1      34.637  32.000  29.427  1.00  0.00    -0.237 OA
ATOM     50  O   UNL A   1      36.428  32.750  27.906  1.00  0.00    -0.744 OA
ENDBRANCH  43  47
ENDBRANCH  26  40
BRANCH  27  51
ATOM     51  C   UNL A   1      49.077  30.830  28.623  1.00  0.00     0.023 A 
ATOM     52  C   UNL A   1      49.608  31.196  27.378  1.00  0.00     0.031 A 
ATOM     53  C   UNL A   1      49.982  30.507  29.653  1.00  0.00     0.131 A 
ATOM     54  C   UNL A   1      50.999  31.174  27.177  1.00  0.00     0.055 A 
ATOM     55  C   UNL A   1      51.365  30.532  29.464  1.00  0.00     0.041 A 
ATOM     56  F   UNL A   1      49.531  30.170  30.872  1.00  0.00    -0.206 F 
ATOM     57  C   UNL A   1      51.880  30.851  28.213  1.00  0.00     0.022 A 
BRANCH  54  58
ATOM     58  S   UNL A   1      51.641  31.473  25.506  1.00  0.00     0.124 S 
ATOM     59  O   UNL A   1      50.905  32.669  25.115  1.00  0.00    -0.237 OA
ATOM     60  O   UNL A   1      53.067  31.651  25.761  1.00  0.00    -0.237 OA
ATOM     61  O   UNL A   1      51.285  30.254  24.781  1.00  0.00    -0.744 OA
ENDBRANCH  54  58
ENDBRANCH  27  51
BRANCH  39  62
ATOM     62  C   UNL A   1      44.132  35.103  31.035  1.00  0.00     0.023 A 
ATOM     63  C   UNL A   1      44.163  35.318  32.423  1.00  0.00     0.031 A 
ATOM     64  C   UNL A   1      44.131  36.221  30.184  1.00  0.00     0.131 A 
ATOM     65  C   UNL A   1      44.115  36.626  32.922  1.00  0.00     0.055 A 
ATOM     66  C   UNL A   1      44.158  37.520  30.687  1.00  0.00     0.041 A 
ATOM     67  F   UNL A   1      44.098  36.065  28.851  1.00  0.00    -0.206 F 
ATOM     68  C   UNL A   1      44.132  37.729  32.063  1.00  0.00     0.022 A 
BRANCH  65  69
ATOM     69  S   UNL A   1      43.908  36.861  34.707  1.00  0.00     0.124 S 
ATOM     70  O   UNL A   1      44.928  35.968  35.247  1.00  0.00    -0.237 OA
ATOM     71  O   UNL A   1      44.162  38.289  34.865  1.00  0.00    -0.237 OA
ATOM     72  O   UNL A   1      42.528  36.445  34.948  1.00  0.00    -0.744 OA
ENDBRANCH  65  69
ENDBRANCH  39  62
ENDBRANCH  13  14
ENDBRANCH   6   8
ENDBRANCH   5   6
ENDBRANCH   4   5
ENDBRANCH   3   4
ENDBRANCH   2   3
ENDBRANCH   1   2
BRANCH   1  73
ATOM     73  C   UNL A   1      42.343  19.431  26.022  1.00  0.00     0.188 C 
BRANCH  73  74
ATOM     74  O   UNL A   1      42.434  20.156  27.246  1.00  0.00    -0.376 OA
BRANCH  74  75
ATOM     75  C   UNL A   1      41.465  21.192  27.441  1.00  0.00     0.202 C 
BRANCH  75  76
ATOM     76  C   UNL A   1      40.904  21.871  26.181  1.00  0.00     0.261 C 
BRANCH  76  77
ATOM     77  O   UNL A   1      39.548  22.333  26.334  1.00  0.00    -0.460 OA
BRANCH  77  78
ATOM     78  C   UNL A   1      38.612  21.553  25.744  1.00  0.00     0.338 C 
ATOM     79  O   UNL A   1      38.767  20.399  25.351  1.00  0.00    -0.246 OA
BRANCH  78  80
ATOM     80  C   UNL A   1      37.324  22.262  25.602  1.00  0.00     0.062 A 
ATOM     81  C   UNL A   1      37.229  23.650  25.756  1.00  0.00     0.016 A 
ATOM     82  C   UNL A   1      36.163  21.496  25.460  1.00  0.00     0.041 A 
ATOM     83  C   UNL A   1      35.981  24.272  25.764  1.00  0.00     0.003 A 
ATOM     84  C   UNL A   1      34.908  22.114  25.482  1.00  0.00     0.039 A 
ATOM     85  C   UNL A   1      34.828  23.502  25.638  1.00  0.00     0.026 A 
BRANCH  84  86
ATOM     86  N   UNL A   1      33.718  21.362  25.535  1.00  0.00    -0.355 N 
ATOM     87  H   UNL A   1      33.261  21.244  26.400  1.00  0.00     0.167 HD
BRANCH  86  88
ATOM     88  C   UNL A   1      33.165  20.771  24.371  1.00  0.00     0.050 A 
ATOM     89  C   UNL A   1      32.429  21.565  23.488  1.00  0.00     0.047 A 
ATOM     90  C   UNL A   1      33.285  19.390  24.117  1.00  0.00     0.027 A 
ATOM     91  C   UNL A   1      31.915  20.988  22.350  1.00  0.00     0.114 A 
ATOM     92  C   UNL A   1      32.697  18.900  22.928  1.00  0.00     0.072 A 
ATOM     93  C   UNL A   1      33.983  18.496  24.961  1.00  0.00     0.051 A 
ATOM     94  N   UNL A   1      32.044  19.681  22.052  1.00  0.00    -0.256 NA
ATOM     95  C   UNL A   1      32.798  17.547  22.636  1.00  0.00     0.032 A 
ATOM     96  C   UNL A   1      34.070  17.150  24.631  1.00  0.00     0.124 A 
ATOM     97  C   UNL A   1      33.474  16.664  23.479  1.00  0.00     0.041 A 
ATOM     98  F   UNL A   1      34.746  16.309  25.425  1.00  0.00    -0.207 F 
ENDBRANCH  86  88
ENDBRANCH  84  86
ENDBRANCH  78  80
ENDBRANCH  77  78
ENDBRANCH  76  77
ENDBRANCH  75  76
ENDBRANCH  74  75
ENDBRANCH  73  74
ENDBRANCH   1  73
TORSDOF 22
ENDMDL
MODEL 2
REMARK VINA RESULT:      -9.9      2.489      3.402
REMARK SMILES O=C(OCCOCCOCCOC(=O)c1cccc(Nc2ccnc3ccc(F)cc23)c1)c1ccc(-c2c3nc(c(-c4cc(S(=O)(=O)[O-])ccc4F)c4ccc([nH]4)c(-c4cc(S(=O)(=O)[O-])ccc4F)c4nc(c(-c5cc(S(=O)(=O)[O-])ccc5F)c5ccc2[nH]5)C=C4)C=C3)cc1
REMARK SMILES IDX 7 1 6 2 5 3 4 4 3 5 2 6 1 7 33 8 34 9 95 10 35 11 94 12
REMARK SMILES IDX 36 13 37 14 38 15 88 16 39 17 93 18 87 19 89 20 40 21 92 22
REMARK SMILES IDX 86 23 85 24 41 26 73 27 53 28 72 29 54 30 57 31 71 32 90 33
REMARK SMILES IDX 55 34 56 35 70 37 91 38 58 39 42 40 43 41 51 42 44 43 50 44
REMARK SMILES IDX 52 45 49 46 45 47 46 48 47 49 48 50 74 51 75 52 83 53 76 54
REMARK SMILES IDX 82 55 84 56 81 57 77 58 78 59 79 60 80 61 59 62 60 63 68 64
REMARK SMILES IDX 61 65 67 66 69 67 66 68 62 69 63 70 64 71 65 72 8 73 9 74
REMARK SMILES IDX 10 75 11 76 12 77 13 78 14 79 15 80 16 81 32 82 17 83 19 84
REMARK SMILES IDX 18 85 20 86 21 88 22 89 31 90 23 91 25 92 30 93 24 94 26 95
REMARK SMILES IDX 28 96 27 97 29 98
REMARK H PARENT 89 25 57 36 20 87
REMARK Flexibility Score: inf
ROOT
ATOM      1  C   UNL A   1      43.022  18.483  26.070  1.00  0.00     0.188 C 
ENDROOT
BRANCH   1   2
ATOM      2  O   UNL A   1      43.975  18.649  25.020  1.00  0.00    -0.376 OA
BRANCH   2   3
ATOM      3  C   UNL A   1      45.185  19.298  25.435  1.00  0.00     0.202 C 
BRANCH   3   4
ATOM      4  C   UNL A   1      45.423  20.692  24.828  1.00  0.00     0.261 C 
BRANCH   4   5
ATOM      5  O   UNL A   1      44.718  21.736  25.524  1.00  0.00    -0.460 OA
BRANCH   5   6
ATOM      6  C   UNL A   1      44.013  22.767  24.987  1.00  0.00     0.338 C 
ATOM      7  O   UNL A   1      43.457  22.599  23.902  1.00  0.00    -0.246 OA
BRANCH   6   8
ATOM      8  C   UNL A   1      43.874  24.101  25.649  1.00  0.00     0.060 A 
ATOM      9  C   UNL A   1      43.469  25.260  24.993  1.00  0.00     0.016 A 
ATOM     10  C   UNL A   1      44.109  24.181  27.033  1.00  0.00     0.016 A 
ATOM     11  C   UNL A   1      43.432  26.484  25.636  1.00  0.00     0.010 A 
ATOM     12  C   UNL A   1      43.986  25.401  27.712  1.00  0.00     0.010 A 
ATOM     13  C   UNL A   1      43.680  26.568  27.002  1.00  0.00    -0.014 A 
BRANCH  13  14
ATOM     14  C   UNL A   1      43.708  27.916  27.608  1.00  0.00     0.031 A 
ATOM     15  C   UNL A   1      42.423  28.504  28.102  1.00  0.00     0.074 A 
ATOM     16  C   UNL A   1      44.889  28.510  27.871  1.00  0.00     0.049 A 
ATOM     17  N   UNL A   1      42.208  29.662  28.664  1.00  0.00    -0.248 NA
ATOM     18  C   UNL A   1      41.224  27.659  27.978  1.00  0.00     0.031 C 
ATOM     19  C   UNL A   1      46.198  27.921  27.586  1.00  0.00     0.029 A 
ATOM     20  N   UNL A   1      45.195  29.705  28.464  1.00  0.00    -0.354 N 
ATOM     21  C   UNL A   1      40.852  29.684  28.966  1.00  0.00     0.074 A 
ATOM     22  C   UNL A   1      40.288  28.441  28.490  1.00  0.00     0.031 C 
ATOM     23  C   UNL A   1      47.164  28.754  28.001  1.00  0.00     0.029 A 
ATOM     24  C   UNL A   1      46.545  29.967  28.508  1.00  0.00     0.049 A 
ATOM     25  H   UNL A   1      44.514  30.318  28.824  1.00  0.00     0.167 HD
ATOM     26  C   UNL A   1      40.152  30.656  29.597  1.00  0.00     0.034 A 
ATOM     27  C   UNL A   1      47.204  31.082  28.873  1.00  0.00     0.034 A 
ATOM     28  C   UNL A   1      40.750  31.892  30.035  1.00  0.00     0.049 A 
ATOM     29  C   UNL A   1      46.379  32.226  29.398  1.00  0.00     0.074 A 
ATOM     30  C   UNL A   1      40.143  32.996  30.604  1.00  0.00     0.029 A 
ATOM     31  N   UNL A   1      42.107  32.187  29.944  1.00  0.00    -0.354 N 
ATOM     32  N   UNL A   1      45.082  32.276  29.597  1.00  0.00    -0.248 NA
ATOM     33  C   UNL A   1      47.099  33.451  29.756  1.00  0.00     0.031 C 
ATOM     34  C   UNL A   1      41.121  33.979  30.796  1.00  0.00     0.029 A 
ATOM     35  C   UNL A   1      42.352  33.463  30.418  1.00  0.00     0.049 A 
ATOM     36  H   UNL A   1      42.794  31.575  29.592  1.00  0.00     0.167 HD
ATOM     37  C   UNL A   1      44.830  33.534  30.128  1.00  0.00     0.074 A 
ATOM     38  C   UNL A   1      46.117  34.197  30.238  1.00  0.00     0.031 C 
ATOM     39  C   UNL A   1      43.649  34.095  30.495  1.00  0.00     0.034 A 
BRANCH  26  40
ATOM     40  C   UNL A   1      38.670  30.434  29.753  1.00  0.00     0.023 A 
ATOM     41  C   UNL A   1      37.729  31.129  28.973  1.00  0.00     0.031 A 
ATOM     42  C   UNL A   1      38.190  29.577  30.759  1.00  0.00     0.131 A 
ATOM     43  C   UNL A   1      36.359  31.013  29.261  1.00  0.00     0.055 A 
ATOM     44  C   UNL A   1      36.823  29.407  30.990  1.00  0.00     0.041 A 
ATOM     45  F   UNL A   1      39.042  28.915  31.556  1.00  0.00    -0.206 F 
ATOM     46  C   UNL A   1      35.900  30.138  30.248  1.00  0.00     0.022 A 
BRANCH  43  47
ATOM     47  S   UNL A   1      35.196  32.127  28.425  1.00  0.00     0.124 S 
ATOM     48  O   UNL A   1      34.544  32.778  29.560  1.00  0.00    -0.237 OA
ATOM     49  O   UNL A   1      36.079  32.970  27.628  1.00  0.00    -0.237 OA
ATOM     50  O   UNL A   1      34.341  31.221  27.661  1.00  0.00    -0.744 OA
ENDBRANCH  43  47
ENDBRANCH  26  40
BRANCH  27  51
ATOM     51  C   UNL A   1      48.676  31.212  28.662  1.00  0.00     0.023 A 
ATOM     52  C   UNL A   1      49.208  31.837  27.524  1.00  0.00     0.031 A 
ATOM     53  C   UNL A   1      49.579  30.632  29.574  1.00  0.00     0.131 A 
ATOM     54  C   UNL A   1      50.595  31.815  27.299  1.00  0.00     0.055 A 
ATOM     55  C   UNL A   1      50.960  30.653  29.371  1.00  0.00     0.041 A 
ATOM     56  F   UNL A   1      49.128  30.039  30.692  1.00  0.00    -0.206 F 
ATOM     57  C   UNL A   1      51.474  31.234  28.217  1.00  0.00     0.022 A 
BRANCH  54  58
ATOM     58  S   UNL A   1      51.231  32.468  25.729  1.00  0.00     0.124 S 
ATOM     59  O   UNL A   1      50.214  33.455  25.385  1.00  0.00    -0.237 OA
ATOM     60  O   UNL A   1      52.530  32.997  26.130  1.00  0.00    -0.237 OA
ATOM     61  O   UNL A   1      51.278  31.291  24.864  1.00  0.00    -0.744 OA
ENDBRANCH  54  58
ENDBRANCH  27  51
BRANCH  39  62
ATOM     62  C   UNL A   1      43.729  35.478  31.082  1.00  0.00     0.023 A 
ATOM     63  C   UNL A   1      43.711  36.621  30.265  1.00  0.00     0.031 A 
ATOM     64  C   UNL A   1      43.872  35.649  32.469  1.00  0.00     0.131 A 
ATOM     65  C   UNL A   1      43.909  37.884  30.838  1.00  0.00     0.055 A 
ATOM     66  C   UNL A   1      43.994  36.914  33.040  1.00  0.00     0.041 A 
ATOM     67  F   UNL A   1      43.899  34.586  33.290  1.00  0.00    -0.206 F 
ATOM     68  C   UNL A   1      44.031  38.040  32.221  1.00  0.00     0.022 A 
BRANCH  65  69
ATOM     69  S   UNL A   1      44.125  39.306  29.735  1.00  0.00     0.124 S 
ATOM     70  O   UNL A   1      44.528  38.661  28.489  1.00  0.00    -0.237 OA
ATOM     71  O   UNL A   1      42.796  39.909  29.739  1.00  0.00    -0.237 OA
ATOM     72  O   UNL A   1      45.166  40.093  30.392  1.00  0.00    -0.744 OA
ENDBRANCH  65  69
ENDBRANCH  39  62
ENDBRANCH  13  14
ENDBRANCH   6   8
ENDBRANCH   5   6
ENDBRANCH   4   5
ENDBRANCH   3   4
ENDBRANCH   2   3
ENDBRANCH   1   2
BRANCH   1  73
ATOM     73  C   UNL A   1      41.940  19.570  26.085  1.00  0.00     0.188 C 
BRANCH  73  74
ATOM     74  O   UNL A   1      42.043  20.544  27.121  1.00  0.00    -0.376 OA
BRANCH  74  75
ATOM     75  C   UNL A   1      40.867  21.317  27.381  1.00  0.00     0.202 C 
BRANCH  75  76
ATOM     76  C   UNL A   1      40.219  22.030  26.182  1.00  0.00     0.261 C 
BRANCH  76  77
ATOM     77  O   UNL A   1      38.781  21.953  26.178  1.00  0.00    -0.460 OA
BRANCH  77  78
ATOM     78  C   UNL A   1      38.148  23.144  26.065  1.00  0.00     0.338 C 
ATOM     79  O   UNL A   1      38.517  24.214  26.543  1.00  0.00    -0.246 OA
BRANCH  78  80
ATOM     80  C   UNL A   1      36.902  23.026  25.280  1.00  0.00     0.062 A 
ATOM     81  C   UNL A   1      36.920  22.897  23.887  1.00  0.00     0.016 A 
ATOM     82  C   UNL A   1      35.685  23.200  25.947  1.00  0.00     0.041 A 
ATOM     83  C   UNL A   1      35.731  22.938  23.161  1.00  0.00     0.003 A 
ATOM     84  C   UNL A   1      34.490  23.256  25.222  1.00  0.00     0.039 A 
ATOM     85  C   UNL A   1      34.524  23.126  23.830  1.00  0.00     0.026 A 
BRANCH  84  86
ATOM     86  N   UNL A   1      33.275  23.620  25.834  1.00  0.00    -0.355 N 
ATOM     87  H   UNL A   1      33.039  23.229  26.706  1.00  0.00     0.167 HD
BRANCH  86  88
ATOM     88  C   UNL A   1      32.384  24.537  25.221  1.00  0.00     0.050 A 
ATOM     89  C   UNL A   1      31.315  24.048  24.466  1.00  0.00     0.047 A 
ATOM     90  C   UNL A   1      32.588  25.930  25.302  1.00  0.00     0.027 A 
ATOM     91  C   UNL A   1      30.443  24.945  23.893  1.00  0.00     0.114 A 
ATOM     92  C   UNL A   1      31.642  26.758  24.654  1.00  0.00     0.072 A 
ATOM     93  C   UNL A   1      33.653  26.525  26.015  1.00  0.00     0.051 A 
ATOM     94  N   UNL A   1      30.582  26.281  23.982  1.00  0.00    -0.256 NA
ATOM     95  C   UNL A   1      31.802  28.135  24.714  1.00  0.00     0.032 A 
ATOM     96  C   UNL A   1      33.775  27.908  26.059  1.00  0.00     0.124 A 
ATOM     97  C   UNL A   1      32.863  28.720  25.406  1.00  0.00     0.041 A 
ATOM     98  F   UNL A   1      34.776  28.468  26.750  1.00  0.00    -0.207 F 
ENDBRANCH  86  88
ENDBRANCH  84  86
ENDBRANCH  78  80
ENDBRANCH  77  78
ENDBRANCH  76  77
ENDBRANCH  75  76
ENDBRANCH  74  75
ENDBRANCH  73  74
ENDBRANCH   1  73
TORSDOF 22
ENDMDL
MODEL 3
REMARK VINA RESULT:      -9.7      9.910     14.144
REMARK SMILES O=C(OCCOCCOCCOC(=O)c1cccc(Nc2ccnc3ccc(F)cc23)c1)c1ccc(-c2c3nc(c(-c4cc(S(=O)(=O)[O-])ccc4F)c4ccc([nH]4)c(-c4cc(S(=O)(=O)[O-])ccc4F)c4nc(c(-c5cc(S(=O)(=O)[O-])ccc5F)c5ccc2[nH]5)C=C4)C=C3)cc1
REMARK SMILES IDX 7 1 6 2 5 3 4 4 3 5 2 6 1 7 33 8 34 9 95 10 35 11 94 12
REMARK SMILES IDX 36 13 37 14 38 15 88 16 39 17 93 18 87 19 89 20 40 21 92 22
REMARK SMILES IDX 86 23 85 24 41 26 73 27 53 28 72 29 54 30 57 31 71 32 90 33
REMARK SMILES IDX 55 34 56 35 70 37 91 38 58 39 42 40 43 41 51 42 44 43 50 44
REMARK SMILES IDX 52 45 49 46 45 47 46 48 47 49 48 50 74 51 75 52 83 53 76 54
REMARK SMILES IDX 82 55 84 56 81 57 77 58 78 59 79 60 80 61 59 62 60 63 68 64
REMARK SMILES IDX 61 65 67 66 69 67 66 68 62 69 63 70 64 71 65 72 8 73 9 74
REMARK SMILES IDX 10 75 11 76 12 77 13 78 14 79 15 80 16 81 32 82 17 83 19 84
REMARK SMILES IDX 18 85 20 86 21 88 22 89 31 90 23 91 25 92 30 93 24 94 26 95
REMARK SMILES IDX 28 96 27 97 29 98
REMARK H PARENT 89 25 57 36 20 87
REMARK Flexibility Score: inf
ROOT
ATOM      1  C   UNL A   1      49.087  22.013  35.743  1.00  0.00     0.188 C 
ENDROOT
BRANCH   1   2
ATOM      2  O   UNL A   1      49.575  22.850  36.792  1.00  0.00    -0.376 OA
BRANCH   2   3
ATOM      3  C   UNL A   1      50.441  23.899  36.339  1.00  0.00     0.202 C 
BRANCH   3   4
ATOM      4  C   UNL A   1      49.771  25.274  36.164  1.00  0.00     0.261 C 
BRANCH   4   5
ATOM      5  O   UNL A   1      48.400  25.291  36.603  1.00  0.00    -0.460 OA
BRANCH   5   6
ATOM      6  C   UNL A   1      47.618  26.374  36.851  1.00  0.00     0.338 C 
ATOM      7  O   UNL A   1      47.816  27.021  37.880  1.00  0.00    -0.246 OA
BRANCH   6   8
ATOM      8  C   UNL A   1      46.526  26.827  35.936  1.00  0.00     0.060 A 
ATOM      9  C   UNL A   1      46.589  27.979  35.156  1.00  0.00     0.016 A 
ATOM     10  C   UNL A   1      45.389  26.012  35.807  1.00  0.00     0.016 A 
ATOM     11  C   UNL A   1      45.518  28.394  34.385  1.00  0.00     0.010 A 
ATOM     12  C   UNL A   1      44.335  26.378  34.957  1.00  0.00     0.010 A 
ATOM     13  C   UNL A   1      44.384  27.596  34.268  1.00  0.00    -0.014 A 
BRANCH  13  14
ATOM     14  C   UNL A   1      43.245  28.138  33.498  1.00  0.00     0.031 A 
ATOM     15  C   UNL A   1      43.092  27.730  32.066  1.00  0.00     0.074 A 
ATOM     16  C   UNL A   1      42.276  28.829  34.130  1.00  0.00     0.049 A 
ATOM     17  N   UNL A   1      42.178  28.077  31.203  1.00  0.00    -0.248 NA
ATOM     18  C   UNL A   1      44.084  26.774  31.547  1.00  0.00     0.031 C 
ATOM     19  C   UNL A   1      42.258  29.114  35.566  1.00  0.00     0.029 A 
ATOM     20  N   UNL A   1      41.110  29.383  33.676  1.00  0.00    -0.354 N 
ATOM     21  C   UNL A   1      42.479  27.379  30.040  1.00  0.00     0.074 A 
ATOM     22  C   UNL A   1      43.682  26.620  30.296  1.00  0.00     0.031 C 
ATOM     23  C   UNL A   1      41.140  29.790  35.874  1.00  0.00     0.029 A 
ATOM     24  C   UNL A   1      40.404  30.053  34.649  1.00  0.00     0.049 A 
ATOM     25  H   UNL A   1      40.805  29.309  32.743  1.00  0.00     0.167 HD
ATOM     26  C   UNL A   1      41.796  27.371  28.870  1.00  0.00     0.034 A 
ATOM     27  C   UNL A   1      39.311  30.832  34.551  1.00  0.00     0.034 A 
ATOM     28  C   UNL A   1      40.613  28.162  28.649  1.00  0.00     0.049 A 
ATOM     29  C   UNL A   1      38.677  30.958  33.193  1.00  0.00     0.074 A 
ATOM     30  C   UNL A   1      39.877  28.318  27.489  1.00  0.00     0.029 A 
ATOM     31  N   UNL A   1      39.993  28.942  29.621  1.00  0.00    -0.354 N 
ATOM     32  N   UNL A   1      39.021  30.367  32.071  1.00  0.00    -0.248 NA
ATOM     33  C   UNL A   1      37.511  31.839  33.086  1.00  0.00     0.031 C 
ATOM     34  C   UNL A   1      38.853  29.239  27.744  1.00  0.00     0.029 A 
ATOM     35  C   UNL A   1      38.903  29.602  29.082  1.00  0.00     0.049 A 
ATOM     36  H   UNL A   1      40.288  29.014  30.558  1.00  0.00     0.167 HD
ATOM     37  C   UNL A   1      38.096  30.787  31.124  1.00  0.00     0.074 A 
ATOM     38  C   UNL A   1      37.169  31.662  31.819  1.00  0.00     0.031 C 
ATOM     39  C   UNL A   1      38.013  30.481  29.805  1.00  0.00     0.034 A 
BRANCH  26  40
ATOM     40  C   UNL A   1      42.381  26.552  27.749  1.00  0.00     0.023 A 
ATOM     41  C   UNL A   1      41.963  25.233  27.497  1.00  0.00     0.031 A 
ATOM     42  C   UNL A   1      43.436  27.068  26.977  1.00  0.00     0.131 A 
ATOM     43  C   UNL A   1      42.645  24.451  26.550  1.00  0.00     0.055 A 
ATOM     44  C   UNL A   1      44.061  26.311  25.983  1.00  0.00     0.041 A 
ATOM     45  F   UNL A   1      43.900  28.308  27.197  1.00  0.00    -0.206 F 
ATOM     46  C   UNL A   1      43.675  24.990  25.775  1.00  0.00     0.022 A 
BRANCH  43  47
ATOM     47  S   UNL A   1      42.264  22.680  26.445  1.00  0.00     0.124 S 
ATOM     48  O   UNL A   1      43.186  22.121  27.431  1.00  0.00    -0.237 OA
ATOM     49  O   UNL A   1      40.850  22.637  26.798  1.00  0.00    -0.237 OA
ATOM     50  O   UNL A   1      42.571  22.345  25.056  1.00  0.00    -0.744 OA
ENDBRANCH  43  47
ENDBRANCH  26  40
BRANCH  27  51
ATOM     51  C   UNL A   1      38.818  31.620  35.720  1.00  0.00     0.023 A 
ATOM     52  C   UNL A   1      38.155  31.011  36.796  1.00  0.00     0.031 A 
ATOM     53  C   UNL A   1      38.938  33.023  35.733  1.00  0.00     0.131 A 
ATOM     54  C   UNL A   1      37.587  31.806  37.806  1.00  0.00     0.055 A 
ATOM     55  C   UNL A   1      38.414  33.806  36.763  1.00  0.00     0.041 A 
ATOM     56  F   UNL A   1      39.582  33.659  34.741  1.00  0.00    -0.206 F 
ATOM     57  C   UNL A   1      37.718  33.196  37.801  1.00  0.00     0.022 A 
BRANCH  54  58
ATOM     58  S   UNL A   1      36.578  30.998  39.082  1.00  0.00     0.124 S 
ATOM     59  O   UNL A   1      35.445  31.910  39.186  1.00  0.00    -0.237 OA
ATOM     60  O   UNL A   1      36.304  29.702  38.469  1.00  0.00    -0.237 OA
ATOM     61  O   UNL A   1      37.463  30.964  40.244  1.00  0.00    -0.744 OA
ENDBRANCH  54  58
ENDBRANCH  27  51
BRANCH  39  62
ATOM     62  C   UNL A   1      36.850  31.078  29.060  1.00  0.00     0.023 A 
ATOM     63  C   UNL A   1      35.783  30.282  28.610  1.00  0.00     0.031 A 
ATOM     64  C   UNL A   1      36.834  32.451  28.759  1.00  0.00     0.131 A 
ATOM     65  C   UNL A   1      34.780  30.852  27.817  1.00  0.00     0.055 A 
ATOM     66  C   UNL A   1      35.793  33.026  28.032  1.00  0.00     0.041 A 
ATOM     67  F   UNL A   1      37.833  33.251  29.163  1.00  0.00    -0.206 F 
ATOM     68  C   UNL A   1      34.767  32.223  27.541  1.00  0.00     0.022 A 
BRANCH  65  69
ATOM     69  S   UNL A   1      33.558  29.755  27.052  1.00  0.00     0.124 S 
ATOM     70  O   UNL A   1      34.322  29.172  25.954  1.00  0.00    -0.237 OA
ATOM     71  O   UNL A   1      33.222  28.850  28.146  1.00  0.00    -0.237 OA
ATOM     72  O   UNL A   1      32.487  30.664  26.649  1.00  0.00    -0.744 OA
ENDBRANCH  65  69
ENDBRANCH  39  62
ENDBRANCH  13  14
ENDBRANCH   6   8
ENDBRANCH   5   6
ENDBRANCH   4   5
ENDBRANCH   3   4
ENDBRANCH   2   3
ENDBRANCH   1   2
BRANCH   1  73
ATOM     73  C   UNL A   1      48.160  20.897  36.239  1.00  0.00     0.188 C 
BRANCH  73  74
ATOM     74  O   UNL A   1      48.234  20.590  37.629  1.00  0.00    -0.376 OA
BRANCH  74  75
ATOM     75  C   UNL A   1      46.998  20.265  38.273  1.00  0.00     0.202 C 
BRANCH  75  76
ATOM     76  C   UNL A   1      46.853  18.841  38.833  1.00  0.00     0.261 C 
BRANCH  76  77
ATOM     77  O   UNL A   1      45.581  18.599  39.464  1.00  0.00    -0.460 OA
BRANCH  77  78
ATOM     78  C   UNL A   1      45.640  17.857  40.594  1.00  0.00     0.338 C 
ATOM     79  O   UNL A   1      46.422  18.012  41.529  1.00  0.00    -0.246 OA
BRANCH  78  80
ATOM     80  C   UNL A   1      44.629  16.779  40.591  1.00  0.00     0.062 A 
ATOM     81  C   UNL A   1      44.110  16.263  39.398  1.00  0.00     0.016 A 
ATOM     82  C   UNL A   1      44.082  16.386  41.816  1.00  0.00     0.041 A 
ATOM     83  C   UNL A   1      43.053  15.355  39.427  1.00  0.00     0.003 A 
ATOM     84  C   UNL A   1      43.011  15.486  41.850  1.00  0.00     0.039 A 
ATOM     85  C   UNL A   1      42.502  14.979  40.650  1.00  0.00     0.026 A 
BRANCH  84  86
ATOM     86  N   UNL A   1      42.313  15.217  43.043  1.00  0.00    -0.355 N 
ATOM     87  H   UNL A   1      41.361  15.462  43.110  1.00  0.00     0.167 HD
BRANCH  86  88
ATOM     88  C   UNL A   1      42.951  14.603  44.150  1.00  0.00     0.050 A 
ATOM     89  C   UNL A   1      43.471  15.405  45.169  1.00  0.00     0.047 A 
ATOM     90  C   UNL A   1      43.129  13.206  44.216  1.00  0.00     0.027 A 
ATOM     91  C   UNL A   1      44.069  14.799  46.249  1.00  0.00     0.114 A 
ATOM     92  C   UNL A   1      43.779  12.693  45.363  1.00  0.00     0.072 A 
ATOM     93  C   UNL A   1      42.667  12.310  43.226  1.00  0.00     0.051 A 
ATOM     94  N   UNL A   1      44.222  13.466  46.367  1.00  0.00    -0.256 NA
ATOM     95  C   UNL A   1      43.969  11.322  45.471  1.00  0.00     0.032 A 
ATOM     96  C   UNL A   1      42.868  10.943  43.374  1.00  0.00     0.124 A 
ATOM     97  C   UNL A   1      43.526  10.441  44.484  1.00  0.00     0.041 A 
ATOM     98  F   UNL A   1      42.414  10.096  42.441  1.00  0.00    -0.207 F 
ENDBRANCH  86  88
ENDBRANCH  84  86
ENDBRANCH  78  80
ENDBRANCH  77  78
ENDBRANCH  76  77
ENDBRANCH  75  76
ENDBRANCH  74  75
ENDBRANCH  73  74
ENDBRANCH   1  73
TORSDOF 22
ENDMDL
