MODEL 1
REMARK VINA RESULT:      -9.7      0.000      0.000
REMARK SMILES CC[C@](C)(NC(=O)N(C)Cc1cccc(C)c1)C(=O)OCCOCCOCCOC(=O)c1ccc(-c2c3nc(c(-c4cc(S(=O)(=O)[O-])ccc4F)c4ccc([nH]4)c(-c4cc(S(=O)(=O)[O-])ccc4F)c4nc(c(-c5cc(S(=O)(=O)[O-])ccc5F)c5ccc2[nH]5)C=C4)C=C3)cc1
REMARK SMILES IDX 24 1 23 2 22 3 21 4 20 5 18 6 19 7 3 8 4 9 2 10 1 11 5 12
REMARK SMILES IDX 6 13 7 15 8 16 9 17 10 18 11 19 12 20 17 21 13 22 15 23
REMARK SMILES IDX 14 24 16 25 25 26 26 27 27 28 28 29 29 30 30 31 31 32 32 33
REMARK SMILES IDX 33 34 94 35 34 36 93 37 35 38 36 39 37 40 87 41 38 42 92 43
REMARK SMILES IDX 86 44 88 45 39 46 91 47 85 48 84 49 40 51 72 52 52 53 71 54
REMARK SMILES IDX 53 55 56 56 70 57 89 58 54 59 55 60 69 62 90 63 57 64 41 65
REMARK SMILES IDX 42 66 50 67 43 68 49 69 51 70 48 71 44 72 45 73 46 74 47 75
REMARK SMILES IDX 73 76 74 77 82 78 75 79 81 80 83 81 80 82 76 83 77 84 78 85
REMARK SMILES IDX 79 86 58 87 59 88 67 89 60 90 66 91 68 92 65 93 61 94 62 95
REMARK SMILES IDX 63 96 64 97
REMARK H PARENT 5 14 88 50 56 61
REMARK Flexibility Score: inf
ROOT
ATOM      1  C   UNL A   1      38.933  22.243  26.513  1.00  0.00     0.188 C 
ENDROOT
BRANCH   1   2
ATOM      2  O   UNL A   1      38.376  23.385  25.881  1.00  0.00    -0.376 OA
BRANCH   2   3
ATOM      3  C   UNL A   1      37.099  23.320  25.257  1.00  0.00     0.202 C 
BRANCH   3   4
ATOM      4  C   UNL A   1      35.831  22.897  26.072  1.00  0.00     0.261 C 
BRANCH   4   5
ATOM      5  O   UNL A   1      34.375  23.442  25.953  1.00  0.00    -0.462 OA
BRANCH   5   6
ATOM      6  C   UNL A   1      33.214  23.316  26.726  1.00  0.00     0.331 C 
ATOM      7  O   UNL A   1      33.153  22.884  27.880  1.00  0.00    -0.249 OA
BRANCH   6   8
ATOM      8  C   UNL A   1      31.808  23.581  26.203  1.00  0.00     0.136 C 
ATOM      9  C   UNL A   1      31.560  25.091  26.520  1.00  0.00     0.047 C 
BRANCH   8  10
ATOM     10  C   UNL A   1      30.875  22.728  27.185  1.00  0.00     0.037 C 
ATOM     11  C   UNL A   1      29.397  22.607  26.848  1.00  0.00     0.007 C 
ENDBRANCH   8  10
BRANCH   8  12
ATOM     12  N   UNL A   1      31.445  23.216  24.839  1.00  0.00    -0.322 N 
ATOM     13  C   UNL A   1      31.474  23.999  23.739  1.00  0.00     0.318 C 
ATOM     14  H   UNL A   1      31.142  22.288  24.703  1.00  0.00     0.166 HD
ATOM     15  O   UNL A   1      30.397  24.201  23.180  1.00  0.00    -0.249 OA
BRANCH  13  16
ATOM     16  N   UNL A   1      32.681  24.405  23.232  1.00  0.00    -0.324 N 
ATOM     17  C   UNL A   1      33.548  23.445  22.552  1.00  0.00     0.149 C 
BRANCH  16  18
ATOM     18  C   UNL A   1      32.792  25.754  22.691  1.00  0.00     0.156 C 
BRANCH  18  19
ATOM     19  C   UNL A   1      32.673  26.947  23.614  1.00  0.00    -0.028 A 
ATOM     20  C   UNL A   1      31.485  27.698  23.554  1.00  0.00     0.005 A 
ATOM     21  C   UNL A   1      33.589  27.255  24.628  1.00  0.00     0.009 A 
ATOM     22  C   UNL A   1      31.212  28.698  24.486  1.00  0.00     0.001 A 
ATOM     23  C   UNL A   1      33.337  28.280  25.555  1.00  0.00    -0.051 A 
ATOM     24  C   UNL A   1      32.131  28.980  25.491  1.00  0.00     0.003 A 
ATOM     25  C   UNL A   1      34.336  28.574  26.634  1.00  0.00     0.044 C 
ENDBRANCH  18  19
ENDBRANCH  16  18
ENDBRANCH  13  16
ENDBRANCH   8  12
ENDBRANCH   6   8
ENDBRANCH   5   6
ENDBRANCH   4   5
ENDBRANCH   3   4
ENDBRANCH   2   3
ENDBRANCH   1   2
BRANCH   1  26
ATOM     26  C   UNL A   1      40.450  22.243  26.743  1.00  0.00     0.188 C 
BRANCH  26  27
ATOM     27  O   UNL A   1      40.940  21.093  27.425  1.00  0.00    -0.376 OA
BRANCH  27  28
ATOM     28  C   UNL A   1      42.179  20.583  26.906  1.00  0.00     0.202 C 
BRANCH  28  29
ATOM     29  C   UNL A   1      42.715  21.247  25.612  1.00  0.00     0.261 C 
BRANCH  29  30
ATOM     30  O   UNL A   1      44.116  20.944  25.403  1.00  0.00    -0.460 OA
BRANCH  30  31
ATOM     31  C   UNL A   1      44.809  21.740  24.509  1.00  0.00     0.338 C 
ATOM     32  O   UNL A   1      44.596  21.847  23.335  1.00  0.00    -0.246 OA
BRANCH  31  33
ATOM     33  C   UNL A   1      45.475  22.786  25.363  1.00  0.00     0.060 A 
ATOM     34  C   UNL A   1      45.490  22.847  26.747  1.00  0.00     0.016 A 
ATOM     35  C   UNL A   1      45.704  23.954  24.704  1.00  0.00     0.016 A 
ATOM     36  C   UNL A   1      45.529  24.103  27.451  1.00  0.00     0.010 A 
ATOM     37  C   UNL A   1      45.409  25.131  25.415  1.00  0.00     0.010 A 
ATOM     38  C   UNL A   1      45.313  25.333  26.823  1.00  0.00    -0.014 A 
BRANCH  38  39
ATOM     39  C   UNL A   1      44.673  26.649  27.631  1.00  0.00     0.031 A 
ATOM     40  C   UNL A   1      43.206  27.596  27.590  1.00  0.00     0.074 A 
ATOM     41  C   UNL A   1      45.490  27.003  28.653  1.00  0.00     0.049 A 
ATOM     42  N   UNL A   1      43.055  28.773  28.172  1.00  0.00    -0.248 NA
ATOM     43  C   UNL A   1      41.810  27.290  27.086  1.00  0.00     0.031 C 
ATOM     44  C   UNL A   1      45.245  27.905  29.768  1.00  0.00     0.029 A 
ATOM     45  N   UNL A   1      46.873  26.788  28.711  1.00  0.00    -0.354 N 
ATOM     46  C   UNL A   1      41.672  29.077  28.249  1.00  0.00     0.074 A 
ATOM     47  C   UNL A   1      41.029  28.338  27.257  1.00  0.00     0.031 C 
ATOM     48  C   UNL A   1      46.423  28.426  30.153  1.00  0.00     0.029 A 
ATOM     49  C   UNL A   1      47.421  27.979  29.198  1.00  0.00     0.049 A 
ATOM     50  H   UNL A   1      47.358  25.968  28.459  1.00  0.00     0.167 HD
ATOM     51  C   UNL A   1      41.083  29.754  29.280  1.00  0.00     0.034 A 
ATOM     52  C   UNL A   1      48.125  28.782  28.345  1.00  0.00     0.034 A 
ATOM     53  C   UNL A   1      42.099  30.574  29.869  1.00  0.00     0.049 A 
ATOM     54  C   UNL A   1      47.495  30.159  28.150  1.00  0.00     0.074 A 
ATOM     55  C   UNL A   1      42.883  30.566  30.996  1.00  0.00     0.029 A 
ATOM     56  N   UNL A   1      42.703  31.422  28.975  1.00  0.00    -0.354 N 
ATOM     57  N   UNL A   1      46.350  30.569  28.636  1.00  0.00    -0.248 NA
ATOM     58  C   UNL A   1      48.143  31.191  27.355  1.00  0.00     0.031 C 
ATOM     59  C   UNL A   1      44.085  31.278  30.647  1.00  0.00     0.029 A 
ATOM     60  C   UNL A   1      43.967  31.767  29.350  1.00  0.00     0.049 A 
ATOM     61  H   UNL A   1      42.269  31.746  28.152  1.00  0.00     0.167 HD
ATOM     62  C   UNL A   1      46.034  31.819  28.135  1.00  0.00     0.074 A 
ATOM     63  C   UNL A   1      47.226  32.169  27.379  1.00  0.00     0.031 C 
ATOM     64  C   UNL A   1      44.808  32.422  28.341  1.00  0.00     0.034 A 
BRANCH  51  65
ATOM     65  C   UNL A   1      39.607  29.716  29.721  1.00  0.00     0.023 A 
ATOM     66  C   UNL A   1      38.846  30.901  29.627  1.00  0.00     0.031 A 
ATOM     67  C   UNL A   1      38.918  28.637  30.345  1.00  0.00     0.131 A 
ATOM     68  C   UNL A   1      37.512  30.977  30.101  1.00  0.00     0.055 A 
ATOM     69  C   UNL A   1      37.567  28.691  30.742  1.00  0.00     0.041 A 
ATOM     70  F   UNL A   1      39.523  27.494  30.695  1.00  0.00    -0.206 F 
ATOM     71  C   UNL A   1      36.857  29.870  30.629  1.00  0.00     0.022 A 
BRANCH  68  72
ATOM     72  S   UNL A   1      36.660  32.581  30.106  1.00  0.00     0.124 S 
ATOM     73  O   UNL A   1      37.487  33.360  31.022  1.00  0.00    -0.237 OA
ATOM     74  O   UNL A   1      36.709  32.962  28.700  1.00  0.00    -0.237 OA
ATOM     75  O   UNL A   1      35.325  32.259  30.611  1.00  0.00    -0.744 OA
ENDBRANCH  68  72
ENDBRANCH  51  65
BRANCH  52  76
ATOM     76  C   UNL A   1      49.002  28.039  27.359  1.00  0.00     0.023 A 
ATOM     77  C   UNL A   1      48.436  27.704  26.101  1.00  0.00     0.031 A 
ATOM     78  C   UNL A   1      50.396  27.900  27.474  1.00  0.00     0.131 A 
ATOM     79  C   UNL A   1      49.239  27.382  24.991  1.00  0.00     0.055 A 
ATOM     80  C   UNL A   1      51.198  27.519  26.376  1.00  0.00     0.041 A 
ATOM     81  F   UNL A   1      51.035  28.262  28.595  1.00  0.00    -0.206 F 
ATOM     82  C   UNL A   1      50.625  27.283  25.124  1.00  0.00     0.022 A 
BRANCH  79  83
ATOM     83  S   UNL A   1      48.487  27.434  23.323  1.00  0.00     0.124 S 
ATOM     84  O   UNL A   1      49.493  28.159  22.555  1.00  0.00    -0.237 OA
ATOM     85  O   UNL A   1      48.329  26.018  22.995  1.00  0.00    -0.237 OA
ATOM     86  O   UNL A   1      47.229  28.146  23.539  1.00  0.00    -0.744 OA
ENDBRANCH  79  83
ENDBRANCH  52  76
BRANCH  64  87
ATOM     87  C   UNL A   1      44.249  33.650  27.563  1.00  0.00     0.023 A 
ATOM     88  C   UNL A   1      44.069  34.898  28.164  1.00  0.00     0.031 A 
ATOM     89  C   UNL A   1      43.852  33.636  26.189  1.00  0.00     0.131 A 
ATOM     90  C   UNL A   1      43.518  36.005  27.482  1.00  0.00     0.055 A 
ATOM     91  C   UNL A   1      43.313  34.735  25.503  1.00  0.00     0.041 A 
ATOM     92  F   UNL A   1      43.986  32.570  25.393  1.00  0.00    -0.206 F 
ATOM     93  C   UNL A   1      43.129  35.933  26.155  1.00  0.00     0.022 A 
BRANCH  90  94
ATOM     94  S   UNL A   1      43.260  37.526  28.425  1.00  0.00     0.124 S 
ATOM     95  O   UNL A   1      44.150  38.462  27.743  1.00  0.00    -0.237 OA
ATOM     96  O   UNL A   1      41.832  37.760  28.240  1.00  0.00    -0.237 OA
ATOM     97  O   UNL A   1      43.665  37.162  29.781  1.00  0.00    -0.744 OA
ENDBRANCH  90  94
ENDBRANCH  64  87
ENDBRANCH  38  39
ENDBRANCH  31  33
ENDBRANCH  30  31
ENDBRANCH  29  30
ENDBRANCH  28  29
ENDBRANCH  27  28
ENDBRANCH  26  27
ENDBRANCH   1  26
TORSDOF 25
ENDMDL
MODEL 2
REMARK VINA RESULT:      -9.3      4.008     10.626
REMARK SMILES CC[C@](C)(NC(=O)N(C)Cc1cccc(C)c1)C(=O)OCCOCCOCCOC(=O)c1ccc(-c2c3nc(c(-c4cc(S(=O)(=O)[O-])ccc4F)c4ccc([nH]4)c(-c4cc(S(=O)(=O)[O-])ccc4F)c4nc(c(-c5cc(S(=O)(=O)[O-])ccc5F)c5ccc2[nH]5)C=C4)C=C3)cc1
REMARK SMILES IDX 24 1 23 2 22 3 21 4 20 5 18 6 19 7 3 8 4 9 2 10 1 11 5 12
REMARK SMILES IDX 6 13 7 15 8 16 9 17 10 18 11 19 12 20 17 21 13 22 15 23
REMARK SMILES IDX 14 24 16 25 25 26 26 27 27 28 28 29 29 30 30 31 31 32 32 33
REMARK SMILES IDX 33 34 94 35 34 36 93 37 35 38 36 39 37 40 87 41 38 42 92 43
REMARK SMILES IDX 86 44 88 45 39 46 91 47 85 48 84 49 40 51 72 52 52 53 71 54
REMARK SMILES IDX 53 55 56 56 70 57 89 58 54 59 55 60 69 62 90 63 57 64 41 65
REMARK SMILES IDX 42 66 50 67 43 68 49 69 51 70 48 71 44 72 45 73 46 74 47 75
REMARK SMILES IDX 73 76 74 77 82 78 75 79 81 80 83 81 80 82 76 83 77 84 78 85
REMARK SMILES IDX 79 86 58 87 59 88 67 89 60 90 66 91 68 92 65 93 61 94 62 95
REMARK SMILES IDX 63 96 64 97
REMARK H PARENT 5 14 88 50 56 61
REMARK Flexibility Score: inf
ROOT
ATOM      1  C   UNL A   1      33.912  30.844  27.260  1.00  0.00     0.188 C 
ENDROOT
BRANCH   1   2
ATOM      2  O   UNL A   1      33.267  30.007  26.313  1.00  0.00    -0.376 OA
BRANCH   2   3
ATOM      3  C   UNL A   1      31.931  30.272  25.900  1.00  0.00     0.202 C 
BRANCH   3   4
ATOM      4  C   UNL A   1      31.199  29.315  24.899  1.00  0.00     0.261 C 
BRANCH   4   5
ATOM      5  O   UNL A   1      31.774  28.081  24.141  1.00  0.00    -0.462 OA
BRANCH   5   6
ATOM      6  C   UNL A   1      32.766  27.132  24.420  1.00  0.00     0.331 C 
ATOM      7  O   UNL A   1      33.984  27.302  24.314  1.00  0.00    -0.249 OA
BRANCH   6   8
ATOM      8  C   UNL A   1      32.480  25.681  24.784  1.00  0.00     0.136 C 
ATOM      9  C   UNL A   1      33.389  24.857  23.814  1.00  0.00     0.047 C 
BRANCH   8  10
ATOM     10  C   UNL A   1      30.965  25.468  24.314  1.00  0.00     0.037 C 
ATOM     11  C   UNL A   1      30.666  24.340  23.339  1.00  0.00     0.007 C 
ENDBRANCH   8  10
BRANCH   8  12
ATOM     12  N   UNL A   1      32.569  25.233  26.169  1.00  0.00    -0.322 N 
ATOM     13  C   UNL A   1      32.412  23.979  26.643  1.00  0.00     0.318 C 
ATOM     14  H   UNL A   1      32.767  25.929  26.838  1.00  0.00     0.166 HD
ATOM     15  O   UNL A   1      31.480  23.800  27.424  1.00  0.00    -0.249 OA
BRANCH  13  16
ATOM     16  N   UNL A   1      33.352  23.025  26.350  1.00  0.00    -0.324 N 
ATOM     17  C   UNL A   1      34.763  23.277  26.634  1.00  0.00     0.149 C 
BRANCH  16  18
ATOM     18  C   UNL A   1      32.987  21.621  26.489  1.00  0.00     0.156 C 
BRANCH  18  19
ATOM     19  C   UNL A   1      32.850  20.752  25.257  1.00  0.00    -0.028 A 
ATOM     20  C   UNL A   1      32.930  19.359  25.433  1.00  0.00     0.005 A 
ATOM     21  C   UNL A   1      32.491  21.231  23.991  1.00  0.00     0.009 A 
ATOM     22  C   UNL A   1      32.636  18.480  24.391  1.00  0.00     0.001 A 
ATOM     23  C   UNL A   1      32.220  20.355  22.928  1.00  0.00    -0.051 A 
ATOM     24  C   UNL A   1      32.271  18.977  23.144  1.00  0.00     0.003 A 
ATOM     25  C   UNL A   1      31.827  20.904  21.588  1.00  0.00     0.044 C 
ENDBRANCH  18  19
ENDBRANCH  16  18
ENDBRANCH  13  16
ENDBRANCH   8  12
ENDBRANCH   6   8
ENDBRANCH   5   6
ENDBRANCH   4   5
ENDBRANCH   3   4
ENDBRANCH   2   3
ENDBRANCH   1   2
BRANCH   1  26
ATOM     26  C   UNL A   1      33.095  32.009  27.833  1.00  0.00     0.188 C 
BRANCH  26  27
ATOM     27  O   UNL A   1      33.701  33.287  27.670  1.00  0.00    -0.376 OA
BRANCH  27  28
ATOM     28  C   UNL A   1      34.414  33.754  28.826  1.00  0.00     0.202 C 
BRANCH  28  29
ATOM     29  C   UNL A   1      35.941  33.485  28.855  1.00  0.00     0.261 C 
BRANCH  29  30
ATOM     30  O   UNL A   1      36.406  33.218  30.201  1.00  0.00    -0.460 OA
BRANCH  30  31
ATOM     31  C   UNL A   1      35.915  32.086  30.826  1.00  0.00     0.338 C 
ATOM     32  O   UNL A   1      34.899  32.001  31.455  1.00  0.00    -0.246 OA
BRANCH  31  33
ATOM     33  C   UNL A   1      36.595  30.937  30.129  1.00  0.00     0.060 A 
ATOM     34  C   UNL A   1      36.784  29.656  30.622  1.00  0.00     0.016 A 
ATOM     35  C   UNL A   1      37.435  31.332  29.134  1.00  0.00     0.016 A 
ATOM     36  C   UNL A   1      37.933  28.866  30.261  1.00  0.00     0.010 A 
ATOM     37  C   UNL A   1      38.676  30.673  29.077  1.00  0.00     0.010 A 
ATOM     38  C   UNL A   1      39.044  29.398  29.599  1.00  0.00    -0.014 A 
BRANCH  38  39
ATOM     39  C   UNL A   1      40.581  28.768  29.785  1.00  0.00     0.031 A 
ATOM     40  C   UNL A   1      41.425  27.292  29.386  1.00  0.00     0.074 A 
ATOM     41  C   UNL A   1      41.405  29.712  30.304  1.00  0.00     0.049 A 
ATOM     42  N   UNL A   1      42.595  26.935  29.887  1.00  0.00    -0.248 NA
ATOM     43  C   UNL A   1      41.165  26.220  28.347  1.00  0.00     0.031 C 
ATOM     44  C   UNL A   1      42.856  29.721  30.410  1.00  0.00     0.029 A 
ATOM     45  N   UNL A   1      41.016  30.783  31.118  1.00  0.00    -0.354 N 
ATOM     46  C   UNL A   1      43.141  25.895  29.093  1.00  0.00     0.074 A 
ATOM     47  C   UNL A   1      42.080  25.274  28.436  1.00  0.00     0.031 C 
ATOM     48  C   UNL A   1      43.195  30.475  31.470  1.00  0.00     0.029 A 
ATOM     49  C   UNL A   1      41.963  30.841  32.146  1.00  0.00     0.049 A 
ATOM     50  H   UNL A   1      40.236  31.373  30.993  1.00  0.00     0.167 HD
ATOM     51  C   UNL A   1      44.473  25.736  28.834  1.00  0.00     0.034 A 
ATOM     52  C   UNL A   1      41.598  30.453  33.405  1.00  0.00     0.034 A 
ATOM     53  C   UNL A   1      45.181  26.347  29.919  1.00  0.00     0.049 A 
ATOM     54  C   UNL A   1      42.381  29.247  33.918  1.00  0.00     0.074 A 
ATOM     55  C   UNL A   1      45.886  27.502  30.149  1.00  0.00     0.029 A 
ATOM     56  N   UNL A   1      44.833  25.847  31.149  1.00  0.00    -0.354 N 
ATOM     57  N   UNL A   1      43.256  28.541  33.247  1.00  0.00    -0.248 NA
ATOM     58  C   UNL A   1      42.207  28.742  35.271  1.00  0.00     0.031 C 
ATOM     59  C   UNL A   1      45.752  27.774  31.556  1.00  0.00     0.029 A 
ATOM     60  C   UNL A   1      45.042  26.740  32.157  1.00  0.00     0.049 A 
ATOM     61  H   UNL A   1      44.471  24.942  31.287  1.00  0.00     0.167 HD
ATOM     62  C   UNL A   1      43.655  27.440  33.983  1.00  0.00     0.074 A 
ATOM     63  C   UNL A   1      42.995  27.658  35.261  1.00  0.00     0.031 C 
ATOM     64  C   UNL A   1      44.440  26.431  33.460  1.00  0.00     0.034 A 
BRANCH  51  65
ATOM     65  C   UNL A   1      45.129  25.001  27.649  1.00  0.00     0.023 A 
ATOM     66  C   UNL A   1      44.335  24.123  26.879  1.00  0.00     0.031 A 
ATOM     67  C   UNL A   1      46.506  24.998  27.287  1.00  0.00     0.131 A 
ATOM     68  C   UNL A   1      44.881  23.335  25.835  1.00  0.00     0.055 A 
ATOM     69  C   UNL A   1      47.032  24.277  26.197  1.00  0.00     0.041 A 
ATOM     70  F   UNL A   1      47.448  25.617  28.011  1.00  0.00    -0.206 F 
ATOM     71  C   UNL A   1      46.219  23.430  25.468  1.00  0.00     0.022 A 
BRANCH  68  72
ATOM     72  S   UNL A   1      43.835  22.101  25.009  1.00  0.00     0.124 S 
ATOM     73  O   UNL A   1      44.000  22.458  23.604  1.00  0.00    -0.237 OA
ATOM     74  O   UNL A   1      44.439  20.846  25.439  1.00  0.00    -0.237 OA
ATOM     75  O   UNL A   1      42.502  22.362  25.554  1.00  0.00    -0.744 OA
ENDBRANCH  68  72
ENDBRANCH  51  65
BRANCH  52  76
ATOM     76  C   UNL A   1      40.198  30.865  33.811  1.00  0.00     0.023 A 
ATOM     77  C   UNL A   1      39.972  32.239  34.084  1.00  0.00     0.031 A 
ATOM     78  C   UNL A   1      39.055  30.059  33.673  1.00  0.00     0.131 A 
ATOM     79  C   UNL A   1      38.678  32.791  34.081  1.00  0.00     0.055 A 
ATOM     80  C   UNL A   1      37.753  30.602  33.729  1.00  0.00     0.041 A 
ATOM     81  F   UNL A   1      39.160  28.766  33.339  1.00  0.00    -0.206 F 
ATOM     82  C   UNL A   1      37.560  31.974  33.908  1.00  0.00     0.022 A 
BRANCH  79  83
ATOM     83  S   UNL A   1      38.501  34.609  33.964  1.00  0.00     0.124 S 
ATOM     84  O   UNL A   1      37.111  34.756  33.546  1.00  0.00    -0.237 OA
ATOM     85  O   UNL A   1      38.814  35.053  35.320  1.00  0.00    -0.237 OA
ATOM     86  O   UNL A   1      39.499  34.983  32.963  1.00  0.00    -0.744 OA
ENDBRANCH  79  83
ENDBRANCH  52  76
BRANCH  64  87
ATOM     87  C   UNL A   1      44.662  25.024  34.088  1.00  0.00     0.023 A 
ATOM     88  C   UNL A   1      45.937  24.494  34.304  1.00  0.00     0.031 A 
ATOM     89  C   UNL A   1      43.619  24.133  34.490  1.00  0.00     0.131 A 
ATOM     90  C   UNL A   1      46.151  23.200  34.828  1.00  0.00     0.055 A 
ATOM     91  C   UNL A   1      43.824  22.851  35.021  1.00  0.00     0.041 A 
ATOM     92  F   UNL A   1      42.319  24.446  34.434  1.00  0.00    -0.206 F 
ATOM     93  C   UNL A   1      45.102  22.367  35.183  1.00  0.00     0.022 A 
BRANCH  90  94
ATOM     94  S   UNL A   1      47.859  22.621  34.959  1.00  0.00     0.124 S 
ATOM     95  O   UNL A   1      48.565  23.554  34.085  1.00  0.00    -0.237 OA
ATOM     96  O   UNL A   1      48.121  22.769  36.386  1.00  0.00    -0.237 OA
ATOM     97  O   UNL A   1      47.792  21.245  34.472  1.00  0.00    -0.744 OA
ENDBRANCH  90  94
ENDBRANCH  64  87
ENDBRANCH  38  39
ENDBRANCH  31  33
ENDBRANCH  30  31
ENDBRANCH  29  30
ENDBRANCH  28  29
ENDBRANCH  27  28
ENDBRANCH  26  27
ENDBRANCH   1  26
TORSDOF 25
ENDMDL
MODEL 3
REMARK VINA RESULT:      -9.1      1.053      2.316
REMARK SMILES CC[C@](C)(NC(=O)N(C)Cc1cccc(C)c1)C(=O)OCCOCCOCCOC(=O)c1ccc(-c2c3nc(c(-c4cc(S(=O)(=O)[O-])ccc4F)c4ccc([nH]4)c(-c4cc(S(=O)(=O)[O-])ccc4F)c4nc(c(-c5cc(S(=O)(=O)[O-])ccc5F)c5ccc2[nH]5)C=C4)C=C3)cc1
REMARK SMILES IDX 24 1 23 2 22 3 21 4 20 5 18 6 19 7 3 8 4 9 2 10 1 11 5 12
REMARK SMILES IDX 6 13 7 15 8 16 9 17 10 18 11 19 12 20 17 21 13 22 15 23
REMARK SMILES IDX 14 24 16 25 25 26 26 27 27 28 28 29 29 30 30 31 31 32 32 33
REMARK SMILES IDX 33 34 94 35 34 36 93 37 35 38 36 39 37 40 87 41 38 42 92 43
REMARK SMILES IDX 86 44 88 45 39 46 91 47 85 48 84 49 40 51 72 52 52 53 71 54
REMARK SMILES IDX 53 55 56 56 70 57 89 58 54 59 55 60 69 62 90 63 57 64 41 65
REMARK SMILES IDX 42 66 50 67 43 68 49 69 51 70 48 71 44 72 45 73 46 74 47 75
REMARK SMILES IDX 73 76 74 77 82 78 75 79 81 80 83 81 80 82 76 83 77 84 78 85
REMARK SMILES IDX 79 86 58 87 59 88 67 89 60 90 66 91 68 92 65 93 61 94 62 95
REMARK SMILES IDX 63 96 64 97
REMARK H PARENT 5 14 88 50 56 61
REMARK Flexibility Score: inf
ROOT
ATOM      1  C   UNL A   1      39.045  22.250  26.623  1.00  0.00     0.188 C 
ENDROOT
BRANCH   1   2
ATOM      2  O   UNL A   1      38.742  23.546  26.131  1.00  0.00    -0.376 OA
BRANCH   2   3
ATOM      3  C   UNL A   1      37.746  23.729  25.131  1.00  0.00     0.202 C 
BRANCH   3   4
ATOM      4  C   UNL A   1      36.261  24.032  25.527  1.00  0.00     0.261 C 
BRANCH   4   5
ATOM      5  O   UNL A   1      35.068  24.408  24.597  1.00  0.00    -0.462 OA
BRANCH   5   6
ATOM      6  C   UNL A   1      33.889  25.147  24.763  1.00  0.00     0.331 C 
ATOM      7  O   UNL A   1      33.464  25.606  25.827  1.00  0.00    -0.249 OA
BRANCH   6   8
ATOM      8  C   UNL A   1      32.873  25.393  23.656  1.00  0.00     0.136 C 
ATOM      9  C   UNL A   1      32.958  26.931  23.392  1.00  0.00     0.047 C 
BRANCH   8  10
ATOM     10  C   UNL A   1      31.468  25.108  24.367  1.00  0.00     0.037 C 
ATOM     11  C   UNL A   1      30.464  26.247  24.457  1.00  0.00     0.007 C 
ENDBRANCH   8  10
BRANCH   8  12
ATOM     12  N   UNL A   1      32.906  24.600  22.432  1.00  0.00    -0.322 N 
ATOM     13  C   UNL A   1      33.347  23.334  22.280  1.00  0.00     0.318 C 
ATOM     14  H   UNL A   1      32.566  25.042  21.620  1.00  0.00     0.166 HD
ATOM     15  O   UNL A   1      34.307  23.173  21.528  1.00  0.00    -0.249 OA
BRANCH  13  16
ATOM     16  N   UNL A   1      32.642  22.301  22.843  1.00  0.00    -0.324 N 
ATOM     17  C   UNL A   1      31.795  21.454  22.007  1.00  0.00     0.149 C 
BRANCH  16  18
ATOM     18  C   UNL A   1      33.232  21.584  23.966  1.00  0.00     0.156 C 
BRANCH  18  19
ATOM     19  C   UNL A   1      32.710  21.817  25.367  1.00  0.00    -0.028 A 
ATOM     20  C   UNL A   1      33.648  21.825  26.416  1.00  0.00     0.005 A 
ATOM     21  C   UNL A   1      31.392  22.183  25.667  1.00  0.00     0.009 A 
ATOM     22  C   UNL A   1      33.287  22.209  27.707  1.00  0.00     0.001 A 
ATOM     23  C   UNL A   1      31.012  22.544  26.970  1.00  0.00    -0.051 A 
ATOM     24  C   UNL A   1      31.974  22.579  27.980  1.00  0.00     0.003 A 
ATOM     25  C   UNL A   1      29.593  22.941  27.251  1.00  0.00     0.044 C 
ENDBRANCH  18  19
ENDBRANCH  16  18
ENDBRANCH  13  16
ENDBRANCH   8  12
ENDBRANCH   6   8
ENDBRANCH   5   6
ENDBRANCH   4   5
ENDBRANCH   3   4
ENDBRANCH   2   3
ENDBRANCH   1   2
BRANCH   1  26
ATOM     26  C   UNL A   1      40.436  22.044  27.236  1.00  0.00     0.188 C 
BRANCH  26  27
ATOM     27  O   UNL A   1      40.764  20.684  27.502  1.00  0.00    -0.376 OA
BRANCH  27  28
ATOM     28  C   UNL A   1      42.020  20.260  26.948  1.00  0.00     0.202 C 
BRANCH  28  29
ATOM     29  C   UNL A   1      42.606  21.134  25.808  1.00  0.00     0.261 C 
BRANCH  29  30
ATOM     30  O   UNL A   1      44.005  20.837  25.580  1.00  0.00    -0.460 OA
BRANCH  30  31
ATOM     31  C   UNL A   1      44.659  21.581  24.615  1.00  0.00     0.338 C 
ATOM     32  O   UNL A   1      44.402  21.618  23.445  1.00  0.00    -0.246 OA
BRANCH  31  33
ATOM     33  C   UNL A   1      45.352  22.677  25.380  1.00  0.00     0.060 A 
ATOM     34  C   UNL A   1      45.476  22.783  26.756  1.00  0.00     0.016 A 
ATOM     35  C   UNL A   1      45.484  23.830  24.671  1.00  0.00     0.016 A 
ATOM     36  C   UNL A   1      45.524  24.063  27.417  1.00  0.00     0.010 A 
ATOM     37  C   UNL A   1      45.203  25.019  25.367  1.00  0.00     0.010 A 
ATOM     38  C   UNL A   1      45.213  25.264  26.772  1.00  0.00    -0.014 A 
BRANCH  38  39
ATOM     39  C   UNL A   1      44.591  26.582  27.589  1.00  0.00     0.031 A 
ATOM     40  C   UNL A   1      43.125  27.532  27.574  1.00  0.00     0.074 A 
ATOM     41  C   UNL A   1      45.427  26.936  28.596  1.00  0.00     0.049 A 
ATOM     42  N   UNL A   1      42.987  28.711  28.157  1.00  0.00    -0.248 NA
ATOM     43  C   UNL A   1      41.719  27.228  27.097  1.00  0.00     0.031 C 
ATOM     44  C   UNL A   1      45.205  27.840  29.713  1.00  0.00     0.029 A 
ATOM     45  N   UNL A   1      46.810  26.718  28.628  1.00  0.00    -0.354 N 
ATOM     46  C   UNL A   1      41.606  29.018  28.259  1.00  0.00     0.074 A 
ATOM     47  C   UNL A   1      40.943  28.278  27.281  1.00  0.00     0.031 C 
ATOM     48  C   UNL A   1      46.391  28.360  30.076  1.00  0.00     0.029 A 
ATOM     49  C   UNL A   1      47.370  27.909  29.103  1.00  0.00     0.049 A 
ATOM     50  H   UNL A   1      47.289  25.897  28.369  1.00  0.00     0.167 HD
ATOM     51  C   UNL A   1      41.038  29.697  29.299  1.00  0.00     0.034 A 
ATOM     52  C   UNL A   1      48.060  28.709  28.236  1.00  0.00     0.034 A 
ATOM     53  C   UNL A   1      42.067  30.516  29.868  1.00  0.00     0.049 A 
ATOM     54  C   UNL A   1      47.429  30.087  28.050  1.00  0.00     0.074 A 
ATOM     55  C   UNL A   1      42.871  30.509  30.981  1.00  0.00     0.029 A 
ATOM     56  N   UNL A   1      42.656  31.361  28.962  1.00  0.00    -0.354 N 
ATOM     57  N   UNL A   1      46.294  30.500  28.557  1.00  0.00    -0.248 NA
ATOM     58  C   UNL A   1      48.064  31.116  27.242  1.00  0.00     0.031 C 
ATOM     59  C   UNL A   1      44.068  31.217  30.608  1.00  0.00     0.029 A 
ATOM     60  C   UNL A   1      43.928  31.704  29.312  1.00  0.00     0.049 A 
ATOM     61  H   UNL A   1      42.208  31.685  28.147  1.00  0.00     0.167 HD
ATOM     62  C   UNL A   1      45.972  31.750  28.059  1.00  0.00     0.074 A 
ATOM     63  C   UNL A   1      47.150  32.096  27.281  1.00  0.00     0.031 C 
ATOM     64  C   UNL A   1      44.751  32.356  28.287  1.00  0.00     0.034 A 
BRANCH  51  65
ATOM     65  C   UNL A   1      39.571  29.663  29.768  1.00  0.00     0.023 A 
ATOM     66  C   UNL A   1      38.719  30.723  29.390  1.00  0.00     0.031 A 
ATOM     67  C   UNL A   1      38.969  28.732  30.663  1.00  0.00     0.131 A 
ATOM     68  C   UNL A   1      37.384  30.819  29.858  1.00  0.00     0.055 A 
ATOM     69  C   UNL A   1      37.619  28.785  31.062  1.00  0.00     0.041 A 
ATOM     70  F   UNL A   1      39.663  27.766  31.280  1.00  0.00    -0.206 F 
ATOM     71  C   UNL A   1      36.818  29.839  30.667  1.00  0.00     0.022 A 
BRANCH  68  72
ATOM     72  S   UNL A   1      36.409  32.301  29.471  1.00  0.00     0.124 S 
ATOM     73  O   UNL A   1      37.282  33.369  29.946  1.00  0.00    -0.237 OA
ATOM     74  O   UNL A   1      36.240  32.191  28.027  1.00  0.00    -0.237 OA
ATOM     75  O   UNL A   1      35.184  32.120  30.251  1.00  0.00    -0.744 OA
ENDBRANCH  68  72
ENDBRANCH  51  65
BRANCH  52  76
ATOM     76  C   UNL A   1      48.917  27.962  27.235  1.00  0.00     0.023 A 
ATOM     77  C   UNL A   1      48.332  27.639  25.983  1.00  0.00     0.031 A 
ATOM     78  C   UNL A   1      50.311  27.809  27.331  1.00  0.00     0.131 A 
ATOM     79  C   UNL A   1      49.117  27.315  24.861  1.00  0.00     0.055 A 
ATOM     80  C   UNL A   1      51.094  27.425  26.221  1.00  0.00     0.041 A 
ATOM     81  F   UNL A   1      50.967  28.159  28.446  1.00  0.00    -0.206 F 
ATOM     82  C   UNL A   1      50.503  27.202  24.975  1.00  0.00     0.022 A 
BRANCH  79  83
ATOM     83  S   UNL A   1      48.345  27.383  23.202  1.00  0.00     0.124 S 
ATOM     84  O   UNL A   1      47.061  28.015  23.486  1.00  0.00    -0.237 OA
ATOM     85  O   UNL A   1      49.297  28.181  22.434  1.00  0.00    -0.237 OA
ATOM     86  O   UNL A   1      48.277  25.977  22.803  1.00  0.00    -0.744 OA
ENDBRANCH  79  83
ENDBRANCH  52  76
BRANCH  64  87
ATOM     87  C   UNL A   1      44.180  33.584  27.518  1.00  0.00     0.023 A 
ATOM     88  C   UNL A   1      44.032  34.838  28.114  1.00  0.00     0.031 A 
ATOM     89  C   UNL A   1      43.740  33.564  26.157  1.00  0.00     0.131 A 
ATOM     90  C   UNL A   1      43.471  35.946  27.442  1.00  0.00     0.055 A 
ATOM     91  C   UNL A   1      43.191  34.663  25.480  1.00  0.00     0.041 A 
ATOM     92  F   UNL A   1      43.838  32.490  25.366  1.00  0.00    -0.206 F 
ATOM     93  C   UNL A   1      43.039  35.868  26.127  1.00  0.00     0.022 A 
BRANCH  90  94
ATOM     94  S   UNL A   1      43.259  37.477  28.380  1.00  0.00     0.124 S 
ATOM     95  O   UNL A   1      43.382  37.009  29.758  1.00  0.00    -0.237 OA
ATOM     96  O   UNL A   1      44.365  38.290  27.887  1.00  0.00    -0.237 OA
ATOM     97  O   UNL A   1      41.925  37.932  27.997  1.00  0.00    -0.744 OA
ENDBRANCH  90  94
ENDBRANCH  64  87
ENDBRANCH  38  39
ENDBRANCH  31  33
ENDBRANCH  30  31
ENDBRANCH  29  30
ENDBRANCH  28  29
ENDBRANCH  27  28
ENDBRANCH  26  27
ENDBRANCH   1  26
TORSDOF 25
ENDMDL
