MODEL 1
REMARK VINA RESULT:     -10.6      0.000      0.000
REMARK SMILES C[C@@H]([NH2+]C1(CO)CCCCC1)[C@@H](C)C(=O)OCCOCCOCCOC(=O)c1ccc(-c2c3nc(c(-c4cc(S(=O)(=O)[O-])ccc4F)c4ccc([nH]4)c(-c4cc(S(=O)(=O)[O-])ccc4F)c4nc(c(-c5cc(S(=O)(=O)[O-])ccc5F)c5ccc2[nH]5)C=C4)C=C3)cc1
REMARK SMILES IDX 20 1 19 2 18 3 17 4 16 5 14 6 15 7 12 8 13 9 2 10 1 11 3 12
REMARK SMILES IDX 4 15 7 16 11 17 8 18 10 19 9 20 5 21 6 22 21 24 22 25 23 26
REMARK SMILES IDX 24 27 25 28 26 29 27 30 28 31 29 32 90 33 30 34 89 35 31 36
REMARK SMILES IDX 32 37 33 38 83 39 34 40 88 41 82 42 84 43 35 44 87 45 81 46
REMARK SMILES IDX 80 47 36 49 68 50 48 51 67 52 49 53 52 54 66 55 85 56 50 57
REMARK SMILES IDX 51 58 65 60 86 61 53 62 37 63 38 64 46 65 39 66 45 67 47 68
REMARK SMILES IDX 44 69 40 70 41 71 42 72 43 73 69 74 70 75 78 76 71 77 77 78
REMARK SMILES IDX 79 79 76 80 72 81 73 82 74 83 75 84 54 85 55 86 63 87 56 88
REMARK SMILES IDX 62 89 64 90 61 91 57 92 58 93 59 94 60 95
REMARK H PARENT 3 13 3 14 6 23 84 48 52 59
REMARK Flexibility Score: inf
ROOT
ATOM      1  C   UNL A   1      33.653  27.887  24.104  1.00  0.00     0.188 C 
ENDROOT
BRANCH   1   2
ATOM      2  O   UNL A   1      33.089  26.830  23.350  1.00  0.00    -0.376 OA
BRANCH   2   3
ATOM      3  C   UNL A   1      31.704  26.993  23.088  1.00  0.00     0.202 C 
BRANCH   3   4
ATOM      4  C   UNL A   1      30.756  25.849  23.517  1.00  0.00     0.261 C 
BRANCH   4   5
ATOM      5  O   UNL A   1      29.987  26.065  24.738  1.00  0.00    -0.463 OA
BRANCH   5   6
ATOM      6  C   UNL A   1      30.144  25.190  25.762  1.00  0.00     0.314 C 
ATOM      7  O   UNL A   1      29.557  25.323  26.835  1.00  0.00    -0.252 OA
BRANCH   6   8
ATOM      8  C   UNL A   1      31.211  24.081  25.572  1.00  0.00     0.154 C 
ATOM      9  C   UNL A   1      30.629  22.904  26.383  1.00  0.00     0.026 C 
BRANCH   8  10
ATOM     10  C   UNL A   1      32.804  24.237  25.756  1.00  0.00     0.193 C 
ATOM     11  C   UNL A   1      33.221  23.214  26.851  1.00  0.00     0.076 C 
BRANCH  10  12
ATOM     12  N   UNL A   1      33.876  23.981  24.712  1.00  0.00    -0.337 N 
ATOM     13  H   UNL A   1      34.778  24.043  25.185  1.00  0.00     0.347 HD
ATOM     14  H   UNL A   1      33.700  24.683  23.994  1.00  0.00     0.347 HD
BRANCH  12  15
ATOM     15  C   UNL A   1      33.852  22.680  23.972  1.00  0.00     0.120 C 
ATOM     16  C   UNL A   1      35.446  21.950  24.776  1.00  0.00     0.071 C 
ATOM     17  C   UNL A   1      32.379  21.406  23.822  1.00  0.00     0.071 C 
ATOM     18  C   UNL A   1      35.760  20.085  24.982  1.00  0.00     0.007 C 
ATOM     19  C   UNL A   1      32.691  19.451  23.931  1.00  0.00     0.007 C 
ATOM     20  C   UNL A   1      34.378  18.836  24.624  1.00  0.00     0.001 C 
BRANCH  15  21
ATOM     21  C   UNL A   1      33.477  23.329  22.568  1.00  0.00     0.224 C 
BRANCH  21  22
ATOM     22  O   UNL A   1      34.283  24.518  22.350  1.00  0.00    -0.390 OA
ATOM     23  H   UNL A   1      34.537  24.898  23.205  1.00  0.00     0.210 HD
ENDBRANCH  21  22
ENDBRANCH  15  21
ENDBRANCH  12  15
ENDBRANCH  10  12
ENDBRANCH   8  10
ENDBRANCH   6   8
ENDBRANCH   5   6
ENDBRANCH   4   5
ENDBRANCH   3   4
ENDBRANCH   2   3
ENDBRANCH   1   2
BRANCH   1  24
ATOM     24  C   UNL A   1      33.009  28.182  25.483  1.00  0.00     0.188 C 
BRANCH  24  25
ATOM     25  O   UNL A   1      33.069  29.649  25.995  1.00  0.00    -0.376 OA
BRANCH  25  26
ATOM     26  C   UNL A   1      32.374  31.107  26.967  1.00  0.00     0.202 C 
BRANCH  26  27
ATOM     27  C   UNL A   1      32.521  32.794  26.894  1.00  0.00     0.261 C 
BRANCH  27  28
ATOM     28  O   UNL A   1      32.455  33.600  28.116  1.00  0.00    -0.460 OA
BRANCH  28  29
ATOM     29  C   UNL A   1      33.475  34.418  28.484  1.00  0.00     0.338 C 
ATOM     30  O   UNL A   1      33.349  35.563  28.846  1.00  0.00    -0.246 OA
BRANCH  29  31
ATOM     31  C   UNL A   1      34.693  33.550  28.724  1.00  0.00     0.060 A 
ATOM     32  C   UNL A   1      34.455  32.302  29.320  1.00  0.00     0.016 A 
ATOM     33  C   UNL A   1      35.978  33.822  28.228  1.00  0.00     0.016 A 
ATOM     34  C   UNL A   1      35.480  31.356  29.463  1.00  0.00     0.010 A 
ATOM     35  C   UNL A   1      37.025  32.888  28.415  1.00  0.00     0.010 A 
ATOM     36  C   UNL A   1      36.791  31.663  29.074  1.00  0.00    -0.014 A 
BRANCH  36  37
ATOM     37  C   UNL A   1      37.915  30.923  29.737  1.00  0.00     0.031 A 
ATOM     38  C   UNL A   1      38.187  31.311  31.174  1.00  0.00     0.074 A 
ATOM     39  C   UNL A   1      38.626  29.920  29.182  1.00  0.00     0.049 A 
ATOM     40  N   UNL A   1      39.101  30.884  32.006  1.00  0.00    -0.248 NA
ATOM     41  C   UNL A   1      37.282  32.321  31.748  1.00  0.00     0.031 C 
ATOM     42  C   UNL A   1      38.417  29.352  27.851  1.00  0.00     0.029 A 
ATOM     43  N   UNL A   1      39.680  29.187  29.688  1.00  0.00    -0.354 N 
ATOM     44  C   UNL A   1      38.870  31.567  33.197  1.00  0.00     0.074 A 
ATOM     45  C   UNL A   1      37.750  32.450  32.974  1.00  0.00     0.031 C 
ATOM     46  C   UNL A   1      39.322  28.373  27.645  1.00  0.00     0.029 A 
ATOM     47  C   UNL A   1      40.208  28.266  28.807  1.00  0.00     0.049 A 
ATOM     48  H   UNL A   1      40.027  29.310  30.602  1.00  0.00     0.167 HD
ATOM     49  C   UNL A   1      39.530  31.484  34.376  1.00  0.00     0.034 A 
ATOM     50  C   UNL A   1      41.293  27.462  28.914  1.00  0.00     0.034 A 
ATOM     51  C   UNL A   1      40.685  30.657  34.587  1.00  0.00     0.049 A 
ATOM     52  C   UNL A   1      42.121  27.500  30.189  1.00  0.00     0.074 A 
ATOM     53  C   UNL A   1      41.471  30.548  35.720  1.00  0.00     0.029 A 
ATOM     54  N   UNL A   1      41.238  29.814  33.633  1.00  0.00    -0.354 N 
ATOM     55  N   UNL A   1      41.913  28.181  31.294  1.00  0.00    -0.248 NA
ATOM     56  C   UNL A   1      43.336  26.669  30.226  1.00  0.00     0.031 C 
ATOM     57  C   UNL A   1      42.543  29.699  35.426  1.00  0.00     0.029 A 
ATOM     58  C   UNL A   1      42.375  29.209  34.141  1.00  0.00     0.049 A 
ATOM     59  H   UNL A   1      40.875  29.668  32.730  1.00  0.00     0.167 HD
ATOM     60  C   UNL A   1      42.948  27.829  32.162  1.00  0.00     0.074 A 
ATOM     61  C   UNL A   1      43.776  26.874  31.459  1.00  0.00     0.031 C 
ATOM     62  C   UNL A   1      43.191  28.254  33.429  1.00  0.00     0.034 A 
BRANCH  49  63
ATOM     63  C   UNL A   1      39.061  32.400  35.479  1.00  0.00     0.023 A 
ATOM     64  C   UNL A   1      39.513  33.728  35.583  1.00  0.00     0.031 A 
ATOM     65  C   UNL A   1      38.221  31.905  36.492  1.00  0.00     0.131 A 
ATOM     66  C   UNL A   1      39.189  34.485  36.718  1.00  0.00     0.055 A 
ATOM     67  C   UNL A   1      37.833  32.694  37.574  1.00  0.00     0.041 A 
ATOM     68  F   UNL A   1      37.790  30.634  36.463  1.00  0.00    -0.206 F 
ATOM     69  C   UNL A   1      38.331  33.987  37.701  1.00  0.00     0.022 A 
BRANCH  66  70
ATOM     70  S   UNL A   1      40.036  36.070  36.974  1.00  0.00     0.124 S 
ATOM     71  O   UNL A   1      41.401  35.631  37.260  1.00  0.00    -0.237 OA
ATOM     72  O   UNL A   1      39.836  36.746  35.699  1.00  0.00    -0.237 OA
ATOM     73  O   UNL A   1      39.328  36.656  38.110  1.00  0.00    -0.744 OA
ENDBRANCH  66  70
ENDBRANCH  49  63
BRANCH  50  74
ATOM     74  C   UNL A   1      41.745  26.602  27.769  1.00  0.00     0.023 A 
ATOM     75  C   UNL A   1      41.501  25.216  27.737  1.00  0.00     0.031 A 
ATOM     76  C   UNL A   1      42.536  27.144  26.738  1.00  0.00     0.131 A 
ATOM     77  C   UNL A   1      42.079  24.419  26.730  1.00  0.00     0.055 A 
ATOM     78  C   UNL A   1      43.060  26.358  25.708  1.00  0.00     0.041 A 
ATOM     79  F   UNL A   1      42.828  28.454  26.723  1.00  0.00    -0.206 F 
ATOM     80  C   UNL A   1      42.844  24.984  25.708  1.00  0.00     0.022 A 
BRANCH  77  81
ATOM     81  S   UNL A   1      41.910  22.612  26.828  1.00  0.00     0.124 S 
ATOM     82  O   UNL A   1      41.884  22.239  25.419  1.00  0.00    -0.237 OA
ATOM     83  O   UNL A   1      43.107  22.234  27.572  1.00  0.00    -0.237 OA
ATOM     84  O   UNL A   1      40.650  22.426  27.545  1.00  0.00    -0.744 OA
ENDBRANCH  77  81
ENDBRANCH  50  74
BRANCH  62  85
ATOM     85  C   UNL A   1      44.359  27.644  34.170  1.00  0.00     0.023 A 
ATOM     86  C   UNL A   1      44.231  26.468  34.930  1.00  0.00     0.031 A 
ATOM     87  C   UNL A   1      45.633  28.235  34.074  1.00  0.00     0.131 A 
ATOM     88  C   UNL A   1      45.351  25.941  35.592  1.00  0.00     0.055 A 
ATOM     89  C   UNL A   1      46.752  27.675  34.689  1.00  0.00     0.041 A 
ATOM     90  F   UNL A   1      45.813  29.357  33.360  1.00  0.00    -0.206 F 
ATOM     91  C   UNL A   1      46.614  26.527  35.461  1.00  0.00     0.022 A 
BRANCH  88  92
ATOM     92  S   UNL A   1      45.129  24.511  36.686  1.00  0.00     0.124 S 
ATOM     93  O   UNL A   1      44.459  23.558  35.808  1.00  0.00    -0.237 OA
ATOM     94  O   UNL A   1      46.502  24.182  37.054  1.00  0.00    -0.237 OA
ATOM     95  O   UNL A   1      44.306  25.035  37.774  1.00  0.00    -0.744 OA
ENDBRANCH  88  92
ENDBRANCH  62  85
ENDBRANCH  36  37
ENDBRANCH  29  31
ENDBRANCH  28  29
ENDBRANCH  27  28
ENDBRANCH  26  27
ENDBRANCH  25  26
ENDBRANCH  24  25
ENDBRANCH   1  24
TORSDOF 25
ENDMDL
MODEL 2
REMARK VINA RESULT:     -10.2      4.664      9.849
REMARK SMILES C[C@@H]([NH2+]C1(CO)CCCCC1)[C@@H](C)C(=O)OCCOCCOCCOC(=O)c1ccc(-c2c3nc(c(-c4cc(S(=O)(=O)[O-])ccc4F)c4ccc([nH]4)c(-c4cc(S(=O)(=O)[O-])ccc4F)c4nc(c(-c5cc(S(=O)(=O)[O-])ccc5F)c5ccc2[nH]5)C=C4)C=C3)cc1
REMARK SMILES IDX 20 1 19 2 18 3 17 4 16 5 14 6 15 7 12 8 13 9 2 10 1 11 3 12
REMARK SMILES IDX 4 15 7 16 11 17 8 18 10 19 9 20 5 21 6 22 21 24 22 25 23 26
REMARK SMILES IDX 24 27 25 28 26 29 27 30 28 31 29 32 90 33 30 34 89 35 31 36
REMARK SMILES IDX 32 37 33 38 83 39 34 40 88 41 82 42 84 43 35 44 87 45 81 46
REMARK SMILES IDX 80 47 36 49 68 50 48 51 67 52 49 53 52 54 66 55 85 56 50 57
REMARK SMILES IDX 51 58 65 60 86 61 53 62 37 63 38 64 46 65 39 66 45 67 47 68
REMARK SMILES IDX 44 69 40 70 41 71 42 72 43 73 69 74 70 75 78 76 71 77 77 78
REMARK SMILES IDX 79 79 76 80 72 81 73 82 74 83 75 84 54 85 55 86 63 87 56 88
REMARK SMILES IDX 62 89 64 90 61 91 57 92 58 93 59 94 60 95
REMARK H PARENT 3 13 3 14 6 23 84 48 52 59
REMARK Flexibility Score: inf
ROOT
ATOM      1  C   UNL A   1      33.568  24.224  21.705  1.00  0.00     0.188 C 
ENDROOT
BRANCH   1   2
ATOM      2  O   UNL A   1      33.517  25.591  21.341  1.00  0.00    -0.376 OA
BRANCH   2   3
ATOM      3  C   UNL A   1      33.803  26.477  22.413  1.00  0.00     0.202 C 
BRANCH   3   4
ATOM      4  C   UNL A   1      33.065  27.834  22.434  1.00  0.00     0.261 C 
BRANCH   4   5
ATOM      5  O   UNL A   1      32.907  28.469  23.739  1.00  0.00    -0.463 OA
BRANCH   5   6
ATOM      6  C   UNL A   1      31.651  28.697  24.198  1.00  0.00     0.314 C 
ATOM      7  O   UNL A   1      31.417  29.508  25.092  1.00  0.00    -0.252 OA
BRANCH   6   8
ATOM      8  C   UNL A   1      30.531  27.781  23.641  1.00  0.00     0.154 C 
ATOM      9  C   UNL A   1      29.484  28.794  23.131  1.00  0.00     0.026 C 
BRANCH   8  10
ATOM     10  C   UNL A   1      29.863  26.516  24.384  1.00  0.00     0.193 C 
ATOM     11  C   UNL A   1      28.382  26.461  23.911  1.00  0.00     0.076 C 
BRANCH  10  12
ATOM     12  N   UNL A   1      30.257  25.057  24.241  1.00  0.00    -0.337 N 
ATOM     13  H   UNL A   1      30.857  24.986  23.419  1.00  0.00     0.347 HD
ATOM     14  H   UNL A   1      29.367  24.561  24.188  1.00  0.00     0.347 HD
BRANCH  12  15
ATOM     15  C   UNL A   1      30.979  24.401  25.376  1.00  0.00     0.120 C 
ATOM     16  C   UNL A   1      30.931  22.614  24.653  1.00  0.00     0.071 C 
ATOM     17  C   UNL A   1      32.699  24.899  26.158  1.00  0.00     0.071 C 
ATOM     18  C   UNL A   1      32.229  21.282  25.054  1.00  0.00     0.007 C 
ATOM     19  C   UNL A   1      34.031  23.525  26.681  1.00  0.00     0.007 C 
ATOM     20  C   UNL A   1      33.804  21.737  26.008  1.00  0.00     0.001 C 
BRANCH  15  21
ATOM     21  C   UNL A   1      30.196  25.194  26.512  1.00  0.00     0.224 C 
BRANCH  21  22
ATOM     22  O   UNL A   1      29.028  24.432  26.921  1.00  0.00    -0.390 OA
ATOM     23  H   UNL A   1      28.536  24.148  26.135  1.00  0.00     0.210 HD
ENDBRANCH  21  22
ENDBRANCH  15  21
ENDBRANCH  12  15
ENDBRANCH  10  12
ENDBRANCH   8  10
ENDBRANCH   6   8
ENDBRANCH   5   6
ENDBRANCH   4   5
ENDBRANCH   3   4
ENDBRANCH   2   3
ENDBRANCH   1   2
BRANCH   1  24
ATOM     24  C   UNL A   1      34.149  23.895  23.105  1.00  0.00     0.188 C 
BRANCH  24  25
ATOM     25  O   UNL A   1      35.546  23.213  23.152  1.00  0.00    -0.376 OA
BRANCH  25  26
ATOM     26  C   UNL A   1      37.018  22.486  24.078  1.00  0.00     0.202 C 
BRANCH  26  27
ATOM     27  C   UNL A   1      37.787  22.785  25.559  1.00  0.00     0.261 C 
BRANCH  27  28
ATOM     28  O   UNL A   1      38.785  21.848  26.081  1.00  0.00    -0.460 OA
BRANCH  28  29
ATOM     29  C   UNL A   1      40.057  22.240  26.348  1.00  0.00     0.338 C 
ATOM     30  O   UNL A   1      41.052  21.685  25.948  1.00  0.00    -0.246 OA
BRANCH  29  31
ATOM     31  C   UNL A   1      39.996  23.656  26.882  1.00  0.00     0.060 A 
ATOM     32  C   UNL A   1      40.177  24.681  25.939  1.00  0.00     0.016 A 
ATOM     33  C   UNL A   1      39.591  24.004  28.181  1.00  0.00     0.016 A 
ATOM     34  C   UNL A   1      40.002  26.028  26.286  1.00  0.00     0.010 A 
ATOM     35  C   UNL A   1      39.462  25.366  28.544  1.00  0.00     0.010 A 
ATOM     36  C   UNL A   1      39.709  26.390  27.608  1.00  0.00    -0.014 A 
BRANCH  36  37
ATOM     37  C   UNL A   1      40.091  27.768  28.062  1.00  0.00     0.031 A 
ATOM     38  C   UNL A   1      41.561  28.107  27.937  1.00  0.00     0.074 A 
ATOM     39  C   UNL A   1      39.233  28.717  28.491  1.00  0.00     0.049 A 
ATOM     40  N   UNL A   1      42.210  29.192  28.269  1.00  0.00    -0.248 NA
ATOM     41  C   UNL A   1      42.411  27.063  27.338  1.00  0.00     0.031 C 
ATOM     42  C   UNL A   1      37.779  28.590  28.565  1.00  0.00     0.029 A 
ATOM     43  N   UNL A   1      39.474  29.998  28.943  1.00  0.00    -0.354 N 
ATOM     44  C   UNL A   1      43.534  28.961  27.910  1.00  0.00     0.074 A 
ATOM     45  C   UNL A   1      43.602  27.629  27.358  1.00  0.00     0.031 C 
ATOM     46  C   UNL A   1      37.263  29.739  29.048  1.00  0.00     0.029 A 
ATOM     47  C   UNL A   1      38.346  30.675  29.360  1.00  0.00     0.049 A 
ATOM     48  H   UNL A   1      40.374  30.397  28.967  1.00  0.00     0.167 HD
ATOM     49  C   UNL A   1      44.611  29.773  28.032  1.00  0.00     0.034 A 
ATOM     50  C   UNL A   1      38.211  31.886  29.952  1.00  0.00     0.034 A 
ATOM     51  C   UNL A   1      44.565  31.074  28.639  1.00  0.00     0.049 A 
ATOM     52  C   UNL A   1      39.453  32.718  30.230  1.00  0.00     0.074 A 
ATOM     53  C   UNL A   1      45.608  31.952  28.875  1.00  0.00     0.029 A 
ATOM     54  N   UNL A   1      43.415  31.675  29.132  1.00  0.00    -0.354 N 
ATOM     55  N   UNL A   1      40.705  32.470  29.919  1.00  0.00    -0.248 NA
ATOM     56  C   UNL A   1      39.263  33.990  30.948  1.00  0.00     0.031 C 
ATOM     57  C   UNL A   1      45.101  33.048  29.579  1.00  0.00     0.029 A 
ATOM     58  C   UNL A   1      43.730  32.897  29.702  1.00  0.00     0.049 A 
ATOM     59  H   UNL A   1      42.511  31.290  29.082  1.00  0.00     0.167 HD
ATOM     60  C   UNL A   1      41.438  33.568  30.371  1.00  0.00     0.074 A 
ATOM     61  C   UNL A   1      40.492  34.483  30.970  1.00  0.00     0.031 C 
ATOM     62  C   UNL A   1      42.774  33.803  30.294  1.00  0.00     0.034 A 
BRANCH  49  63
ATOM     63  C   UNL A   1      45.936  29.208  27.585  1.00  0.00     0.023 A 
ATOM     64  C   UNL A   1      46.223  28.975  26.228  1.00  0.00     0.031 A 
ATOM     65  C   UNL A   1      46.889  28.812  28.541  1.00  0.00     0.131 A 
ATOM     66  C   UNL A   1      47.394  28.289  25.873  1.00  0.00     0.055 A 
ATOM     67  C   UNL A   1      48.090  28.208  28.173  1.00  0.00     0.041 A 
ATOM     68  F   UNL A   1      46.650  28.977  29.852  1.00  0.00    -0.206 F 
ATOM     69  C   UNL A   1      48.342  27.927  26.834  1.00  0.00     0.022 A 
BRANCH  66  70
ATOM     70  S   UNL A   1      47.585  27.727  24.158  1.00  0.00     0.124 S 
ATOM     71  O   UNL A   1      46.784  28.713  23.435  1.00  0.00    -0.237 OA
ATOM     72  O   UNL A   1      49.027  27.805  23.958  1.00  0.00    -0.237 OA
ATOM     73  O   UNL A   1      47.029  26.377  24.176  1.00  0.00    -0.744 OA
ENDBRANCH  66  70
ENDBRANCH  49  63
BRANCH  50  74
ATOM     74  C   UNL A   1      36.873  32.382  30.419  1.00  0.00     0.023 A 
ATOM     75  C   UNL A   1      35.949  32.975  29.537  1.00  0.00     0.031 A 
ATOM     76  C   UNL A   1      36.546  32.375  31.789  1.00  0.00     0.131 A 
ATOM     77  C   UNL A   1      34.777  33.574  30.038  1.00  0.00     0.055 A 
ATOM     78  C   UNL A   1      35.355  32.919  32.274  1.00  0.00     0.041 A 
ATOM     79  F   UNL A   1      37.395  31.849  32.686  1.00  0.00    -0.206 F 
ATOM     80  C   UNL A   1      34.468  33.536  31.399  1.00  0.00     0.022 A 
BRANCH  77  81
ATOM     81  S   UNL A   1      33.705  34.501  28.901  1.00  0.00     0.124 S 
ATOM     82  O   UNL A   1      32.660  34.978  29.800  1.00  0.00    -0.237 OA
ATOM     83  O   UNL A   1      34.616  35.515  28.381  1.00  0.00    -0.237 OA
ATOM     84  O   UNL A   1      33.281  33.493  27.931  1.00  0.00    -0.744 OA
ENDBRANCH  77  81
ENDBRANCH  50  74
BRANCH  62  85
ATOM     85  C   UNL A   1      43.292  35.126  30.808  1.00  0.00     0.023 A 
ATOM     86  C   UNL A   1      43.435  36.248  29.973  1.00  0.00     0.031 A 
ATOM     87  C   UNL A   1      43.608  35.271  32.172  1.00  0.00     0.131 A 
ATOM     88  C   UNL A   1      43.916  37.456  30.505  1.00  0.00     0.055 A 
ATOM     89  C   UNL A   1      44.031  36.489  32.704  1.00  0.00     0.041 A 
ATOM     90  F   UNL A   1      43.488  34.233  33.015  1.00  0.00    -0.206 F 
ATOM     91  C   UNL A   1      44.196  37.588  31.869  1.00  0.00     0.022 A 
BRANCH  88  92
ATOM     92  S   UNL A   1      44.232  38.844  29.380  1.00  0.00     0.124 S 
ATOM     93  O   UNL A   1      44.541  38.158  28.130  1.00  0.00    -0.237 OA
ATOM     94  O   UNL A   1      42.967  39.570  29.414  1.00  0.00    -0.237 OA
ATOM     95  O   UNL A   1      45.360  39.538  30.000  1.00  0.00    -0.744 OA
ENDBRANCH  88  92
ENDBRANCH  62  85
ENDBRANCH  36  37
ENDBRANCH  29  31
ENDBRANCH  28  29
ENDBRANCH  27  28
ENDBRANCH  26  27
ENDBRANCH  25  26
ENDBRANCH  24  25
ENDBRANCH   1  24
TORSDOF 25
ENDMDL
MODEL 3
REMARK VINA RESULT:     -10.0      2.392      7.766
REMARK SMILES C[C@@H]([NH2+]C1(CO)CCCCC1)[C@@H](C)C(=O)OCCOCCOCCOC(=O)c1ccc(-c2c3nc(c(-c4cc(S(=O)(=O)[O-])ccc4F)c4ccc([nH]4)c(-c4cc(S(=O)(=O)[O-])ccc4F)c4nc(c(-c5cc(S(=O)(=O)[O-])ccc5F)c5ccc2[nH]5)C=C4)C=C3)cc1
REMARK SMILES IDX 20 1 19 2 18 3 17 4 16 5 14 6 15 7 12 8 13 9 2 10 1 11 3 12
REMARK SMILES IDX 4 15 7 16 11 17 8 18 10 19 9 20 5 21 6 22 21 24 22 25 23 26
REMARK SMILES IDX 24 27 25 28 26 29 27 30 28 31 29 32 90 33 30 34 89 35 31 36
REMARK SMILES IDX 32 37 33 38 83 39 34 40 88 41 82 42 84 43 35 44 87 45 81 46
REMARK SMILES IDX 80 47 36 49 68 50 48 51 67 52 49 53 52 54 66 55 85 56 50 57
REMARK SMILES IDX 51 58 65 60 86 61 53 62 37 63 38 64 46 65 39 66 45 67 47 68
REMARK SMILES IDX 44 69 40 70 41 71 42 72 43 73 69 74 70 75 78 76 71 77 77 78
REMARK SMILES IDX 79 79 76 80 72 81 73 82 74 83 75 84 54 85 55 86 63 87 56 88
REMARK SMILES IDX 62 89 64 90 61 91 57 92 58 93 59 94 60 95
REMARK H PARENT 3 13 3 14 6 23 84 48 52 59
REMARK Flexibility Score: inf
ROOT
ATOM      1  C   UNL A   1      31.928  29.528  25.104  1.00  0.00     0.188 C 
ENDROOT
BRANCH   1   2
ATOM      2  O   UNL A   1      30.682  29.786  24.483  1.00  0.00    -0.376 OA
BRANCH   2   3
ATOM      3  C   UNL A   1      30.200  28.703  23.702  1.00  0.00     0.202 C 
BRANCH   3   4
ATOM      4  C   UNL A   1      30.105  27.318  24.381  1.00  0.00     0.261 C 
BRANCH   4   5
ATOM      5  O   UNL A   1      29.831  26.182  23.507  1.00  0.00    -0.463 OA
BRANCH   5   6
ATOM      6  C   UNL A   1      30.772  25.212  23.395  1.00  0.00     0.314 C 
ATOM      7  O   UNL A   1      30.499  24.018  23.500  1.00  0.00    -0.252 OA
BRANCH   6   8
ATOM      8  C   UNL A   1      32.244  25.684  23.270  1.00  0.00     0.154 C 
ATOM      9  C   UNL A   1      32.470  25.696  21.743  1.00  0.00     0.026 C 
BRANCH   8  10
ATOM     10  C   UNL A   1      33.512  25.108  24.082  1.00  0.00     0.193 C 
ATOM     11  C   UNL A   1      33.846  26.161  25.177  1.00  0.00     0.076 C 
BRANCH  10  12
ATOM     12  N   UNL A   1      33.575  23.829  24.896  1.00  0.00    -0.337 N 
ATOM     13  H   UNL A   1      32.700  23.759  25.415  1.00  0.00     0.347 HD
ATOM     14  H   UNL A   1      34.421  23.930  25.457  1.00  0.00     0.347 HD
BRANCH  12  15
ATOM     15  C   UNL A   1      33.765  22.534  24.171  1.00  0.00     0.120 C 
ATOM     16  C   UNL A   1      33.683  21.404  25.732  1.00  0.00     0.071 C 
ATOM     17  C   UNL A   1      32.762  21.852  22.640  1.00  0.00     0.071 C 
ATOM     18  C   UNL A   1      33.101  19.593  25.690  1.00  0.00     0.007 C 
ATOM     19  C   UNL A   1      32.231  19.945  22.520  1.00  0.00     0.007 C 
ATOM     20  C   UNL A   1      32.321  18.874  24.117  1.00  0.00     0.001 C 
BRANCH  15  21
ATOM     21  C   UNL A   1      34.916  23.079  23.216  1.00  0.00     0.224 C 
BRANCH  21  22
ATOM     22  O   UNL A   1      36.043  23.525  24.018  1.00  0.00    -0.390 OA
ATOM     23  H   UNL A   1      36.021  23.084  24.881  1.00  0.00     0.210 HD
ENDBRANCH  21  22
ENDBRANCH  15  21
ENDBRANCH  12  15
ENDBRANCH  10  12
ENDBRANCH   8  10
ENDBRANCH   6   8
ENDBRANCH   5   6
ENDBRANCH   4   5
ENDBRANCH   3   4
ENDBRANCH   2   3
ENDBRANCH   1   2
BRANCH   1  24
ATOM     24  C   UNL A   1      31.949  29.535  26.654  1.00  0.00     0.188 C 
BRANCH  24  25
ATOM     25  O   UNL A   1      32.954  30.500  27.346  1.00  0.00    -0.376 OA
BRANCH  25  26
ATOM     26  C   UNL A   1      33.590  32.223  27.772  1.00  0.00     0.202 C 
BRANCH  26  27
ATOM     27  C   UNL A   1      32.970  33.799  27.693  1.00  0.00     0.261 C 
BRANCH  27  28
ATOM     28  O   UNL A   1      32.415  34.440  28.887  1.00  0.00    -0.460 OA
BRANCH  28  29
ATOM     29  C   UNL A   1      33.156  35.285  29.650  1.00  0.00     0.338 C 
ATOM     30  O   UNL A   1      32.752  36.311  30.141  1.00  0.00    -0.246 OA
BRANCH  29  31
ATOM     31  C   UNL A   1      34.405  34.540  30.075  1.00  0.00     0.060 A 
ATOM     32  C   UNL A   1      34.233  33.566  31.072  1.00  0.00     0.016 A 
ATOM     33  C   UNL A   1      35.645  34.621  29.423  1.00  0.00     0.016 A 
ATOM     34  C   UNL A   1      35.284  32.716  31.446  1.00  0.00     0.010 A 
ATOM     35  C   UNL A   1      36.720  33.797  29.834  1.00  0.00     0.010 A 
ATOM     36  C   UNL A   1      36.557  32.866  30.881  1.00  0.00    -0.014 A 
BRANCH  36  37
ATOM     37  C   UNL A   1      37.740  32.384  31.668  1.00  0.00     0.031 A 
ATOM     38  C   UNL A   1      38.518  31.249  31.039  1.00  0.00     0.074 A 
ATOM     39  C   UNL A   1      38.183  32.923  32.822  1.00  0.00     0.049 A 
ATOM     40  N   UNL A   1      39.562  30.595  31.477  1.00  0.00    -0.248 NA
ATOM     41  C   UNL A   1      38.047  30.805  29.716  1.00  0.00     0.031 C 
ATOM     42  C   UNL A   1      37.616  34.086  33.501  1.00  0.00     0.029 A 
ATOM     43  N   UNL A   1      39.239  32.555  33.631  1.00  0.00    -0.354 N 
ATOM     44  C   UNL A   1      39.871  29.674  30.480  1.00  0.00     0.074 A 
ATOM     45  C   UNL A   1      38.896  29.837  29.429  1.00  0.00     0.031 C 
ATOM     46  C   UNL A   1      38.320  34.324  34.627  1.00  0.00     0.029 A 
ATOM     47  C   UNL A   1      39.365  33.308  34.780  1.00  0.00     0.049 A 
ATOM     48  H   UNL A   1      39.852  31.817  33.408  1.00  0.00     0.167 HD
ATOM     49  C   UNL A   1      40.870  28.760  30.435  1.00  0.00     0.034 A 
ATOM     50  C   UNL A   1      40.199  33.172  35.839  1.00  0.00     0.034 A 
ATOM     51  C   UNL A   1      41.805  28.547  31.504  1.00  0.00     0.049 A 
ATOM     52  C   UNL A   1      41.211  32.037  35.845  1.00  0.00     0.074 A 
ATOM     53  C   UNL A   1      42.813  27.604  31.591  1.00  0.00     0.029 A 
ATOM     54  N   UNL A   1      41.831  29.272  32.687  1.00  0.00    -0.354 N 
ATOM     55  N   UNL A   1      41.466  31.148  34.911  1.00  0.00    -0.248 NA
ATOM     56  C   UNL A   1      42.039  31.880  37.052  1.00  0.00     0.031 C 
ATOM     57  C   UNL A   1      43.397  27.708  32.858  1.00  0.00     0.029 A 
ATOM     58  C   UNL A   1      42.815  28.773  33.524  1.00  0.00     0.049 A 
ATOM     59  H   UNL A   1      41.238  30.029  32.899  1.00  0.00     0.167 HD
ATOM     60  C   UNL A   1      42.505  30.358  35.407  1.00  0.00     0.074 A 
ATOM     61  C   UNL A   1      42.834  30.875  36.716  1.00  0.00     0.031 C 
ATOM     62  C   UNL A   1      43.135  29.302  34.829  1.00  0.00     0.034 A 
BRANCH  49  63
ATOM     63  C   UNL A   1      40.912  27.866  29.221  1.00  0.00     0.023 A 
ATOM     64  C   UNL A   1      41.800  28.103  28.156  1.00  0.00     0.031 A 
ATOM     65  C   UNL A   1      39.986  26.816  29.091  1.00  0.00     0.131 A 
ATOM     66  C   UNL A   1      41.685  27.354  26.976  1.00  0.00     0.055 A 
ATOM     67  C   UNL A   1      39.937  26.020  27.947  1.00  0.00     0.041 A 
ATOM     68  F   UNL A   1      39.092  26.569  30.061  1.00  0.00    -0.206 F 
ATOM     69  C   UNL A   1      40.778  26.297  26.874  1.00  0.00     0.022 A 
BRANCH  66  70
ATOM     70  S   UNL A   1      42.623  27.886  25.516  1.00  0.00     0.124 S 
ATOM     71  O   UNL A   1      43.923  28.206  26.101  1.00  0.00    -0.237 OA
ATOM     72  O   UNL A   1      42.579  26.704  24.664  1.00  0.00    -0.237 OA
ATOM     73  O   UNL A   1      41.869  29.037  25.025  1.00  0.00    -0.744 OA
ENDBRANCH  66  70
ENDBRANCH  49  63
BRANCH  50  74
ATOM     74  C   UNL A   1      40.085  34.062  37.043  1.00  0.00     0.023 A 
ATOM     75  C   UNL A   1      39.468  33.629  38.233  1.00  0.00     0.031 A 
ATOM     76  C   UNL A   1      40.492  35.407  36.978  1.00  0.00     0.131 A 
ATOM     77  C   UNL A   1      39.235  34.541  39.280  1.00  0.00     0.055 A 
ATOM     78  C   UNL A   1      40.310  36.294  38.043  1.00  0.00     0.041 A 
ATOM     79  F   UNL A   1      41.063  35.891  35.863  1.00  0.00    -0.206 F 
ATOM     80  C   UNL A   1      39.666  35.866  39.198  1.00  0.00     0.022 A 
BRANCH  77  81
ATOM     81  S   UNL A   1      38.262  34.002  40.719  1.00  0.00     0.124 S 
ATOM     82  O   UNL A   1      39.216  33.150  41.420  1.00  0.00    -0.237 OA
ATOM     83  O   UNL A   1      37.942  35.272  41.362  1.00  0.00    -0.237 OA
ATOM     84  O   UNL A   1      37.125  33.305  40.121  1.00  0.00    -0.744 OA
ENDBRANCH  77  81
ENDBRANCH  50  74
BRANCH  62  85
ATOM     85  C   UNL A   1      44.288  28.671  35.573  1.00  0.00     0.023 A 
ATOM     86  C   UNL A   1      44.100  27.637  36.507  1.00  0.00     0.031 A 
ATOM     87  C   UNL A   1      45.606  29.089  35.307  1.00  0.00     0.131 A 
ATOM     88  C   UNL A   1      45.208  27.081  37.166  1.00  0.00     0.055 A 
ATOM     89  C   UNL A   1      46.706  28.494  35.923  1.00  0.00     0.041 A 
ATOM     90  F   UNL A   1      45.845  30.070  34.422  1.00  0.00    -0.206 F 
ATOM     91  C   UNL A   1      46.511  27.490  36.866  1.00  0.00     0.022 A 
BRANCH  88  92
ATOM     92  S   UNL A   1      44.926  25.855  38.473  1.00  0.00     0.124 S 
ATOM     93  O   UNL A   1      46.286  25.550  38.904  1.00  0.00    -0.237 OA
ATOM     94  O   UNL A   1      44.107  26.596  39.426  1.00  0.00    -0.237 OA
ATOM     95  O   UNL A   1      44.237  24.767  37.781  1.00  0.00    -0.744 OA
ENDBRANCH  88  92
ENDBRANCH  62  85
ENDBRANCH  36  37
ENDBRANCH  29  31
ENDBRANCH  28  29
ENDBRANCH  27  28
ENDBRANCH  26  27
ENDBRANCH  25  26
ENDBRANCH  24  25
ENDBRANCH   1  24
TORSDOF 25
ENDMDL
