MODEL 1
REMARK VINA RESULT:     -11.3      0.000      0.000
REMARK SMILES C[C@@H](C(=O)OCCOCCOCCOC(=O)c1ccc(-c2c3nc(c(-c4cc(S(=O)(=O)[O-])ccc4F)c4ccc([nH]4)c(-c4cc(S(=O)(=O)[O-])ccc4F)c4nc(c(-c5cc(S(=O)(=O)[O-])ccc5F)c5ccc2[nH]5)C=C4)C=C3)cc1)c1ccc(C[C@H]2CCCC2=O)c(-c2ccc(F)cc2)c1
REMARK SMILES IDX 9 1 8 2 7 3 6 4 5 5 3 6 4 7 2 8 1 9 80 10 81 11 99 12 82 13
REMARK SMILES IDX 91 14 83 15 92 16 93 17 98 18 94 19 97 20 95 21 96 22 84 23
REMARK SMILES IDX 85 24 86 25 89 26 87 27 88 28 90 29 10 30 11 31 12 32 13 33
REMARK SMILES IDX 14 34 15 35 16 36 17 37 18 38 79 39 19 40 78 41 20 42 21 43
REMARK SMILES IDX 22 44 72 45 23 46 77 47 71 48 73 49 24 50 76 51 70 52 69 53
REMARK SMILES IDX 25 55 57 56 37 57 56 58 38 59 41 60 55 61 74 62 39 63 40 64
REMARK SMILES IDX 54 66 75 67 42 68 26 69 27 70 35 71 28 72 34 73 36 74 33 75
REMARK SMILES IDX 29 76 30 77 31 78 32 79 58 80 59 81 67 82 60 83 66 84 68 85
REMARK SMILES IDX 65 86 61 87 62 88 63 89 64 90 43 91 44 92 52 93 45 94 51 95
REMARK SMILES IDX 53 96 50 97 46 98 47 99 48 100 49 101
REMARK H PARENT 73 54 41 65
REMARK Flexibility Score: inf
ROOT
ATOM      1  C   UNL A   1      33.417  28.182  26.096  1.00  0.00     0.188 C 
ENDROOT
BRANCH   1   2
ATOM      2  O   UNL A   1      33.892  27.464  24.980  1.00  0.00    -0.376 OA
BRANCH   2   3
ATOM      3  C   UNL A   1      33.856  28.061  23.694  1.00  0.00     0.202 C 
BRANCH   3   4
ATOM      4  C   UNL A   1      33.620  27.305  22.370  1.00  0.00     0.261 C 
BRANCH   4   5
ATOM      5  O   UNL A   1      32.402  26.557  22.251  1.00  0.00    -0.463 OA
BRANCH   5   6
ATOM      6  C   UNL A   1      32.537  25.205  22.143  1.00  0.00     0.313 C 
ATOM      7  O   UNL A   1      33.285  24.658  21.336  1.00  0.00    -0.252 OA
BRANCH   6   8
ATOM      8  C   UNL A   1      31.710  24.416  23.164  1.00  0.00     0.126 C 
ATOM      9  C   UNL A   1      31.083  25.305  24.251  1.00  0.00     0.025 C 
BRANCH   8  10
ATOM     10  C   UNL A   1      32.367  23.138  23.699  1.00  0.00    -0.033 A 
ATOM     11  C   UNL A   1      31.753  21.898  23.529  1.00  0.00     0.005 A 
ATOM     12  C   UNL A   1      33.659  23.120  24.246  1.00  0.00     0.013 A 
ATOM     13  C   UNL A   1      32.406  20.707  23.875  1.00  0.00     0.004 A 
ATOM     14  C   UNL A   1      34.340  21.930  24.638  1.00  0.00    -0.015 A 
ATOM     15  C   UNL A   1      33.693  20.681  24.445  1.00  0.00    -0.039 A 
BRANCH  14  16
ATOM     16  C   UNL A   1      35.714  22.132  25.163  1.00  0.00    -0.018 A 
ATOM     17  C   UNL A   1      36.736  21.186  24.980  1.00  0.00     0.012 A 
ATOM     18  C   UNL A   1      36.065  23.370  25.745  1.00  0.00     0.012 A 
ATOM     19  C   UNL A   1      38.055  21.462  25.366  1.00  0.00     0.040 A 
ATOM     20  C   UNL A   1      37.382  23.653  26.122  1.00  0.00     0.040 A 
ATOM     21  C   UNL A   1      38.368  22.696  25.926  1.00  0.00     0.123 A 
ATOM     22  F   UNL A   1      39.624  22.957  26.311  1.00  0.00    -0.207 F 
ENDBRANCH  14  16
BRANCH  15  23
ATOM     23  C   UNL A   1      34.378  19.326  24.637  1.00  0.00     0.047 C 
BRANCH  23  24
ATOM     24  C   UNL A   1      33.765  17.998  24.135  1.00  0.00     0.060 C 
ATOM     25  C   UNL A   1      34.781  16.910  23.813  1.00  0.00     0.012 C 
ATOM     26  C   UNL A   1      32.825  17.261  25.064  1.00  0.00     0.136 C 
ATOM     27  C   UNL A   1      34.771  15.958  24.998  1.00  0.00     0.009 C 
ATOM     28  C   UNL A   1      33.308  15.867  25.387  1.00  0.00     0.076 C 
ATOM     29  O   UNL A   1      31.781  17.729  25.505  1.00  0.00    -0.299 OA
ENDBRANCH  23  24
ENDBRANCH  15  23
ENDBRANCH   8  10
ENDBRANCH   6   8
ENDBRANCH   5   6
ENDBRANCH   4   5
ENDBRANCH   3   4
ENDBRANCH   2   3
ENDBRANCH   1   2
BRANCH   1  30
ATOM     30  C   UNL A   1      32.247  29.153  25.846  1.00  0.00     0.188 C 
BRANCH  30  31
ATOM     31  O   UNL A   1      32.454  30.551  25.924  1.00  0.00    -0.376 OA
BRANCH  31  32
ATOM     32  C   UNL A   1      32.480  31.139  27.218  1.00  0.00     0.202 C 
BRANCH  32  33
ATOM     33  C   UNL A   1      33.610  32.096  27.646  1.00  0.00     0.261 C 
BRANCH  33  34
ATOM     34  O   UNL A   1      33.382  33.493  27.391  1.00  0.00    -0.460 OA
BRANCH  34  35
ATOM     35  C   UNL A   1      33.402  34.299  28.479  1.00  0.00     0.338 C 
ATOM     36  O   UNL A   1      32.584  35.179  28.763  1.00  0.00    -0.246 OA
BRANCH  35  37
ATOM     37  C   UNL A   1      34.509  33.929  29.373  1.00  0.00     0.060 A 
ATOM     38  C   UNL A   1      35.819  34.234  29.006  1.00  0.00     0.016 A 
ATOM     39  C   UNL A   1      34.275  33.178  30.525  1.00  0.00     0.016 A 
ATOM     40  C   UNL A   1      36.882  33.812  29.796  1.00  0.00     0.010 A 
ATOM     41  C   UNL A   1      35.360  32.705  31.286  1.00  0.00     0.010 A 
ATOM     42  C   UNL A   1      36.684  32.983  30.904  1.00  0.00    -0.014 A 
BRANCH  42  43
ATOM     43  C   UNL A   1      37.857  32.253  31.484  1.00  0.00     0.031 A 
ATOM     44  C   UNL A   1      38.182  32.427  32.944  1.00  0.00     0.074 A 
ATOM     45  C   UNL A   1      38.513  31.286  30.810  1.00  0.00     0.049 A 
ATOM     46  N   UNL A   1      39.163  31.909  33.638  1.00  0.00    -0.248 NA
ATOM     47  C   UNL A   1      37.278  33.282  33.725  1.00  0.00     0.031 C 
ATOM     48  C   UNL A   1      38.195  30.874  29.451  1.00  0.00     0.029 A 
ATOM     49  N   UNL A   1      39.506  30.411  31.197  1.00  0.00    -0.354 N 
ATOM     50  C   UNL A   1      39.046  32.441  34.916  1.00  0.00     0.074 A 
ATOM     51  C   UNL A   1      37.872  33.290  34.908  1.00  0.00     0.031 C 
ATOM     52  C   UNL A   1      38.897  29.769  29.161  1.00  0.00     0.029 A 
ATOM     53  C   UNL A   1      39.808  29.456  30.252  1.00  0.00     0.049 A 
ATOM     54  H   UNL A   1      39.958  30.464  32.071  1.00  0.00     0.167 HD
ATOM     55  C   UNL A   1      39.861  32.261  35.985  1.00  0.00     0.034 A 
ATOM     56  C   UNL A   1      40.724  28.462  30.227  1.00  0.00     0.034 A 
ATOM     57  C   UNL A   1      41.005  31.382  36.001  1.00  0.00     0.049 A 
ATOM     58  C   UNL A   1      41.672  28.336  31.393  1.00  0.00     0.074 A 
ATOM     59  C   UNL A   1      41.921  31.184  37.022  1.00  0.00     0.029 A 
ATOM     60  N   UNL A   1      41.393  30.549  34.961  1.00  0.00    -0.354 N 
ATOM     61  N   UNL A   1      41.648  28.965  32.543  1.00  0.00    -0.248 NA
ATOM     62  C   UNL A   1      42.796  27.402  31.239  1.00  0.00     0.031 C 
ATOM     63  C   UNL A   1      42.902  30.294  36.571  1.00  0.00     0.029 A 
ATOM     64  C   UNL A   1      42.553  29.865  35.301  1.00  0.00     0.049 A 
ATOM     65  H   UNL A   1      40.914  30.456  34.105  1.00  0.00     0.167 HD
ATOM     66  C   UNL A   1      42.761  28.510  33.244  1.00  0.00     0.074 A 
ATOM     67  C   UNL A   1      43.404  27.517  32.410  1.00  0.00     0.031 C 
ATOM     68  C   UNL A   1      43.218  28.898  34.462  1.00  0.00     0.034 A 
BRANCH  55  69
ATOM     69  C   UNL A   1      39.615  33.143  37.181  1.00  0.00     0.023 A 
ATOM     70  C   UNL A   1      38.867  32.726  38.294  1.00  0.00     0.031 A 
ATOM     71  C   UNL A   1      40.115  34.459  37.175  1.00  0.00     0.131 A 
ATOM     72  C   UNL A   1      38.587  33.640  39.322  1.00  0.00     0.055 A 
ATOM     73  C   UNL A   1      39.904  35.334  38.238  1.00  0.00     0.041 A 
ATOM     74  F   UNL A   1      40.808  34.919  36.120  1.00  0.00    -0.206 F 
ATOM     75  C   UNL A   1      39.123  34.930  39.315  1.00  0.00     0.022 A 
BRANCH  72  76
ATOM     76  S   UNL A   1      37.381  33.170  40.594  1.00  0.00     0.124 S 
ATOM     77  O   UNL A   1      38.102  32.120  41.309  1.00  0.00    -0.237 OA
ATOM     78  O   UNL A   1      37.187  34.420  41.319  1.00  0.00    -0.237 OA
ATOM     79  O   UNL A   1      36.231  32.710  39.819  1.00  0.00    -0.744 OA
ENDBRANCH  72  76
ENDBRANCH  55  69
BRANCH  56  80
ATOM     80  C   UNL A   1      40.889  27.572  29.029  1.00  0.00     0.023 A 
ATOM     81  C   UNL A   1      41.894  27.803  28.072  1.00  0.00     0.031 A 
ATOM     82  C   UNL A   1      39.980  26.528  28.775  1.00  0.00     0.131 A 
ATOM     83  C   UNL A   1      41.939  27.027  26.898  1.00  0.00     0.055 A 
ATOM     84  C   UNL A   1      40.080  25.709  27.649  1.00  0.00     0.041 A 
ATOM     85  F   UNL A   1      38.972  26.281  29.626  1.00  0.00    -0.206 F 
ATOM     86  C   UNL A   1      41.055  25.966  26.694  1.00  0.00     0.022 A 
BRANCH  83  87
ATOM     87  S   UNL A   1      43.101  27.490  25.581  1.00  0.00     0.124 S 
ATOM     88  O   UNL A   1      44.052  28.325  26.305  1.00  0.00    -0.237 OA
ATOM     89  O   UNL A   1      43.591  26.189  25.141  1.00  0.00    -0.237 OA
ATOM     90  O   UNL A   1      42.259  28.194  24.616  1.00  0.00    -0.744 OA
ENDBRANCH  83  87
ENDBRANCH  56  80
BRANCH  68  91
ATOM     91  C   UNL A   1      44.474  28.230  34.969  1.00  0.00     0.023 A 
ATOM     92  C   UNL A   1      44.428  27.018  35.680  1.00  0.00     0.031 A 
ATOM     93  C   UNL A   1      45.730  28.824  34.761  1.00  0.00     0.131 A 
ATOM     94  C   UNL A   1      45.606  26.469  36.209  1.00  0.00     0.055 A 
ATOM     95  C   UNL A   1      46.907  28.242  35.234  1.00  0.00     0.041 A 
ATOM     96  F   UNL A   1      45.836  29.985  34.094  1.00  0.00    -0.206 F 
ATOM     97  C   UNL A   1      46.848  27.065  35.975  1.00  0.00     0.022 A 
BRANCH  94  98
ATOM     98  S   UNL A   1      45.485  25.021  37.295  1.00  0.00     0.124 S 
ATOM     99  O   UNL A   1      45.404  25.637  38.615  1.00  0.00    -0.237 OA
ATOM    100  O   UNL A   1      44.268  24.373  36.818  1.00  0.00    -0.237 OA
ATOM    101  O   UNL A   1      46.721  24.287  37.028  1.00  0.00    -0.744 OA
ENDBRANCH  94  98
ENDBRANCH  68  91
ENDBRANCH  42  43
ENDBRANCH  35  37
ENDBRANCH  34  35
ENDBRANCH  33  34
ENDBRANCH  32  33
ENDBRANCH  31  32
ENDBRANCH  30  31
ENDBRANCH   1  30
TORSDOF 24
ENDMDL
MODEL 2
REMARK VINA RESULT:     -11.0      1.783      7.256
REMARK SMILES C[C@@H](C(=O)OCCOCCOCCOC(=O)c1ccc(-c2c3nc(c(-c4cc(S(=O)(=O)[O-])ccc4F)c4ccc([nH]4)c(-c4cc(S(=O)(=O)[O-])ccc4F)c4nc(c(-c5cc(S(=O)(=O)[O-])ccc5F)c5ccc2[nH]5)C=C4)C=C3)cc1)c1ccc(C[C@H]2CCCC2=O)c(-c2ccc(F)cc2)c1
REMARK SMILES IDX 9 1 8 2 7 3 6 4 5 5 3 6 4 7 2 8 1 9 80 10 81 11 99 12 82 13
REMARK SMILES IDX 91 14 83 15 92 16 93 17 98 18 94 19 97 20 95 21 96 22 84 23
REMARK SMILES IDX 85 24 86 25 89 26 87 27 88 28 90 29 10 30 11 31 12 32 13 33
REMARK SMILES IDX 14 34 15 35 16 36 17 37 18 38 79 39 19 40 78 41 20 42 21 43
REMARK SMILES IDX 22 44 72 45 23 46 77 47 71 48 73 49 24 50 76 51 70 52 69 53
REMARK SMILES IDX 25 55 57 56 37 57 56 58 38 59 41 60 55 61 74 62 39 63 40 64
REMARK SMILES IDX 54 66 75 67 42 68 26 69 27 70 35 71 28 72 34 73 36 74 33 75
REMARK SMILES IDX 29 76 30 77 31 78 32 79 58 80 59 81 67 82 60 83 66 84 68 85
REMARK SMILES IDX 65 86 61 87 62 88 63 89 64 90 43 91 44 92 52 93 45 94 51 95
REMARK SMILES IDX 53 96 50 97 46 98 47 99 48 100 49 101
REMARK H PARENT 73 54 41 65
REMARK Flexibility Score: inf
ROOT
ATOM      1  C   UNL A   1      33.017  28.010  26.324  1.00  0.00     0.188 C 
ENDROOT
BRANCH   1   2
ATOM      2  O   UNL A   1      33.648  27.450  25.196  1.00  0.00    -0.376 OA
BRANCH   2   3
ATOM      3  C   UNL A   1      34.059  28.292  24.130  1.00  0.00     0.202 C 
BRANCH   3   4
ATOM      4  C   UNL A   1      33.899  27.968  22.631  1.00  0.00     0.261 C 
BRANCH   4   5
ATOM      5  O   UNL A   1      32.643  27.421  22.209  1.00  0.00    -0.463 OA
BRANCH   5   6
ATOM      6  C   UNL A   1      32.633  26.089  21.924  1.00  0.00     0.313 C 
ATOM      7  O   UNL A   1      33.413  25.555  21.140  1.00  0.00    -0.252 OA
BRANCH   6   8
ATOM      8  C   UNL A   1      31.592  25.292  22.720  1.00  0.00     0.126 C 
ATOM      9  C   UNL A   1      30.772  26.165  23.686  1.00  0.00     0.025 C 
BRANCH   8  10
ATOM     10  C   UNL A   1      32.092  23.979  23.331  1.00  0.00    -0.033 A 
ATOM     11  C   UNL A   1      31.296  22.834  23.304  1.00  0.00     0.005 A 
ATOM     12  C   UNL A   1      33.400  23.812  23.808  1.00  0.00     0.013 A 
ATOM     13  C   UNL A   1      31.792  21.590  23.719  1.00  0.00     0.004 A 
ATOM     14  C   UNL A   1      33.928  22.569  24.268  1.00  0.00    -0.015 A 
ATOM     15  C   UNL A   1      33.096  21.419  24.221  1.00  0.00    -0.039 A 
BRANCH  14  16
ATOM     16  C   UNL A   1      35.347  22.606  24.699  1.00  0.00    -0.018 A 
ATOM     17  C   UNL A   1      35.927  23.745  25.282  1.00  0.00     0.012 A 
ATOM     18  C   UNL A   1      36.122  21.425  24.662  1.00  0.00     0.012 A 
ATOM     19  C   UNL A   1      37.228  23.709  25.802  1.00  0.00     0.040 A 
ATOM     20  C   UNL A   1      37.416  21.383  25.189  1.00  0.00     0.040 A 
ATOM     21  C   UNL A   1      37.958  22.526  25.759  1.00  0.00     0.123 A 
ATOM     22  F   UNL A   1      39.207  22.493  26.240  1.00  0.00    -0.207 F 
ENDBRANCH  14  16
BRANCH  15  23
ATOM     23  C   UNL A   1      33.591  19.997  24.496  1.00  0.00     0.047 C 
BRANCH  23  24
ATOM     24  C   UNL A   1      32.774  18.739  24.122  1.00  0.00     0.060 C 
ATOM     25  C   UNL A   1      33.077  18.170  22.741  1.00  0.00     0.012 C 
ATOM     26  C   UNL A   1      32.935  17.510  24.991  1.00  0.00     0.136 C 
ATOM     27  C   UNL A   1      33.989  16.975  22.968  1.00  0.00     0.009 C 
ATOM     28  C   UNL A   1      33.430  16.314  24.213  1.00  0.00     0.076 C 
ATOM     29  O   UNL A   1      32.687  17.475  26.191  1.00  0.00    -0.299 OA
ENDBRANCH  23  24
ENDBRANCH  15  23
ENDBRANCH   8  10
ENDBRANCH   6   8
ENDBRANCH   5   6
ENDBRANCH   4   5
ENDBRANCH   3   4
ENDBRANCH   2   3
ENDBRANCH   1   2
BRANCH   1  30
ATOM     30  C   UNL A   1      32.058  29.189  26.065  1.00  0.00     0.188 C 
BRANCH  30  31
ATOM     31  O   UNL A   1      32.518  30.521  26.194  1.00  0.00    -0.376 OA
BRANCH  31  32
ATOM     32  C   UNL A   1      33.049  30.913  27.453  1.00  0.00     0.202 C 
BRANCH  32  33
ATOM     33  C   UNL A   1      34.252  31.871  27.558  1.00  0.00     0.261 C 
BRANCH  33  34
ATOM     34  O   UNL A   1      33.952  33.273  27.441  1.00  0.00    -0.460 OA
BRANCH  34  35
ATOM     35  C   UNL A   1      33.755  33.931  28.608  1.00  0.00     0.338 C 
ATOM     36  O   UNL A   1      32.794  34.649  28.899  1.00  0.00    -0.246 OA
BRANCH  35  37
ATOM     37  C   UNL A   1      34.820  33.606  29.568  1.00  0.00     0.060 A 
ATOM     38  C   UNL A   1      36.122  34.036  29.319  1.00  0.00     0.016 A 
ATOM     39  C   UNL A   1      34.566  32.777  30.661  1.00  0.00     0.016 A 
ATOM     40  C   UNL A   1      37.156  33.661  30.169  1.00  0.00     0.010 A 
ATOM     41  C   UNL A   1      35.628  32.354  31.482  1.00  0.00     0.010 A 
ATOM     42  C   UNL A   1      36.948  32.760  31.218  1.00  0.00    -0.014 A 
BRANCH  42  43
ATOM     43  C   UNL A   1      38.134  32.098  31.854  1.00  0.00     0.031 A 
ATOM     44  C   UNL A   1      38.920  31.085  31.065  1.00  0.00     0.074 A 
ATOM     45  C   UNL A   1      38.654  32.519  33.025  1.00  0.00     0.049 A 
ATOM     46  N   UNL A   1      39.960  30.381  31.432  1.00  0.00    -0.248 NA
ATOM     47  C   UNL A   1      38.489  30.845  29.682  1.00  0.00     0.031 C 
ATOM     48  C   UNL A   1      38.114  33.613  33.817  1.00  0.00     0.029 A 
ATOM     49  N   UNL A   1      39.799  32.153  33.702  1.00  0.00    -0.354 N 
ATOM     50  C   UNL A   1      40.257  29.552  30.358  1.00  0.00     0.074 A 
ATOM     51  C   UNL A   1      39.308  29.874  29.310  1.00  0.00     0.031 C 
ATOM     52  C   UNL A   1      38.976  33.897  34.804  1.00  0.00     0.029 A 
ATOM     53  C   UNL A   1      40.069  32.937  34.803  1.00  0.00     0.049 A 
ATOM     54  H   UNL A   1      40.371  31.401  33.423  1.00  0.00     0.167 HD
ATOM     55  C   UNL A   1      41.210  28.593  30.267  1.00  0.00     0.034 A 
ATOM     56  C   UNL A   1      41.049  32.886  35.733  1.00  0.00     0.034 A 
ATOM     57  C   UNL A   1      42.179  28.304  31.297  1.00  0.00     0.049 A 
ATOM     58  C   UNL A   1      42.048  31.760  35.656  1.00  0.00     0.074 A 
ATOM     59  C   UNL A   1      43.143  27.310  31.314  1.00  0.00     0.029 A 
ATOM     60  N   UNL A   1      42.320  29.005  32.487  1.00  0.00    -0.354 N 
ATOM     61  N   UNL A   1      42.218  30.874  34.704  1.00  0.00    -0.248 NA
ATOM     62  C   UNL A   1      42.957  31.597  36.800  1.00  0.00     0.031 C 
ATOM     63  C   UNL A   1      43.811  27.360  32.543  1.00  0.00     0.029 A 
ATOM     64  C   UNL A   1      43.328  28.442  33.259  1.00  0.00     0.049 A 
ATOM     65  H   UNL A   1      41.783  29.790  32.746  1.00  0.00     0.167 HD
ATOM     66  C   UNL A   1      43.245  30.043  35.141  1.00  0.00     0.074 A 
ATOM     67  C   UNL A   1      43.690  30.563  36.416  1.00  0.00     0.031 C 
ATOM     68  C   UNL A   1      43.756  28.936  34.546  1.00  0.00     0.034 A 
BRANCH  55  69
ATOM     69  C   UNL A   1      41.156  27.694  29.060  1.00  0.00     0.023 A 
ATOM     70  C   UNL A   1      42.122  27.727  28.042  1.00  0.00     0.031 A 
ATOM     71  C   UNL A   1      40.070  26.809  28.915  1.00  0.00     0.131 A 
ATOM     72  C   UNL A   1      41.946  26.938  26.894  1.00  0.00     0.055 A 
ATOM     73  C   UNL A   1      39.947  25.967  27.811  1.00  0.00     0.041 A 
ATOM     74  F   UNL A   1      39.102  26.761  29.843  1.00  0.00    -0.206 F 
ATOM     75  C   UNL A   1      40.882  26.039  26.784  1.00  0.00     0.022 A 
BRANCH  72  76
ATOM     76  S   UNL A   1      43.041  27.217  25.475  1.00  0.00     0.124 S 
ATOM     77  O   UNL A   1      44.212  27.808  26.118  1.00  0.00    -0.237 OA
ATOM     78  O   UNL A   1      43.215  25.871  24.943  1.00  0.00    -0.237 OA
ATOM     79  O   UNL A   1      42.276  28.131  24.628  1.00  0.00    -0.744 OA
ENDBRANCH  72  76
ENDBRANCH  55  69
BRANCH  56  80
ATOM     80  C   UNL A   1      41.089  33.845  36.887  1.00  0.00     0.023 A 
ATOM     81  C   UNL A   1      41.984  34.931  36.914  1.00  0.00     0.031 A 
ATOM     82  C   UNL A   1      40.291  33.635  38.029  1.00  0.00     0.131 A 
ATOM     83  C   UNL A   1      42.082  35.734  38.066  1.00  0.00     0.055 A 
ATOM     84  C   UNL A   1      40.335  34.484  39.135  1.00  0.00     0.041 A 
ATOM     85  F   UNL A   1      39.447  32.593  38.085  1.00  0.00    -0.206 F 
ATOM     86  C   UNL A   1      41.244  35.533  39.165  1.00  0.00     0.022 A 
BRANCH  83  87
ATOM     87  S   UNL A   1      43.397  36.982  38.160  1.00  0.00     0.124 S 
ATOM     88  O   UNL A   1      43.465  37.445  36.778  1.00  0.00    -0.237 OA
ATOM     89  O   UNL A   1      42.848  37.925  39.128  1.00  0.00    -0.237 OA
ATOM     90  O   UNL A   1      44.556  36.223  38.623  1.00  0.00    -0.744 OA
ENDBRANCH  83  87
ENDBRANCH  56  80
BRANCH  68  91
ATOM     91  C   UNL A   1      44.871  28.219  35.269  1.00  0.00     0.023 A 
ATOM     92  C   UNL A   1      44.611  27.162  36.159  1.00  0.00     0.031 A 
ATOM     93  C   UNL A   1      46.207  28.612  35.086  1.00  0.00     0.131 A 
ATOM     94  C   UNL A   1      45.664  26.574  36.877  1.00  0.00     0.055 A 
ATOM     95  C   UNL A   1      47.258  27.982  35.754  1.00  0.00     0.041 A 
ATOM     96  F   UNL A   1      46.516  29.619  34.252  1.00  0.00    -0.206 F 
ATOM     97  C   UNL A   1      46.989  26.967  36.667  1.00  0.00     0.022 A 
BRANCH  94  98
ATOM     98  S   UNL A   1      45.272  25.360  38.168  1.00  0.00     0.124 S 
ATOM     99  O   UNL A   1      44.795  24.227  37.383  1.00  0.00    -0.237 OA
ATOM    100  O   UNL A   1      46.560  25.180  38.829  1.00  0.00    -0.237 OA
ATOM    101  O   UNL A   1      44.252  26.031  38.972  1.00  0.00    -0.744 OA
ENDBRANCH  94  98
ENDBRANCH  68  91
ENDBRANCH  42  43
ENDBRANCH  35  37
ENDBRANCH  34  35
ENDBRANCH  33  34
ENDBRANCH  32  33
ENDBRANCH  31  32
ENDBRANCH  30  31
ENDBRANCH   1  30
TORSDOF 24
ENDMDL
MODEL 3
REMARK VINA RESULT:     -10.9      3.191      4.197
REMARK SMILES C[C@@H](C(=O)OCCOCCOCCOC(=O)c1ccc(-c2c3nc(c(-c4cc(S(=O)(=O)[O-])ccc4F)c4ccc([nH]4)c(-c4cc(S(=O)(=O)[O-])ccc4F)c4nc(c(-c5cc(S(=O)(=O)[O-])ccc5F)c5ccc2[nH]5)C=C4)C=C3)cc1)c1ccc(C[C@H]2CCCC2=O)c(-c2ccc(F)cc2)c1
REMARK SMILES IDX 9 1 8 2 7 3 6 4 5 5 3 6 4 7 2 8 1 9 80 10 81 11 99 12 82 13
REMARK SMILES IDX 91 14 83 15 92 16 93 17 98 18 94 19 97 20 95 21 96 22 84 23
REMARK SMILES IDX 85 24 86 25 89 26 87 27 88 28 90 29 10 30 11 31 12 32 13 33
REMARK SMILES IDX 14 34 15 35 16 36 17 37 18 38 79 39 19 40 78 41 20 42 21 43
REMARK SMILES IDX 22 44 72 45 23 46 77 47 71 48 73 49 24 50 76 51 70 52 69 53
REMARK SMILES IDX 25 55 57 56 37 57 56 58 38 59 41 60 55 61 74 62 39 63 40 64
REMARK SMILES IDX 54 66 75 67 42 68 26 69 27 70 35 71 28 72 34 73 36 74 33 75
REMARK SMILES IDX 29 76 30 77 31 78 32 79 58 80 59 81 67 82 60 83 66 84 68 85
REMARK SMILES IDX 65 86 61 87 62 88 63 89 64 90 43 91 44 92 52 93 45 94 51 95
REMARK SMILES IDX 53 96 50 97 46 98 47 99 48 100 49 101
REMARK H PARENT 73 54 41 65
REMARK Flexibility Score: inf
ROOT
ATOM      1  C   UNL A   1      32.952  27.763  26.631  1.00  0.00     0.188 C 
ENDROOT
BRANCH   1   2
ATOM      2  O   UNL A   1      33.654  27.386  25.468  1.00  0.00    -0.376 OA
BRANCH   2   3
ATOM      3  C   UNL A   1      33.838  28.328  24.423  1.00  0.00     0.202 C 
BRANCH   3   4
ATOM      4  C   UNL A   1      33.973  27.978  22.927  1.00  0.00     0.261 C 
BRANCH   4   5
ATOM      5  O   UNL A   1      32.762  27.727  22.202  1.00  0.00    -0.463 OA
BRANCH   5   6
ATOM      6  C   UNL A   1      32.599  26.461  21.726  1.00  0.00     0.313 C 
ATOM      7  O   UNL A   1      33.298  25.970  20.844  1.00  0.00    -0.252 OA
BRANCH   6   8
ATOM      8  C   UNL A   1      31.493  25.670  22.434  1.00  0.00     0.126 C 
ATOM      9  C   UNL A   1      30.588  26.550  23.314  1.00  0.00     0.025 C 
BRANCH   8  10
ATOM     10  C   UNL A   1      31.938  24.363  23.099  1.00  0.00    -0.033 A 
ATOM     11  C   UNL A   1      31.141  23.221  23.030  1.00  0.00     0.005 A 
ATOM     12  C   UNL A   1      33.206  24.199  23.676  1.00  0.00     0.013 A 
ATOM     13  C   UNL A   1      31.598  21.982  23.499  1.00  0.00     0.004 A 
ATOM     14  C   UNL A   1      33.691  22.960  24.193  1.00  0.00    -0.015 A 
ATOM     15  C   UNL A   1      32.860  21.813  24.100  1.00  0.00    -0.039 A 
BRANCH  14  16
ATOM     16  C   UNL A   1      35.075  22.998  24.729  1.00  0.00    -0.018 A 
ATOM     17  C   UNL A   1      36.165  22.445  24.037  1.00  0.00     0.012 A 
ATOM     18  C   UNL A   1      35.350  23.733  25.903  1.00  0.00     0.012 A 
ATOM     19  C   UNL A   1      37.477  22.614  24.501  1.00  0.00     0.040 A 
ATOM     20  C   UNL A   1      36.659  23.912  26.364  1.00  0.00     0.040 A 
ATOM     21  C   UNL A   1      37.713  23.353  25.655  1.00  0.00     0.123 A 
ATOM     22  F   UNL A   1      38.963  23.503  26.110  1.00  0.00    -0.207 F 
ENDBRANCH  14  16
BRANCH  15  23
ATOM     23  C   UNL A   1      33.325  20.393  24.432  1.00  0.00     0.047 C 
BRANCH  23  24
ATOM     24  C   UNL A   1      32.466  19.141  24.142  1.00  0.00     0.060 C 
ATOM     25  C   UNL A   1      32.703  18.508  22.777  1.00  0.00     0.012 C 
ATOM     26  C   UNL A   1      32.633  17.946  25.056  1.00  0.00     0.136 C 
ATOM     27  C   UNL A   1      33.595  17.302  23.019  1.00  0.00     0.009 C 
ATOM     28  C   UNL A   1      33.070  16.707  24.311  1.00  0.00     0.076 C 
ATOM     29  O   UNL A   1      32.431  17.966  26.265  1.00  0.00    -0.299 OA
ENDBRANCH  23  24
ENDBRANCH  15  23
ENDBRANCH   8  10
ENDBRANCH   6   8
ENDBRANCH   5   6
ENDBRANCH   4   5
ENDBRANCH   3   4
ENDBRANCH   2   3
ENDBRANCH   1   2
BRANCH   1  30
ATOM     30  C   UNL A   1      31.872  28.851  26.464  1.00  0.00     0.188 C 
BRANCH  30  31
ATOM     31  O   UNL A   1      32.130  30.178  26.881  1.00  0.00    -0.376 OA
BRANCH  31  32
ATOM     32  C   UNL A   1      33.246  30.392  27.736  1.00  0.00     0.202 C 
BRANCH  32  33
ATOM     33  C   UNL A   1      34.342  31.419  27.389  1.00  0.00     0.261 C 
BRANCH  33  34
ATOM     34  O   UNL A   1      34.520  32.492  28.331  1.00  0.00    -0.460 OA
BRANCH  34  35
ATOM     35  C   UNL A   1      34.964  32.129  29.557  1.00  0.00     0.338 C 
ATOM     36  O   UNL A   1      34.381  32.291  30.633  1.00  0.00    -0.246 OA
BRANCH  35  37
ATOM     37  C   UNL A   1      36.239  31.404  29.449  1.00  0.00     0.060 A 
ATOM     38  C   UNL A   1      36.345  30.120  29.983  1.00  0.00     0.016 A 
ATOM     39  C   UNL A   1      37.371  32.026  28.924  1.00  0.00     0.016 A 
ATOM     40  C   UNL A   1      37.566  29.457  29.969  1.00  0.00     0.010 A 
ATOM     41  C   UNL A   1      38.616  31.371  28.968  1.00  0.00     0.010 A 
ATOM     42  C   UNL A   1      38.735  30.089  29.533  1.00  0.00    -0.014 A 
BRANCH  42  43
ATOM     43  C   UNL A   1      40.062  29.488  29.887  1.00  0.00     0.031 A 
ATOM     44  C   UNL A   1      40.673  29.797  31.228  1.00  0.00     0.074 A 
ATOM     45  C   UNL A   1      40.637  28.518  29.148  1.00  0.00     0.049 A 
ATOM     46  N   UNL A   1      41.819  29.403  31.723  1.00  0.00    -0.248 NA
ATOM     47  C   UNL A   1      39.888  30.647  32.133  1.00  0.00     0.031 C 
ATOM     48  C   UNL A   1      40.073  27.980  27.919  1.00  0.00     0.029 A 
ATOM     49  N   UNL A   1      41.758  27.745  29.363  1.00  0.00    -0.354 N 
ATOM     50  C   UNL A   1      41.932  30.023  32.961  1.00  0.00     0.074 A 
ATOM     51  C   UNL A   1      40.717  30.788  33.155  1.00  0.00     0.031 C 
ATOM     52  C   UNL A   1      40.786  26.906  27.552  1.00  0.00     0.029 A 
ATOM     53  C   UNL A   1      41.930  26.741  28.436  1.00  0.00     0.049 A 
ATOM     54  H   UNL A   1      42.379  27.897  30.113  1.00  0.00     0.167 HD
ATOM     55  C   UNL A   1      42.967  29.983  33.835  1.00  0.00     0.034 A 
ATOM     56  C   UNL A   1      42.900  25.812  28.273  1.00  0.00     0.034 A 
ATOM     57  C   UNL A   1      44.158  29.188  33.656  1.00  0.00     0.049 A 
ATOM     58  C   UNL A   1      44.080  25.843  29.210  1.00  0.00     0.074 A 
ATOM     59  C   UNL A   1      45.282  29.132  34.463  1.00  0.00     0.029 A 
ATOM     60  N   UNL A   1      44.383  28.304  32.610  1.00  0.00    -0.354 N 
ATOM     61  N   UNL A   1      44.250  26.557  30.297  1.00  0.00    -0.248 NA
ATOM     62  C   UNL A   1      45.220  24.977  28.873  1.00  0.00     0.031 C 
ATOM     63  C   UNL A   1      46.215  28.278  33.866  1.00  0.00     0.029 A 
ATOM     64  C   UNL A   1      45.641  27.729  32.731  1.00  0.00     0.049 A 
ATOM     65  H   UNL A   1      43.743  28.111  31.886  1.00  0.00     0.167 HD
ATOM     66  C   UNL A   1      45.519  26.233  30.766  1.00  0.00     0.074 A 
ATOM     67  C   UNL A   1      46.051  25.224  29.875  1.00  0.00     0.031 C 
ATOM     68  C   UNL A   1      46.191  26.745  31.829  1.00  0.00     0.034 A 
BRANCH  55  69
ATOM     69  C   UNL A   1      42.909  30.937  35.000  1.00  0.00     0.023 A 
ATOM     70  C   UNL A   1      43.316  32.277  34.907  1.00  0.00     0.031 A 
ATOM     71  C   UNL A   1      42.472  30.463  36.251  1.00  0.00     0.131 A 
ATOM     72  C   UNL A   1      43.339  33.076  36.061  1.00  0.00     0.055 A 
ATOM     73  C   UNL A   1      42.417  31.286  37.374  1.00  0.00     0.041 A 
ATOM     74  F   UNL A   1      42.103  29.181  36.403  1.00  0.00    -0.206 F 
ATOM     75  C   UNL A   1      42.866  32.599  37.286  1.00  0.00     0.022 A 
BRANCH  72  76
ATOM     76  S   UNL A   1      44.142  34.700  35.974  1.00  0.00     0.124 S 
ATOM     77  O   UNL A   1      43.268  35.507  36.822  1.00  0.00    -0.237 OA
ATOM     78  O   UNL A   1      45.470  34.423  36.508  1.00  0.00    -0.237 OA
ATOM     79  O   UNL A   1      44.096  35.029  34.551  1.00  0.00    -0.744 OA
ENDBRANCH  72  76
ENDBRANCH  55  69
BRANCH  56  80
ATOM     80  C   UNL A   1      42.879  24.845  27.125  1.00  0.00     0.023 A 
ATOM     81  C   UNL A   1      42.312  23.564  27.250  1.00  0.00     0.031 A 
ATOM     82  C   UNL A   1      43.513  25.157  25.907  1.00  0.00     0.131 A 
ATOM     83  C   UNL A   1      42.423  22.639  26.194  1.00  0.00     0.055 A 
ATOM     84  C   UNL A   1      43.549  24.265  24.835  1.00  0.00     0.041 A 
ATOM     85  F   UNL A   1      44.111  26.347  25.737  1.00  0.00    -0.206 F 
ATOM     86  C   UNL A   1      43.014  22.992  24.980  1.00  0.00     0.022 A 
BRANCH  83  87
ATOM     87  S   UNL A   1      41.883  20.927  26.464  1.00  0.00     0.124 S 
ATOM     88  O   UNL A   1      42.183  20.741  27.879  1.00  0.00    -0.237 OA
ATOM     89  O   UNL A   1      40.470  20.997  26.109  1.00  0.00    -0.237 OA
ATOM     90  O   UNL A   1      42.716  20.157  25.542  1.00  0.00    -0.744 OA
ENDBRANCH  83  87
ENDBRANCH  56  80
BRANCH  68  91
ATOM     91  C   UNL A   1      47.577  26.206  32.091  1.00  0.00     0.023 A 
ATOM     92  C   UNL A   1      47.803  25.181  33.027  1.00  0.00     0.031 A 
ATOM     93  C   UNL A   1      48.688  26.738  31.415  1.00  0.00     0.131 A 
ATOM     94  C   UNL A   1      49.114  24.763  33.306  1.00  0.00     0.055 A 
ATOM     95  C   UNL A   1      49.983  26.273  31.649  1.00  0.00     0.041 A 
ATOM     96  F   UNL A   1      48.533  27.721  30.513  1.00  0.00    -0.206 F 
ATOM     97  C   UNL A   1      50.204  25.291  32.609  1.00  0.00     0.022 A 
BRANCH  94  98
ATOM     98  S   UNL A   1      49.386  23.592  34.665  1.00  0.00     0.124 S 
ATOM     99  O   UNL A   1      49.472  24.481  35.818  1.00  0.00    -0.237 OA
ATOM    100  O   UNL A   1      48.196  22.750  34.596  1.00  0.00    -0.237 OA
ATOM    101  O   UNL A   1      50.636  22.927  34.300  1.00  0.00    -0.744 OA
ENDBRANCH  94  98
ENDBRANCH  68  91
ENDBRANCH  42  43
ENDBRANCH  35  37
ENDBRANCH  34  35
ENDBRANCH  33  34
ENDBRANCH  32  33
ENDBRANCH  31  32
ENDBRANCH  30  31
ENDBRANCH   1  30
TORSDOF 24
ENDMDL
