MODEL 1
REMARK VINA RESULT:      -9.2      0.000      0.000
REMARK SMILES O=C(Cn1c(=O)[nH]c2ccccc2c1=O)NC[C@H]1CC[C@@H](C(=O)N2CCC(C(=O)OCCOCCOCCOC(=O)c3ccc(-c4c5nc(c(-c6cc(S(=O)(=O)[O-])ccc6F)c6ccc([nH]6)c(-c6cc(S(=O)(=O)[O-])ccc6F)c6nc(c(-c7cc(S(=O)(=O)[O-])ccc7F)c7ccc4[nH]7)C=C6)C=C5)cc3)CC2)CC1
REMARK SMILES IDX 34 1 33 2 32 3 31 4 30 5 28 6 29 7 27 8 22 9 23 10 24 11
REMARK SMILES IDX 25 12 106 13 26 14 105 15 21 16 18 17 19 18 108 19 20 20
REMARK SMILES IDX 107 21 17 22 16 23 1 24 2 25 3 27 4 28 5 29 14 30 6 31 7 32
REMARK SMILES IDX 13 33 15 34 8 35 12 37 9 38 11 39 10 40 35 41 36 42 37 43
REMARK SMILES IDX 38 44 39 45 40 46 41 47 42 48 43 49 104 50 44 51 103 52
REMARK SMILES IDX 45 53 46 54 47 55 97 56 48 57 102 58 96 59 98 60 49 61
REMARK SMILES IDX 101 62 95 63 94 64 50 66 82 67 62 68 81 69 63 70 66 71 80 72
REMARK SMILES IDX 99 73 64 74 65 75 79 77 100 78 67 79 51 80 52 81 60 82 53 83
REMARK SMILES IDX 59 84 61 85 58 86 54 87 55 88 56 89 57 90 83 91 84 92 92 93
REMARK SMILES IDX 85 94 91 95 93 96 90 97 86 98 87 99 88 100 89 101 68 102
REMARK SMILES IDX 69 103 77 104 70 105 76 106 78 107 75 108 71 109 72 110
REMARK SMILES IDX 73 111 74 112
REMARK H PARENT 16 26 7 36 98 65 66 76
REMARK Flexibility Score: inf
ROOT
ATOM      1  C   UNL A   1      36.075  34.109  31.612  1.00  0.00     0.188 C 
ENDROOT
BRANCH   1   2
ATOM      2  O   UNL A   1      35.006  33.673  30.774  1.00  0.00    -0.376 OA
BRANCH   2   3
ATOM      3  C   UNL A   1      35.140  33.858  29.366  1.00  0.00     0.202 C 
BRANCH   3   4
ATOM      4  C   UNL A   1      35.585  32.646  28.536  1.00  0.00     0.261 C 
BRANCH   4   5
ATOM      5  O   UNL A   1      34.611  31.592  28.448  1.00  0.00    -0.463 OA
BRANCH   5   6
ATOM      6  C   UNL A   1      35.114  30.363  28.177  1.00  0.00     0.309 C 
ATOM      7  O   UNL A   1      36.244  29.989  28.471  1.00  0.00    -0.252 OA
BRANCH   6   8
ATOM      8  C   UNL A   1      34.151  29.455  27.445  1.00  0.00     0.103 C 
ATOM      9  C   UNL A   1      32.073  28.762  23.863  1.00  0.00     0.225 C 
ATOM     10  O   UNL A   1      31.243  29.664  23.681  1.00  0.00    -0.275 OA
ATOM     11  N   UNL A   1      32.671  28.619  25.100  1.00  0.00    -0.342 N 
ATOM     12  C   UNL A   1      31.936  29.009  26.305  1.00  0.00     0.120 C 
ATOM     13  C   UNL A   1      34.021  28.149  25.317  1.00  0.00     0.120 C 
ATOM     14  C   UNL A   1      32.725  29.965  27.204  1.00  0.00     0.037 C 
ATOM     15  C   UNL A   1      34.832  29.135  26.124  1.00  0.00     0.037 C 
BRANCH   9  16
ATOM     16  C   UNL A   1      32.202  27.671  22.768  1.00  0.00     0.078 C 
ATOM     17  C   UNL A   1      30.895  25.043  23.472  1.00  0.00     0.008 C 
ATOM     18  C   UNL A   1      30.130  26.360  23.283  1.00  0.00     0.006 C 
ATOM     19  C   UNL A   1      32.421  25.196  23.593  1.00  0.00     0.006 C 
ATOM     20  C   UNL A   1      30.797  27.294  22.295  1.00  0.00     0.014 C 
ATOM     21  C   UNL A   1      33.056  26.409  22.903  1.00  0.00     0.014 C 
BRANCH  17  22
ATOM     22  C   UNL A   1      30.369  24.240  24.676  1.00  0.00     0.119 C 
BRANCH  22  23
ATOM     23  N   UNL A   1      31.406  23.504  25.348  1.00  0.00    -0.354 N 
ATOM     24  O   UNL A   1      30.560  23.634  27.467  1.00  0.00    -0.273 OA
ATOM     25  C   UNL A   1      31.322  23.110  26.658  1.00  0.00     0.240 C 
ATOM     26  H   UNL A   1      32.218  23.272  24.842  1.00  0.00     0.163 HD
BRANCH  25  27
ATOM     27  C   UNL A   1      32.402  22.117  27.075  1.00  0.00     0.230 C 
BRANCH  27  28
ATOM     28  N   UNL A   1      33.568  21.912  26.210  1.00  0.00    -0.250 N 
ATOM     29  C   UNL A   1      33.871  20.647  25.727  1.00  0.00     0.329 A 
ATOM     30  C   UNL A   1      34.472  22.978  26.191  1.00  0.00     0.264 A 
ATOM     31  O   UNL A   1      33.107  19.687  25.711  1.00  0.00    -0.248 OA
ATOM     32  N   UNL A   1      35.104  20.468  25.188  1.00  0.00    -0.307 N 
ATOM     33  C   UNL A   1      35.858  22.661  25.819  1.00  0.00     0.064 A 
ATOM     34  O   UNL A   1      34.185  24.124  26.528  1.00  0.00    -0.268 OA
ATOM     35  C   UNL A   1      36.128  21.386  25.341  1.00  0.00     0.055 A 
ATOM     36  H   UNL A   1      35.277  19.651  24.666  1.00  0.00     0.171 HD
ATOM     37  C   UNL A   1      36.896  23.562  26.072  1.00  0.00     0.016 A 
ATOM     38  C   UNL A   1      37.431  20.970  25.152  1.00  0.00     0.027 A 
ATOM     39  C   UNL A   1      38.208  23.136  25.929  1.00  0.00     0.001 A 
ATOM     40  C   UNL A   1      38.459  21.831  25.520  1.00  0.00     0.002 A 
ENDBRANCH  27  28
ENDBRANCH  25  27
ENDBRANCH  22  23
ENDBRANCH  17  22
ENDBRANCH   9  16
ENDBRANCH   6   8
ENDBRANCH   5   6
ENDBRANCH   4   5
ENDBRANCH   3   4
ENDBRANCH   2   3
ENDBRANCH   1   2
BRANCH   1  41
ATOM     41  C   UNL A   1      37.009  33.020  32.136  1.00  0.00     0.188 C 
BRANCH  41  42
ATOM     42  O   UNL A   1      36.381  31.976  32.845  1.00  0.00    -0.376 OA
BRANCH  42  43
ATOM     43  C   UNL A   1      37.130  30.799  33.135  1.00  0.00     0.202 C 
BRANCH  43  44
ATOM     44  C   UNL A   1      38.378  30.768  34.070  1.00  0.00     0.261 C 
BRANCH  44  45
ATOM     45  O   UNL A   1      38.229  30.993  35.486  1.00  0.00    -0.460 OA
BRANCH  45  46
ATOM     46  C   UNL A   1      38.054  32.277  35.900  1.00  0.00     0.338 C 
ATOM     47  O   UNL A   1      37.170  32.661  36.637  1.00  0.00    -0.246 OA
BRANCH  46  48
ATOM     48  C   UNL A   1      39.299  33.060  35.582  1.00  0.00     0.060 A 
ATOM     49  C   UNL A   1      40.588  32.674  35.969  1.00  0.00     0.016 A 
ATOM     50  C   UNL A   1      39.132  34.292  34.942  1.00  0.00     0.016 A 
ATOM     51  C   UNL A   1      41.701  33.501  35.680  1.00  0.00     0.010 A 
ATOM     52  C   UNL A   1      40.234  35.127  34.694  1.00  0.00     0.010 A 
ATOM     53  C   UNL A   1      41.542  34.743  35.035  1.00  0.00    -0.014 A 
BRANCH  53  54
ATOM     54  C   UNL A   1      42.700  35.517  34.458  1.00  0.00     0.031 A 
ATOM     55  C   UNL A   1      43.466  36.590  35.219  1.00  0.00     0.074 A 
ATOM     56  C   UNL A   1      42.846  35.470  33.114  1.00  0.00     0.049 A 
ATOM     57  N   UNL A   1      44.348  37.458  34.766  1.00  0.00    -0.248 NA
ATOM     58  C   UNL A   1      43.108  36.800  36.626  1.00  0.00     0.031 C 
ATOM     59  C   UNL A   1      42.032  34.641  32.223  1.00  0.00     0.029 A 
ATOM     60  N   UNL A   1      43.649  36.188  32.255  1.00  0.00    -0.354 N 
ATOM     61  C   UNL A   1      44.585  38.374  35.793  1.00  0.00     0.074 A 
ATOM     62  C   UNL A   1      43.764  37.926  36.905  1.00  0.00     0.031 C 
ATOM     63  C   UNL A   1      42.360  34.908  30.951  1.00  0.00     0.029 A 
ATOM     64  C   UNL A   1      43.410  35.923  30.924  1.00  0.00     0.049 A 
ATOM     65  H   UNL A   1      44.329  36.829  32.562  1.00  0.00     0.167 HD
ATOM     66  C   UNL A   1      45.374  39.490  35.793  1.00  0.00     0.034 A 
ATOM     67  C   UNL A   1      43.969  36.413  29.796  1.00  0.00     0.034 A 
ATOM     68  C   UNL A   1      46.211  39.896  34.674  1.00  0.00     0.049 A 
ATOM     69  C   UNL A   1      45.069  37.435  29.877  1.00  0.00     0.074 A 
ATOM     70  C   UNL A   1      47.235  40.835  34.671  1.00  0.00     0.029 A 
ATOM     71  N   UNL A   1      46.125  39.427  33.371  1.00  0.00    -0.354 N 
ATOM     72  N   UNL A   1      45.480  38.115  30.918  1.00  0.00    -0.248 NA
ATOM     73  C   UNL A   1      45.812  37.726  28.641  1.00  0.00     0.031 C 
ATOM     74  C   UNL A   1      47.713  40.985  33.368  1.00  0.00     0.029 A 
ATOM     75  C   UNL A   1      47.070  40.059  32.569  1.00  0.00     0.049 A 
ATOM     76  H   UNL A   1      45.487  38.744  33.061  1.00  0.00     0.167 HD
ATOM     77  C   UNL A   1      46.555  38.884  30.471  1.00  0.00     0.074 A 
ATOM     78  C   UNL A   1      46.743  38.567  29.073  1.00  0.00     0.031 C 
ATOM     79  C   UNL A   1      47.308  39.766  31.175  1.00  0.00     0.034 A 
BRANCH  66  80
ATOM     80  C   UNL A   1      45.490  40.360  37.051  1.00  0.00     0.023 A 
ATOM     81  C   UNL A   1      46.370  40.000  38.105  1.00  0.00     0.031 A 
ATOM     82  C   UNL A   1      44.570  41.391  37.312  1.00  0.00     0.131 A 
ATOM     83  C   UNL A   1      46.259  40.619  39.364  1.00  0.00     0.055 A 
ATOM     84  C   UNL A   1      44.523  42.060  38.539  1.00  0.00     0.041 A 
ATOM     85  F   UNL A   1      43.668  41.753  36.385  1.00  0.00    -0.206 F 
ATOM     86  C   UNL A   1      45.354  41.660  39.578  1.00  0.00     0.022 A 
BRANCH  83  87
ATOM     87  S   UNL A   1      47.172  40.017  40.819  1.00  0.00     0.124 S 
ATOM     88  O   UNL A   1      48.549  40.356  40.471  1.00  0.00    -0.237 OA
ATOM     89  O   UNL A   1      46.588  40.815  41.894  1.00  0.00    -0.237 OA
ATOM     90  O   UNL A   1      46.872  38.590  40.855  1.00  0.00    -0.744 OA
ENDBRANCH  83  87
ENDBRANCH  66  80
BRANCH  67  91
ATOM     91  C   UNL A   1      43.604  35.779  28.497  1.00  0.00     0.023 A 
ATOM     92  C   UNL A   1      44.242  34.621  28.024  1.00  0.00     0.031 A 
ATOM     93  C   UNL A   1      42.697  36.439  27.648  1.00  0.00     0.131 A 
ATOM     94  C   UNL A   1      44.003  34.198  26.709  1.00  0.00     0.055 A 
ATOM     95  C   UNL A   1      42.410  35.972  26.369  1.00  0.00     0.041 A 
ATOM     96  F   UNL A   1      42.087  37.563  28.059  1.00  0.00    -0.206 F 
ATOM     97  C   UNL A   1      43.079  34.853  25.886  1.00  0.00     0.022 A 
BRANCH  94  98
ATOM     98  S   UNL A   1      44.983  32.864  25.965  1.00  0.00     0.124 S 
ATOM     99  O   UNL A   1      46.337  33.403  26.035  1.00  0.00    -0.237 OA
ATOM    100  O   UNL A   1      44.697  31.752  26.869  1.00  0.00    -0.237 OA
ATOM    101  O   UNL A   1      44.421  32.735  24.624  1.00  0.00    -0.744 OA
ENDBRANCH  94  98
ENDBRANCH  67  91
BRANCH  79 102
ATOM    102  C   UNL A   1      48.468  40.465  30.489  1.00  0.00     0.023 A 
ATOM    103  C   UNL A   1      49.766  39.918  30.574  1.00  0.00     0.031 A 
ATOM    104  C   UNL A   1      48.328  41.710  29.851  1.00  0.00     0.131 A 
ATOM    105  C   UNL A   1      50.866  40.620  30.057  1.00  0.00     0.055 A 
ATOM    106  C   UNL A   1      49.420  42.383  29.293  1.00  0.00     0.041 A 
ATOM    107  F   UNL A   1      47.123  42.293  29.749  1.00  0.00    -0.206 F 
ATOM    108  C   UNL A   1      50.698  41.844  29.404  1.00  0.00     0.022 A 
BRANCH 105 109
ATOM    109  S   UNL A   1      52.562  40.008  30.274  1.00  0.00     0.124 S 
ATOM    110  O   UNL A   1      53.347  41.230  30.112  1.00  0.00    -0.237 OA
ATOM    111  O   UNL A   1      52.523  39.469  31.631  1.00  0.00    -0.237 OA
ATOM    112  O   UNL A   1      52.720  39.022  29.210  1.00  0.00    -0.744 OA
ENDBRANCH 105 109
ENDBRANCH  79 102
ENDBRANCH  53  54
ENDBRANCH  46  48
ENDBRANCH  45  46
ENDBRANCH  44  45
ENDBRANCH  43  44
ENDBRANCH  42  43
ENDBRANCH  41  42
ENDBRANCH   1  41
TORSDOF 25
ENDMDL
MODEL 2
REMARK VINA RESULT:      -9.1      2.613      7.527
REMARK SMILES O=C(Cn1c(=O)[nH]c2ccccc2c1=O)NC[C@H]1CC[C@@H](C(=O)N2CCC(C(=O)OCCOCCOCCOC(=O)c3ccc(-c4c5nc(c(-c6cc(S(=O)(=O)[O-])ccc6F)c6ccc([nH]6)c(-c6cc(S(=O)(=O)[O-])ccc6F)c6nc(c(-c7cc(S(=O)(=O)[O-])ccc7F)c7ccc4[nH]7)C=C6)C=C5)cc3)CC2)CC1
REMARK SMILES IDX 34 1 33 2 32 3 31 4 30 5 28 6 29 7 27 8 22 9 23 10 24 11
REMARK SMILES IDX 25 12 106 13 26 14 105 15 21 16 18 17 19 18 108 19 20 20
REMARK SMILES IDX 107 21 17 22 16 23 1 24 2 25 3 27 4 28 5 29 14 30 6 31 7 32
REMARK SMILES IDX 13 33 15 34 8 35 12 37 9 38 11 39 10 40 35 41 36 42 37 43
REMARK SMILES IDX 38 44 39 45 40 46 41 47 42 48 43 49 104 50 44 51 103 52
REMARK SMILES IDX 45 53 46 54 47 55 97 56 48 57 102 58 96 59 98 60 49 61
REMARK SMILES IDX 101 62 95 63 94 64 50 66 82 67 62 68 81 69 63 70 66 71 80 72
REMARK SMILES IDX 99 73 64 74 65 75 79 77 100 78 67 79 51 80 52 81 60 82 53 83
REMARK SMILES IDX 59 84 61 85 58 86 54 87 55 88 56 89 57 90 83 91 84 92 92 93
REMARK SMILES IDX 85 94 91 95 93 96 90 97 86 98 87 99 88 100 89 101 68 102
REMARK SMILES IDX 69 103 77 104 70 105 76 106 78 107 75 108 71 109 72 110
REMARK SMILES IDX 73 111 74 112
REMARK H PARENT 16 26 7 36 98 65 66 76
REMARK Flexibility Score: inf
ROOT
ATOM      1  C   UNL A   1      36.465  33.403  32.159  1.00  0.00     0.188 C 
ENDROOT
BRANCH   1   2
ATOM      2  O   UNL A   1      35.192  32.955  31.696  1.00  0.00    -0.376 OA
BRANCH   2   3
ATOM      3  C   UNL A   1      34.666  33.540  30.506  1.00  0.00     0.202 C 
BRANCH   3   4
ATOM      4  C   UNL A   1      35.029  32.871  29.174  1.00  0.00     0.261 C 
BRANCH   4   5
ATOM      5  O   UNL A   1      34.393  31.600  28.951  1.00  0.00    -0.463 OA
BRANCH   5   6
ATOM      6  C   UNL A   1      34.992  30.809  28.027  1.00  0.00     0.309 C 
ATOM      7  O   UNL A   1      36.173  30.878  27.707  1.00  0.00    -0.252 OA
BRANCH   6   8
ATOM      8  C   UNL A   1      34.060  29.806  27.383  1.00  0.00     0.103 C 
ATOM      9  C   UNL A   1      31.750  28.888  24.000  1.00  0.00     0.225 C 
ATOM     10  O   UNL A   1      30.823  29.703  23.893  1.00  0.00    -0.275 OA
ATOM     11  N   UNL A   1      32.466  28.812  25.178  1.00  0.00    -0.342 N 
ATOM     12  C   UNL A   1      31.807  29.139  26.444  1.00  0.00     0.120 C 
ATOM     13  C   UNL A   1      33.869  28.477  25.274  1.00  0.00     0.120 C 
ATOM     14  C   UNL A   1      32.576  30.175  27.270  1.00  0.00     0.037 C 
ATOM     15  C   UNL A   1      34.649  29.544  26.007  1.00  0.00     0.037 C 
BRANCH   9  16
ATOM     16  C   UNL A   1      31.886  27.806  22.897  1.00  0.00     0.078 C 
ATOM     17  C   UNL A   1      30.709  25.125  23.633  1.00  0.00     0.008 C 
ATOM     18  C   UNL A   1      29.886  26.411  23.474  1.00  0.00     0.006 C 
ATOM     19  C   UNL A   1      32.231  25.339  23.705  1.00  0.00     0.006 C 
ATOM     20  C   UNL A   1      30.483  27.373  22.469  1.00  0.00     0.014 C 
ATOM     21  C   UNL A   1      32.794  26.578  23.000  1.00  0.00     0.014 C 
BRANCH  17  22
ATOM     22  C   UNL A   1      30.254  24.299  24.851  1.00  0.00     0.119 C 
BRANCH  22  23
ATOM     23  N   UNL A   1      31.354  23.889  25.683  1.00  0.00    -0.354 N 
ATOM     24  O   UNL A   1      30.132  23.097  27.445  1.00  0.00    -0.273 OA
ATOM     25  C   UNL A   1      31.195  23.159  26.833  1.00  0.00     0.240 C 
ATOM     26  H   UNL A   1      32.265  24.145  25.415  1.00  0.00     0.163 HD
BRANCH  25  27
ATOM     27  C   UNL A   1      32.499  22.609  27.399  1.00  0.00     0.230 C 
BRANCH  27  28
ATOM     28  N   UNL A   1      33.589  22.248  26.487  1.00  0.00    -0.250 N 
ATOM     29  C   UNL A   1      33.802  20.924  26.135  1.00  0.00     0.329 A 
ATOM     30  C   UNL A   1      34.534  23.259  26.284  1.00  0.00     0.264 A 
ATOM     31  O   UNL A   1      32.998  20.008  26.281  1.00  0.00    -0.248 OA
ATOM     32  N   UNL A   1      34.983  20.622  25.537  1.00  0.00    -0.307 N 
ATOM     33  C   UNL A   1      35.874  22.832  25.857  1.00  0.00     0.064 A 
ATOM     34  O   UNL A   1      34.322  24.448  26.505  1.00  0.00    -0.268 OA
ATOM     35  C   UNL A   1      36.053  21.499  25.513  1.00  0.00     0.055 A 
ATOM     36  H   UNL A   1      35.082  19.744  25.103  1.00  0.00     0.171 HD
ATOM     37  C   UNL A   1      36.965  23.702  25.933  1.00  0.00     0.016 A 
ATOM     38  C   UNL A   1      37.320  20.998  25.285  1.00  0.00     0.027 A 
ATOM     39  C   UNL A   1      38.244  23.196  25.751  1.00  0.00     0.001 A 
ATOM     40  C   UNL A   1      38.408  21.842  25.480  1.00  0.00     0.002 A 
ENDBRANCH  27  28
ENDBRANCH  25  27
ENDBRANCH  22  23
ENDBRANCH  17  22
ENDBRANCH   9  16
ENDBRANCH   6   8
ENDBRANCH   5   6
ENDBRANCH   4   5
ENDBRANCH   3   4
ENDBRANCH   2   3
ENDBRANCH   1   2
BRANCH   1  41
ATOM     41  C   UNL A   1      37.584  32.365  32.171  1.00  0.00     0.188 C 
BRANCH  41  42
ATOM     42  O   UNL A   1      37.296  31.176  32.872  1.00  0.00    -0.376 OA
BRANCH  42  43
ATOM     43  C   UNL A   1      38.248  30.116  32.843  1.00  0.00     0.202 C 
BRANCH  43  44
ATOM     44  C   UNL A   1      39.498  30.041  33.773  1.00  0.00     0.261 C 
BRANCH  44  45
ATOM     45  O   UNL A   1      39.346  29.688  35.163  1.00  0.00    -0.460 OA
BRANCH  45  46
ATOM     46  C   UNL A   1      38.739  30.595  35.975  1.00  0.00     0.338 C 
ATOM     47  O   UNL A   1      37.855  30.345  36.768  1.00  0.00    -0.246 OA
BRANCH  46  48
ATOM     48  C   UNL A   1      39.554  31.860  35.979  1.00  0.00     0.060 A 
ATOM     49  C   UNL A   1      40.917  31.914  36.297  1.00  0.00     0.016 A 
ATOM     50  C   UNL A   1      38.874  33.059  35.741  1.00  0.00     0.016 A 
ATOM     51  C   UNL A   1      41.596  33.157  36.335  1.00  0.00     0.010 A 
ATOM     52  C   UNL A   1      39.543  34.291  35.821  1.00  0.00     0.010 A 
ATOM     53  C   UNL A   1      40.919  34.368  36.096  1.00  0.00    -0.014 A 
BRANCH  53  54
ATOM     54  C   UNL A   1      41.638  35.669  35.847  1.00  0.00     0.031 A 
ATOM     55  C   UNL A   1      42.251  36.058  34.509  1.00  0.00     0.074 A 
ATOM     56  C   UNL A   1      42.022  36.364  36.943  1.00  0.00     0.049 A 
ATOM     57  N   UNL A   1      43.061  37.058  34.227  1.00  0.00    -0.248 NA
ATOM     58  C   UNL A   1      42.033  35.146  33.381  1.00  0.00     0.031 C 
ATOM     59  C   UNL A   1      41.687  35.990  38.318  1.00  0.00     0.029 A 
ATOM     60  N   UNL A   1      42.843  37.461  37.090  1.00  0.00    -0.354 N 
ATOM     61  C   UNL A   1      43.527  36.852  32.926  1.00  0.00     0.074 A 
ATOM     62  C   UNL A   1      42.874  35.636  32.471  1.00  0.00     0.031 C 
ATOM     63  C   UNL A   1      42.307  36.823  39.165  1.00  0.00     0.029 A 
ATOM     64  C   UNL A   1      43.084  37.799  38.404  1.00  0.00     0.049 A 
ATOM     65  H   UNL A   1      43.222  37.956  36.328  1.00  0.00     0.167 HD
ATOM     66  C   UNL A   1      44.431  37.581  32.205  1.00  0.00     0.034 A 
ATOM     67  C   UNL A   1      43.824  38.784  38.957  1.00  0.00     0.034 A 
ATOM     68  C   UNL A   1      45.044  38.814  32.675  1.00  0.00     0.049 A 
ATOM     69  C   UNL A   1      44.562  39.760  38.083  1.00  0.00     0.074 A 
ATOM     70  C   UNL A   1      45.746  39.755  31.931  1.00  0.00     0.029 A 
ATOM     71  N   UNL A   1      45.061  39.276  33.983  1.00  0.00    -0.354 N 
ATOM     72  N   UNL A   1      44.775  39.705  36.792  1.00  0.00    -0.248 NA
ATOM     73  C   UNL A   1      45.124  40.955  38.731  1.00  0.00     0.031 C 
ATOM     74  C   UNL A   1      46.244  40.736  32.791  1.00  0.00     0.029 A 
ATOM     75  C   UNL A   1      45.759  40.477  34.059  1.00  0.00     0.049 A 
ATOM     76  H   UNL A   1      44.638  38.820  34.746  1.00  0.00     0.167 HD
ATOM     77  C   UNL A   1      45.460  40.875  36.467  1.00  0.00     0.074 A 
ATOM     78  C   UNL A   1      45.604  41.629  37.693  1.00  0.00     0.031 C 
ATOM     79  C   UNL A   1      45.917  41.274  35.254  1.00  0.00     0.034 A 
BRANCH  66  80
ATOM     80  C   UNL A   1      44.796  37.169  30.773  1.00  0.00     0.023 A 
ATOM     81  C   UNL A   1      43.890  37.382  29.702  1.00  0.00     0.031 A 
ATOM     82  C   UNL A   1      45.914  36.357  30.511  1.00  0.00     0.131 A 
ATOM     83  C   UNL A   1      44.093  36.745  28.463  1.00  0.00     0.055 A 
ATOM     84  C   UNL A   1      46.153  35.796  29.253  1.00  0.00     0.041 A 
ATOM     85  F   UNL A   1      46.788  36.062  31.486  1.00  0.00    -0.206 F 
ATOM     86  C   UNL A   1      45.230  35.971  28.229  1.00  0.00     0.022 A 
BRANCH  83  87
ATOM     87  S   UNL A   1      42.833  36.767  27.149  1.00  0.00     0.124 S 
ATOM     88  O   UNL A   1      41.615  36.464  27.896  1.00  0.00    -0.237 OA
ATOM     89  O   UNL A   1      42.934  38.138  26.656  1.00  0.00    -0.237 OA
ATOM     90  O   UNL A   1      43.273  35.727  26.226  1.00  0.00    -0.744 OA
ENDBRANCH  83  87
ENDBRANCH  66  80
BRANCH  67  91
ATOM     91  C   UNL A   1      43.733  38.990  40.431  1.00  0.00     0.023 A 
ATOM     92  C   UNL A   1      42.747  39.803  41.013  1.00  0.00     0.031 A 
ATOM     93  C   UNL A   1      44.750  38.476  41.254  1.00  0.00     0.131 A 
ATOM     94  C   UNL A   1      42.842  40.123  42.375  1.00  0.00     0.055 A 
ATOM     95  C   UNL A   1      44.798  38.740  42.620  1.00  0.00     0.041 A 
ATOM     96  F   UNL A   1      45.723  37.714  40.727  1.00  0.00    -0.206 F 
ATOM     97  C   UNL A   1      43.848  39.583  43.184  1.00  0.00     0.022 A 
BRANCH  94  98
ATOM     98  S   UNL A   1      41.748  41.364  43.120  1.00  0.00     0.124 S 
ATOM     99  O   UNL A   1      42.118  41.291  44.530  1.00  0.00    -0.237 OA
ATOM    100  O   UNL A   1      42.161  42.577  42.420  1.00  0.00    -0.237 OA
ATOM    101  O   UNL A   1      40.410  40.880  42.791  1.00  0.00    -0.744 OA
ENDBRANCH  94  98
ENDBRANCH  67  91
BRANCH  79 102
ATOM    102  C   UNL A   1      46.603  42.623  35.124  1.00  0.00     0.023 A 
ATOM    103  C   UNL A   1      47.985  42.734  35.384  1.00  0.00     0.031 A 
ATOM    104  C   UNL A   1      45.893  43.807  34.858  1.00  0.00     0.131 A 
ATOM    105  C   UNL A   1      48.605  43.993  35.395  1.00  0.00     0.055 A 
ATOM    106  C   UNL A   1      46.524  45.055  34.822  1.00  0.00     0.041 A 
ATOM    107  F   UNL A   1      44.573  43.773  34.619  1.00  0.00    -0.206 F 
ATOM    108  C   UNL A   1      47.883  45.154  35.102  1.00  0.00     0.022 A 
BRANCH 105 109
ATOM    109  S   UNL A   1      50.350  44.182  35.860  1.00  0.00     0.124 S 
ATOM    110  O   UNL A   1      50.246  44.618  37.251  1.00  0.00    -0.237 OA
ATOM    111  O   UNL A   1      50.867  42.829  35.670  1.00  0.00    -0.237 OA
ATOM    112  O   UNL A   1      50.856  45.185  34.930  1.00  0.00    -0.744 OA
ENDBRANCH 105 109
ENDBRANCH  79 102
ENDBRANCH  53  54
ENDBRANCH  46  48
ENDBRANCH  45  46
ENDBRANCH  44  45
ENDBRANCH  43  44
ENDBRANCH  42  43
ENDBRANCH  41  42
ENDBRANCH   1  41
TORSDOF 25
ENDMDL
MODEL 3
REMARK VINA RESULT:      -8.7     10.273     18.496
REMARK SMILES O=C(Cn1c(=O)[nH]c2ccccc2c1=O)NC[C@H]1CC[C@@H](C(=O)N2CCC(C(=O)OCCOCCOCCOC(=O)c3ccc(-c4c5nc(c(-c6cc(S(=O)(=O)[O-])ccc6F)c6ccc([nH]6)c(-c6cc(S(=O)(=O)[O-])ccc6F)c6nc(c(-c7cc(S(=O)(=O)[O-])ccc7F)c7ccc4[nH]7)C=C6)C=C5)cc3)CC2)CC1
REMARK SMILES IDX 34 1 33 2 32 3 31 4 30 5 28 6 29 7 27 8 22 9 23 10 24 11
REMARK SMILES IDX 25 12 106 13 26 14 105 15 21 16 18 17 19 18 108 19 20 20
REMARK SMILES IDX 107 21 17 22 16 23 1 24 2 25 3 27 4 28 5 29 14 30 6 31 7 32
REMARK SMILES IDX 13 33 15 34 8 35 12 37 9 38 11 39 10 40 35 41 36 42 37 43
REMARK SMILES IDX 38 44 39 45 40 46 41 47 42 48 43 49 104 50 44 51 103 52
REMARK SMILES IDX 45 53 46 54 47 55 97 56 48 57 102 58 96 59 98 60 49 61
REMARK SMILES IDX 101 62 95 63 94 64 50 66 82 67 62 68 81 69 63 70 66 71 80 72
REMARK SMILES IDX 99 73 64 74 65 75 79 77 100 78 67 79 51 80 52 81 60 82 53 83
REMARK SMILES IDX 59 84 61 85 58 86 54 87 55 88 56 89 57 90 83 91 84 92 92 93
REMARK SMILES IDX 85 94 91 95 93 96 90 97 86 98 87 99 88 100 89 101 68 102
REMARK SMILES IDX 69 103 77 104 70 105 76 106 78 107 75 108 71 109 72 110
REMARK SMILES IDX 73 111 74 112
REMARK H PARENT 16 26 7 36 98 65 66 76
REMARK Flexibility Score: inf
ROOT
ATOM      1  C   UNL A   1      45.128  43.728  30.091  1.00  0.00     0.188 C 
ENDROOT
BRANCH   1   2
ATOM      2  O   UNL A   1      44.862  44.286  28.805  1.00  0.00    -0.376 OA
BRANCH   2   3
ATOM      3  C   UNL A   1      45.894  44.231  27.822  1.00  0.00     0.202 C 
BRANCH   3   4
ATOM      4  C   UNL A   1      45.608  43.429  26.546  1.00  0.00     0.261 C 
BRANCH   4   5
ATOM      5  O   UNL A   1      44.762  44.099  25.596  1.00  0.00    -0.463 OA
BRANCH   5   6
ATOM      6  C   UNL A   1      44.145  43.290  24.701  1.00  0.00     0.309 C 
ATOM      7  O   UNL A   1      43.885  42.106  24.891  1.00  0.00    -0.252 OA
BRANCH   6   8
ATOM      8  C   UNL A   1      43.798  43.971  23.396  1.00  0.00     0.103 C 
ATOM      9  C   UNL A   1      43.933  43.723  19.207  1.00  0.00     0.225 C 
ATOM     10  O   UNL A   1      45.111  43.758  18.825  1.00  0.00    -0.275 OA
ATOM     11  N   UNL A   1      43.622  44.072  20.506  1.00  0.00    -0.342 N 
ATOM     12  C   UNL A   1      44.450  45.057  21.206  1.00  0.00     0.120 C 
ATOM     13  C   UNL A   1      42.547  43.498  21.283  1.00  0.00     0.120 C 
ATOM     14  C   UNL A   1      44.944  44.565  22.569  1.00  0.00     0.037 C 
ATOM     15  C   UNL A   1      43.046  42.925  22.589  1.00  0.00     0.037 C 
BRANCH   9  16
ATOM     16  C   UNL A   1      42.832  43.546  18.129  1.00  0.00     0.078 C 
ATOM     17  C   UNL A   1      41.907  46.125  16.860  1.00  0.00     0.008 C 
ATOM     18  C   UNL A   1      43.331  45.565  16.731  1.00  0.00     0.006 C 
ATOM     19  C   UNL A   1      41.047  45.454  17.946  1.00  0.00     0.006 C 
ATOM     20  C   UNL A   1      43.378  44.053  16.793  1.00  0.00     0.014 C 
ATOM     21  C   UNL A   1      41.380  43.999  18.296  1.00  0.00     0.014 C 
BRANCH  17  22
ATOM     22  C   UNL A   1      41.908  47.648  17.084  1.00  0.00     0.119 C 
BRANCH  22  23
ATOM     23  N   UNL A   1      43.171  48.256  16.760  1.00  0.00    -0.354 N 
ATOM     24  O   UNL A   1      43.185  49.844  18.403  1.00  0.00    -0.273 OA
ATOM     25  C   UNL A   1      43.785  49.186  17.557  1.00  0.00     0.240 C 
ATOM     26  H   UNL A   1      43.616  47.992  15.923  1.00  0.00     0.163 HD
BRANCH  25  27
ATOM     27  C   UNL A   1      45.226  49.485  17.159  1.00  0.00     0.230 C 
BRANCH  27  28
ATOM     28  N   UNL A   1      45.986  50.499  17.897  1.00  0.00    -0.250 N 
ATOM     29  C   UNL A   1      46.177  51.764  17.362  1.00  0.00     0.329 A 
ATOM     30  C   UNL A   1      46.730  49.999  18.970  1.00  0.00     0.264 A 
ATOM     31  O   UNL A   1      45.540  52.249  16.431  1.00  0.00    -0.248 OA
ATOM     32  N   UNL A   1      47.120  52.549  17.943  1.00  0.00    -0.307 N 
ATOM     33  C   UNL A   1      47.888  50.796  19.398  1.00  0.00     0.064 A 
ATOM     34  O   UNL A   1      46.507  48.920  19.513  1.00  0.00    -0.268 OA
ATOM     35  C   UNL A   1      48.051  52.057  18.840  1.00  0.00     0.055 A 
ATOM     36  H   UNL A   1      47.142  53.506  17.716  1.00  0.00     0.171 HD
ATOM     37  C   UNL A   1      48.872  50.251  20.226  1.00  0.00     0.016 A 
ATOM     38  C   UNL A   1      49.211  52.775  19.057  1.00  0.00     0.027 A 
ATOM     39  C   UNL A   1      50.058  50.946  20.411  1.00  0.00     0.001 A 
ATOM     40  C   UNL A   1      50.233  52.174  19.785  1.00  0.00     0.002 A 
ENDBRANCH  27  28
ENDBRANCH  25  27
ENDBRANCH  22  23
ENDBRANCH  17  22
ENDBRANCH   9  16
ENDBRANCH   6   8
ENDBRANCH   5   6
ENDBRANCH   4   5
ENDBRANCH   3   4
ENDBRANCH   2   3
ENDBRANCH   1   2
BRANCH   1  41
ATOM     41  C   UNL A   1      44.431  42.408  30.411  1.00  0.00     0.188 C 
BRANCH  41  42
ATOM     42  O   UNL A   1      44.829  41.309  29.623  1.00  0.00    -0.376 OA
BRANCH  42  43
ATOM     43  C   UNL A   1      43.950  40.846  28.602  1.00  0.00     0.202 C 
BRANCH  43  44
ATOM     44  C   UNL A   1      44.244  39.615  27.690  1.00  0.00     0.261 C 
BRANCH  44  45
ATOM     45  O   UNL A   1      44.129  38.278  28.218  1.00  0.00    -0.460 OA
BRANCH  45  46
ATOM     46  C   UNL A   1      43.517  37.348  27.436  1.00  0.00     0.338 C 
ATOM     47  O   UNL A   1      42.525  37.540  26.765  1.00  0.00    -0.246 OA
BRANCH  46  48
ATOM     48  C   UNL A   1      44.442  36.172  27.273  1.00  0.00     0.060 A 
ATOM     49  C   UNL A   1      44.732  35.567  26.044  1.00  0.00     0.016 A 
ATOM     50  C   UNL A   1      44.961  35.601  28.439  1.00  0.00     0.016 A 
ATOM     51  C   UNL A   1      45.568  34.424  25.986  1.00  0.00     0.010 A 
ATOM     52  C   UNL A   1      45.755  34.444  28.381  1.00  0.00     0.010 A 
ATOM     53  C   UNL A   1      46.095  33.844  27.156  1.00  0.00    -0.014 A 
BRANCH  53  54
ATOM     54  C   UNL A   1      47.200  32.819  27.131  1.00  0.00     0.031 A 
ATOM     55  C   UNL A   1      48.615  33.108  26.653  1.00  0.00     0.074 A 
ATOM     56  C   UNL A   1      46.822  31.524  27.241  1.00  0.00     0.049 A 
ATOM     57  N   UNL A   1      49.594  32.263  26.401  1.00  0.00    -0.248 NA
ATOM     58  C   UNL A   1      48.932  34.494  26.292  1.00  0.00     0.031 C 
ATOM     59  C   UNL A   1      45.448  31.081  27.487  1.00  0.00     0.029 A 
ATOM     60  N   UNL A   1      47.521  30.349  27.068  1.00  0.00    -0.354 N 
ATOM     61  C   UNL A   1      50.607  32.988  25.767  1.00  0.00     0.074 A 
ATOM     62  C   UNL A   1      50.120  34.356  25.705  1.00  0.00     0.031 C 
ATOM     63  C   UNL A   1      45.399  29.744  27.432  1.00  0.00     0.029 A 
ATOM     64  C   UNL A   1      46.734  29.220  27.151  1.00  0.00     0.049 A 
ATOM     65  H   UNL A   1      48.490  30.318  26.901  1.00  0.00     0.167 HD
ATOM     66  C   UNL A   1      51.798  32.549  25.260  1.00  0.00     0.034 A 
ATOM     67  C   UNL A   1      47.031  27.908  27.035  1.00  0.00     0.034 A 
ATOM     68  C   UNL A   1      52.273  31.178  25.366  1.00  0.00     0.049 A 
ATOM     69  C   UNL A   1      48.446  27.471  26.776  1.00  0.00     0.074 A 
ATOM     70  C   UNL A   1      53.557  30.700  25.134  1.00  0.00     0.029 A 
ATOM     71  N   UNL A   1      51.512  30.068  25.703  1.00  0.00    -0.354 N 
ATOM     72  N   UNL A   1      49.480  28.200  26.436  1.00  0.00    -0.248 NA
ATOM     73  C   UNL A   1      48.749  26.039  26.926  1.00  0.00     0.031 C 
ATOM     74  C   UNL A   1      53.555  29.309  25.258  1.00  0.00     0.029 A 
ATOM     75  C   UNL A   1      52.298  28.921  25.680  1.00  0.00     0.049 A 
ATOM     76  H   UNL A   1      50.553  30.091  25.927  1.00  0.00     0.167 HD
ATOM     77  C   UNL A   1      50.562  27.322  26.371  1.00  0.00     0.074 A 
ATOM     78  C   UNL A   1      50.061  26.014  26.729  1.00  0.00     0.031 C 
ATOM     79  C   UNL A   1      51.850  27.597  26.045  1.00  0.00     0.034 A 
BRANCH  66  80
ATOM     80  C   UNL A   1      52.772  33.534  24.602  1.00  0.00     0.023 A 
ATOM     81  C   UNL A   1      53.353  34.591  25.350  1.00  0.00     0.031 A 
ATOM     82  C   UNL A   1      52.932  33.578  23.205  1.00  0.00     0.131 A 
ATOM     83  C   UNL A   1      53.999  35.654  24.693  1.00  0.00     0.055 A 
ATOM     84  C   UNL A   1      53.648  34.594  22.566  1.00  0.00     0.041 A 
ATOM     85  F   UNL A   1      52.365  32.646  22.423  1.00  0.00    -0.206 F 
ATOM     86  C   UNL A   1      54.166  35.649  23.307  1.00  0.00     0.022 A 
BRANCH  83  87
ATOM     87  S   UNL A   1      54.524  37.158  25.574  1.00  0.00     0.124 S 
ATOM     88  O   UNL A   1      55.808  37.445  24.939  1.00  0.00    -0.237 OA
ATOM     89  O   UNL A   1      53.449  38.090  25.251  1.00  0.00    -0.237 OA
ATOM     90  O   UNL A   1      54.601  36.737  26.969  1.00  0.00    -0.744 OA
ENDBRANCH  83  87
ENDBRANCH  66  80
BRANCH  67  91
ATOM     91  C   UNL A   1      45.968  26.915  27.359  1.00  0.00     0.023 A 
ATOM     92  C   UNL A   1      45.066  26.443  26.391  1.00  0.00     0.031 A 
ATOM     93  C   UNL A   1      45.765  26.546  28.701  1.00  0.00     0.131 A 
ATOM     94  C   UNL A   1      43.965  25.676  26.800  1.00  0.00     0.055 A 
ATOM     95  C   UNL A   1      44.711  25.725  29.089  1.00  0.00     0.041 A 
ATOM     96  F   UNL A   1      46.595  26.999  29.655  1.00  0.00    -0.206 F 
ATOM     97  C   UNL A   1      43.792  25.299  28.137  1.00  0.00     0.022 A 
BRANCH  94  98
ATOM     98  S   UNL A   1      42.638  25.254  25.637  1.00  0.00     0.124 S 
ATOM     99  O   UNL A   1      43.199  24.102  24.938  1.00  0.00    -0.237 OA
ATOM    100  O   UNL A   1      41.532  24.965  26.547  1.00  0.00    -0.237 OA
ATOM    101  O   UNL A   1      42.486  26.466  24.838  1.00  0.00    -0.744 OA
ENDBRANCH  94  98
ENDBRANCH  67  91
BRANCH  79 102
ATOM    102  C   UNL A   1      52.880  26.482  26.084  1.00  0.00     0.023 A 
ATOM    103  C   UNL A   1      53.767  26.385  27.177  1.00  0.00     0.031 A 
ATOM    104  C   UNL A   1      53.067  25.590  25.013  1.00  0.00     0.131 A 
ATOM    105  C   UNL A   1      54.806  25.442  27.164  1.00  0.00     0.055 A 
ATOM    106  C   UNL A   1      54.073  24.618  25.026  1.00  0.00     0.041 A 
ATOM    107  F   UNL A   1      52.267  25.639  23.936  1.00  0.00    -0.206 F 
ATOM    108  C   UNL A   1      54.955  24.548  26.100  1.00  0.00     0.022 A 
BRANCH 105 109
ATOM    109  S   UNL A   1      56.045  25.385  28.491  1.00  0.00     0.124 S 
ATOM    110  O   UNL A   1      57.274  25.714  27.771  1.00  0.00    -0.237 OA
ATOM    111  O   UNL A   1      55.564  26.417  29.405  1.00  0.00    -0.237 OA
ATOM    112  O   UNL A   1      55.965  24.016  28.989  1.00  0.00    -0.744 OA
ENDBRANCH 105 109
ENDBRANCH  79 102
ENDBRANCH  53  54
ENDBRANCH  46  48
ENDBRANCH  45  46
ENDBRANCH  44  45
ENDBRANCH  43  44
ENDBRANCH  42  43
ENDBRANCH  41  42
ENDBRANCH   1  41
TORSDOF 25
ENDMDL
