MODEL 1
REMARK VINA RESULT:     -11.4      0.000      0.000
REMARK SMILES CC(=O)Nc1cccc(-c2cc(F)ccc2C(=O)OCCOCCOCCOC(=O)c2ccc(-c3c4nc(c(-c5cc(S(=O)(=O)[O-])ccc5F)c5ccc([nH]5)c(-c5cc(S(=O)(=O)[O-])ccc5F)c5nc(c(-c6cc(S(=O)(=O)[O-])ccc6F)c6ccc3[nH]6)C=C5)C=C4)cc2)c1
REMARK SMILES IDX 24 1 23 2 22 3 21 4 20 5 19 6 17 7 18 8 16 9 10 10 11 11
REMARK SMILES IDX 12 12 15 13 13 14 14 15 9 16 5 17 6 18 94 19 7 20 8 21 4 22
REMARK SMILES IDX 1 23 2 24 3 25 25 27 26 28 27 29 28 30 29 31 30 32 31 33
REMARK SMILES IDX 32 34 93 35 33 36 92 37 34 38 35 39 36 40 86 41 37 42 91 43
REMARK SMILES IDX 85 44 87 45 38 46 90 47 84 48 83 49 39 51 71 52 51 53 70 54
REMARK SMILES IDX 52 55 55 56 69 57 88 58 53 59 54 60 68 62 89 63 56 64 40 65
REMARK SMILES IDX 41 66 49 67 42 68 48 69 50 70 47 71 43 72 44 73 45 74 46 75
REMARK SMILES IDX 72 76 73 77 81 78 74 79 80 80 82 81 79 82 75 83 76 84 77 85
REMARK SMILES IDX 78 86 57 87 58 88 66 89 59 90 65 91 67 92 64 93 60 94 61 95
REMARK SMILES IDX 62 96 63 97
REMARK H PARENT 4 26 87 50 55 61
REMARK Flexibility Score: inf
ROOT
ATOM      1  C   UNL A   1      32.237  27.825  26.924  1.00  0.00     0.188 C 
ENDROOT
BRANCH   1   2
ATOM      2  C   UNL A   1      31.177  27.088  26.079  1.00  0.00     0.188 C 
BRANCH   2   3
ATOM      3  O   UNL A   1      30.501  25.966  26.630  1.00  0.00    -0.376 OA
BRANCH   3   4
ATOM      4  C   UNL A   1      30.380  24.793  25.833  1.00  0.00     0.202 C 
BRANCH   4   5
ATOM      5  C   UNL A   1      30.567  23.445  26.526  1.00  0.00     0.261 C 
BRANCH   5   6
ATOM      6  O   UNL A   1      31.631  22.715  25.898  1.00  0.00    -0.460 OA
BRANCH   6   7
ATOM      7  C   UNL A   1      32.729  22.505  26.654  1.00  0.00     0.338 C 
ATOM      8  O   UNL A   1      32.747  22.101  27.805  1.00  0.00    -0.246 OA
BRANCH   7   9
ATOM      9  C   UNL A   1      33.962  22.728  25.856  1.00  0.00     0.068 A 
ATOM     10  C   UNL A   1      34.396  21.894  24.790  1.00  0.00    -0.001 A 
ATOM     11  C   UNL A   1      35.568  22.287  24.110  1.00  0.00     0.048 A 
ATOM     12  C   UNL A   1      36.290  23.413  24.500  1.00  0.00     0.123 A 
ATOM     13  C   UNL A   1      34.709  23.858  26.241  1.00  0.00     0.019 A 
ATOM     14  F   UNL A   1      37.403  23.741  23.830  1.00  0.00    -0.207 F 
ATOM     15  C   UNL A   1      35.882  24.193  25.570  1.00  0.00     0.040 A 
BRANCH  10  16
ATOM     16  C   UNL A   1      33.729  20.625  24.404  1.00  0.00    -0.015 A 
ATOM     17  C   UNL A   1      33.768  18.183  24.230  1.00  0.00     0.041 A 
ATOM     18  C   UNL A   1      32.666  18.237  23.370  1.00  0.00     0.026 A 
ATOM     19  C   UNL A   1      34.250  19.373  24.779  1.00  0.00     0.034 A 
ATOM     20  C   UNL A   1      32.067  19.455  23.058  1.00  0.00     0.003 A 
ATOM     21  C   UNL A   1      32.606  20.640  23.558  1.00  0.00     0.009 A 
BRANCH  17  22
ATOM     22  N   UNL A   1      34.386  16.929  24.384  1.00  0.00    -0.326 N 
ATOM     23  C   UNL A   1      32.737  15.637  25.747  1.00  0.00     0.114 C 
ATOM     24  C   UNL A   1      34.091  15.825  25.127  1.00  0.00     0.221 C 
ATOM     25  O   UNL A   1      34.957  14.953  25.241  1.00  0.00    -0.275 OA
ATOM     26  H   UNL A   1      35.201  16.827  23.842  1.00  0.00     0.169 HD
ENDBRANCH  17  22
ENDBRANCH  10  16
ENDBRANCH   7   9
ENDBRANCH   6   7
ENDBRANCH   5   6
ENDBRANCH   4   5
ENDBRANCH   3   4
ENDBRANCH   2   3
ENDBRANCH   1   2
BRANCH   1  27
ATOM     27  O   UNL A   1      32.062  29.167  27.326  1.00  0.00    -0.376 OA
BRANCH  27  28
ATOM     28  C   UNL A   1      31.731  30.182  26.396  1.00  0.00     0.202 C 
BRANCH  28  29
ATOM     29  C   UNL A   1      31.590  31.668  26.757  1.00  0.00     0.261 C 
BRANCH  29  30
ATOM     30  O   UNL A   1      32.715  32.505  26.494  1.00  0.00    -0.460 OA
BRANCH  30  31
ATOM     31  C   UNL A   1      33.118  33.263  27.546  1.00  0.00     0.338 C 
ATOM     32  O   UNL A   1      32.492  34.154  28.092  1.00  0.00    -0.246 OA
BRANCH  31  33
ATOM     33  C   UNL A   1      34.383  32.712  28.068  1.00  0.00     0.060 A 
ATOM     34  C   UNL A   1      34.382  31.401  28.562  1.00  0.00     0.016 A 
ATOM     35  C   UNL A   1      35.548  33.481  28.084  1.00  0.00     0.016 A 
ATOM     36  C   UNL A   1      35.549  30.860  29.100  1.00  0.00     0.010 A 
ATOM     37  C   UNL A   1      36.710  32.945  28.645  1.00  0.00     0.010 A 
ATOM     38  C   UNL A   1      36.708  31.644  29.180  1.00  0.00    -0.014 A 
BRANCH  38  39
ATOM     39  C   UNL A   1      37.860  31.173  29.985  1.00  0.00     0.031 A 
ATOM     40  C   UNL A   1      38.769  30.135  29.386  1.00  0.00     0.074 A 
ATOM     41  C   UNL A   1      38.088  31.652  31.221  1.00  0.00     0.049 A 
ATOM     42  N   UNL A   1      39.799  29.529  29.915  1.00  0.00    -0.248 NA
ATOM     43  C   UNL A   1      38.469  29.722  28.005  1.00  0.00     0.031 C 
ATOM     44  C   UNL A   1      37.291  32.678  31.892  1.00  0.00     0.029 A 
ATOM     45  N   UNL A   1      39.052  31.320  32.141  1.00  0.00    -0.354 N 
ATOM     46  C   UNL A   1      40.264  28.656  28.938  1.00  0.00     0.074 A 
ATOM     47  C   UNL A   1      39.393  28.797  27.792  1.00  0.00     0.031 C 
ATOM     48  C   UNL A   1      37.783  32.873  33.128  1.00  0.00     0.029 A 
ATOM     49  C   UNL A   1      38.907  31.964  33.349  1.00  0.00     0.049 A 
ATOM     50  H   UNL A   1      39.778  30.684  31.954  1.00  0.00     0.167 HD
ATOM     51  C   UNL A   1      41.322  27.811  28.995  1.00  0.00     0.034 A 
ATOM     52  C   UNL A   1      39.584  31.808  34.506  1.00  0.00     0.034 A 
ATOM     53  C   UNL A   1      42.179  27.675  30.146  1.00  0.00     0.049 A 
ATOM     54  C   UNL A   1      40.722  30.814  34.561  1.00  0.00     0.074 A 
ATOM     55  C   UNL A   1      43.304  26.883  30.290  1.00  0.00     0.029 A 
ATOM     56  N   UNL A   1      41.996  28.331  31.355  1.00  0.00    -0.354 N 
ATOM     57  N   UNL A   1      41.183  30.028  33.613  1.00  0.00    -0.248 NA
ATOM     58  C   UNL A   1      41.438  30.691  35.839  1.00  0.00     0.031 C 
ATOM     59  C   UNL A   1      43.759  27.005  31.608  1.00  0.00     0.029 A 
ATOM     60  C   UNL A   1      42.963  27.932  32.262  1.00  0.00     0.049 A 
ATOM     61  H   UNL A   1      41.283  28.985  31.541  1.00  0.00     0.167 HD
ATOM     62  C   UNL A   1      42.262  29.348  34.174  1.00  0.00     0.074 A 
ATOM     63  C   UNL A   1      42.393  29.824  35.534  1.00  0.00     0.031 C 
ATOM     64  C   UNL A   1      43.078  28.416  33.617  1.00  0.00     0.034 A 
BRANCH  51  65
ATOM     65  C   UNL A   1      41.572  26.926  27.802  1.00  0.00     0.023 A 
ATOM     66  C   UNL A   1      41.152  25.586  27.768  1.00  0.00     0.031 A 
ATOM     67  C   UNL A   1      42.251  27.437  26.682  1.00  0.00     0.131 A 
ATOM     68  C   UNL A   1      41.454  24.788  26.653  1.00  0.00     0.055 A 
ATOM     69  C   UNL A   1      42.492  26.658  25.549  1.00  0.00     0.041 A 
ATOM     70  F   UNL A   1      42.696  28.703  26.673  1.00  0.00    -0.206 F 
ATOM     71  C   UNL A   1      42.100  25.322  25.534  1.00  0.00     0.022 A 
BRANCH  68  72
ATOM     72  S   UNL A   1      41.082  23.015  26.724  1.00  0.00     0.124 S 
ATOM     73  O   UNL A   1      39.641  23.005  26.487  1.00  0.00    -0.237 OA
ATOM     74  O   UNL A   1      41.910  22.475  25.652  1.00  0.00    -0.237 OA
ATOM     75  O   UNL A   1      41.487  22.634  28.076  1.00  0.00    -0.744 OA
ENDBRANCH  68  72
ENDBRANCH  51  65
BRANCH  52  76
ATOM     76  C   UNL A   1      39.180  32.555  35.734  1.00  0.00     0.023 A 
ATOM     77  C   UNL A   1      39.581  33.884  35.943  1.00  0.00     0.031 A 
ATOM     78  C   UNL A   1      38.466  31.914  36.762  1.00  0.00     0.131 A 
ATOM     79  C   UNL A   1      39.322  34.507  37.175  1.00  0.00     0.055 A 
ATOM     80  C   UNL A   1      38.160  32.557  37.962  1.00  0.00     0.041 A 
ATOM     81  F   UNL A   1      38.061  30.642  36.617  1.00  0.00    -0.206 F 
ATOM     82  C   UNL A   1      38.605  33.857  38.181  1.00  0.00     0.022 A 
BRANCH  79  83
ATOM     83  S   UNL A   1      40.047  36.141  37.490  1.00  0.00     0.124 S 
ATOM     84  O   UNL A   1      39.847  36.806  36.208  1.00  0.00    -0.237 OA
ATOM     85  O   UNL A   1      39.229  36.623  38.598  1.00  0.00    -0.237 OA
ATOM     86  O   UNL A   1      41.436  35.838  37.827  1.00  0.00    -0.744 OA
ENDBRANCH  79  83
ENDBRANCH  52  76
BRANCH  64  87
ATOM     87  C   UNL A   1      44.214  27.897  34.464  1.00  0.00     0.023 A 
ATOM     88  C   UNL A   1      44.124  26.681  35.163  1.00  0.00     0.031 A 
ATOM     89  C   UNL A   1      45.406  28.636  34.572  1.00  0.00     0.131 A 
ATOM     90  C   UNL A   1      45.186  26.265  35.981  1.00  0.00     0.055 A 
ATOM     91  C   UNL A   1      46.481  28.190  35.341  1.00  0.00     0.041 A 
ATOM     92  F   UNL A   1      45.546  29.805  33.927  1.00  0.00    -0.206 F 
ATOM     93  C   UNL A   1      46.369  27.003  36.061  1.00  0.00     0.022 A 
BRANCH  90  94
ATOM     94  S   UNL A   1      44.970  24.785  37.006  1.00  0.00     0.124 S 
ATOM     95  O   UNL A   1      44.544  25.357  38.280  1.00  0.00    -0.237 OA
ATOM     96  O   UNL A   1      43.954  24.040  36.270  1.00  0.00    -0.237 OA
ATOM     97  O   UNL A   1      46.299  24.176  37.014  1.00  0.00    -0.744 OA
ENDBRANCH  90  94
ENDBRANCH  64  87
ENDBRANCH  38  39
ENDBRANCH  31  33
ENDBRANCH  30  31
ENDBRANCH  29  30
ENDBRANCH  28  29
ENDBRANCH  27  28
ENDBRANCH   1  27
TORSDOF 22
ENDMDL
MODEL 2
REMARK VINA RESULT:     -11.1      0.633      7.557
REMARK SMILES CC(=O)Nc1cccc(-c2cc(F)ccc2C(=O)OCCOCCOCCOC(=O)c2ccc(-c3c4nc(c(-c5cc(S(=O)(=O)[O-])ccc5F)c5ccc([nH]5)c(-c5cc(S(=O)(=O)[O-])ccc5F)c5nc(c(-c6cc(S(=O)(=O)[O-])ccc6F)c6ccc3[nH]6)C=C5)C=C4)cc2)c1
REMARK SMILES IDX 24 1 23 2 22 3 21 4 20 5 19 6 17 7 18 8 16 9 10 10 11 11
REMARK SMILES IDX 12 12 15 13 13 14 14 15 9 16 5 17 6 18 94 19 7 20 8 21 4 22
REMARK SMILES IDX 1 23 2 24 3 25 25 27 26 28 27 29 28 30 29 31 30 32 31 33
REMARK SMILES IDX 32 34 93 35 33 36 92 37 34 38 35 39 36 40 86 41 37 42 91 43
REMARK SMILES IDX 85 44 87 45 38 46 90 47 84 48 83 49 39 51 71 52 51 53 70 54
REMARK SMILES IDX 52 55 55 56 69 57 88 58 53 59 54 60 68 62 89 63 56 64 40 65
REMARK SMILES IDX 41 66 49 67 42 68 48 69 50 70 47 71 43 72 44 73 45 74 46 75
REMARK SMILES IDX 72 76 73 77 81 78 74 79 80 80 82 81 79 82 75 83 76 84 77 85
REMARK SMILES IDX 78 86 57 87 58 88 66 89 59 90 65 91 67 92 64 93 60 94 61 95
REMARK SMILES IDX 62 96 63 97
REMARK H PARENT 4 26 87 50 55 61
REMARK Flexibility Score: inf
ROOT
ATOM      1  C   UNL A   1      32.164  27.824  26.943  1.00  0.00     0.188 C 
ENDROOT
BRANCH   1   2
ATOM      2  C   UNL A   1      31.008  27.224  26.116  1.00  0.00     0.188 C 
BRANCH   2   3
ATOM      3  O   UNL A   1      30.353  26.052  26.578  1.00  0.00    -0.376 OA
BRANCH   3   4
ATOM      4  C   UNL A   1      30.227  24.951  25.684  1.00  0.00     0.202 C 
BRANCH   4   5
ATOM      5  C   UNL A   1      30.540  23.559  26.227  1.00  0.00     0.261 C 
BRANCH   5   6
ATOM      6  O   UNL A   1      31.750  23.064  25.637  1.00  0.00    -0.460 OA
BRANCH   6   7
ATOM      7  C   UNL A   1      32.719  22.695  26.501  1.00  0.00     0.338 C 
ATOM      8  O   UNL A   1      32.554  22.258  27.629  1.00  0.00    -0.246 OA
BRANCH   7   9
ATOM      9  C   UNL A   1      34.055  22.785  25.856  1.00  0.00     0.068 A 
ATOM     10  C   UNL A   1      34.545  21.873  24.884  1.00  0.00    -0.001 A 
ATOM     11  C   UNL A   1      35.819  22.142  24.342  1.00  0.00     0.048 A 
ATOM     12  C   UNL A   1      36.580  23.225  24.779  1.00  0.00     0.123 A 
ATOM     13  C   UNL A   1      34.840  23.870  26.292  1.00  0.00     0.019 A 
ATOM     14  F   UNL A   1      37.789  23.435  24.244  1.00  0.00    -0.207 F 
ATOM     15  C   UNL A   1      36.110  24.082  25.762  1.00  0.00     0.040 A 
BRANCH  10  16
ATOM     16  C   UNL A   1      33.827  20.644  24.461  1.00  0.00    -0.015 A 
ATOM     17  C   UNL A   1      33.749  18.205  24.258  1.00  0.00     0.041 A 
ATOM     18  C   UNL A   1      32.678  18.323  23.367  1.00  0.00     0.026 A 
ATOM     19  C   UNL A   1      34.274  19.362  24.836  1.00  0.00     0.034 A 
ATOM     20  C   UNL A   1      32.151  19.573  23.052  1.00  0.00     0.003 A 
ATOM     21  C   UNL A   1      32.732  20.724  23.583  1.00  0.00     0.009 A 
BRANCH  17  22
ATOM     22  N   UNL A   1      34.298  16.919  24.415  1.00  0.00    -0.326 N 
ATOM     23  C   UNL A   1      32.602  15.733  25.815  1.00  0.00     0.114 C 
ATOM     24  C   UNL A   1      33.954  15.840  25.172  1.00  0.00     0.221 C 
ATOM     25  O   UNL A   1      34.772  14.922  25.281  1.00  0.00    -0.275 OA
ATOM     26  H   UNL A   1      35.098  16.767  23.861  1.00  0.00     0.169 HD
ENDBRANCH  17  22
ENDBRANCH  10  16
ENDBRANCH   7   9
ENDBRANCH   6   7
ENDBRANCH   5   6
ENDBRANCH   4   5
ENDBRANCH   3   4
ENDBRANCH   2   3
ENDBRANCH   1   2
BRANCH   1  27
ATOM     27  O   UNL A   1      32.132  29.159  27.403  1.00  0.00    -0.376 OA
BRANCH  27  28
ATOM     28  C   UNL A   1      31.793  30.231  26.544  1.00  0.00     0.202 C 
BRANCH  28  29
ATOM     29  C   UNL A   1      31.720  31.700  26.986  1.00  0.00     0.261 C 
BRANCH  29  30
ATOM     30  O   UNL A   1      32.822  32.535  26.630  1.00  0.00    -0.460 OA
BRANCH  30  31
ATOM     31  C   UNL A   1      33.358  33.238  27.660  1.00  0.00     0.338 C 
ATOM     32  O   UNL A   1      32.852  34.174  28.253  1.00  0.00    -0.246 OA
BRANCH  31  33
ATOM     33  C   UNL A   1      34.596  32.565  28.096  1.00  0.00     0.060 A 
ATOM     34  C   UNL A   1      34.567  31.179  28.289  1.00  0.00     0.016 A 
ATOM     35  C   UNL A   1      35.765  33.294  28.325  1.00  0.00     0.016 A 
ATOM     36  C   UNL A   1      35.707  30.515  28.739  1.00  0.00     0.010 A 
ATOM     37  C   UNL A   1      36.899  32.630  28.799  1.00  0.00     0.010 A 
ATOM     38  C   UNL A   1      36.867  31.243  29.033  1.00  0.00    -0.014 A 
BRANCH  38  39
ATOM     39  C   UNL A   1      37.982  30.589  29.759  1.00  0.00     0.031 A 
ATOM     40  C   UNL A   1      38.224  30.980  31.191  1.00  0.00     0.074 A 
ATOM     41  C   UNL A   1      38.763  29.674  29.158  1.00  0.00     0.049 A 
ATOM     42  N   UNL A   1      39.167  30.594  32.009  1.00  0.00    -0.248 NA
ATOM     43  C   UNL A   1      37.276  31.943  31.775  1.00  0.00     0.031 C 
ATOM     44  C   UNL A   1      38.604  29.198  27.784  1.00  0.00     0.029 A 
ATOM     45  N   UNL A   1      39.862  28.995  29.624  1.00  0.00    -0.354 N 
ATOM     46  C   UNL A   1      38.935  31.272  33.200  1.00  0.00     0.074 A 
ATOM     47  C   UNL A   1      37.774  32.109  32.992  1.00  0.00     0.031 C 
ATOM     48  C   UNL A   1      39.589  28.323  27.511  1.00  0.00     0.029 A 
ATOM     49  C   UNL A   1      40.464  28.202  28.675  1.00  0.00     0.049 A 
ATOM     50  H   UNL A   1      40.187  29.069  30.550  1.00  0.00     0.167 HD
ATOM     51  C   UNL A   1      39.631  31.205  34.360  1.00  0.00     0.034 A 
ATOM     52  C   UNL A   1      41.611  27.491  28.734  1.00  0.00     0.034 A 
ATOM     53  C   UNL A   1      40.791  30.371  34.553  1.00  0.00     0.049 A 
ATOM     54  C   UNL A   1      42.401  27.480  30.023  1.00  0.00     0.074 A 
ATOM     55  C   UNL A   1      41.540  30.194  35.702  1.00  0.00     0.029 A 
ATOM     56  N   UNL A   1      41.382  29.592  33.568  1.00  0.00    -0.354 N 
ATOM     57  N   UNL A   1      42.142  28.090  31.159  1.00  0.00    -0.248 NA
ATOM     58  C   UNL A   1      43.633  26.679  30.042  1.00  0.00     0.031 C 
ATOM     59  C   UNL A   1      42.624  29.365  35.394  1.00  0.00     0.029 A 
ATOM     60  C   UNL A   1      42.508  28.964  34.073  1.00  0.00     0.049 A 
ATOM     61  H   UNL A   1      41.049  29.499  32.646  1.00  0.00     0.167 HD
ATOM     62  C   UNL A   1      43.161  27.714  32.032  1.00  0.00     0.074 A 
ATOM     63  C   UNL A   1      44.029  26.818  31.299  1.00  0.00     0.031 C 
ATOM     64  C   UNL A   1      43.364  28.073  33.326  1.00  0.00     0.034 A 
BRANCH  51  65
ATOM     65  C   UNL A   1      39.192  32.099  35.489  1.00  0.00     0.023 A 
ATOM     66  C   UNL A   1      39.690  33.404  35.643  1.00  0.00     0.031 A 
ATOM     67  C   UNL A   1      38.259  31.630  36.432  1.00  0.00     0.131 A 
ATOM     68  C   UNL A   1      39.288  34.180  36.741  1.00  0.00     0.055 A 
ATOM     69  C   UNL A   1      37.813  32.430  37.485  1.00  0.00     0.041 A 
ATOM     70  F   UNL A   1      37.770  30.384  36.346  1.00  0.00    -0.206 F 
ATOM     71  C   UNL A   1      38.335  33.710  37.650  1.00  0.00     0.022 A 
BRANCH  68  72
ATOM     72  S   UNL A   1      40.102  35.774  37.026  1.00  0.00     0.124 S 
ATOM     73  O   UNL A   1      41.512  35.393  37.014  1.00  0.00    -0.237 OA
ATOM     74  O   UNL A   1      39.646  36.569  35.892  1.00  0.00    -0.237 OA
ATOM     75  O   UNL A   1      39.588  36.194  38.329  1.00  0.00    -0.744 OA
ENDBRANCH  68  72
ENDBRANCH  51  65
BRANCH  52  76
ATOM     76  C   UNL A   1      42.128  26.775  27.531  1.00  0.00     0.023 A 
ATOM     77  C   UNL A   1      41.919  25.398  27.355  1.00  0.00     0.031 A 
ATOM     78  C   UNL A   1      42.925  27.445  26.584  1.00  0.00     0.131 A 
ATOM     79  C   UNL A   1      42.551  24.723  26.298  1.00  0.00     0.055 A 
ATOM     80  C   UNL A   1      43.504  26.780  25.502  1.00  0.00     0.041 A 
ATOM     81  F   UNL A   1      43.161  28.761  26.705  1.00  0.00    -0.206 F 
ATOM     82  C   UNL A   1      43.333  25.406  25.365  1.00  0.00     0.022 A 
BRANCH  79  83
ATOM     83  S   UNL A   1      42.437  22.913  26.234  1.00  0.00     0.124 S 
ATOM     84  O   UNL A   1      42.944  22.630  24.896  1.00  0.00    -0.237 OA
ATOM     85  O   UNL A   1      43.301  22.519  27.344  1.00  0.00    -0.237 OA
ATOM     86  O   UNL A   1      41.013  22.655  26.431  1.00  0.00    -0.744 OA
ENDBRANCH  79  83
ENDBRANCH  52  76
BRANCH  64  87
ATOM     87  C   UNL A   1      44.537  27.448  34.041  1.00  0.00     0.023 A 
ATOM     88  C   UNL A   1      44.427  26.220  34.716  1.00  0.00     0.031 A 
ATOM     89  C   UNL A   1      45.785  28.097  34.046  1.00  0.00     0.131 A 
ATOM     90  C   UNL A   1      45.532  25.705  35.412  1.00  0.00     0.055 A 
ATOM     91  C   UNL A   1      46.895  27.552  34.690  1.00  0.00     0.041 A 
ATOM     92  F   UNL A   1      45.946  29.273  33.417  1.00  0.00    -0.206 F 
ATOM     93  C   UNL A   1      46.769  26.354  35.389  1.00  0.00     0.022 A 
BRANCH  90  94
ATOM     94  S   UNL A   1      45.311  24.212  36.418  1.00  0.00     0.124 S 
ATOM     95  O   UNL A   1      46.635  23.602  36.352  1.00  0.00    -0.237 OA
ATOM     96  O   UNL A   1      44.925  24.762  37.713  1.00  0.00    -0.237 OA
ATOM     97  O   UNL A   1      44.256  23.479  35.719  1.00  0.00    -0.744 OA
ENDBRANCH  90  94
ENDBRANCH  64  87
ENDBRANCH  38  39
ENDBRANCH  31  33
ENDBRANCH  30  31
ENDBRANCH  29  30
ENDBRANCH  28  29
ENDBRANCH  27  28
ENDBRANCH   1  27
TORSDOF 22
ENDMDL
MODEL 3
REMARK VINA RESULT:     -11.0      5.350      8.911
REMARK SMILES CC(=O)Nc1cccc(-c2cc(F)ccc2C(=O)OCCOCCOCCOC(=O)c2ccc(-c3c4nc(c(-c5cc(S(=O)(=O)[O-])ccc5F)c5ccc([nH]5)c(-c5cc(S(=O)(=O)[O-])ccc5F)c5nc(c(-c6cc(S(=O)(=O)[O-])ccc6F)c6ccc3[nH]6)C=C5)C=C4)cc2)c1
REMARK SMILES IDX 24 1 23 2 22 3 21 4 20 5 19 6 17 7 18 8 16 9 10 10 11 11
REMARK SMILES IDX 12 12 15 13 13 14 14 15 9 16 5 17 6 18 94 19 7 20 8 21 4 22
REMARK SMILES IDX 1 23 2 24 3 25 25 27 26 28 27 29 28 30 29 31 30 32 31 33
REMARK SMILES IDX 32 34 93 35 33 36 92 37 34 38 35 39 36 40 86 41 37 42 91 43
REMARK SMILES IDX 85 44 87 45 38 46 90 47 84 48 83 49 39 51 71 52 51 53 70 54
REMARK SMILES IDX 52 55 55 56 69 57 88 58 53 59 54 60 68 62 89 63 56 64 40 65
REMARK SMILES IDX 41 66 49 67 42 68 48 69 50 70 47 71 43 72 44 73 45 74 46 75
REMARK SMILES IDX 72 76 73 77 81 78 74 79 80 80 82 81 79 82 75 83 76 84 77 85
REMARK SMILES IDX 78 86 57 87 58 88 66 89 59 90 65 91 67 92 64 93 60 94 61 95
REMARK SMILES IDX 62 96 63 97
REMARK H PARENT 4 26 87 50 55 61
REMARK Flexibility Score: inf
ROOT
ATOM      1  C   UNL A   1      33.950  20.282  25.094  1.00  0.00     0.188 C 
ENDROOT
BRANCH   1   2
ATOM      2  C   UNL A   1      33.430  21.724  25.268  1.00  0.00     0.188 C 
BRANCH   2   3
ATOM      3  O   UNL A   1      32.967  22.442  24.132  1.00  0.00    -0.376 OA
BRANCH   3   4
ATOM      4  C   UNL A   1      33.788  23.480  23.608  1.00  0.00     0.202 C 
BRANCH   4   5
ATOM      5  C   UNL A   1      33.114  24.802  23.247  1.00  0.00     0.261 C 
BRANCH   5   6
ATOM      6  O   UNL A   1      33.570  25.840  24.127  1.00  0.00    -0.460 OA
BRANCH   6   7
ATOM      7  C   UNL A   1      32.794  26.084  25.203  1.00  0.00     0.338 C 
ATOM      8  O   UNL A   1      32.115  25.266  25.805  1.00  0.00    -0.246 OA
BRANCH   7   9
ATOM      9  C   UNL A   1      32.951  27.491  25.651  1.00  0.00     0.068 A 
ATOM     10  C   UNL A   1      32.111  28.564  25.249  1.00  0.00    -0.001 A 
ATOM     11  C   UNL A   1      32.379  29.829  25.814  1.00  0.00     0.048 A 
ATOM     12  C   UNL A   1      33.448  30.023  26.686  1.00  0.00     0.123 A 
ATOM     13  C   UNL A   1      34.032  27.707  26.529  1.00  0.00     0.019 A 
ATOM     14  F   UNL A   1      33.670  31.244  27.189  1.00  0.00    -0.207 F 
ATOM     15  C   UNL A   1      34.288  28.977  27.036  1.00  0.00     0.040 A 
BRANCH  10  16
ATOM     16  C   UNL A   1      31.029  28.440  24.240  1.00  0.00    -0.015 A 
ATOM     17  C   UNL A   1      29.717  29.412  22.416  1.00  0.00     0.041 A 
ATOM     18  C   UNL A   1      28.773  28.389  22.563  1.00  0.00     0.026 A 
ATOM     19  C   UNL A   1      30.858  29.393  23.219  1.00  0.00     0.034 A 
ATOM     20  C   UNL A   1      28.964  27.376  23.500  1.00  0.00     0.003 A 
ATOM     21  C   UNL A   1      30.075  27.412  24.342  1.00  0.00     0.009 A 
BRANCH  17  22
ATOM     22  N   UNL A   1      29.378  30.458  21.540  1.00  0.00    -0.326 N 
ATOM     23  C   UNL A   1      28.016  31.991  22.969  1.00  0.00     0.114 C 
ATOM     24  C   UNL A   1      28.544  31.531  21.641  1.00  0.00     0.221 C 
ATOM     25  O   UNL A   1      28.267  32.152  20.611  1.00  0.00    -0.275 OA
ATOM     26  H   UNL A   1      29.839  30.405  20.672  1.00  0.00     0.169 HD
ENDBRANCH  17  22
ENDBRANCH  10  16
ENDBRANCH   7   9
ENDBRANCH   6   7
ENDBRANCH   5   6
ENDBRANCH   4   5
ENDBRANCH   3   4
ENDBRANCH   2   3
ENDBRANCH   1   2
BRANCH   1  27
ATOM     27  O   UNL A   1      35.293  20.014  24.753  1.00  0.00    -0.376 OA
BRANCH  27  28
ATOM     28  C   UNL A   1      36.299  21.003  24.872  1.00  0.00     0.202 C 
BRANCH  28  29
ATOM     29  C   UNL A   1      37.792  20.695  25.055  1.00  0.00     0.261 C 
BRANCH  29  30
ATOM     30  O   UNL A   1      38.647  21.801  25.344  1.00  0.00    -0.460 OA
BRANCH  30  31
ATOM     31  C   UNL A   1      39.450  21.632  26.426  1.00  0.00     0.338 C 
ATOM     32  O   UNL A   1      39.858  20.578  26.880  1.00  0.00    -0.246 OA
BRANCH  31  33
ATOM     33  C   UNL A   1      39.926  22.955  26.872  1.00  0.00     0.060 A 
ATOM     34  C   UNL A   1      39.270  24.095  26.389  1.00  0.00     0.016 A 
ATOM     35  C   UNL A   1      41.013  23.070  27.740  1.00  0.00     0.016 A 
ATOM     36  C   UNL A   1      39.718  25.363  26.757  1.00  0.00     0.010 A 
ATOM     37  C   UNL A   1      41.474  24.343  28.088  1.00  0.00     0.010 A 
ATOM     38  C   UNL A   1      40.846  25.492  27.577  1.00  0.00    -0.014 A 
BRANCH  38  39
ATOM     39  C   UNL A   1      41.481  26.821  27.750  1.00  0.00     0.031 A 
ATOM     40  C   UNL A   1      42.843  27.040  27.153  1.00  0.00     0.074 A 
ATOM     41  C   UNL A   1      40.862  27.806  28.426  1.00  0.00     0.049 A 
ATOM     42  N   UNL A   1      43.620  28.089  27.221  1.00  0.00    -0.248 NA
ATOM     43  C   UNL A   1      43.406  25.922  26.380  1.00  0.00     0.031 C 
ATOM     44  C   UNL A   1      39.530  27.715  29.023  1.00  0.00     0.029 A 
ATOM     45  N   UNL A   1      41.286  29.073  28.741  1.00  0.00    -0.354 N 
ATOM     46  C   UNL A   1      44.768  27.755  26.511  1.00  0.00     0.074 A 
ATOM     47  C   UNL A   1      44.594  26.400  26.037  1.00  0.00     0.031 C 
ATOM     48  C   UNL A   1      39.258  28.871  29.656  1.00  0.00     0.029 A 
ATOM     49  C   UNL A   1      40.406  29.768  29.538  1.00  0.00     0.049 A 
ATOM     50  H   UNL A   1      42.139  29.449  28.425  1.00  0.00     0.167 HD
ATOM     51  C   UNL A   1      45.868  28.511  26.280  1.00  0.00     0.034 A 
ATOM     52  C   UNL A   1      40.532  30.975  30.130  1.00  0.00     0.034 A 
ATOM     53  C   UNL A   1      46.032  29.858  26.764  1.00  0.00     0.049 A 
ATOM     54  C   UNL A   1      41.797  31.773  29.904  1.00  0.00     0.074 A 
ATOM     55  C   UNL A   1      47.087  30.727  26.546  1.00  0.00     0.029 A 
ATOM     56  N   UNL A   1      45.129  30.526  27.578  1.00  0.00    -0.354 N 
ATOM     57  N   UNL A   1      42.856  31.464  29.189  1.00  0.00    -0.248 NA
ATOM     58  C   UNL A   1      41.880  33.087  30.558  1.00  0.00     0.031 C 
ATOM     59  C   UNL A   1      46.855  31.891  27.287  1.00  0.00     0.029 A 
ATOM     60  C   UNL A   1      45.619  31.779  27.904  1.00  0.00     0.049 A 
ATOM     61  H   UNL A   1      44.264  30.162  27.880  1.00  0.00     0.167 HD
ATOM     62  C   UNL A   1      43.710  32.561  29.281  1.00  0.00     0.074 A 
ATOM     63  C   UNL A   1      43.040  33.542  30.108  1.00  0.00     0.031 C 
ATOM     64  C   UNL A   1      44.938  32.746  28.731  1.00  0.00     0.034 A 
BRANCH  51  65
ATOM     65  C   UNL A   1      47.003  27.876  25.520  1.00  0.00     0.023 A 
ATOM     66  C   UNL A   1      47.226  28.139  24.158  1.00  0.00     0.031 A 
ATOM     67  C   UNL A   1      47.872  26.985  26.174  1.00  0.00     0.131 A 
ATOM     68  C   UNL A   1      48.267  27.483  23.482  1.00  0.00     0.055 A 
ATOM     69  C   UNL A   1      48.945  26.385  25.513  1.00  0.00     0.041 A 
ATOM     70  F   UNL A   1      47.689  26.679  27.468  1.00  0.00    -0.206 F 
ATOM     71  C   UNL A   1      49.142  26.627  24.156  1.00  0.00     0.022 A 
BRANCH  68  72
ATOM     72  S   UNL A   1      48.401  27.685  21.685  1.00  0.00     0.124 S 
ATOM     73  O   UNL A   1      47.062  28.156  21.339  1.00  0.00    -0.237 OA
ATOM     74  O   UNL A   1      49.475  28.663  21.556  1.00  0.00    -0.237 OA
ATOM     75  O   UNL A   1      48.722  26.340  21.212  1.00  0.00    -0.744 OA
ENDBRANCH  68  72
ENDBRANCH  51  65
BRANCH  52  76
ATOM     76  C   UNL A   1      39.472  31.492  31.045  1.00  0.00     0.023 A 
ATOM     77  C   UNL A   1      39.581  31.354  32.438  1.00  0.00     0.031 A 
ATOM     78  C   UNL A   1      38.287  32.047  30.529  1.00  0.00     0.131 A 
ATOM     79  C   UNL A   1      38.499  31.705  33.262  1.00  0.00     0.055 A 
ATOM     80  C   UNL A   1      37.238  32.449  31.357  1.00  0.00     0.041 A 
ATOM     81  F   UNL A   1      38.128  32.199  29.205  1.00  0.00    -0.206 F 
ATOM     82  C   UNL A   1      37.333  32.261  32.733  1.00  0.00     0.022 A 
BRANCH  79  83
ATOM     83  S   UNL A   1      38.591  31.307  35.030  1.00  0.00     0.124 S 
ATOM     84  O   UNL A   1      39.801  32.014  35.432  1.00  0.00    -0.237 OA
ATOM     85  O   UNL A   1      37.333  31.855  35.527  1.00  0.00    -0.237 OA
ATOM     86  O   UNL A   1      38.684  29.849  35.046  1.00  0.00    -0.744 OA
ENDBRANCH  79  83
ENDBRANCH  52  76
BRANCH  64  87
ATOM     87  C   UNL A   1      45.604  34.080  28.961  1.00  0.00     0.023 A 
ATOM     88  C   UNL A   1      45.325  35.199  28.158  1.00  0.00     0.031 A 
ATOM     89  C   UNL A   1      46.536  34.230  30.005  1.00  0.00     0.131 A 
ATOM     90  C   UNL A   1      46.008  36.405  28.377  1.00  0.00     0.055 A 
ATOM     91  C   UNL A   1      47.171  35.447  30.254  1.00  0.00     0.041 A 
ATOM     92  F   UNL A   1      46.842  33.195  30.803  1.00  0.00    -0.206 F 
ATOM     93  C   UNL A   1      46.917  36.540  29.430  1.00  0.00     0.022 A 
BRANCH  90  94
ATOM     94  S   UNL A   1      45.757  37.774  27.215  1.00  0.00     0.124 S 
ATOM     95  O   UNL A   1      46.168  38.927  28.011  1.00  0.00    -0.237 OA
ATOM     96  O   UNL A   1      46.641  37.414  26.112  1.00  0.00    -0.237 OA
ATOM     97  O   UNL A   1      44.329  37.709  26.910  1.00  0.00    -0.744 OA
ENDBRANCH  90  94
ENDBRANCH  64  87
ENDBRANCH  38  39
ENDBRANCH  31  33
ENDBRANCH  30  31
ENDBRANCH  29  30
ENDBRANCH  28  29
ENDBRANCH  27  28
ENDBRANCH   1  27
TORSDOF 22
ENDMDL
