MODEL 1
REMARK VINA RESULT:      -8.8      0.000      0.000
REMARK SMILES O=C(OCCOCCOCCOC(=O)c1cccnc1Nc1cccc(C(F)(F)F)c1)c1ccc(-c2c3nc(c(-c4cc(S(=O)(=O)[O-])ccc4F)c4ccc([nH]4)c(-c4cc(S(=O)(=O)[O-])ccc4F)c4nc(c(-c5cc(S(=O)(=O)[O-])ccc5F)c5ccc2[nH]5)C=C4)C=C3)cc1
REMARK SMILES IDX 7 1 6 2 5 3 4 4 3 5 2 6 1 7 32 8 33 9 94 10 34 11 93 12
REMARK SMILES IDX 35 13 36 14 37 15 87 16 38 17 92 18 86 19 88 20 39 21 91 22
REMARK SMILES IDX 85 23 84 24 40 26 72 27 52 28 71 29 53 30 56 31 70 32 89 33
REMARK SMILES IDX 54 34 55 35 69 37 90 38 57 39 41 40 42 41 50 42 43 43 49 44
REMARK SMILES IDX 51 45 48 46 44 47 45 48 46 49 47 50 73 51 74 52 82 53 75 54
REMARK SMILES IDX 81 55 83 56 80 57 76 58 77 59 78 60 79 61 58 62 59 63 67 64
REMARK SMILES IDX 60 65 66 66 68 67 65 68 61 69 62 70 63 71 64 72 8 73 9 74
REMARK SMILES IDX 10 75 11 76 12 77 13 78 14 79 15 80 16 81 20 82 17 83 19 84
REMARK SMILES IDX 18 85 21 86 22 88 23 89 31 90 24 91 26 92 25 93 27 94 28 95
REMARK SMILES IDX 29 96 30 97
REMARK H PARENT 88 25 56 36 21 87
REMARK Flexibility Score: inf
ROOT
ATOM      1  C   UNL A   1      34.863  22.000  24.856  1.00  0.00     0.188 C 
ENDROOT
BRANCH   1   2
ATOM      2  O   UNL A   1      35.697  23.024  24.291  1.00  0.00    -0.376 OA
BRANCH   2   3
ATOM      3  C   UNL A   1      36.003  24.073  25.218  1.00  0.00     0.202 C 
BRANCH   3   4
ATOM      4  C   UNL A   1      37.067  23.687  26.260  1.00  0.00     0.261 C 
BRANCH   4   5
ATOM      5  O   UNL A   1      38.223  24.534  26.132  1.00  0.00    -0.460 OA
BRANCH   5   6
ATOM      6  C   UNL A   1      39.421  24.212  26.659  1.00  0.00     0.338 C 
ATOM      7  O   UNL A   1      39.718  23.049  26.895  1.00  0.00    -0.246 OA
BRANCH   6   8
ATOM      8  C   UNL A   1      40.192  25.347  27.254  1.00  0.00     0.060 A 
ATOM      9  C   UNL A   1      40.739  25.335  28.540  1.00  0.00     0.016 A 
ATOM     10  C   UNL A   1      40.338  26.502  26.473  1.00  0.00     0.016 A 
ATOM     11  C   UNL A   1      41.331  26.476  29.081  1.00  0.00     0.010 A 
ATOM     12  C   UNL A   1      40.958  27.640  26.995  1.00  0.00     0.010 A 
ATOM     13  C   UNL A   1      41.389  27.649  28.329  1.00  0.00    -0.014 A 
BRANCH  13  14
ATOM     14  C   UNL A   1      41.595  28.940  29.024  1.00  0.00     0.031 A 
ATOM     15  C   UNL A   1      43.013  29.379  29.255  1.00  0.00     0.074 A 
ATOM     16  C   UNL A   1      40.572  29.738  29.368  1.00  0.00     0.049 A 
ATOM     17  N   UNL A   1      43.475  30.386  29.946  1.00  0.00    -0.248 NA
ATOM     18  C   UNL A   1      44.051  28.558  28.610  1.00  0.00     0.031 C 
ATOM     19  C   UNL A   1      39.168  29.479  29.069  1.00  0.00     0.029 A 
ATOM     20  N   UNL A   1      40.563  30.927  30.050  1.00  0.00    -0.354 N 
ATOM     21  C   UNL A   1      44.859  30.307  29.835  1.00  0.00     0.074 A 
ATOM     22  C   UNL A   1      45.156  29.127  29.053  1.00  0.00     0.031 C 
ATOM     23  C   UNL A   1      38.427  30.468  29.598  1.00  0.00     0.029 A 
ATOM     24  C   UNL A   1      39.297  31.380  30.329  1.00  0.00     0.049 A 
ATOM     25  H   UNL A   1      41.380  31.408  30.313  1.00  0.00     0.167 HD
ATOM     26  C   UNL A   1      45.797  31.151  30.329  1.00  0.00     0.034 A 
ATOM     27  C   UNL A   1      38.884  32.379  31.134  1.00  0.00     0.034 A 
ATOM     28  C   UNL A   1      45.469  32.307  31.122  1.00  0.00     0.049 A 
ATOM     29  C   UNL A   1      39.928  33.231  31.807  1.00  0.00     0.074 A 
ATOM     30  C   UNL A   1      46.316  33.217  31.725  1.00  0.00     0.029 A 
ATOM     31  N   UNL A   1      44.171  32.704  31.430  1.00  0.00    -0.354 N 
ATOM     32  N   UNL A   1      41.236  33.126  31.744  1.00  0.00    -0.248 NA
ATOM     33  C   UNL A   1      39.450  34.339  32.641  1.00  0.00     0.031 C 
ATOM     34  C   UNL A   1      45.532  34.130  32.444  1.00  0.00     0.029 A 
ATOM     35  C   UNL A   1      44.195  33.830  32.234  1.00  0.00     0.049 A 
ATOM     36  H   UNL A   1      43.354  32.248  31.123  1.00  0.00     0.167 HD
ATOM     37  C   UNL A   1      41.739  34.179  32.501  1.00  0.00     0.074 A 
ATOM     38  C   UNL A   1      40.591  34.898  33.019  1.00  0.00     0.031 C 
ATOM     39  C   UNL A   1      43.031  34.529  32.730  1.00  0.00     0.034 A 
BRANCH  26  40
ATOM     40  C   UNL A   1      47.236  30.771  30.079  1.00  0.00     0.023 A 
ATOM     41  C   UNL A   1      47.971  31.337  29.019  1.00  0.00     0.031 A 
ATOM     42  C   UNL A   1      47.828  29.724  30.805  1.00  0.00     0.131 A 
ATOM     43  C   UNL A   1      49.191  30.764  28.634  1.00  0.00     0.055 A 
ATOM     44  C   UNL A   1      49.091  29.226  30.477  1.00  0.00     0.041 A 
ATOM     45  F   UNL A   1      47.166  29.130  31.810  1.00  0.00    -0.206 F 
ATOM     46  C   UNL A   1      49.767  29.726  29.368  1.00  0.00     0.022 A 
BRANCH  43  47
ATOM     47  S   UNL A   1      49.894  31.239  27.027  1.00  0.00     0.124 S 
ATOM     48  O   UNL A   1      48.835  32.086  26.478  1.00  0.00    -0.237 OA
ATOM     49  O   UNL A   1      51.123  31.923  27.410  1.00  0.00    -0.237 OA
ATOM     50  O   UNL A   1      50.075  29.961  26.340  1.00  0.00    -0.744 OA
ENDBRANCH  43  47
ENDBRANCH  26  40
BRANCH  27  51
ATOM     51  C   UNL A   1      37.429  32.560  31.403  1.00  0.00     0.023 A 
ATOM     52  C   UNL A   1      36.565  33.127  30.455  1.00  0.00     0.031 A 
ATOM     53  C   UNL A   1      36.879  32.144  32.632  1.00  0.00     0.131 A 
ATOM     54  C   UNL A   1      35.201  33.280  30.759  1.00  0.00     0.055 A 
ATOM     55  C   UNL A   1      35.519  32.271  32.917  1.00  0.00     0.041 A 
ATOM     56  F   UNL A   1      37.657  31.573  33.566  1.00  0.00    -0.206 F 
ATOM     57  C   UNL A   1      34.672  32.848  31.978  1.00  0.00     0.022 A 
BRANCH  54  58
ATOM     58  S   UNL A   1      34.118  34.074  29.539  1.00  0.00     0.124 S 
ATOM     59  O   UNL A   1      33.520  32.921  28.875  1.00  0.00    -0.237 OA
ATOM     60  O   UNL A   1      33.230  34.858  30.392  1.00  0.00    -0.237 OA
ATOM     61  O   UNL A   1      35.041  34.857  28.722  1.00  0.00    -0.744 OA
ENDBRANCH  54  58
ENDBRANCH  27  51
BRANCH  39  62
ATOM     62  C   UNL A   1      43.268  35.789  33.518  1.00  0.00     0.023 A 
ATOM     63  C   UNL A   1      43.311  37.051  32.905  1.00  0.00     0.031 A 
ATOM     64  C   UNL A   1      43.411  35.716  34.915  1.00  0.00     0.131 A 
ATOM     65  C   UNL A   1      43.523  38.193  33.689  1.00  0.00     0.055 A 
ATOM     66  C   UNL A   1      43.576  36.860  35.694  1.00  0.00     0.041 A 
ATOM     67  F   UNL A   1      43.376  34.530  35.544  1.00  0.00    -0.206 F 
ATOM     68  C   UNL A   1      43.638  38.108  35.081  1.00  0.00     0.022 A 
BRANCH  65  69
ATOM     69  S   UNL A   1      43.686  39.800  32.864  1.00  0.00     0.124 S 
ATOM     70  O   UNL A   1      43.523  39.434  31.460  1.00  0.00    -0.237 OA
ATOM     71  O   UNL A   1      42.595  40.569  33.453  1.00  0.00    -0.237 OA
ATOM     72  O   UNL A   1      45.027  40.243  33.239  1.00  0.00    -0.744 OA
ENDBRANCH  65  69
ENDBRANCH  39  62
ENDBRANCH  13  14
ENDBRANCH   6   8
ENDBRANCH   5   6
ENDBRANCH   4   5
ENDBRANCH   3   4
ENDBRANCH   2   3
ENDBRANCH   1   2
BRANCH   1  73
ATOM     73  C   UNL A   1      35.656  20.710  25.068  1.00  0.00     0.188 C 
BRANCH  73  74
ATOM     74  O   UNL A   1      36.960  20.611  24.497  1.00  0.00    -0.376 OA
BRANCH  74  75
ATOM     75  C   UNL A   1      37.866  19.673  25.055  1.00  0.00     0.202 C 
BRANCH  75  76
ATOM     76  C   UNL A   1      39.293  20.170  25.305  1.00  0.00     0.261 C 
BRANCH  76  77
ATOM     77  O   UNL A   1      40.226  19.202  25.813  1.00  0.00    -0.460 OA
BRANCH  77  78
ATOM     78  C   UNL A   1      41.152  19.701  26.666  1.00  0.00     0.341 C 
ATOM     79  O   UNL A   1      40.968  20.128  27.798  1.00  0.00    -0.246 OA
BRANCH  78  80
ATOM     80  C   UNL A   1      42.458  19.774  26.014  1.00  0.00     0.102 A 
ATOM     81  C   UNL A   1      43.115  18.569  25.738  1.00  0.00     0.021 A 
ATOM     82  C   UNL A   1      42.979  20.982  25.543  1.00  0.00     0.144 A 
ATOM     83  C   UNL A   1      44.292  18.596  25.003  1.00  0.00     0.021 A 
ATOM     84  N   UNL A   1      44.153  20.998  24.865  1.00  0.00    -0.238 NA
ATOM     85  C   UNL A   1      44.777  19.828  24.604  1.00  0.00     0.113 A 
BRANCH  82  86
ATOM     86  N   UNL A   1      42.349  22.212  25.836  1.00  0.00    -0.340 N 
ATOM     87  H   UNL A   1      41.365  22.215  25.858  1.00  0.00     0.168 HD
BRANCH  86  88
ATOM     88  C   UNL A   1      42.997  23.435  26.100  1.00  0.00     0.040 A 
ATOM     89  C   UNL A   1      43.078  24.402  25.095  1.00  0.00     0.026 A 
ATOM     90  C   UNL A   1      43.687  23.656  27.298  1.00  0.00     0.039 A 
ATOM     91  C   UNL A   1      43.746  25.608  25.311  1.00  0.00     0.003 A 
ATOM     92  C   UNL A   1      44.396  24.848  27.520  1.00  0.00     0.058 A 
ATOM     93  C   UNL A   1      44.398  25.833  26.521  1.00  0.00     0.013 A 
BRANCH  92  94
ATOM     94  C   UNL A   1      45.162  25.067  28.798  1.00  0.00     0.416 C 
ATOM     95  F   UNL A   1      44.370  25.579  29.787  1.00  0.00    -0.166 F 
ATOM     96  F   UNL A   1      45.688  23.919  29.309  1.00  0.00    -0.166 F 
ATOM     97  F   UNL A   1      46.201  25.940  28.681  1.00  0.00    -0.166 F 
ENDBRANCH  92  94
ENDBRANCH  86  88
ENDBRANCH  82  86
ENDBRANCH  78  80
ENDBRANCH  77  78
ENDBRANCH  76  77
ENDBRANCH  75  76
ENDBRANCH  74  75
ENDBRANCH  73  74
ENDBRANCH   1  73
TORSDOF 23
ENDMDL
MODEL 2
REMARK VINA RESULT:      -8.8      4.747      7.743
REMARK SMILES O=C(OCCOCCOCCOC(=O)c1cccnc1Nc1cccc(C(F)(F)F)c1)c1ccc(-c2c3nc(c(-c4cc(S(=O)(=O)[O-])ccc4F)c4ccc([nH]4)c(-c4cc(S(=O)(=O)[O-])ccc4F)c4nc(c(-c5cc(S(=O)(=O)[O-])ccc5F)c5ccc2[nH]5)C=C4)C=C3)cc1
REMARK SMILES IDX 7 1 6 2 5 3 4 4 3 5 2 6 1 7 32 8 33 9 94 10 34 11 93 12
REMARK SMILES IDX 35 13 36 14 37 15 87 16 38 17 92 18 86 19 88 20 39 21 91 22
REMARK SMILES IDX 85 23 84 24 40 26 72 27 52 28 71 29 53 30 56 31 70 32 89 33
REMARK SMILES IDX 54 34 55 35 69 37 90 38 57 39 41 40 42 41 50 42 43 43 49 44
REMARK SMILES IDX 51 45 48 46 44 47 45 48 46 49 47 50 73 51 74 52 82 53 75 54
REMARK SMILES IDX 81 55 83 56 80 57 76 58 77 59 78 60 79 61 58 62 59 63 67 64
REMARK SMILES IDX 60 65 66 66 68 67 65 68 61 69 62 70 63 71 64 72 8 73 9 74
REMARK SMILES IDX 10 75 11 76 12 77 13 78 14 79 15 80 16 81 20 82 17 83 19 84
REMARK SMILES IDX 18 85 21 86 22 88 23 89 31 90 24 91 26 92 25 93 27 94 28 95
REMARK SMILES IDX 29 96 30 97
REMARK H PARENT 88 25 56 36 21 87
REMARK Flexibility Score: inf
ROOT
ATOM      1  C   UNL A   1      35.957  21.417  24.631  1.00  0.00     0.188 C 
ENDROOT
BRANCH   1   2
ATOM      2  O   UNL A   1      36.771  20.369  25.181  1.00  0.00    -0.376 OA
BRANCH   2   3
ATOM      3  C   UNL A   1      38.167  20.693  25.196  1.00  0.00     0.202 C 
BRANCH   3   4
ATOM      4  C   UNL A   1      39.080  19.484  25.468  1.00  0.00     0.261 C 
BRANCH   4   5
ATOM      5  O   UNL A   1      39.848  19.697  26.665  1.00  0.00    -0.460 OA
BRANCH   5   6
ATOM      6  C   UNL A   1      41.030  20.346  26.664  1.00  0.00     0.338 C 
ATOM      7  O   UNL A   1      42.087  19.737  26.569  1.00  0.00    -0.246 OA
BRANCH   6   8
ATOM      8  C   UNL A   1      40.989  21.763  27.137  1.00  0.00     0.060 A 
ATOM      9  C   UNL A   1      40.226  22.770  26.539  1.00  0.00     0.016 A 
ATOM     10  C   UNL A   1      41.799  22.098  28.231  1.00  0.00     0.016 A 
ATOM     11  C   UNL A   1      40.337  24.098  26.949  1.00  0.00     0.010 A 
ATOM     12  C   UNL A   1      41.893  23.420  28.670  1.00  0.00     0.010 A 
ATOM     13  C   UNL A   1      41.216  24.434  27.979  1.00  0.00    -0.014 A 
BRANCH  13  14
ATOM     14  C   UNL A   1      41.663  25.839  28.113  1.00  0.00     0.031 A 
ATOM     15  C   UNL A   1      43.015  26.186  27.556  1.00  0.00     0.074 A 
ATOM     16  C   UNL A   1      40.876  26.794  28.633  1.00  0.00     0.049 A 
ATOM     17  N   UNL A   1      43.700  27.293  27.653  1.00  0.00    -0.248 NA
ATOM     18  C   UNL A   1      43.679  25.127  26.780  1.00  0.00     0.031 C 
ATOM     19  C   UNL A   1      39.500  26.599  29.075  1.00  0.00     0.029 A 
ATOM     20  N   UNL A   1      41.131  28.118  28.880  1.00  0.00    -0.354 N 
ATOM     21  C   UNL A   1      44.886  27.056  26.968  1.00  0.00     0.074 A 
ATOM     22  C   UNL A   1      44.843  25.686  26.506  1.00  0.00     0.031 C 
ATOM     23  C   UNL A   1      39.041  27.760  29.573  1.00  0.00     0.029 A 
ATOM     24  C   UNL A   1      40.111  28.748  29.550  1.00  0.00     0.049 A 
ATOM     25  H   UNL A   1      41.960  28.572  28.605  1.00  0.00     0.167 HD
ATOM     26  C   UNL A   1      45.913  27.909  26.733  1.00  0.00     0.034 A 
ATOM     27  C   UNL A   1      40.069  29.962  30.135  1.00  0.00     0.034 A 
ATOM     28  C   UNL A   1      45.935  29.261  27.225  1.00  0.00     0.049 A 
ATOM     29  C   UNL A   1      41.271  30.860  30.002  1.00  0.00     0.074 A 
ATOM     30  C   UNL A   1      46.928  30.215  27.104  1.00  0.00     0.029 A 
ATOM     31  N   UNL A   1      44.903  29.848  27.950  1.00  0.00    -0.354 N 
ATOM     32  N   UNL A   1      42.412  30.618  29.399  1.00  0.00    -0.248 NA
ATOM     33  C   UNL A   1      41.179  32.192  30.610  1.00  0.00     0.031 C 
ATOM     34  C   UNL A   1      46.519  31.358  27.804  1.00  0.00     0.029 A 
ATOM     35  C   UNL A   1      45.244  31.142  28.304  1.00  0.00     0.049 A 
ATOM     36  H   UNL A   1      44.053  29.407  28.180  1.00  0.00     0.167 HD
ATOM     37  C   UNL A   1      43.163  31.782  29.521  1.00  0.00     0.074 A 
ATOM     38  C   UNL A   1      42.346  32.721  30.267  1.00  0.00     0.031 C 
ATOM     39  C   UNL A   1      44.404  32.056  29.044  1.00  0.00     0.034 A 
BRANCH  26  40
ATOM     40  C   UNL A   1      47.097  27.340  25.990  1.00  0.00     0.023 A 
ATOM     41  C   UNL A   1      48.203  26.801  26.675  1.00  0.00     0.031 A 
ATOM     42  C   UNL A   1      47.192  27.480  24.595  1.00  0.00     0.131 A 
ATOM     43  C   UNL A   1      49.397  26.550  25.983  1.00  0.00     0.055 A 
ATOM     44  C   UNL A   1      48.351  27.131  23.899  1.00  0.00     0.041 A 
ATOM     45  F   UNL A   1      46.179  28.009  23.891  1.00  0.00    -0.206 F 
ATOM     46  C   UNL A   1      49.472  26.690  24.596  1.00  0.00     0.022 A 
BRANCH  43  47
ATOM     47  S   UNL A   1      50.908  26.265  26.951  1.00  0.00     0.124 S 
ATOM     48  O   UNL A   1      50.509  26.749  28.273  1.00  0.00    -0.237 OA
ATOM     49  O   UNL A   1      51.094  24.825  26.829  1.00  0.00    -0.237 OA
ATOM     50  O   UNL A   1      51.910  27.087  26.274  1.00  0.00    -0.744 OA
ENDBRANCH  43  47
ENDBRANCH  26  40
BRANCH  27  51
ATOM     51  C   UNL A   1      38.887  30.347  30.958  1.00  0.00     0.023 A 
ATOM     52  C   UNL A   1      37.804  31.053  30.414  1.00  0.00     0.031 A 
ATOM     53  C   UNL A   1      38.826  29.990  32.320  1.00  0.00     0.131 A 
ATOM     54  C   UNL A   1      36.714  31.396  31.233  1.00  0.00     0.055 A 
ATOM     55  C   UNL A   1      37.728  30.307  33.121  1.00  0.00     0.041 A 
ATOM     56  F   UNL A   1      39.825  29.293  32.885  1.00  0.00    -0.206 F 
ATOM     57  C   UNL A   1      36.666  31.020  32.579  1.00  0.00     0.022 A 
BRANCH  54  58
ATOM     58  S   UNL A   1      35.355  32.363  30.520  1.00  0.00     0.124 S 
ATOM     59  O   UNL A   1      35.106  31.653  29.271  1.00  0.00    -0.237 OA
ATOM     60  O   UNL A   1      34.327  32.238  31.548  1.00  0.00    -0.237 OA
ATOM     61  O   UNL A   1      35.928  33.699  30.376  1.00  0.00    -0.744 OA
ENDBRANCH  54  58
ENDBRANCH  27  51
BRANCH  39  62
ATOM     62  C   UNL A   1      44.922  33.453  29.252  1.00  0.00     0.023 A 
ATOM     63  C   UNL A   1      44.772  34.454  28.279  1.00  0.00     0.031 A 
ATOM     64  C   UNL A   1      45.543  33.788  30.469  1.00  0.00     0.131 A 
ATOM     65  C   UNL A   1      45.264  35.742  28.531  1.00  0.00     0.055 A 
ATOM     66  C   UNL A   1      45.989  35.083  30.730  1.00  0.00     0.041 A 
ATOM     67  F   UNL A   1      45.709  32.863  31.428  1.00  0.00    -0.206 F 
ATOM     68  C   UNL A   1      45.855  36.068  29.755  1.00  0.00     0.022 A 
BRANCH  65  69
ATOM     69  S   UNL A   1      45.156  36.989  27.217  1.00  0.00     0.124 S 
ATOM     70  O   UNL A   1      45.367  38.227  27.961  1.00  0.00    -0.237 OA
ATOM     71  O   UNL A   1      46.235  36.593  26.318  1.00  0.00    -0.237 OA
ATOM     72  O   UNL A   1      43.808  36.807  26.683  1.00  0.00    -0.744 OA
ENDBRANCH  65  69
ENDBRANCH  39  62
ENDBRANCH  13  14
ENDBRANCH   6   8
ENDBRANCH   5   6
ENDBRANCH   4   5
ENDBRANCH   3   4
ENDBRANCH   2   3
ENDBRANCH   1   2
BRANCH   1  73
ATOM     73  C   UNL A   1      35.651  22.478  25.688  1.00  0.00     0.188 C 
BRANCH  73  74
ATOM     74  O   UNL A   1      35.004  22.072  26.893  1.00  0.00    -0.376 OA
BRANCH  74  75
ATOM     75  C   UNL A   1      33.632  21.713  26.827  1.00  0.00     0.202 C 
BRANCH  75  76
ATOM     76  C   UNL A   1      32.628  22.782  27.269  1.00  0.00     0.261 C 
BRANCH  76  77
ATOM     77  O   UNL A   1      32.394  23.857  26.344  1.00  0.00    -0.460 OA
BRANCH  77  78
ATOM     78  C   UNL A   1      31.462  23.598  25.397  1.00  0.00     0.341 C 
ATOM     79  O   UNL A   1      30.372  23.063  25.551  1.00  0.00    -0.246 OA
BRANCH  78  80
ATOM     80  C   UNL A   1      31.969  23.952  24.072  1.00  0.00     0.102 A 
ATOM     81  C   UNL A   1      32.974  23.146  23.524  1.00  0.00     0.021 A 
ATOM     82  C   UNL A   1      31.382  24.961  23.305  1.00  0.00     0.144 A 
ATOM     83  C   UNL A   1      33.383  23.374  22.218  1.00  0.00     0.021 A 
ATOM     84  N   UNL A   1      31.822  25.203  22.046  1.00  0.00    -0.238 NA
ATOM     85  C   UNL A   1      32.793  24.416  21.527  1.00  0.00     0.113 A 
BRANCH  82  86
ATOM     86  N   UNL A   1      30.388  25.806  23.848  1.00  0.00    -0.340 N 
ATOM     87  H   UNL A   1      29.583  25.372  24.211  1.00  0.00     0.168 HD
BRANCH  86  88
ATOM     88  C   UNL A   1      30.441  27.212  23.920  1.00  0.00     0.040 A 
ATOM     89  C   UNL A   1      31.316  27.822  24.822  1.00  0.00     0.026 A 
ATOM     90  C   UNL A   1      29.542  28.018  23.213  1.00  0.00     0.039 A 
ATOM     91  C   UNL A   1      31.368  29.211  24.946  1.00  0.00     0.003 A 
ATOM     92  C   UNL A   1      29.552  29.416  23.352  1.00  0.00     0.058 A 
ATOM     93  C   UNL A   1      30.492  30.006  24.210  1.00  0.00     0.013 A 
BRANCH  92  94
ATOM     94  C   UNL A   1      28.561  30.275  22.613  1.00  0.00     0.416 C 
ATOM     95  F   UNL A   1      27.618  30.802  23.450  1.00  0.00    -0.166 F 
ATOM     96  F   UNL A   1      29.136  31.343  21.994  1.00  0.00    -0.166 F 
ATOM     97  F   UNL A   1      27.860  29.614  21.650  1.00  0.00    -0.166 F 
ENDBRANCH  92  94
ENDBRANCH  86  88
ENDBRANCH  82  86
ENDBRANCH  78  80
ENDBRANCH  77  78
ENDBRANCH  76  77
ENDBRANCH  75  76
ENDBRANCH  74  75
ENDBRANCH  73  74
ENDBRANCH   1  73
TORSDOF 23
ENDMDL
MODEL 3
REMARK VINA RESULT:      -8.5      4.533     10.435
REMARK SMILES O=C(OCCOCCOCCOC(=O)c1cccnc1Nc1cccc(C(F)(F)F)c1)c1ccc(-c2c3nc(c(-c4cc(S(=O)(=O)[O-])ccc4F)c4ccc([nH]4)c(-c4cc(S(=O)(=O)[O-])ccc4F)c4nc(c(-c5cc(S(=O)(=O)[O-])ccc5F)c5ccc2[nH]5)C=C4)C=C3)cc1
REMARK SMILES IDX 7 1 6 2 5 3 4 4 3 5 2 6 1 7 32 8 33 9 94 10 34 11 93 12
REMARK SMILES IDX 35 13 36 14 37 15 87 16 38 17 92 18 86 19 88 20 39 21 91 22
REMARK SMILES IDX 85 23 84 24 40 26 72 27 52 28 71 29 53 30 56 31 70 32 89 33
REMARK SMILES IDX 54 34 55 35 69 37 90 38 57 39 41 40 42 41 50 42 43 43 49 44
REMARK SMILES IDX 51 45 48 46 44 47 45 48 46 49 47 50 73 51 74 52 82 53 75 54
REMARK SMILES IDX 81 55 83 56 80 57 76 58 77 59 78 60 79 61 58 62 59 63 67 64
REMARK SMILES IDX 60 65 66 66 68 67 65 68 61 69 62 70 63 71 64 72 8 73 9 74
REMARK SMILES IDX 10 75 11 76 12 77 13 78 14 79 15 80 16 81 20 82 17 83 19 84
REMARK SMILES IDX 18 85 21 86 22 88 23 89 31 90 24 91 26 92 25 93 27 94 28 95
REMARK SMILES IDX 29 96 30 97
REMARK H PARENT 88 25 56 36 21 87
REMARK Flexibility Score: inf
ROOT
ATOM      1  C   UNL A   1      40.993  21.832  25.792  1.00  0.00     0.188 C 
ENDROOT
BRANCH   1   2
ATOM      2  O   UNL A   1      40.989  20.424  25.505  1.00  0.00    -0.376 OA
BRANCH   2   3
ATOM      3  C   UNL A   1      41.670  19.648  26.497  1.00  0.00     0.202 C 
BRANCH   3   4
ATOM      4  C   UNL A   1      42.897  18.892  25.956  1.00  0.00     0.261 C 
BRANCH   4   5
ATOM      5  O   UNL A   1      43.437  19.572  24.809  1.00  0.00    -0.460 OA
BRANCH   5   6
ATOM      6  C   UNL A   1      44.555  20.322  24.869  1.00  0.00     0.338 C 
ATOM      7  O   UNL A   1      45.665  19.811  24.807  1.00  0.00    -0.246 OA
BRANCH   6   8
ATOM      8  C   UNL A   1      44.370  21.720  25.365  1.00  0.00     0.060 A 
ATOM      9  C   UNL A   1      44.100  22.816  24.542  1.00  0.00     0.016 A 
ATOM     10  C   UNL A   1      44.512  21.936  26.743  1.00  0.00     0.016 A 
ATOM     11  C   UNL A   1      44.071  24.113  25.055  1.00  0.00     0.010 A 
ATOM     12  C   UNL A   1      44.452  23.227  27.271  1.00  0.00     0.010 A 
ATOM     13  C   UNL A   1      44.304  24.326  26.413  1.00  0.00    -0.014 A 
BRANCH  13  14
ATOM     14  C   UNL A   1      44.710  25.674  26.871  1.00  0.00     0.031 A 
ATOM     15  C   UNL A   1      43.640  26.554  27.453  1.00  0.00     0.074 A 
ATOM     16  C   UNL A   1      45.989  26.081  26.851  1.00  0.00     0.049 A 
ATOM     17  N   UNL A   1      43.690  27.810  27.804  1.00  0.00    -0.248 NA
ATOM     18  C   UNL A   1      42.331  25.916  27.665  1.00  0.00     0.031 C 
ATOM     19  C   UNL A   1      47.124  25.263  26.439  1.00  0.00     0.029 A 
ATOM     20  N   UNL A   1      46.541  27.291  27.182  1.00  0.00    -0.354 N 
ATOM     21  C   UNL A   1      42.413  28.118  28.261  1.00  0.00     0.074 A 
ATOM     22  C   UNL A   1      41.604  26.931  28.093  1.00  0.00     0.031 C 
ATOM     23  C   UNL A   1      48.239  26.010  26.510  1.00  0.00     0.029 A 
ATOM     24  C   UNL A   1      47.883  27.368  26.899  1.00  0.00     0.049 A 
ATOM     25  H   UNL A   1      46.029  28.030  27.582  1.00  0.00     0.167 HD
ATOM     26  C   UNL A   1      41.961  29.282  28.786  1.00  0.00     0.034 A 
ATOM     27  C   UNL A   1      48.716  28.428  26.894  1.00  0.00     0.034 A 
ATOM     28  C   UNL A   1      42.786  30.454  28.920  1.00  0.00     0.049 A 
ATOM     29  C   UNL A   1      48.175  29.762  27.337  1.00  0.00     0.074 A 
ATOM     30  C   UNL A   1      42.446  31.709  29.386  1.00  0.00     0.029 A 
ATOM     31  N   UNL A   1      44.132  30.509  28.570  1.00  0.00    -0.354 N 
ATOM     32  N   UNL A   1      46.956  30.066  27.719  1.00  0.00    -0.248 NA
ATOM     33  C   UNL A   1      49.115  30.888  27.363  1.00  0.00     0.031 C 
ATOM     34  C   UNL A   1      43.570  32.537  29.265  1.00  0.00     0.029 A 
ATOM     35  C   UNL A   1      44.630  31.781  28.787  1.00  0.00     0.049 A 
ATOM     36  H   UNL A   1      44.654  29.752  28.216  1.00  0.00     0.167 HD
ATOM     37  C   UNL A   1      46.990  31.411  28.069  1.00  0.00     0.074 A 
ATOM     38  C   UNL A   1      48.350  31.861  27.840  1.00  0.00     0.031 C 
ATOM     39  C   UNL A   1      45.995  32.197  28.554  1.00  0.00     0.034 A 
BRANCH  26  40
ATOM     40  C   UNL A   1      40.497  29.325  29.152  1.00  0.00     0.023 A 
ATOM     41  C   UNL A   1      40.074  29.257  30.494  1.00  0.00     0.031 A 
ATOM     42  C   UNL A   1      39.514  29.276  28.149  1.00  0.00     0.131 A 
ATOM     43  C   UNL A   1      38.725  29.008  30.788  1.00  0.00     0.055 A 
ATOM     44  C   UNL A   1      38.159  29.130  28.455  1.00  0.00     0.041 A 
ATOM     45  F   UNL A   1      39.859  29.312  26.853  1.00  0.00    -0.206 F 
ATOM     46  C   UNL A   1      37.761  28.966  29.779  1.00  0.00     0.022 A 
BRANCH  43  47
ATOM     47  S   UNL A   1      38.293  28.510  32.480  1.00  0.00     0.124 S 
ATOM     48  O   UNL A   1      39.294  29.228  33.267  1.00  0.00    -0.237 OA
ATOM     49  O   UNL A   1      36.921  28.986  32.608  1.00  0.00    -0.237 OA
ATOM     50  O   UNL A   1      38.454  27.057  32.462  1.00  0.00    -0.744 OA
ENDBRANCH  43  47
ENDBRANCH  26  40
BRANCH  27  51
ATOM     51  C   UNL A   1      50.105  28.275  26.377  1.00  0.00     0.023 A 
ATOM     52  C   UNL A   1      50.413  28.442  25.018  1.00  0.00     0.031 A 
ATOM     53  C   UNL A   1      51.160  27.968  27.259  1.00  0.00     0.131 A 
ATOM     54  C   UNL A   1      51.739  28.283  24.579  1.00  0.00     0.055 A 
ATOM     55  C   UNL A   1      52.479  27.841  26.823  1.00  0.00     0.041 A 
ATOM     56  F   UNL A   1      50.925  27.820  28.573  1.00  0.00    -0.206 F 
ATOM     57  C   UNL A   1      52.773  27.992  25.473  1.00  0.00     0.022 A 
BRANCH  54  58
ATOM     58  S   UNL A   1      52.098  28.443  22.808  1.00  0.00     0.124 S 
ATOM     59  O   UNL A   1      51.461  27.249  22.266  1.00  0.00    -0.237 OA
ATOM     60  O   UNL A   1      51.460  29.716  22.488  1.00  0.00    -0.237 OA
ATOM     61  O   UNL A   1      53.558  28.452  22.757  1.00  0.00    -0.744 OA
ENDBRANCH  54  58
ENDBRANCH  27  51
BRANCH  39  62
ATOM     62  C   UNL A   1      46.361  33.605  28.938  1.00  0.00     0.023 A 
ATOM     63  C   UNL A   1      46.225  34.678  28.043  1.00  0.00     0.031 A 
ATOM     64  C   UNL A   1      46.817  33.871  30.242  1.00  0.00     0.131 A 
ATOM     65  C   UNL A   1      46.570  35.972  28.458  1.00  0.00     0.055 A 
ATOM     66  C   UNL A   1      47.115  35.167  30.661  1.00  0.00     0.041 A 
ATOM     67  F   UNL A   1      46.962  32.876  31.131  1.00  0.00    -0.206 F 
ATOM     68  C   UNL A   1      46.997  36.226  29.766  1.00  0.00     0.022 A 
BRANCH  65  69
ATOM     69  S   UNL A   1      46.491  37.325  27.253  1.00  0.00     0.124 S 
ATOM     70  O   UNL A   1      46.836  36.640  26.010  1.00  0.00    -0.237 OA
ATOM     71  O   UNL A   1      45.108  37.772  27.372  1.00  0.00    -0.237 OA
ATOM     72  O   UNL A   1      47.492  38.273  27.737  1.00  0.00    -0.744 OA
ENDBRANCH  65  69
ENDBRANCH  39  62
ENDBRANCH  13  14
ENDBRANCH   6   8
ENDBRANCH   5   6
ENDBRANCH   4   5
ENDBRANCH   3   4
ENDBRANCH   2   3
ENDBRANCH   1   2
BRANCH   1  73
ATOM     73  C   UNL A   1      40.444  22.102  27.193  1.00  0.00     0.188 C 
BRANCH  73  74
ATOM     74  O   UNL A   1      39.180  22.753  27.315  1.00  0.00    -0.376 OA
BRANCH  74  75
ATOM     75  C   UNL A   1      38.628  23.365  26.160  1.00  0.00     0.202 C 
BRANCH  75  76
ATOM     76  C   UNL A   1      37.460  22.631  25.493  1.00  0.00     0.261 C 
BRANCH  76  77
ATOM     77  O   UNL A   1      36.154  22.888  26.035  1.00  0.00    -0.460 OA
BRANCH  77  78
ATOM     78  C   UNL A   1      35.267  23.408  25.153  1.00  0.00     0.341 C 
ATOM     79  O   UNL A   1      35.487  23.784  24.010  1.00  0.00    -0.246 OA
BRANCH  78  80
ATOM     80  C   UNL A   1      33.960  23.578  25.784  1.00  0.00     0.102 A 
ATOM     81  C   UNL A   1      33.479  24.883  25.941  1.00  0.00     0.021 A 
ATOM     82  C   UNL A   1      33.142  22.486  26.089  1.00  0.00     0.144 A 
ATOM     83  C   UNL A   1      32.188  25.073  26.414  1.00  0.00     0.021 A 
ATOM     84  N   UNL A   1      31.900  22.687  26.593  1.00  0.00    -0.238 NA
ATOM     85  C   UNL A   1      31.446  23.953  26.739  1.00  0.00     0.113 A 
BRANCH  82  86
ATOM     86  N   UNL A   1      33.618  21.162  25.968  1.00  0.00    -0.340 N 
ATOM     87  H   UNL A   1      34.200  20.829  26.688  1.00  0.00     0.168 HD
BRANCH  86  88
ATOM     88  C   UNL A   1      33.335  20.272  24.913  1.00  0.00     0.040 A 
ATOM     89  C   UNL A   1      32.440  20.654  23.911  1.00  0.00     0.026 A 
ATOM     90  C   UNL A   1      33.818  18.958  24.912  1.00  0.00     0.039 A 
ATOM     91  C   UNL A   1      32.109  19.782  22.873  1.00  0.00     0.003 A 
ATOM     92  C   UNL A   1      33.466  18.053  23.896  1.00  0.00     0.058 A 
ATOM     93  C   UNL A   1      32.624  18.488  22.862  1.00  0.00     0.013 A 
BRANCH  92  94
ATOM     94  C   UNL A   1      33.963  16.632  23.918  1.00  0.00     0.416 C 
ATOM     95  F   UNL A   1      34.384  16.219  22.685  1.00  0.00    -0.166 F 
ATOM     96  F   UNL A   1      35.029  16.451  24.747  1.00  0.00    -0.166 F 
ATOM     97  F   UNL A   1      33.027  15.721  24.303  1.00  0.00    -0.166 F 
ENDBRANCH  92  94
ENDBRANCH  86  88
ENDBRANCH  82  86
ENDBRANCH  78  80
ENDBRANCH  77  78
ENDBRANCH  76  77
ENDBRANCH  75  76
ENDBRANCH  74  75
ENDBRANCH  73  74
ENDBRANCH   1  73
TORSDOF 23
ENDMDL
