MODEL 1
REMARK VINA RESULT:     -12.2      0.000      0.000
REMARK SMILES O=C(OCCOCCOCCOC(=O)[C@H]1Cc2[nH]cnc2CN1C(=O)C[C@]12C[C@H]3C[C@H](C[C@H](C3)C1)C2)c1ccc(-c2c3nc(c(-c4cc(S(=O)(=O)[O-])ccc4F)c4ccc([nH]4)c(-c4cc(S(=O)(=O)[O-])ccc4F)c4nc(c(-c5cc(S(=O)(=O)[O-])ccc5F)c5ccc2[nH]5)C=C4)C=C3)cc1
REMARK SMILES IDX 7 1 6 2 5 3 4 4 3 5 2 6 1 7 37 8 38 9 99 10 39 11 98 12
REMARK SMILES IDX 40 13 41 14 42 15 92 16 43 17 97 18 91 19 93 20 44 21 96 22
REMARK SMILES IDX 90 23 89 24 45 26 77 27 57 28 76 29 58 30 61 31 75 32 94 33
REMARK SMILES IDX 59 34 60 35 74 37 95 38 62 39 46 40 47 41 55 42 48 43 54 44
REMARK SMILES IDX 56 45 53 46 49 47 50 48 51 49 52 50 78 51 79 52 87 53 80 54
REMARK SMILES IDX 86 55 88 56 85 57 81 58 82 59 83 60 84 61 63 62 64 63 72 64
REMARK SMILES IDX 65 65 71 66 73 67 70 68 66 69 67 70 68 71 69 72 8 73 9 74
REMARK SMILES IDX 10 75 11 76 12 77 13 78 14 79 15 80 16 81 23 82 17 83 22 84
REMARK SMILES IDX 18 85 21 86 19 87 20 89 24 90 25 91 26 92 27 93 28 94 35 95
REMARK SMILES IDX 36 96 29 97 33 98 31 99 30 100 34 101 32 102
REMARK H PARENT 93 25 61 36 18 88
REMARK Flexibility Score: inf
ROOT
ATOM      1  C   UNL A   1      32.442  29.858  26.782  1.00  0.00     0.188 C 
ENDROOT
BRANCH   1   2
ATOM      2  O   UNL A   1      33.704  30.538  26.895  1.00  0.00    -0.376 OA
BRANCH   2   3
ATOM      3  C   UNL A   1      33.683  31.684  27.746  1.00  0.00     0.202 C 
BRANCH   3   4
ATOM      4  C   UNL A   1      35.041  32.108  28.310  1.00  0.00     0.261 C 
BRANCH   4   5
ATOM      5  O   UNL A   1      36.104  31.178  28.086  1.00  0.00    -0.460 OA
BRANCH   5   6
ATOM      6  C   UNL A   1      36.705  30.408  29.018  1.00  0.00     0.338 C 
ATOM      7  O   UNL A   1      36.343  30.525  30.190  1.00  0.00    -0.246 OA
BRANCH   6   8
ATOM      8  C   UNL A   1      37.725  29.364  28.697  1.00  0.00     0.060 A 
ATOM      9  C   UNL A   1      38.160  28.338  29.541  1.00  0.00     0.016 A 
ATOM     10  C   UNL A   1      38.381  29.555  27.466  1.00  0.00     0.016 A 
ATOM     11  C   UNL A   1      39.372  27.718  29.303  1.00  0.00     0.010 A 
ATOM     12  C   UNL A   1      39.588  28.940  27.217  1.00  0.00     0.010 A 
ATOM     13  C   UNL A   1      40.118  28.122  28.204  1.00  0.00    -0.014 A 
BRANCH  13  14
ATOM     14  C   UNL A   1      41.515  27.752  28.166  1.00  0.00     0.031 A 
ATOM     15  C   UNL A   1      41.790  26.427  27.574  1.00  0.00     0.074 A 
ATOM     16  C   UNL A   1      42.444  28.636  28.585  1.00  0.00     0.049 A 
ATOM     17  N   UNL A   1      42.300  25.389  28.146  1.00  0.00    -0.248 NA
ATOM     18  C   UNL A   1      41.290  26.171  26.212  1.00  0.00     0.031 C 
ATOM     19  C   UNL A   1      42.245  30.045  28.947  1.00  0.00     0.029 A 
ATOM     20  N   UNL A   1      43.791  28.498  28.670  1.00  0.00    -0.354 N 
ATOM     21  C   UNL A   1      42.417  24.429  27.146  1.00  0.00     0.074 A 
ATOM     22  C   UNL A   1      41.595  24.883  26.057  1.00  0.00     0.031 C 
ATOM     23  C   UNL A   1      43.439  30.676  28.963  1.00  0.00     0.029 A 
ATOM     24  C   UNL A   1      44.491  29.698  28.735  1.00  0.00     0.049 A 
ATOM     25  H   UNL A   1      44.237  27.620  28.684  1.00  0.00     0.167 HD
ATOM     26  C   UNL A   1      43.388  23.477  27.196  1.00  0.00     0.034 A 
ATOM     27  C   UNL A   1      45.823  29.879  28.516  1.00  0.00     0.034 A 
ATOM     28  C   UNL A   1      43.876  23.306  28.546  1.00  0.00     0.049 A 
ATOM     29  C   UNL A   1      46.464  28.548  28.697  1.00  0.00     0.074 A 
ATOM     30  C   UNL A   1      43.270  22.975  29.745  1.00  0.00     0.029 A 
ATOM     31  N   UNL A   1      45.081  23.878  28.890  1.00  0.00    -0.354 N 
ATOM     32  N   UNL A   1      46.493  27.921  29.842  1.00  0.00    -0.248 NA
ATOM     33  C   UNL A   1      46.592  27.691  27.524  1.00  0.00     0.031 C 
ATOM     34  C   UNL A   1      43.881  23.828  30.710  1.00  0.00     0.029 A 
ATOM     35  C   UNL A   1      44.889  24.555  30.072  1.00  0.00     0.049 A 
ATOM     36  H   UNL A   1      45.924  23.813  28.385  1.00  0.00     0.167 HD
ATOM     37  C   UNL A   1      46.210  26.597  29.540  1.00  0.00     0.074 A 
ATOM     38  C   UNL A   1      46.363  26.500  28.088  1.00  0.00     0.031 C 
ATOM     39  C   UNL A   1      45.588  25.774  30.439  1.00  0.00     0.034 A 
BRANCH  26  40
ATOM     40  C   UNL A   1      44.133  22.970  25.982  1.00  0.00     0.023 A 
ATOM     41  C   UNL A   1      44.181  21.578  25.785  1.00  0.00     0.031 A 
ATOM     42  C   UNL A   1      45.018  23.732  25.182  1.00  0.00     0.131 A 
ATOM     43  C   UNL A   1      45.124  21.004  24.914  1.00  0.00     0.055 A 
ATOM     44  C   UNL A   1      45.905  23.161  24.268  1.00  0.00     0.041 A 
ATOM     45  F   UNL A   1      45.151  25.058  25.302  1.00  0.00    -0.206 F 
ATOM     46  C   UNL A   1      45.985  21.787  24.150  1.00  0.00     0.022 A 
BRANCH  43  47
ATOM     47  S   UNL A   1      45.328  19.205  24.933  1.00  0.00     0.124 S 
ATOM     48  O   UNL A   1      46.535  19.056  25.737  1.00  0.00    -0.237 OA
ATOM     49  O   UNL A   1      44.081  18.770  25.552  1.00  0.00    -0.237 OA
ATOM     50  O   UNL A   1      45.473  18.867  23.518  1.00  0.00    -0.744 OA
ENDBRANCH  43  47
ENDBRANCH  26  40
BRANCH  27  51
ATOM     51  C   UNL A   1      46.443  31.021  27.778  1.00  0.00     0.023 A 
ATOM     52  C   UNL A   1      45.694  32.002  27.091  1.00  0.00     0.031 A 
ATOM     53  C   UNL A   1      47.826  31.281  27.928  1.00  0.00     0.131 A 
ATOM     54  C   UNL A   1      46.333  33.161  26.580  1.00  0.00     0.055 A 
ATOM     55  C   UNL A   1      48.451  32.419  27.415  1.00  0.00     0.041 A 
ATOM     56  F   UNL A   1      48.612  30.472  28.655  1.00  0.00    -0.206 F 
ATOM     57  C   UNL A   1      47.704  33.370  26.744  1.00  0.00     0.022 A 
BRANCH  54  58
ATOM     58  S   UNL A   1      45.365  34.474  25.762  1.00  0.00     0.124 S 
ATOM     59  O   UNL A   1      45.502  35.588  26.700  1.00  0.00    -0.237 OA
ATOM     60  O   UNL A   1      46.038  34.615  24.485  1.00  0.00    -0.237 OA
ATOM     61  O   UNL A   1      44.015  33.906  25.687  1.00  0.00    -0.744 OA
ENDBRANCH  54  58
ENDBRANCH  27  51
BRANCH  39  62
ATOM     62  C   UNL A   1      45.427  26.251  31.872  1.00  0.00     0.023 A 
ATOM     63  C   UNL A   1      44.281  26.904  32.388  1.00  0.00     0.031 A 
ATOM     64  C   UNL A   1      46.435  25.893  32.786  1.00  0.00     0.131 A 
ATOM     65  C   UNL A   1      44.187  27.178  33.769  1.00  0.00     0.055 A 
ATOM     66  C   UNL A   1      46.328  26.150  34.152  1.00  0.00     0.041 A 
ATOM     67  F   UNL A   1      47.532  25.241  32.367  1.00  0.00    -0.206 F 
ATOM     68  C   UNL A   1      45.205  26.799  34.649  1.00  0.00     0.022 A 
BRANCH  65  69
ATOM     69  S   UNL A   1      42.735  28.047  34.454  1.00  0.00     0.124 S 
ATOM     70  O   UNL A   1      42.888  27.884  35.895  1.00  0.00    -0.237 OA
ATOM     71  O   UNL A   1      42.909  29.403  33.941  1.00  0.00    -0.237 OA
ATOM     72  O   UNL A   1      41.602  27.321  33.876  1.00  0.00    -0.744 OA
ENDBRANCH  65  69
ENDBRANCH  39  62
ENDBRANCH  13  14
ENDBRANCH   6   8
ENDBRANCH   5   6
ENDBRANCH   4   5
ENDBRANCH   3   4
ENDBRANCH   2   3
ENDBRANCH   1   2
BRANCH   1  73
ATOM     73  C   UNL A   1      31.609  30.349  25.610  1.00  0.00     0.188 C 
BRANCH  73  74
ATOM     74  O   UNL A   1      31.398  29.319  24.652  1.00  0.00    -0.376 OA
BRANCH  74  75
ATOM     75  C   UNL A   1      30.284  29.526  23.785  1.00  0.00     0.202 C 
BRANCH  75  76
ATOM     76  C   UNL A   1      29.705  28.279  23.096  1.00  0.00     0.261 C 
BRANCH  76  77
ATOM     77  O   UNL A   1      30.509  27.816  21.983  1.00  0.00    -0.462 OA
BRANCH  77  78
ATOM     78  C   UNL A   1      31.145  26.632  22.120  1.00  0.00     0.329 C 
ATOM     79  O   UNL A   1      31.771  26.096  21.208  1.00  0.00    -0.250 OA
BRANCH  78  80
ATOM     80  C   UNL A   1      31.192  26.073  23.561  1.00  0.00     0.201 C 
ATOM     81  C   UNL A   1      30.712  24.564  23.544  1.00  0.00     0.093 C 
ATOM     82  N   UNL A   1      32.143  26.398  24.719  1.00  0.00    -0.322 N 
ATOM     83  C   UNL A   1      30.667  24.047  24.936  1.00  0.00     0.042 A 
ATOM     84  C   UNL A   1      31.466  26.188  26.037  1.00  0.00     0.178 C 
ATOM     85  N   UNL A   1      30.399  22.782  25.373  1.00  0.00    -0.348 N 
ATOM     86  C   UNL A   1      30.993  24.768  26.065  1.00  0.00     0.081 A 
ATOM     87  C   UNL A   1      30.513  22.806  26.740  1.00  0.00     0.197 A 
ATOM     88  H   UNL A   1      30.169  22.003  24.815  1.00  0.00     0.167 HD
ATOM     89  N   UNL A   1      30.856  23.997  27.185  1.00  0.00    -0.240 NA
BRANCH  82  90
ATOM     90  C   UNL A   1      33.518  26.577  24.838  1.00  0.00     0.224 C 
ATOM     91  O   UNL A   1      34.109  27.382  24.100  1.00  0.00    -0.275 OA
BRANCH  90  92
ATOM     92  C   UNL A   1      34.423  25.782  25.766  1.00  0.00     0.107 C 
BRANCH  92  93
ATOM     93  C   UNL A   1      34.815  24.350  25.333  1.00  0.00    -0.020 C 
ATOM     94  C   UNL A   1      36.352  24.197  25.470  1.00  0.00     0.011 C 
ATOM     95  C   UNL A   1      34.390  24.126  23.885  1.00  0.00     0.011 C 
ATOM     96  C   UNL A   1      34.184  23.202  26.165  1.00  0.00     0.011 C 
ATOM     97  C   UNL A   1      36.821  22.849  24.907  1.00  0.00    -0.010 C 
ATOM     98  C   UNL A   1      34.867  22.801  23.318  1.00  0.00    -0.010 C 
ATOM     99  C   UNL A   1      34.635  21.821  25.607  1.00  0.00    -0.010 C 
ATOM    100  C   UNL A   1      36.169  21.701  25.685  1.00  0.00     0.007 C 
ATOM    101  C   UNL A   1      36.390  22.731  23.445  1.00  0.00     0.007 C 
ATOM    102  C   UNL A   1      34.214  21.684  24.132  1.00  0.00     0.007 C 
ENDBRANCH  92  93
ENDBRANCH  90  92
ENDBRANCH  82  90
ENDBRANCH  78  80
ENDBRANCH  77  78
ENDBRANCH  76  77
ENDBRANCH  75  76
ENDBRANCH  74  75
ENDBRANCH  73  74
ENDBRANCH   1  73
TORSDOF 23
ENDMDL
MODEL 2
REMARK VINA RESULT:     -11.8      4.281     10.238
REMARK SMILES O=C(OCCOCCOCCOC(=O)[C@H]1Cc2[nH]cnc2CN1C(=O)C[C@]12C[C@H]3C[C@H](C[C@H](C3)C1)C2)c1ccc(-c2c3nc(c(-c4cc(S(=O)(=O)[O-])ccc4F)c4ccc([nH]4)c(-c4cc(S(=O)(=O)[O-])ccc4F)c4nc(c(-c5cc(S(=O)(=O)[O-])ccc5F)c5ccc2[nH]5)C=C4)C=C3)cc1
REMARK SMILES IDX 7 1 6 2 5 3 4 4 3 5 2 6 1 7 37 8 38 9 99 10 39 11 98 12
REMARK SMILES IDX 40 13 41 14 42 15 92 16 43 17 97 18 91 19 93 20 44 21 96 22
REMARK SMILES IDX 90 23 89 24 45 26 77 27 57 28 76 29 58 30 61 31 75 32 94 33
REMARK SMILES IDX 59 34 60 35 74 37 95 38 62 39 46 40 47 41 55 42 48 43 54 44
REMARK SMILES IDX 56 45 53 46 49 47 50 48 51 49 52 50 78 51 79 52 87 53 80 54
REMARK SMILES IDX 86 55 88 56 85 57 81 58 82 59 83 60 84 61 63 62 64 63 72 64
REMARK SMILES IDX 65 65 71 66 73 67 70 68 66 69 67 70 68 71 69 72 8 73 9 74
REMARK SMILES IDX 10 75 11 76 12 77 13 78 14 79 15 80 16 81 23 82 17 83 22 84
REMARK SMILES IDX 18 85 21 86 19 87 20 89 24 90 25 91 26 92 27 93 28 94 35 95
REMARK SMILES IDX 36 96 29 97 33 98 31 99 30 100 34 101 32 102
REMARK H PARENT 93 25 61 36 18 88
REMARK Flexibility Score: inf
ROOT
ATOM      1  C   UNL A   1      39.908  20.925  26.446  1.00  0.00     0.188 C 
ENDROOT
BRANCH   1   2
ATOM      2  O   UNL A   1      41.198  21.197  25.872  1.00  0.00    -0.376 OA
BRANCH   2   3
ATOM      3  C   UNL A   1      42.046  22.010  26.682  1.00  0.00     0.202 C 
BRANCH   3   4
ATOM      4  C   UNL A   1      42.348  23.403  26.125  1.00  0.00     0.261 C 
BRANCH   4   5
ATOM      5  O   UNL A   1      41.309  24.366  26.315  1.00  0.00    -0.460 OA
BRANCH   5   6
ATOM      6  C   UNL A   1      41.343  25.665  25.947  1.00  0.00     0.338 C 
ATOM      7  O   UNL A   1      41.927  25.958  24.903  1.00  0.00    -0.246 OA
BRANCH   6   8
ATOM      8  C   UNL A   1      40.640  26.754  26.691  1.00  0.00     0.060 A 
ATOM      9  C   UNL A   1      40.678  28.121  26.398  1.00  0.00     0.016 A 
ATOM     10  C   UNL A   1      40.002  26.332  27.873  1.00  0.00     0.016 A 
ATOM     11  C   UNL A   1      40.353  29.044  27.373  1.00  0.00     0.010 A 
ATOM     12  C   UNL A   1      39.671  27.243  28.851  1.00  0.00     0.010 A 
ATOM     13  C   UNL A   1      39.969  28.579  28.623  1.00  0.00    -0.014 A 
BRANCH  13  14
ATOM     14  C   UNL A   1      39.990  29.514  29.726  1.00  0.00     0.031 A 
ATOM     15  C   UNL A   1      38.783  30.356  29.849  1.00  0.00     0.074 A 
ATOM     16  C   UNL A   1      41.034  29.504  30.580  1.00  0.00     0.049 A 
ATOM     17  N   UNL A   1      38.691  31.638  29.738  1.00  0.00    -0.248 NA
ATOM     18  C   UNL A   1      37.483  29.672  29.954  1.00  0.00     0.031 C 
ATOM     19  C   UNL A   1      42.132  28.530  30.646  1.00  0.00     0.029 A 
ATOM     20  N   UNL A   1      41.282  30.300  31.651  1.00  0.00    -0.354 N 
ATOM     21  C   UNL A   1      37.362  31.944  30.010  1.00  0.00     0.074 A 
ATOM     22  C   UNL A   1      36.640  30.704  29.920  1.00  0.00     0.031 C 
ATOM     23  C   UNL A   1      42.765  28.649  31.835  1.00  0.00     0.029 A 
ATOM     24  C   UNL A   1      42.202  29.779  32.555  1.00  0.00     0.049 A 
ATOM     25  H   UNL A   1      40.846  31.174  31.777  1.00  0.00     0.167 HD
ATOM     26  C   UNL A   1      37.013  33.144  30.546  1.00  0.00     0.034 A 
ATOM     27  C   UNL A   1      42.407  30.191  33.837  1.00  0.00     0.034 A 
ATOM     28  C   UNL A   1      38.042  34.133  30.316  1.00  0.00     0.049 A 
ATOM     29  C   UNL A   1      41.862  31.572  33.929  1.00  0.00     0.074 A 
ATOM     30  C   UNL A   1      38.641  34.639  29.177  1.00  0.00     0.029 A 
ATOM     31  N   UNL A   1      38.892  34.454  31.352  1.00  0.00    -0.354 N 
ATOM     32  N   UNL A   1      42.366  32.582  33.270  1.00  0.00    -0.248 NA
ATOM     33  C   UNL A   1      40.465  31.728  34.316  1.00  0.00     0.031 C 
ATOM     34  C   UNL A   1      40.022  34.751  29.510  1.00  0.00     0.029 A 
ATOM     35  C   UNL A   1      40.175  34.405  30.855  1.00  0.00     0.049 A 
ATOM     36  H   UNL A   1      38.631  34.677  32.274  1.00  0.00     0.167 HD
ATOM     37  C   UNL A   1      41.271  33.287  32.790  1.00  0.00     0.074 A 
ATOM     38  C   UNL A   1      40.127  32.761  33.535  1.00  0.00     0.031 C 
ATOM     39  C   UNL A   1      41.338  34.011  31.631  1.00  0.00     0.034 A 
BRANCH  26  40
ATOM     40  C   UNL A   1      35.918  33.320  31.576  1.00  0.00     0.023 A 
ATOM     41  C   UNL A   1      34.912  34.262  31.297  1.00  0.00     0.031 A 
ATOM     42  C   UNL A   1      35.956  32.840  32.906  1.00  0.00     0.131 A 
ATOM     43  C   UNL A   1      34.074  34.747  32.317  1.00  0.00     0.055 A 
ATOM     44  C   UNL A   1      35.077  33.273  33.900  1.00  0.00     0.041 A 
ATOM     45  F   UNL A   1      36.898  32.000  33.352  1.00  0.00    -0.206 F 
ATOM     46  C   UNL A   1      34.147  34.256  33.619  1.00  0.00     0.022 A 
BRANCH  43  47
ATOM     47  S   UNL A   1      33.008  36.164  31.953  1.00  0.00     0.124 S 
ATOM     48  O   UNL A   1      31.686  35.617  32.238  1.00  0.00    -0.237 OA
ATOM     49  O   UNL A   1      33.509  37.163  32.890  1.00  0.00    -0.237 OA
ATOM     50  O   UNL A   1      33.281  36.438  30.543  1.00  0.00    -0.744 OA
ENDBRANCH  43  47
ENDBRANCH  26  40
BRANCH  27  51
ATOM     51  C   UNL A   1      42.659  29.303  35.013  1.00  0.00     0.023 A 
ATOM     52  C   UNL A   1      41.892  28.152  35.297  1.00  0.00     0.031 A 
ATOM     53  C   UNL A   1      43.838  29.475  35.778  1.00  0.00     0.131 A 
ATOM     54  C   UNL A   1      42.305  27.250  36.312  1.00  0.00     0.055 A 
ATOM     55  C   UNL A   1      44.234  28.589  36.782  1.00  0.00     0.041 A 
ATOM     56  F   UNL A   1      44.696  30.473  35.521  1.00  0.00    -0.206 F 
ATOM     57  C   UNL A   1      43.471  27.467  37.049  1.00  0.00     0.022 A 
BRANCH  54  58
ATOM     58  S   UNL A   1      41.368  25.718  36.634  1.00  0.00     0.124 S 
ATOM     59  O   UNL A   1      40.503  26.114  37.746  1.00  0.00    -0.237 OA
ATOM     60  O   UNL A   1      40.716  25.472  35.362  1.00  0.00    -0.237 OA
ATOM     61  O   UNL A   1      42.409  24.750  36.990  1.00  0.00    -0.744 OA
ENDBRANCH  54  58
ENDBRANCH  27  51
BRANCH  39  62
ATOM     62  C   UNL A   1      42.696  34.243  30.994  1.00  0.00     0.023 A 
ATOM     63  C   UNL A   1      43.227  33.495  29.915  1.00  0.00     0.031 A 
ATOM     64  C   UNL A   1      43.422  35.371  31.418  1.00  0.00     0.131 A 
ATOM     65  C   UNL A   1      44.441  33.888  29.313  1.00  0.00     0.055 A 
ATOM     66  C   UNL A   1      44.612  35.765  30.808  1.00  0.00     0.041 A 
ATOM     67  F   UNL A   1      42.957  36.143  32.415  1.00  0.00    -0.206 F 
ATOM     68  C   UNL A   1      45.130  35.021  29.755  1.00  0.00     0.022 A 
BRANCH  65  69
ATOM     69  S   UNL A   1      45.162  32.924  27.941  1.00  0.00     0.124 S 
ATOM     70  O   UNL A   1      44.255  31.790  27.805  1.00  0.00    -0.237 OA
ATOM     71  O   UNL A   1      45.153  33.887  26.842  1.00  0.00    -0.237 OA
ATOM     72  O   UNL A   1      46.498  32.580  28.433  1.00  0.00    -0.744 OA
ENDBRANCH  65  69
ENDBRANCH  39  62
ENDBRANCH  13  14
ENDBRANCH   6   8
ENDBRANCH   5   6
ENDBRANCH   4   5
ENDBRANCH   3   4
ENDBRANCH   2   3
ENDBRANCH   1   2
BRANCH   1  73
ATOM     73  C   UNL A   1      38.759  21.411  25.577  1.00  0.00     0.188 C 
BRANCH  73  74
ATOM     74  O   UNL A   1      37.881  22.263  26.302  1.00  0.00    -0.376 OA
BRANCH  74  75
ATOM     75  C   UNL A   1      37.721  23.568  25.749  1.00  0.00     0.202 C 
BRANCH  75  76
ATOM     76  C   UNL A   1      36.690  23.717  24.617  1.00  0.00     0.261 C 
BRANCH  76  77
ATOM     77  O   UNL A   1      35.381  24.124  25.087  1.00  0.00    -0.462 OA
BRANCH  77  78
ATOM     78  C   UNL A   1      34.726  23.285  25.918  1.00  0.00     0.329 C 
ATOM     79  O   UNL A   1      34.662  23.457  27.133  1.00  0.00    -0.250 OA
BRANCH  78  80
ATOM     80  C   UNL A   1      33.898  22.181  25.220  1.00  0.00     0.201 C 
ATOM     81  C   UNL A   1      34.111  20.813  25.989  1.00  0.00     0.093 C 
ATOM     82  N   UNL A   1      32.555  22.265  24.484  1.00  0.00    -0.322 N 
ATOM     83  C   UNL A   1      33.392  19.729  25.272  1.00  0.00     0.042 A 
ATOM     84  C   UNL A   1      32.458  21.205  23.433  1.00  0.00     0.178 C 
ATOM     85  N   UNL A   1      33.233  18.421  25.632  1.00  0.00    -0.348 N 
ATOM     86  C   UNL A   1      32.655  19.888  24.119  1.00  0.00     0.081 A 
ATOM     87  C   UNL A   1      32.465  17.837  24.657  1.00  0.00     0.197 A 
ATOM     88  H   UNL A   1      33.598  17.983  26.435  1.00  0.00     0.167 HD
ATOM     89  N   UNL A   1      32.114  18.697  23.724  1.00  0.00    -0.240 NA
BRANCH  82  90
ATOM     90  C   UNL A   1      31.340  22.897  24.732  1.00  0.00     0.224 C 
ATOM     91  O   UNL A   1      30.630  22.533  25.683  1.00  0.00    -0.275 OA
BRANCH  90  92
ATOM     92  C   UNL A   1      30.729  23.982  23.860  1.00  0.00     0.107 C 
BRANCH  92  93
ATOM     93  C   UNL A   1      31.286  25.417  24.006  1.00  0.00    -0.020 C 
ATOM     94  C   UNL A   1      30.098  26.413  23.959  1.00  0.00     0.011 C 
ATOM     95  C   UNL A   1      32.256  25.701  22.863  1.00  0.00     0.011 C 
ATOM     96  C   UNL A   1      32.051  25.709  25.323  1.00  0.00     0.011 C 
ATOM     97  C   UNL A   1      30.599  27.864  23.939  1.00  0.00    -0.010 C 
ATOM     98  C   UNL A   1      32.741  27.139  22.830  1.00  0.00    -0.010 C 
ATOM     99  C   UNL A   1      32.581  27.173  25.325  1.00  0.00    -0.010 C 
ATOM    100  C   UNL A   1      31.401  28.157  25.212  1.00  0.00     0.007 C 
ATOM    101  C   UNL A   1      31.527  28.065  22.742  1.00  0.00     0.007 C 
ATOM    102  C   UNL A   1      33.515  27.399  24.122  1.00  0.00     0.007 C 
ENDBRANCH  92  93
ENDBRANCH  90  92
ENDBRANCH  82  90
ENDBRANCH  78  80
ENDBRANCH  77  78
ENDBRANCH  76  77
ENDBRANCH  75  76
ENDBRANCH  74  75
ENDBRANCH  73  74
ENDBRANCH   1  73
TORSDOF 23
ENDMDL
MODEL 3
REMARK VINA RESULT:     -11.5      1.790      2.138
REMARK SMILES O=C(OCCOCCOCCOC(=O)[C@H]1Cc2[nH]cnc2CN1C(=O)C[C@]12C[C@H]3C[C@H](C[C@H](C3)C1)C2)c1ccc(-c2c3nc(c(-c4cc(S(=O)(=O)[O-])ccc4F)c4ccc([nH]4)c(-c4cc(S(=O)(=O)[O-])ccc4F)c4nc(c(-c5cc(S(=O)(=O)[O-])ccc5F)c5ccc2[nH]5)C=C4)C=C3)cc1
REMARK SMILES IDX 7 1 6 2 5 3 4 4 3 5 2 6 1 7 37 8 38 9 99 10 39 11 98 12
REMARK SMILES IDX 40 13 41 14 42 15 92 16 43 17 97 18 91 19 93 20 44 21 96 22
REMARK SMILES IDX 90 23 89 24 45 26 77 27 57 28 76 29 58 30 61 31 75 32 94 33
REMARK SMILES IDX 59 34 60 35 74 37 95 38 62 39 46 40 47 41 55 42 48 43 54 44
REMARK SMILES IDX 56 45 53 46 49 47 50 48 51 49 52 50 78 51 79 52 87 53 80 54
REMARK SMILES IDX 86 55 88 56 85 57 81 58 82 59 83 60 84 61 63 62 64 63 72 64
REMARK SMILES IDX 65 65 71 66 73 67 70 68 66 69 67 70 68 71 69 72 8 73 9 74
REMARK SMILES IDX 10 75 11 76 12 77 13 78 14 79 15 80 16 81 23 82 17 83 22 84
REMARK SMILES IDX 18 85 21 86 19 87 20 89 24 90 25 91 26 92 27 93 28 94 35 95
REMARK SMILES IDX 36 96 29 97 33 98 31 99 30 100 34 101 32 102
REMARK H PARENT 93 25 61 36 18 88
REMARK Flexibility Score: inf
ROOT
ATOM      1  C   UNL A   1      31.476  31.263  26.131  1.00  0.00     0.188 C 
ENDROOT
BRANCH   1   2
ATOM      2  O   UNL A   1      32.345  31.563  27.238  1.00  0.00    -0.376 OA
BRANCH   2   3
ATOM      3  C   UNL A   1      33.527  30.764  27.293  1.00  0.00     0.202 C 
BRANCH   3   4
ATOM      4  C   UNL A   1      34.773  31.471  27.832  1.00  0.00     0.261 C 
BRANCH   4   5
ATOM      5  O   UNL A   1      35.981  30.712  27.745  1.00  0.00    -0.460 OA
BRANCH   5   6
ATOM      6  C   UNL A   1      36.685  30.204  28.779  1.00  0.00     0.338 C 
ATOM      7  O   UNL A   1      36.348  30.519  29.922  1.00  0.00    -0.246 OA
BRANCH   6   8
ATOM      8  C   UNL A   1      37.796  29.218  28.620  1.00  0.00     0.060 A 
ATOM      9  C   UNL A   1      38.162  28.221  29.529  1.00  0.00     0.016 A 
ATOM     10  C   UNL A   1      38.611  29.440  27.492  1.00  0.00     0.016 A 
ATOM     11  C   UNL A   1      39.428  27.669  29.474  1.00  0.00     0.010 A 
ATOM     12  C   UNL A   1      39.873  28.893  27.425  1.00  0.00     0.010 A 
ATOM     13  C   UNL A   1      40.300  28.110  28.488  1.00  0.00    -0.014 A 
BRANCH  13  14
ATOM     14  C   UNL A   1      41.707  27.819  28.653  1.00  0.00     0.031 A 
ATOM     15  C   UNL A   1      42.164  26.576  28.000  1.00  0.00     0.074 A 
ATOM     16  C   UNL A   1      42.491  28.703  29.302  1.00  0.00     0.049 A 
ATOM     17  N   UNL A   1      42.643  25.514  28.554  1.00  0.00    -0.248 NA
ATOM     18  C   UNL A   1      41.912  26.433  26.556  1.00  0.00     0.031 C 
ATOM     19  C   UNL A   1      42.140  30.057  29.751  1.00  0.00     0.029 A 
ATOM     20  N   UNL A   1      43.813  28.628  29.601  1.00  0.00    -0.354 N 
ATOM     21  C   UNL A   1      42.987  24.667  27.506  1.00  0.00     0.074 A 
ATOM     22  C   UNL A   1      42.326  25.184  26.339  1.00  0.00     0.031 C 
ATOM     23  C   UNL A   1      43.271  30.745  30.026  1.00  0.00     0.029 A 
ATOM     24  C   UNL A   1      44.409  29.851  29.892  1.00  0.00     0.049 A 
ATOM     25  H   UNL A   1      44.309  27.777  29.611  1.00  0.00     0.167 HD
ATOM     26  C   UNL A   1      43.999  23.766  27.633  1.00  0.00     0.034 A 
ATOM     27  C   UNL A   1      45.743  30.121  29.919  1.00  0.00     0.034 A 
ATOM     28  C   UNL A   1      44.270  23.487  29.025  1.00  0.00     0.049 A 
ATOM     29  C   UNL A   1      46.435  28.815  30.085  1.00  0.00     0.074 A 
ATOM     30  C   UNL A   1      43.501  23.006  30.069  1.00  0.00     0.029 A 
ATOM     31  N   UNL A   1      45.362  24.082  29.618  1.00  0.00    -0.354 N 
ATOM     32  N   UNL A   1      46.320  28.078  31.157  1.00  0.00    -0.248 NA
ATOM     33  C   UNL A   1      46.812  28.087  28.878  1.00  0.00     0.031 C 
ATOM     34  C   UNL A   1      43.886  23.788  31.197  1.00  0.00     0.029 A 
ATOM     35  C   UNL A   1      44.932  24.627  30.807  1.00  0.00     0.049 A 
ATOM     36  H   UNL A   1      46.278  24.112  29.260  1.00  0.00     0.167 HD
ATOM     37  C   UNL A   1      46.180  26.778  30.694  1.00  0.00     0.074 A 
ATOM     38  C   UNL A   1      46.575  26.835  29.286  1.00  0.00     0.031 C 
ATOM     39  C   UNL A   1      45.478  25.838  31.396  1.00  0.00     0.034 A 
BRANCH  26  40
ATOM     40  C   UNL A   1      44.966  23.423  26.522  1.00  0.00     0.023 A 
ATOM     41  C   UNL A   1      45.924  24.392  26.173  1.00  0.00     0.031 A 
ATOM     42  C   UNL A   1      44.828  22.345  25.616  1.00  0.00     0.131 A 
ATOM     43  C   UNL A   1      46.614  24.317  24.950  1.00  0.00     0.055 A 
ATOM     44  C   UNL A   1      45.566  22.239  24.435  1.00  0.00     0.041 A 
ATOM     45  F   UNL A   1      43.910  21.382  25.762  1.00  0.00    -0.206 F 
ATOM     46  C   UNL A   1      46.444  23.245  24.079  1.00  0.00     0.022 A 
BRANCH  43  47
ATOM     47  S   UNL A   1      47.604  25.743  24.434  1.00  0.00     0.124 S 
ATOM     48  O   UNL A   1      46.593  26.792  24.367  1.00  0.00    -0.237 OA
ATOM     49  O   UNL A   1      48.571  25.844  25.521  1.00  0.00    -0.237 OA
ATOM     50  O   UNL A   1      48.154  25.323  23.146  1.00  0.00    -0.744 OA
ENDBRANCH  43  47
ENDBRANCH  26  40
BRANCH  27  51
ATOM     51  C   UNL A   1      46.397  31.363  29.403  1.00  0.00     0.023 A 
ATOM     52  C   UNL A   1      46.100  31.933  28.145  1.00  0.00     0.031 A 
ATOM     53  C   UNL A   1      47.197  32.144  30.271  1.00  0.00     0.131 A 
ATOM     54  C   UNL A   1      46.609  33.212  27.802  1.00  0.00     0.055 A 
ATOM     55  C   UNL A   1      47.703  33.398  29.925  1.00  0.00     0.041 A 
ATOM     56  F   UNL A   1      47.451  31.749  31.528  1.00  0.00    -0.206 F 
ATOM     57  C   UNL A   1      47.404  33.942  28.688  1.00  0.00     0.022 A 
BRANCH  54  58
ATOM     58  S   UNL A   1      46.168  33.994  26.214  1.00  0.00     0.124 S 
ATOM     59  O   UNL A   1      45.361  32.956  25.572  1.00  0.00    -0.237 OA
ATOM     60  O   UNL A   1      45.468  35.193  26.634  1.00  0.00    -0.237 OA
ATOM     61  O   UNL A   1      47.468  34.231  25.578  1.00  0.00    -0.744 OA
ENDBRANCH  54  58
ENDBRANCH  27  51
BRANCH  39  62
ATOM     62  C   UNL A   1      45.052  26.159  32.818  1.00  0.00     0.023 A 
ATOM     63  C   UNL A   1      43.821  26.757  33.183  1.00  0.00     0.031 A 
ATOM     64  C   UNL A   1      45.883  25.702  33.857  1.00  0.00     0.131 A 
ATOM     65  C   UNL A   1      43.474  26.883  34.545  1.00  0.00     0.055 A 
ATOM     66  C   UNL A   1      45.527  25.812  35.200  1.00  0.00     0.041 A 
ATOM     67  F   UNL A   1      47.049  25.096  33.578  1.00  0.00    -0.206 F 
ATOM     68  C   UNL A   1      44.322  26.408  35.551  1.00  0.00     0.022 A 
BRANCH  65  69
ATOM     69  S   UNL A   1      41.909  27.677  35.044  1.00  0.00     0.124 S 
ATOM     70  O   UNL A   1      42.343  28.838  35.812  1.00  0.00    -0.237 OA
ATOM     71  O   UNL A   1      41.276  27.960  33.758  1.00  0.00    -0.237 OA
ATOM     72  O   UNL A   1      41.238  26.641  35.833  1.00  0.00    -0.744 OA
ENDBRANCH  65  69
ENDBRANCH  39  62
ENDBRANCH  13  14
ENDBRANCH   6   8
ENDBRANCH   5   6
ENDBRANCH   4   5
ENDBRANCH   3   4
ENDBRANCH   2   3
ENDBRANCH   1   2
BRANCH   1  73
ATOM     73  C   UNL A   1      31.532  29.803  25.714  1.00  0.00     0.188 C 
BRANCH  73  74
ATOM     74  O   UNL A   1      31.586  29.666  24.299  1.00  0.00    -0.376 OA
BRANCH  74  75
ATOM     75  C   UNL A   1      30.318  29.676  23.648  1.00  0.00     0.202 C 
BRANCH  75  76
ATOM     76  C   UNL A   1      30.262  29.067  22.236  1.00  0.00     0.261 C 
BRANCH  76  77
ATOM     77  O   UNL A   1      30.102  27.627  22.240  1.00  0.00    -0.462 OA
BRANCH  77  78
ATOM     78  C   UNL A   1      31.196  26.877  22.493  1.00  0.00     0.329 C 
ATOM     79  O   UNL A   1      32.180  26.852  21.757  1.00  0.00    -0.250 OA
BRANCH  78  80
ATOM     80  C   UNL A   1      31.212  26.181  23.874  1.00  0.00     0.201 C 
ATOM     81  C   UNL A   1      30.747  24.677  23.699  1.00  0.00     0.093 C 
ATOM     82  N   UNL A   1      32.129  26.399  25.083  1.00  0.00    -0.322 N 
ATOM     83  C   UNL A   1      30.672  24.028  25.033  1.00  0.00     0.042 A 
ATOM     84  C   UNL A   1      31.420  26.057  26.356  1.00  0.00     0.178 C 
ATOM     85  N   UNL A   1      30.404  22.724  25.338  1.00  0.00    -0.348 N 
ATOM     86  C   UNL A   1      30.961  24.638  26.234  1.00  0.00     0.081 A 
ATOM     87  C   UNL A   1      30.482  22.616  26.704  1.00  0.00     0.197 A 
ATOM     88  H   UNL A   1      30.196  22.001  24.702  1.00  0.00     0.167 HD
ATOM     89  N   UNL A   1      30.803  23.761  27.270  1.00  0.00    -0.240 NA
BRANCH  82  90
ATOM     90  C   UNL A   1      33.499  26.576  25.255  1.00  0.00     0.224 C 
ATOM     91  O   UNL A   1      34.083  27.513  24.689  1.00  0.00    -0.275 OA
BRANCH  90  92
ATOM     92  C   UNL A   1      34.407  25.638  26.035  1.00  0.00     0.107 C 
BRANCH  92  93
ATOM     93  C   UNL A   1      34.848  24.326  25.344  1.00  0.00    -0.020 C 
ATOM     94  C   UNL A   1      34.159  23.137  26.062  1.00  0.00     0.011 C 
ATOM     95  C   UNL A   1      36.364  24.191  25.438  1.00  0.00     0.011 C 
ATOM     96  C   UNL A   1      34.481  24.204  23.842  1.00  0.00     0.011 C 
ATOM     97  C   UNL A   1      34.678  21.797  25.525  1.00  0.00    -0.010 C 
ATOM     98  C   UNL A   1      36.881  22.860  24.923  1.00  0.00    -0.010 C 
ATOM     99  C   UNL A   1      35.007  22.856  23.267  1.00  0.00    -0.010 C 
ATOM    100  C   UNL A   1      34.369  21.679  24.028  1.00  0.00     0.007 C 
ATOM    101  C   UNL A   1      36.196  21.733  25.698  1.00  0.00     0.007 C 
ATOM    102  C   UNL A   1      36.535  22.770  23.437  1.00  0.00     0.007 C 
ENDBRANCH  92  93
ENDBRANCH  90  92
ENDBRANCH  82  90
ENDBRANCH  78  80
ENDBRANCH  77  78
ENDBRANCH  76  77
ENDBRANCH  75  76
ENDBRANCH  74  75
ENDBRANCH  73  74
ENDBRANCH   1  73
TORSDOF 23
ENDMDL
