MODEL 1
REMARK VINA RESULT:     -10.4      0.000      0.000
REMARK SMILES C[C@@H]([N@@H+](C)[C@@H]1COC[C@@H]1C(=O)OCCOCCOCCOC(=O)c1ccc(-c2c3nc(c(-c4cc(S(=O)(=O)[O-])ccc4F)c4ccc([nH]4)c(-c4cc(S(=O)(=O)[O-])ccc4F)c4nc(c(-c5cc(S(=O)(=O)[O-])ccc5F)c5ccc2[nH]5)C=C4)C=C3)cc1)C1(C)CC1
REMARK SMILES IDX 16 1 15 2 14 3 13 4 12 5 10 6 11 7 9 8 5 9 6 10 7 11 8 12
REMARK SMILES IDX 3 13 4 14 2 16 1 17 87 18 88 19 89 20 90 21 17 22 18 23
REMARK SMILES IDX 19 24 20 25 21 26 22 27 23 28 24 29 25 30 86 31 26 32 85 33
REMARK SMILES IDX 27 34 28 35 29 36 79 37 30 38 84 39 78 40 80 41 31 42 83 43
REMARK SMILES IDX 77 44 76 45 32 47 64 48 44 49 63 50 45 51 48 52 62 53 81 54
REMARK SMILES IDX 46 55 47 56 61 58 82 59 49 60 33 61 34 62 42 63 35 64 41 65
REMARK SMILES IDX 43 66 40 67 36 68 37 69 38 70 39 71 65 72 66 73 74 74 67 75
REMARK SMILES IDX 73 76 75 77 72 78 68 79 69 80 70 81 71 82 50 83 51 84 59 85
REMARK SMILES IDX 52 86 58 87 60 88 57 89 53 90 54 91 55 92 56 93
REMARK H PARENT 3 15 80 46 48 57
REMARK Flexibility Score: inf
ROOT
ATOM      1  C   UNL A   1      31.916  22.571  24.858  1.00  0.00     0.188 C 
ENDROOT
BRANCH   1   2
ATOM      2  O   UNL A   1      32.303  22.778  26.211  1.00  0.00    -0.376 OA
BRANCH   2   3
ATOM      3  C   UNL A   1      32.800  24.049  26.597  1.00  0.00     0.202 C 
BRANCH   3   4
ATOM      4  C   UNL A   1      31.971  25.286  26.212  1.00  0.00     0.261 C 
BRANCH   4   5
ATOM      5  O   UNL A   1      32.647  26.572  26.238  1.00  0.00    -0.463 OA
BRANCH   5   6
ATOM      6  C   UNL A   1      31.855  27.616  26.617  1.00  0.00     0.317 C 
ATOM      7  O   UNL A   1      31.027  27.493  27.514  1.00  0.00    -0.252 OA
BRANCH   6   8
ATOM      8  C   UNL A   1      31.864  28.796  25.646  1.00  0.00     0.185 C 
ATOM      9  C   UNL A   1      31.212  28.910  24.228  1.00  0.00     0.227 C 
ATOM     10  C   UNL A   1      32.421  29.010  23.269  1.00  0.00     0.226 C 
ATOM     11  O   UNL A   1      33.561  28.590  24.005  1.00  0.00    -0.374 OA
ATOM     12  C   UNL A   1      33.349  29.075  25.329  1.00  0.00     0.182 C 
BRANCH   9  13
ATOM     13  N   UNL A   1      29.956  28.279  23.738  1.00  0.00    -0.330 N 
ATOM     14  C   UNL A   1      30.192  27.125  22.904  1.00  0.00     0.333 C 
ATOM     15  H   UNL A   1      29.539  27.873  24.574  1.00  0.00     0.348 HD
BRANCH  13  16
ATOM     16  C   UNL A   1      28.749  29.105  23.544  1.00  0.00     0.186 C 
ATOM     17  C   UNL A   1      27.570  28.216  23.048  1.00  0.00     0.076 C 
BRANCH  16  18
ATOM     18  C   UNL A   1      28.651  30.401  22.688  1.00  0.00     0.019 C 
ATOM     19  C   UNL A   1      28.242  31.590  23.527  1.00  0.00     0.018 C 
ATOM     20  C   UNL A   1      29.513  30.747  21.486  1.00  0.00     0.013 C 
ATOM     21  C   UNL A   1      28.058  30.421  21.294  1.00  0.00     0.013 C 
ENDBRANCH  16  18
ENDBRANCH  13  16
ENDBRANCH   9  13
ENDBRANCH   6   8
ENDBRANCH   5   6
ENDBRANCH   4   5
ENDBRANCH   3   4
ENDBRANCH   2   3
ENDBRANCH   1   2
BRANCH   1  22
ATOM     22  C   UNL A   1      32.858  21.804  23.934  1.00  0.00     0.188 C 
BRANCH  22  23
ATOM     23  O   UNL A   1      33.252  20.488  24.317  1.00  0.00    -0.376 OA
BRANCH  23  24
ATOM     24  C   UNL A   1      34.541  20.325  24.904  1.00  0.00     0.202 C 
BRANCH  24  25
ATOM     25  C   UNL A   1      35.545  21.448  24.614  1.00  0.00     0.261 C 
BRANCH  25  26
ATOM     26  O   UNL A   1      36.432  21.627  25.736  1.00  0.00    -0.460 OA
BRANCH  26  27
ATOM     27  C   UNL A   1      37.711  21.231  25.529  1.00  0.00     0.338 C 
ATOM     28  O   UNL A   1      38.070  20.169  25.033  1.00  0.00    -0.246 OA
BRANCH  27  29
ATOM     29  C   UNL A   1      38.645  22.271  26.009  1.00  0.00     0.060 A 
ATOM     30  C   UNL A   1      39.883  21.947  26.577  1.00  0.00     0.016 A 
ATOM     31  C   UNL A   1      38.241  23.604  25.951  1.00  0.00     0.016 A 
ATOM     32  C   UNL A   1      40.712  22.954  27.093  1.00  0.00     0.010 A 
ATOM     33  C   UNL A   1      39.100  24.610  26.411  1.00  0.00     0.010 A 
ATOM     34  C   UNL A   1      40.344  24.303  27.002  1.00  0.00    -0.014 A 
BRANCH  34  35
ATOM     35  C   UNL A   1      41.181  25.411  27.564  1.00  0.00     0.031 A 
ATOM     36  C   UNL A   1      40.521  26.474  28.409  1.00  0.00     0.074 A 
ATOM     37  C   UNL A   1      42.502  25.520  27.310  1.00  0.00     0.049 A 
ATOM     38  N   UNL A   1      40.942  27.671  28.729  1.00  0.00    -0.248 NA
ATOM     39  C   UNL A   1      39.199  26.136  28.955  1.00  0.00     0.031 C 
ATOM     40  C   UNL A   1      43.323  24.530  26.615  1.00  0.00     0.029 A 
ATOM     41  N   UNL A   1      43.387  26.540  27.595  1.00  0.00    -0.354 N 
ATOM     42  C   UNL A   1      39.914  28.254  29.465  1.00  0.00     0.074 A 
ATOM     43  C   UNL A   1      38.849  27.274  29.537  1.00  0.00     0.031 C 
ATOM     44  C   UNL A   1      44.583  24.989  26.525  1.00  0.00     0.029 A 
ATOM     45  C   UNL A   1      44.643  26.346  27.060  1.00  0.00     0.049 A 
ATOM     46  H   UNL A   1      43.144  27.329  28.131  1.00  0.00     0.167 HD
ATOM     47  C   UNL A   1      39.860  29.492  30.018  1.00  0.00     0.034 A 
ATOM     48  C   UNL A   1      45.698  27.183  26.947  1.00  0.00     0.034 A 
ATOM     49  C   UNL A   1      40.942  30.447  29.970  1.00  0.00     0.049 A 
ATOM     50  C   UNL A   1      45.578  28.600  27.466  1.00  0.00     0.074 A 
ATOM     51  C   UNL A   1      40.982  31.728  30.493  1.00  0.00     0.029 A 
ATOM     52  N   UNL A   1      42.174  30.228  29.368  1.00  0.00    -0.354 N 
ATOM     53  N   UNL A   1      44.572  29.176  28.081  1.00  0.00    -0.248 NA
ATOM     54  C   UNL A   1      46.737  29.483  27.263  1.00  0.00     0.031 C 
ATOM     55  C   UNL A   1      42.205  32.311  30.140  1.00  0.00     0.029 A 
ATOM     56  C   UNL A   1      42.966  31.362  29.479  1.00  0.00     0.049 A 
ATOM     57  H   UNL A   1      42.447  29.391  28.929  1.00  0.00     0.167 HD
ATOM     58  C   UNL A   1      44.992  30.475  28.367  1.00  0.00     0.074 A 
ATOM     59  C   UNL A   1      46.346  30.593  27.870  1.00  0.00     0.031 C 
ATOM     60  C   UNL A   1      44.319  31.478  28.986  1.00  0.00     0.034 A 
BRANCH  47  61
ATOM     61  C   UNL A   1      38.556  29.915  30.651  1.00  0.00     0.023 A 
ATOM     62  C   UNL A   1      37.566  30.617  29.941  1.00  0.00     0.031 A 
ATOM     63  C   UNL A   1      38.313  29.627  32.007  1.00  0.00     0.131 A 
ATOM     64  C   UNL A   1      36.417  31.068  30.609  1.00  0.00     0.055 A 
ATOM     65  C   UNL A   1      37.130  30.005  32.643  1.00  0.00     0.041 A 
ATOM     66  F   UNL A   1      39.231  28.980  32.742  1.00  0.00    -0.206 F 
ATOM     67  C   UNL A   1      36.179  30.743  31.948  1.00  0.00     0.022 A 
BRANCH  64  68
ATOM     68  S   UNL A   1      35.304  32.212  29.746  1.00  0.00     0.124 S 
ATOM     69  O   UNL A   1      34.781  31.364  28.677  1.00  0.00    -0.237 OA
ATOM     70  O   UNL A   1      34.357  32.581  30.791  1.00  0.00    -0.237 OA
ATOM     71  O   UNL A   1      36.192  33.285  29.302  1.00  0.00    -0.744 OA
ENDBRANCH  64  68
ENDBRANCH  47  61
BRANCH  48  72
ATOM     72  C   UNL A   1      46.938  26.759  26.221  1.00  0.00     0.023 A 
ATOM     73  C   UNL A   1      47.998  26.127  26.893  1.00  0.00     0.031 A 
ATOM     74  C   UNL A   1      47.121  27.072  24.861  1.00  0.00     0.131 A 
ATOM     75  C   UNL A   1      49.208  25.882  26.221  1.00  0.00     0.055 A 
ATOM     76  C   UNL A   1      48.298  26.761  24.180  1.00  0.00     0.041 A 
ATOM     77  F   UNL A   1      46.152  27.695  24.170  1.00  0.00    -0.206 F 
ATOM     78  C   UNL A   1      49.358  26.178  24.865  1.00  0.00     0.022 A 
BRANCH  75  79
ATOM     79  S   UNL A   1      50.631  25.283  27.176  1.00  0.00     0.124 S 
ATOM     80  O   UNL A   1      50.035  24.198  27.947  1.00  0.00    -0.237 OA
ATOM     81  O   UNL A   1      51.560  24.888  26.123  1.00  0.00    -0.237 OA
ATOM     82  O   UNL A   1      51.036  26.452  27.955  1.00  0.00    -0.744 OA
ENDBRANCH  75  79
ENDBRANCH  48  72
BRANCH  60  83
ATOM     83  C   UNL A   1      45.061  32.775  29.227  1.00  0.00     0.023 A 
ATOM     84  C   UNL A   1      44.950  33.875  28.359  1.00  0.00     0.031 A 
ATOM     85  C   UNL A   1      45.897  32.907  30.353  1.00  0.00     0.131 A 
ATOM     86  C   UNL A   1      45.700  35.037  28.601  1.00  0.00     0.055 A 
ATOM     87  C   UNL A   1      46.589  34.088  30.623  1.00  0.00     0.041 A 
ATOM     88  F   UNL A   1      46.047  31.890  31.215  1.00  0.00    -0.206 F 
ATOM     89  C   UNL A   1      46.502  35.158  29.738  1.00  0.00     0.022 A 
BRANCH  86  90
ATOM     90  S   UNL A   1      45.686  36.363  27.362  1.00  0.00     0.124 S 
ATOM     91  O   UNL A   1      46.994  36.204  26.732  1.00  0.00    -0.237 OA
ATOM     92  O   UNL A   1      44.534  36.010  26.539  1.00  0.00    -0.237 OA
ATOM     93  O   UNL A   1      45.527  37.578  28.160  1.00  0.00    -0.744 OA
ENDBRANCH  86  90
ENDBRANCH  60  83
ENDBRANCH  34  35
ENDBRANCH  27  29
ENDBRANCH  26  27
ENDBRANCH  25  26
ENDBRANCH  24  25
ENDBRANCH  23  24
ENDBRANCH  22  23
ENDBRANCH   1  22
TORSDOF 23
ENDMDL
MODEL 2
REMARK VINA RESULT:     -10.3      1.187      2.055
REMARK SMILES C[C@@H]([N@@H+](C)[C@@H]1COC[C@@H]1C(=O)OCCOCCOCCOC(=O)c1ccc(-c2c3nc(c(-c4cc(S(=O)(=O)[O-])ccc4F)c4ccc([nH]4)c(-c4cc(S(=O)(=O)[O-])ccc4F)c4nc(c(-c5cc(S(=O)(=O)[O-])ccc5F)c5ccc2[nH]5)C=C4)C=C3)cc1)C1(C)CC1
REMARK SMILES IDX 16 1 15 2 14 3 13 4 12 5 10 6 11 7 9 8 5 9 6 10 7 11 8 12
REMARK SMILES IDX 3 13 4 14 2 16 1 17 87 18 88 19 89 20 90 21 17 22 18 23
REMARK SMILES IDX 19 24 20 25 21 26 22 27 23 28 24 29 25 30 86 31 26 32 85 33
REMARK SMILES IDX 27 34 28 35 29 36 79 37 30 38 84 39 78 40 80 41 31 42 83 43
REMARK SMILES IDX 77 44 76 45 32 47 64 48 44 49 63 50 45 51 48 52 62 53 81 54
REMARK SMILES IDX 46 55 47 56 61 58 82 59 49 60 33 61 34 62 42 63 35 64 41 65
REMARK SMILES IDX 43 66 40 67 36 68 37 69 38 70 39 71 65 72 66 73 74 74 67 75
REMARK SMILES IDX 73 76 75 77 72 78 68 79 69 80 70 81 71 82 50 83 51 84 59 85
REMARK SMILES IDX 52 86 58 87 60 88 57 89 53 90 54 91 55 92 56 93
REMARK H PARENT 3 15 80 46 48 57
REMARK Flexibility Score: inf
ROOT
ATOM      1  C   UNL A   1      31.680  21.789  24.356  1.00  0.00     0.188 C 
ENDROOT
BRANCH   1   2
ATOM      2  O   UNL A   1      31.441  21.890  25.754  1.00  0.00    -0.376 OA
BRANCH   2   3
ATOM      3  C   UNL A   1      31.351  23.177  26.344  1.00  0.00     0.202 C 
BRANCH   3   4
ATOM      4  C   UNL A   1      32.636  24.018  26.421  1.00  0.00     0.261 C 
BRANCH   4   5
ATOM      5  O   UNL A   1      32.718  25.185  25.559  1.00  0.00    -0.463 OA
BRANCH   5   6
ATOM      6  C   UNL A   1      33.789  25.187  24.716  1.00  0.00     0.317 C 
ATOM      7  O   UNL A   1      34.930  25.017  25.135  1.00  0.00    -0.252 OA
BRANCH   6   8
ATOM      8  C   UNL A   1      33.486  25.723  23.317  1.00  0.00     0.185 C 
ATOM      9  C   UNL A   1      32.720  27.024  22.906  1.00  0.00     0.227 C 
ATOM     10  C   UNL A   1      31.435  26.499  22.224  1.00  0.00     0.226 C 
ATOM     11  O   UNL A   1      31.313  25.130  22.585  1.00  0.00    -0.374 OA
ATOM     12  C   UNL A   1      32.649  24.633  22.615  1.00  0.00     0.182 C 
BRANCH   9  13
ATOM     13  N   UNL A   1      32.674  28.331  23.616  1.00  0.00    -0.330 N 
ATOM     14  C   UNL A   1      33.956  28.992  23.667  1.00  0.00     0.333 C 
ATOM     15  H   UNL A   1      32.132  28.932  22.996  1.00  0.00     0.348 HD
BRANCH  13  16
ATOM     16  C   UNL A   1      31.679  28.549  24.685  1.00  0.00     0.186 C 
ATOM     17  C   UNL A   1      30.616  29.587  24.219  1.00  0.00     0.076 C 
BRANCH  16  18
ATOM     18  C   UNL A   1      31.987  28.937  26.160  1.00  0.00     0.019 C 
ATOM     19  C   UNL A   1      31.859  30.427  26.379  1.00  0.00     0.018 C 
ATOM     20  C   UNL A   1      31.689  28.094  27.388  1.00  0.00     0.013 C 
ATOM     21  C   UNL A   1      33.113  28.311  26.955  1.00  0.00     0.013 C 
ENDBRANCH  16  18
ENDBRANCH  13  16
ENDBRANCH   9  13
ENDBRANCH   6   8
ENDBRANCH   5   6
ENDBRANCH   4   5
ENDBRANCH   3   4
ENDBRANCH   2   3
ENDBRANCH   1   2
BRANCH   1  22
ATOM     22  C   UNL A   1      32.996  21.180  23.878  1.00  0.00     0.188 C 
BRANCH  22  23
ATOM     23  O   UNL A   1      33.549  20.102  24.629  1.00  0.00    -0.376 OA
BRANCH  23  24
ATOM     24  C   UNL A   1      34.717  20.363  25.403  1.00  0.00     0.202 C 
BRANCH  24  25
ATOM     25  C   UNL A   1      35.674  21.412  24.822  1.00  0.00     0.261 C 
BRANCH  25  26
ATOM     26  O   UNL A   1      36.579  21.881  25.841  1.00  0.00    -0.460 OA
BRANCH  26  27
ATOM     27  C   UNL A   1      37.860  21.457  25.714  1.00  0.00     0.338 C 
ATOM     28  O   UNL A   1      38.225  20.366  25.291  1.00  0.00    -0.246 OA
BRANCH  27  29
ATOM     29  C   UNL A   1      38.787  22.509  26.182  1.00  0.00     0.060 A 
ATOM     30  C   UNL A   1      39.965  22.200  26.874  1.00  0.00     0.016 A 
ATOM     31  C   UNL A   1      38.435  23.842  25.983  1.00  0.00     0.016 A 
ATOM     32  C   UNL A   1      40.784  23.224  27.373  1.00  0.00     0.010 A 
ATOM     33  C   UNL A   1      39.289  24.860  26.427  1.00  0.00     0.010 A 
ATOM     34  C   UNL A   1      40.470  24.571  27.141  1.00  0.00    -0.014 A 
BRANCH  34  35
ATOM     35  C   UNL A   1      41.297  25.699  27.678  1.00  0.00     0.031 A 
ATOM     36  C   UNL A   1      40.631  26.763  28.516  1.00  0.00     0.074 A 
ATOM     37  C   UNL A   1      42.613  25.825  27.405  1.00  0.00     0.049 A 
ATOM     38  N   UNL A   1      41.038  27.971  28.814  1.00  0.00    -0.248 NA
ATOM     39  C   UNL A   1      39.321  26.412  29.084  1.00  0.00     0.031 C 
ATOM     40  C   UNL A   1      43.441  24.837  26.713  1.00  0.00     0.029 A 
ATOM     41  N   UNL A   1      43.485  26.861  27.665  1.00  0.00    -0.354 N 
ATOM     42  C   UNL A   1      40.010  28.547  29.556  1.00  0.00     0.074 A 
ATOM     43  C   UNL A   1      38.962  27.552  29.655  1.00  0.00     0.031 C 
ATOM     44  C   UNL A   1      44.692  25.314  26.600  1.00  0.00     0.029 A 
ATOM     45  C   UNL A   1      44.737  26.680  27.117  1.00  0.00     0.049 A 
ATOM     46  H   UNL A   1      43.237  27.654  28.193  1.00  0.00     0.167 HD
ATOM     47  C   UNL A   1      39.944  29.792  30.093  1.00  0.00     0.034 A 
ATOM     48  C   UNL A   1      45.778  27.530  26.978  1.00  0.00     0.034 A 
ATOM     49  C   UNL A   1      41.010  30.763  30.017  1.00  0.00     0.049 A 
ATOM     50  C   UNL A   1      45.643  28.953  27.480  1.00  0.00     0.074 A 
ATOM     51  C   UNL A   1      41.038  32.052  30.522  1.00  0.00     0.029 A 
ATOM     52  N   UNL A   1      42.238  30.555  29.403  1.00  0.00    -0.354 N 
ATOM     53  N   UNL A   1      44.635  29.522  28.100  1.00  0.00    -0.248 NA
ATOM     54  C   UNL A   1      46.785  29.851  27.250  1.00  0.00     0.031 C 
ATOM     55  C   UNL A   1      42.246  32.648  30.147  1.00  0.00     0.029 A 
ATOM     56  C   UNL A   1      43.014  31.702  29.488  1.00  0.00     0.049 A 
ATOM     57  H   UNL A   1      42.518  29.716  28.972  1.00  0.00     0.167 HD
ATOM     58  C   UNL A   1      45.039  30.831  28.362  1.00  0.00     0.074 A 
ATOM     59  C   UNL A   1      46.384  30.963  27.847  1.00  0.00     0.031 C 
ATOM     60  C   UNL A   1      44.359  31.832  28.976  1.00  0.00     0.034 A 
BRANCH  47  61
ATOM     61  C   UNL A   1      38.642  30.204  30.736  1.00  0.00     0.023 A 
ATOM     62  C   UNL A   1      37.613  30.839  30.018  1.00  0.00     0.031 A 
ATOM     63  C   UNL A   1      38.440  29.975  32.111  1.00  0.00     0.131 A 
ATOM     64  C   UNL A   1      36.465  31.285  30.692  1.00  0.00     0.055 A 
ATOM     65  C   UNL A   1      37.260  30.345  32.756  1.00  0.00     0.041 A 
ATOM     66  F   UNL A   1      39.395  29.393  32.853  1.00  0.00    -0.206 F 
ATOM     67  C   UNL A   1      36.270  31.018  32.050  1.00  0.00     0.022 A 
BRANCH  64  68
ATOM     68  S   UNL A   1      35.296  32.350  29.803  1.00  0.00     0.124 S 
ATOM     69  O   UNL A   1      34.810  31.448  28.761  1.00  0.00    -0.237 OA
ATOM     70  O   UNL A   1      34.336  32.703  30.843  1.00  0.00    -0.237 OA
ATOM     71  O   UNL A   1      36.130  33.450  29.324  1.00  0.00    -0.744 OA
ENDBRANCH  64  68
ENDBRANCH  47  61
BRANCH  48  72
ATOM     72  C   UNL A   1      47.015  27.116  26.243  1.00  0.00     0.023 A 
ATOM     73  C   UNL A   1      48.141  26.623  26.925  1.00  0.00     0.031 A 
ATOM     74  C   UNL A   1      47.124  27.302  24.851  1.00  0.00     0.131 A 
ATOM     75  C   UNL A   1      49.337  26.389  26.226  1.00  0.00     0.055 A 
ATOM     76  C   UNL A   1      48.293  26.999  24.151  1.00  0.00     0.041 A 
ATOM     77  F   UNL A   1      46.090  27.789  24.147  1.00  0.00    -0.206 F 
ATOM     78  C   UNL A   1      49.416  26.557  24.842  1.00  0.00     0.022 A 
BRANCH  75  79
ATOM     79  S   UNL A   1      50.834  25.981  27.170  1.00  0.00     0.124 S 
ATOM     80  O   UNL A   1      51.323  24.808  26.456  1.00  0.00    -0.237 OA
ATOM     81  O   UNL A   1      51.626  27.197  27.026  1.00  0.00    -0.237 OA
ATOM     82  O   UNL A   1      50.328  25.725  28.518  1.00  0.00    -0.744 OA
ENDBRANCH  75  79
ENDBRANCH  48  72
BRANCH  60  83
ATOM     83  C   UNL A   1      45.083  33.143  29.190  1.00  0.00     0.023 A 
ATOM     84  C   UNL A   1      44.914  34.242  28.331  1.00  0.00     0.031 A 
ATOM     85  C   UNL A   1      45.961  33.290  30.281  1.00  0.00     0.131 A 
ATOM     86  C   UNL A   1      45.650  35.419  28.544  1.00  0.00     0.055 A 
ATOM     87  C   UNL A   1      46.640  34.485  30.526  1.00  0.00     0.041 A 
ATOM     88  F   UNL A   1      46.167  32.275  31.134  1.00  0.00    -0.206 F 
ATOM     89  C   UNL A   1      46.496  35.554  29.648  1.00  0.00     0.022 A 
BRANCH  86  90
ATOM     90  S   UNL A   1      45.558  36.747  27.310  1.00  0.00     0.124 S 
ATOM     91  O   UNL A   1      44.127  37.032  27.276  1.00  0.00    -0.237 OA
ATOM     92  O   UNL A   1      46.402  37.781  27.902  1.00  0.00    -0.237 OA
ATOM     93  O   UNL A   1      46.096  36.129  26.099  1.00  0.00    -0.744 OA
ENDBRANCH  86  90
ENDBRANCH  60  83
ENDBRANCH  34  35
ENDBRANCH  27  29
ENDBRANCH  26  27
ENDBRANCH  25  26
ENDBRANCH  24  25
ENDBRANCH  23  24
ENDBRANCH  22  23
ENDBRANCH   1  22
TORSDOF 23
ENDMDL
MODEL 3
REMARK VINA RESULT:      -9.8      5.165      8.373
REMARK SMILES C[C@@H]([N@@H+](C)[C@@H]1COC[C@@H]1C(=O)OCCOCCOCCOC(=O)c1ccc(-c2c3nc(c(-c4cc(S(=O)(=O)[O-])ccc4F)c4ccc([nH]4)c(-c4cc(S(=O)(=O)[O-])ccc4F)c4nc(c(-c5cc(S(=O)(=O)[O-])ccc5F)c5ccc2[nH]5)C=C4)C=C3)cc1)C1(C)CC1
REMARK SMILES IDX 16 1 15 2 14 3 13 4 12 5 10 6 11 7 9 8 5 9 6 10 7 11 8 12
REMARK SMILES IDX 3 13 4 14 2 16 1 17 87 18 88 19 89 20 90 21 17 22 18 23
REMARK SMILES IDX 19 24 20 25 21 26 22 27 23 28 24 29 25 30 86 31 26 32 85 33
REMARK SMILES IDX 27 34 28 35 29 36 79 37 30 38 84 39 78 40 80 41 31 42 83 43
REMARK SMILES IDX 77 44 76 45 32 47 64 48 44 49 63 50 45 51 48 52 62 53 81 54
REMARK SMILES IDX 46 55 47 56 61 58 82 59 49 60 33 61 34 62 42 63 35 64 41 65
REMARK SMILES IDX 43 66 40 67 36 68 37 69 38 70 39 71 65 72 66 73 74 74 67 75
REMARK SMILES IDX 73 76 75 77 72 78 68 79 69 80 70 81 71 82 50 83 51 84 59 85
REMARK SMILES IDX 52 86 58 87 60 88 57 89 53 90 54 91 55 92 56 93
REMARK H PARENT 3 15 80 46 48 57
REMARK Flexibility Score: inf
ROOT
ATOM      1  C   UNL A   1      32.939  28.745  27.142  1.00  0.00     0.188 C 
ENDROOT
BRANCH   1   2
ATOM      2  O   UNL A   1      33.780  28.019  26.254  1.00  0.00    -0.376 OA
BRANCH   2   3
ATOM      3  C   UNL A   1      34.192  28.632  25.043  1.00  0.00     0.202 C 
BRANCH   3   4
ATOM      4  C   UNL A   1      33.898  27.887  23.730  1.00  0.00     0.261 C 
BRANCH   4   5
ATOM      5  O   UNL A   1      33.367  26.539  23.836  1.00  0.00    -0.463 OA
BRANCH   5   6
ATOM      6  C   UNL A   1      32.922  26.016  22.658  1.00  0.00     0.317 C 
ATOM      7  O   UNL A   1      33.651  25.959  21.672  1.00  0.00    -0.252 OA
BRANCH   6   8
ATOM      8  C   UNL A   1      31.408  25.820  22.589  1.00  0.00     0.185 C 
ATOM      9  C   UNL A   1      30.270  26.739  23.145  1.00  0.00     0.227 C 
ATOM     10  C   UNL A   1      29.627  25.896  24.270  1.00  0.00     0.226 C 
ATOM     11  O   UNL A   1      30.542  24.850  24.569  1.00  0.00    -0.374 OA
ATOM     12  C   UNL A   1      31.117  24.489  23.315  1.00  0.00     0.182 C 
BRANCH   9  13
ATOM     13  N   UNL A   1      30.258  28.223  23.262  1.00  0.00    -0.330 N 
ATOM     14  C   UNL A   1      30.588  28.687  24.589  1.00  0.00     0.333 C 
ATOM     15  H   UNL A   1      31.061  28.522  22.710  1.00  0.00     0.348 HD
BRANCH  13  16
ATOM     16  C   UNL A   1      29.371  29.019  22.392  1.00  0.00     0.186 C 
ATOM     17  C   UNL A   1      30.205  30.074  21.605  1.00  0.00     0.076 C 
BRANCH  16  18
ATOM     18  C   UNL A   1      28.092  29.783  22.838  1.00  0.00     0.019 C 
ATOM     19  C   UNL A   1      26.953  28.833  23.131  1.00  0.00     0.018 C 
ATOM     20  C   UNL A   1      28.053  31.075  23.638  1.00  0.00     0.013 C 
ATOM     21  C   UNL A   1      27.640  31.076  22.192  1.00  0.00     0.013 C 
ENDBRANCH  16  18
ENDBRANCH  13  16
ENDBRANCH   9  13
ENDBRANCH   6   8
ENDBRANCH   5   6
ENDBRANCH   4   5
ENDBRANCH   3   4
ENDBRANCH   2   3
ENDBRANCH   1   2
BRANCH   1  22
ATOM     22  C   UNL A   1      32.896  30.267  27.033  1.00  0.00     0.188 C 
BRANCH  22  23
ATOM     23  O   UNL A   1      31.620  30.904  27.017  1.00  0.00    -0.376 OA
BRANCH  23  24
ATOM     24  C   UNL A   1      31.582  32.308  26.775  1.00  0.00     0.202 C 
BRANCH  24  25
ATOM     25  C   UNL A   1      32.811  33.094  27.250  1.00  0.00     0.261 C 
BRANCH  25  26
ATOM     26  O   UNL A   1      32.409  34.176  28.112  1.00  0.00    -0.460 OA
BRANCH  26  27
ATOM     27  C   UNL A   1      33.417  34.967  28.554  1.00  0.00     0.338 C 
ATOM     28  O   UNL A   1      33.482  36.186  28.450  1.00  0.00    -0.246 OA
BRANCH  27  29
ATOM     29  C   UNL A   1      34.469  34.139  29.180  1.00  0.00     0.060 A 
ATOM     30  C   UNL A   1      35.811  34.226  28.787  1.00  0.00     0.016 A 
ATOM     31  C   UNL A   1      34.093  33.202  30.141  1.00  0.00     0.016 A 
ATOM     32  C   UNL A   1      36.771  33.372  29.347  1.00  0.00     0.010 A 
ATOM     33  C   UNL A   1      35.067  32.395  30.743  1.00  0.00     0.010 A 
ATOM     34  C   UNL A   1      36.420  32.455  30.348  1.00  0.00    -0.014 A 
BRANCH  34  35
ATOM     35  C   UNL A   1      37.403  31.502  30.956  1.00  0.00     0.031 A 
ATOM     36  C   UNL A   1      37.812  31.689  32.397  1.00  0.00     0.074 A 
ATOM     37  C   UNL A   1      37.973  30.503  30.250  1.00  0.00     0.049 A 
ATOM     38  N   UNL A   1      38.852  31.221  33.040  1.00  0.00    -0.248 NA
ATOM     39  C   UNL A   1      36.927  32.530  33.216  1.00  0.00     0.031 C 
ATOM     40  C   UNL A   1      37.614  30.104  28.890  1.00  0.00     0.029 A 
ATOM     41  N   UNL A   1      39.002  29.646  30.582  1.00  0.00    -0.354 N 
ATOM     42  C   UNL A   1      38.779  31.757  34.323  1.00  0.00     0.074 A 
ATOM     43  C   UNL A   1      37.592  32.587  34.359  1.00  0.00     0.031 C 
ATOM     44  C   UNL A   1      38.407  29.090  28.504  1.00  0.00     0.029 A 
ATOM     45  C   UNL A   1      39.399  28.831  29.544  1.00  0.00     0.049 A 
ATOM     46  H   UNL A   1      39.412  29.619  31.477  1.00  0.00     0.167 HD
ATOM     47  C   UNL A   1      39.628  31.580  35.367  1.00  0.00     0.034 A 
ATOM     48  C   UNL A   1      40.474  28.023  29.411  1.00  0.00     0.034 A 
ATOM     49  C   UNL A   1      40.788  30.721  35.330  1.00  0.00     0.049 A 
ATOM     50  C   UNL A   1      41.474  27.928  30.544  1.00  0.00     0.074 A 
ATOM     51  C   UNL A   1      41.714  30.481  36.331  1.00  0.00     0.029 A 
ATOM     52  N   UNL A   1      41.183  29.959  34.238  1.00  0.00    -0.354 N 
ATOM     53  N   UNL A   1      41.450  28.507  31.722  1.00  0.00    -0.248 NA
ATOM     54  C   UNL A   1      42.654  27.079  30.321  1.00  0.00     0.031 C 
ATOM     55  C   UNL A   1      42.708  29.639  35.822  1.00  0.00     0.029 A 
ATOM     56  C   UNL A   1      42.355  29.277  34.532  1.00  0.00     0.049 A 
ATOM     57  H   UNL A   1      40.702  29.910  33.381  1.00  0.00     0.167 HD
ATOM     58  C   UNL A   1      42.592  28.062  32.388  1.00  0.00     0.074 A 
ATOM     59  C   UNL A   1      43.274  27.159  31.488  1.00  0.00     0.031 C 
ATOM     60  C   UNL A   1      43.034  28.372  33.634  1.00  0.00     0.034 A 
BRANCH  47  61
ATOM     61  C   UNL A   1      39.379  32.398  36.612  1.00  0.00     0.023 A 
ATOM     62  C   UNL A   1      38.518  31.969  37.636  1.00  0.00     0.031 A 
ATOM     63  C   UNL A   1      40.006  33.650  36.760  1.00  0.00     0.131 A 
ATOM     64  C   UNL A   1      38.252  32.817  38.724  1.00  0.00     0.055 A 
ATOM     65  C   UNL A   1      39.802  34.450  37.885  1.00  0.00     0.041 A 
ATOM     66  F   UNL A   1      40.821  34.122  35.804  1.00  0.00    -0.206 F 
ATOM     67  C   UNL A   1      38.909  34.042  38.869  1.00  0.00     0.022 A 
BRANCH  64  68
ATOM     68  S   UNL A   1      36.923  32.363  39.873  1.00  0.00     0.124 S 
ATOM     69  O   UNL A   1      36.998  33.445  40.852  1.00  0.00    -0.237 OA
ATOM     70  O   UNL A   1      35.747  32.361  39.011  1.00  0.00    -0.237 OA
ATOM     71  O   UNL A   1      37.333  31.052  40.372  1.00  0.00    -0.744 OA
ENDBRANCH  64  68
ENDBRANCH  47  61
BRANCH  48  72
ATOM     72  C   UNL A   1      40.741  27.308  28.122  1.00  0.00     0.023 A 
ATOM     73  C   UNL A   1      40.560  25.919  28.006  1.00  0.00     0.031 A 
ATOM     74  C   UNL A   1      41.278  27.992  27.015  1.00  0.00     0.131 A 
ATOM     75  C   UNL A   1      40.965  25.255  26.835  1.00  0.00     0.055 A 
ATOM     76  C   UNL A   1      41.611  27.337  25.829  1.00  0.00     0.041 A 
ATOM     77  F   UNL A   1      41.494  29.316  27.073  1.00  0.00    -0.206 F 
ATOM     78  C   UNL A   1      41.472  25.956  25.740  1.00  0.00     0.022 A 
BRANCH  75  79
ATOM     79  S   UNL A   1      40.937  23.440  26.808  1.00  0.00     0.124 S 
ATOM     80  O   UNL A   1      39.546  23.170  26.462  1.00  0.00    -0.237 OA
ATOM     81  O   UNL A   1      41.925  23.135  25.778  1.00  0.00    -0.237 OA
ATOM     82  O   UNL A   1      41.324  23.072  28.169  1.00  0.00    -0.744 OA
ENDBRANCH  75  79
ENDBRANCH  48  72
BRANCH  60  83
ATOM     83  C   UNL A   1      44.282  27.674  34.128  1.00  0.00     0.023 A 
ATOM     84  C   UNL A   1      44.246  26.394  34.708  1.00  0.00     0.031 A 
ATOM     85  C   UNL A   1      45.534  28.309  34.013  1.00  0.00     0.131 A 
ATOM     86  C   UNL A   1      45.427  25.812  35.197  1.00  0.00     0.055 A 
ATOM     87  C   UNL A   1      46.713  27.698  34.441  1.00  0.00     0.041 A 
ATOM     88  F   UNL A   1      45.632  29.533  33.472  1.00  0.00    -0.206 F 
ATOM     89  C   UNL A   1      46.663  26.447  35.048  1.00  0.00     0.022 A 
BRANCH  86  90
ATOM     90  S   UNL A   1      45.320  24.249  36.114  1.00  0.00     0.124 S 
ATOM     91  O   UNL A   1      45.319  24.709  37.499  1.00  0.00    -0.237 OA
ATOM     92  O   UNL A   1      44.065  23.687  35.627  1.00  0.00    -0.237 OA
ATOM     93  O   UNL A   1      46.523  23.526  35.702  1.00  0.00    -0.744 OA
ENDBRANCH  86  90
ENDBRANCH  60  83
ENDBRANCH  34  35
ENDBRANCH  27  29
ENDBRANCH  26  27
ENDBRANCH  25  26
ENDBRANCH  24  25
ENDBRANCH  23  24
ENDBRANCH  22  23
ENDBRANCH   1  22
TORSDOF 23
ENDMDL
