MODEL 1
REMARK VINA RESULT:     -10.0      0.000      0.000
REMARK SMILES C[C@@H](C(=O)OCCOCCOCCOC(=O)c1ccc(-c2c3nc(c(-c4cc(S(=O)(=O)[O-])ccc4F)c4ccc([nH]4)c(-c4cc(S(=O)(=O)[O-])ccc4F)c4nc(c(-c5cc(S(=O)(=O)[O-])ccc5F)c5ccc2[nH]5)C=C4)C=C3)cc1)c1ccc(Cc2cccs2)cc1F
REMARK SMILES IDX 9 1 8 2 7 3 6 4 5 5 3 6 4 7 2 8 1 9 80 10 81 11 91 12 82 13
REMARK SMILES IDX 90 14 92 15 83 16 84 17 85 18 86 19 89 20 87 21 88 22 10 23
REMARK SMILES IDX 11 24 12 25 13 26 14 27 15 28 16 29 17 30 18 31 79 32 19 33
REMARK SMILES IDX 78 34 20 35 21 36 22 37 72 38 23 39 77 40 71 41 73 42 24 43
REMARK SMILES IDX 76 44 70 45 69 46 25 48 57 49 37 50 56 51 38 52 41 53 55 54
REMARK SMILES IDX 74 55 39 56 40 57 54 59 75 60 42 61 26 62 27 63 35 64 28 65
REMARK SMILES IDX 34 66 36 67 33 68 29 69 30 70 31 71 32 72 58 73 59 74 67 75
REMARK SMILES IDX 60 76 66 77 68 78 65 79 61 80 62 81 63 82 64 83 43 84 44 85
REMARK SMILES IDX 52 86 45 87 51 88 53 89 50 90 46 91 47 92 48 93 49 94
REMARK H PARENT 73 47 41 58
REMARK Flexibility Score: inf
ROOT
ATOM      1  C   UNL A   1      33.668  27.434  25.729  1.00  0.00     0.188 C 
ENDROOT
BRANCH   1   2
ATOM      2  O   UNL A   1      33.913  26.942  24.415  1.00  0.00    -0.376 OA
BRANCH   2   3
ATOM      3  C   UNL A   1      33.998  27.880  23.344  1.00  0.00     0.202 C 
BRANCH   3   4
ATOM      4  C   UNL A   1      32.796  28.049  22.394  1.00  0.00     0.261 C 
BRANCH   4   5
ATOM      5  O   UNL A   1      31.910  29.136  22.735  1.00  0.00    -0.463 OA
BRANCH   5   6
ATOM      6  C   UNL A   1      30.927  28.873  23.639  1.00  0.00     0.313 C 
ATOM      7  O   UNL A   1      30.756  29.533  24.660  1.00  0.00    -0.252 OA
BRANCH   6   8
ATOM      8  C   UNL A   1      29.987  27.723  23.228  1.00  0.00     0.129 C 
ATOM      9  C   UNL A   1      28.510  28.135  23.090  1.00  0.00     0.025 C 
BRANCH   8  10
ATOM     10  C   UNL A   1      30.205  26.411  23.991  1.00  0.00     0.002 A 
ATOM     11  C   UNL A   1      29.974  26.291  25.370  1.00  0.00     0.008 A 
ATOM     12  C   UNL A   1      30.754  25.291  23.348  1.00  0.00     0.127 A 
ATOM     13  C   UNL A   1      30.276  25.111  26.061  1.00  0.00     0.004 A 
ATOM     14  C   UNL A   1      31.092  24.122  24.039  1.00  0.00     0.043 A 
ATOM     15  F   UNL A   1      31.003  25.329  22.031  1.00  0.00    -0.207 F 
ATOM     16  C   UNL A   1      30.889  24.030  25.418  1.00  0.00    -0.040 A 
BRANCH  16  17
ATOM     17  C   UNL A   1      31.339  22.804  26.190  1.00  0.00     0.082 C 
BRANCH  17  18
ATOM     18  C   UNL A   1      32.598  22.163  25.660  1.00  0.00     0.009 A 
ATOM     19  C   UNL A   1      33.896  22.644  25.650  1.00  0.00     0.016 A 
ATOM     20  S   UNL A   1      32.534  20.568  25.023  1.00  0.00    -0.149 S 
ATOM     21  C   UNL A   1      34.829  21.705  25.130  1.00  0.00     0.012 A 
ATOM     22  C   UNL A   1      34.222  20.522  24.778  1.00  0.00     0.065 A 
ENDBRANCH  17  18
ENDBRANCH  16  17
ENDBRANCH   8  10
ENDBRANCH   6   8
ENDBRANCH   5   6
ENDBRANCH   4   5
ENDBRANCH   3   4
ENDBRANCH   2   3
ENDBRANCH   1   2
BRANCH   1  23
ATOM     23  C   UNL A   1      33.843  28.937  26.000  1.00  0.00     0.188 C 
BRANCH  23  24
ATOM     24  O   UNL A   1      33.175  29.398  27.150  1.00  0.00    -0.376 OA
BRANCH  24  25
ATOM     25  C   UNL A   1      32.880  30.777  27.255  1.00  0.00     0.202 C 
BRANCH  25  26
ATOM     26  C   UNL A   1      33.891  31.782  27.842  1.00  0.00     0.261 C 
BRANCH  26  27
ATOM     27  O   UNL A   1      33.607  33.181  27.700  1.00  0.00    -0.460 OA
BRANCH  27  28
ATOM     28  C   UNL A   1      33.596  33.931  28.828  1.00  0.00     0.338 C 
ATOM     29  O   UNL A   1      32.691  34.658  29.209  1.00  0.00    -0.246 OA
BRANCH  28  30
ATOM     30  C   UNL A   1      34.772  33.533  29.638  1.00  0.00     0.060 A 
ATOM     31  C   UNL A   1      36.039  34.032  29.303  1.00  0.00     0.016 A 
ATOM     32  C   UNL A   1      34.618  32.689  30.740  1.00  0.00     0.016 A 
ATOM     33  C   UNL A   1      37.159  33.673  30.059  1.00  0.00     0.010 A 
ATOM     34  C   UNL A   1      35.744  32.307  31.478  1.00  0.00     0.010 A 
ATOM     35  C   UNL A   1      37.023  32.775  31.126  1.00  0.00    -0.014 A 
BRANCH  35  36
ATOM     36  C   UNL A   1      38.229  32.172  31.753  1.00  0.00     0.031 A 
ATOM     37  C   UNL A   1      38.935  31.067  31.016  1.00  0.00     0.074 A 
ATOM     38  C   UNL A   1      38.690  32.591  32.946  1.00  0.00     0.049 A 
ATOM     39  N   UNL A   1      39.950  30.333  31.390  1.00  0.00    -0.248 NA
ATOM     40  C   UNL A   1      38.407  30.735  29.684  1.00  0.00     0.031 C 
ATOM     41  C   UNL A   1      38.105  33.667  33.743  1.00  0.00     0.029 A 
ATOM     42  N   UNL A   1      39.759  32.160  33.695  1.00  0.00    -0.354 N 
ATOM     43  C   UNL A   1      40.167  29.431  30.353  1.00  0.00     0.074 A 
ATOM     44  C   UNL A   1      39.162  29.702  29.345  1.00  0.00     0.031 C 
ATOM     45  C   UNL A   1      38.837  33.825  34.860  1.00  0.00     0.029 A 
ATOM     46  C   UNL A   1      39.911  32.833  34.887  1.00  0.00     0.049 A 
ATOM     47  H   UNL A   1      40.361  31.437  33.406  1.00  0.00     0.167 HD
ATOM     48  C   UNL A   1      41.111  28.464  30.254  1.00  0.00     0.034 A 
ATOM     49  C   UNL A   1      40.795  32.649  35.891  1.00  0.00     0.034 A 
ATOM     50  C   UNL A   1      42.099  28.202  31.271  1.00  0.00     0.049 A 
ATOM     51  C   UNL A   1      41.798  31.519  35.784  1.00  0.00     0.074 A 
ATOM     52  C   UNL A   1      43.110  27.255  31.264  1.00  0.00     0.029 A 
ATOM     53  N   UNL A   1      42.194  28.872  32.484  1.00  0.00    -0.354 N 
ATOM     54  N   UNL A   1      41.989  30.669  34.800  1.00  0.00    -0.248 NA
ATOM     55  C   UNL A   1      42.692  31.312  36.933  1.00  0.00     0.031 C 
ATOM     56  C   UNL A   1      43.758  27.296  32.502  1.00  0.00     0.029 A 
ATOM     57  C   UNL A   1      43.220  28.333  33.246  1.00  0.00     0.049 A 
ATOM     58  H   UNL A   1      41.617  29.619  32.762  1.00  0.00     0.167 HD
ATOM     59  C   UNL A   1      43.043  29.850  35.202  1.00  0.00     0.074 A 
ATOM     60  C   UNL A   1      43.457  30.318  36.508  1.00  0.00     0.031 C 
ATOM     61  C   UNL A   1      43.619  28.805  34.553  1.00  0.00     0.034 A 
BRANCH  48  62
ATOM     62  C   UNL A   1      41.072  27.577  29.032  1.00  0.00     0.023 A 
ATOM     63  C   UNL A   1      42.010  27.697  27.993  1.00  0.00     0.031 A 
ATOM     64  C   UNL A   1      40.059  26.610  28.896  1.00  0.00     0.131 A 
ATOM     65  C   UNL A   1      41.875  26.915  26.835  1.00  0.00     0.055 A 
ATOM     66  C   UNL A   1      39.982  25.775  27.780  1.00  0.00     0.041 A 
ATOM     67  F   UNL A   1      39.118  26.467  29.843  1.00  0.00    -0.206 F 
ATOM     68  C   UNL A   1      40.885  25.935  26.734  1.00  0.00     0.022 A 
BRANCH  65  69
ATOM     69  S   UNL A   1      42.919  27.300  25.403  1.00  0.00     0.124 S 
ATOM     70  O   UNL A   1      44.158  27.727  26.048  1.00  0.00    -0.237 OA
ATOM     71  O   UNL A   1      42.972  26.024  24.699  1.00  0.00    -0.237 OA
ATOM     72  O   UNL A   1      42.185  28.361  24.718  1.00  0.00    -0.744 OA
ENDBRANCH  65  69
ENDBRANCH  48  62
BRANCH  49  73
ATOM     73  C   UNL A   1      40.754  33.504  37.119  1.00  0.00     0.023 A 
ATOM     74  C   UNL A   1      40.154  33.051  38.308  1.00  0.00     0.031 A 
ATOM     75  C   UNL A   1      41.241  34.825  37.096  1.00  0.00     0.131 A 
ATOM     76  C   UNL A   1      40.011  33.923  39.400  1.00  0.00     0.055 A 
ATOM     77  C   UNL A   1      41.162  35.664  38.208  1.00  0.00     0.041 A 
ATOM     78  F   UNL A   1      41.803  35.323  35.983  1.00  0.00    -0.206 F 
ATOM     79  C   UNL A   1      40.530  35.218  39.364  1.00  0.00     0.022 A 
BRANCH  76  80
ATOM     80  S   UNL A   1      39.006  33.401  40.822  1.00  0.00     0.124 S 
ATOM     81  O   UNL A   1      39.518  34.265  41.879  1.00  0.00    -0.237 OA
ATOM     82  O   UNL A   1      37.648  33.678  40.368  1.00  0.00    -0.237 OA
ATOM     83  O   UNL A   1      39.329  31.982  40.963  1.00  0.00    -0.744 OA
ENDBRANCH  76  80
ENDBRANCH  49  73
BRANCH  61  84
ATOM     84  C   UNL A   1      44.798  28.130  35.223  1.00  0.00     0.023 A 
ATOM     85  C   UNL A   1      44.645  26.995  36.038  1.00  0.00     0.031 A 
ATOM     86  C   UNL A   1      46.097  28.638  35.037  1.00  0.00     0.131 A 
ATOM     87  C   UNL A   1      45.764  26.440  36.681  1.00  0.00     0.055 A 
ATOM     88  C   UNL A   1      47.213  28.040  35.624  1.00  0.00     0.041 A 
ATOM     89  F   UNL A   1      46.306  29.722  34.272  1.00  0.00    -0.206 F 
ATOM     90  C   UNL A   1      47.049  26.943  36.463  1.00  0.00     0.022 A 
BRANCH  87  91
ATOM     91  S   UNL A   1      45.506  25.110  37.889  1.00  0.00     0.124 S 
ATOM     92  O   UNL A   1      45.922  25.747  39.134  1.00  0.00    -0.237 OA
ATOM     93  O   UNL A   1      44.078  24.839  37.756  1.00  0.00    -0.237 OA
ATOM     94  O   UNL A   1      46.384  24.041  37.416  1.00  0.00    -0.744 OA
ENDBRANCH  87  91
ENDBRANCH  61  84
ENDBRANCH  35  36
ENDBRANCH  28  30
ENDBRANCH  27  28
ENDBRANCH  26  27
ENDBRANCH  25  26
ENDBRANCH  24  25
ENDBRANCH  23  24
ENDBRANCH   1  23
TORSDOF 23
ENDMDL
MODEL 2
REMARK VINA RESULT:      -9.9      1.994      2.964
REMARK SMILES C[C@@H](C(=O)OCCOCCOCCOC(=O)c1ccc(-c2c3nc(c(-c4cc(S(=O)(=O)[O-])ccc4F)c4ccc([nH]4)c(-c4cc(S(=O)(=O)[O-])ccc4F)c4nc(c(-c5cc(S(=O)(=O)[O-])ccc5F)c5ccc2[nH]5)C=C4)C=C3)cc1)c1ccc(Cc2cccs2)cc1F
REMARK SMILES IDX 9 1 8 2 7 3 6 4 5 5 3 6 4 7 2 8 1 9 80 10 81 11 91 12 82 13
REMARK SMILES IDX 90 14 92 15 83 16 84 17 85 18 86 19 89 20 87 21 88 22 10 23
REMARK SMILES IDX 11 24 12 25 13 26 14 27 15 28 16 29 17 30 18 31 79 32 19 33
REMARK SMILES IDX 78 34 20 35 21 36 22 37 72 38 23 39 77 40 71 41 73 42 24 43
REMARK SMILES IDX 76 44 70 45 69 46 25 48 57 49 37 50 56 51 38 52 41 53 55 54
REMARK SMILES IDX 74 55 39 56 40 57 54 59 75 60 42 61 26 62 27 63 35 64 28 65
REMARK SMILES IDX 34 66 36 67 33 68 29 69 30 70 31 71 32 72 58 73 59 74 67 75
REMARK SMILES IDX 60 76 66 77 68 78 65 79 61 80 62 81 63 82 64 83 43 84 44 85
REMARK SMILES IDX 52 86 45 87 51 88 53 89 50 90 46 91 47 92 48 93 49 94
REMARK H PARENT 73 47 41 58
REMARK Flexibility Score: inf
ROOT
ATOM      1  C   UNL A   1      32.765  28.838  25.022  1.00  0.00     0.188 C 
ENDROOT
BRANCH   1   2
ATOM      2  O   UNL A   1      31.613  28.770  24.188  1.00  0.00    -0.376 OA
BRANCH   2   3
ATOM      3  C   UNL A   1      30.679  27.715  24.405  1.00  0.00     0.202 C 
BRANCH   3   4
ATOM      4  C   UNL A   1      30.940  26.700  25.535  1.00  0.00     0.261 C 
BRANCH   4   5
ATOM      5  O   UNL A   1      31.892  25.666  25.205  1.00  0.00    -0.463 OA
BRANCH   5   6
ATOM      6  C   UNL A   1      32.176  24.755  26.175  1.00  0.00     0.313 C 
ATOM      7  O   UNL A   1      31.431  24.526  27.124  1.00  0.00    -0.252 OA
BRANCH   6   8
ATOM      8  C   UNL A   1      33.478  23.967  25.936  1.00  0.00     0.129 C 
ATOM      9  C   UNL A   1      34.665  24.834  25.477  1.00  0.00     0.025 C 
BRANCH   8  10
ATOM     10  C   UNL A   1      33.306  22.667  25.142  1.00  0.00     0.002 A 
ATOM     11  C   UNL A   1      32.246  22.463  24.245  1.00  0.00     0.008 A 
ATOM     12  C   UNL A   1      34.157  21.572  25.365  1.00  0.00     0.127 A 
ATOM     13  C   UNL A   1      32.054  21.230  23.609  1.00  0.00     0.004 A 
ATOM     14  C   UNL A   1      33.949  20.328  24.761  1.00  0.00     0.043 A 
ATOM     15  F   UNL A   1      35.192  21.690  26.209  1.00  0.00    -0.207 F 
ATOM     16  C   UNL A   1      32.869  20.130  23.897  1.00  0.00    -0.040 A 
BRANCH  16  17
ATOM     17  C   UNL A   1      32.582  18.760  23.312  1.00  0.00     0.082 C 
BRANCH  17  18
ATOM     18  C   UNL A   1      33.238  17.618  24.050  1.00  0.00     0.009 A 
ATOM     19  C   UNL A   1      34.460  17.010  23.824  1.00  0.00     0.016 A 
ATOM     20  S   UNL A   1      32.473  16.955  25.438  1.00  0.00    -0.149 S 
ATOM     21  C   UNL A   1      34.766  16.011  24.789  1.00  0.00     0.012 A 
ATOM     22  C   UNL A   1      33.780  15.900  25.741  1.00  0.00     0.065 A 
ENDBRANCH  17  18
ENDBRANCH  16  17
ENDBRANCH   8  10
ENDBRANCH   6   8
ENDBRANCH   5   6
ENDBRANCH   4   5
ENDBRANCH   3   4
ENDBRANCH   2   3
ENDBRANCH   1   2
BRANCH   1  23
ATOM     23  C   UNL A   1      32.960  30.075  25.913  1.00  0.00     0.188 C 
BRANCH  23  24
ATOM     24  O   UNL A   1      31.805  30.467  26.617  1.00  0.00    -0.376 OA
BRANCH  24  25
ATOM     25  C   UNL A   1      31.248  31.740  26.350  1.00  0.00     0.202 C 
BRANCH  25  26
ATOM     26  C   UNL A   1      31.908  33.038  26.858  1.00  0.00     0.261 C 
BRANCH  26  27
ATOM     27  O   UNL A   1      32.795  32.943  27.982  1.00  0.00    -0.460 OA
BRANCH  27  28
ATOM     28  C   UNL A   1      33.594  34.008  28.234  1.00  0.00     0.338 C 
ATOM     29  O   UNL A   1      33.339  35.180  28.000  1.00  0.00    -0.246 OA
BRANCH  28  30
ATOM     30  C   UNL A   1      34.729  33.528  29.058  1.00  0.00     0.060 A 
ATOM     31  C   UNL A   1      35.987  34.129  28.914  1.00  0.00     0.016 A 
ATOM     32  C   UNL A   1      34.542  32.504  29.989  1.00  0.00     0.016 A 
ATOM     33  C   UNL A   1      37.067  33.694  29.687  1.00  0.00     0.010 A 
ATOM     34  C   UNL A   1      35.631  32.050  30.742  1.00  0.00     0.010 A 
ATOM     35  C   UNL A   1      36.904  32.624  30.576  1.00  0.00    -0.014 A 
BRANCH  35  36
ATOM     36  C   UNL A   1      38.093  31.974  31.189  1.00  0.00     0.031 A 
ATOM     37  C   UNL A   1      38.829  30.937  30.386  1.00  0.00     0.074 A 
ATOM     38  C   UNL A   1      38.512  32.292  32.428  1.00  0.00     0.049 A 
ATOM     39  N   UNL A   1      39.836  30.178  30.729  1.00  0.00    -0.248 NA
ATOM     40  C   UNL A   1      38.347  30.717  29.014  1.00  0.00     0.031 C 
ATOM     41  C   UNL A   1      37.895  33.295  33.293  1.00  0.00     0.029 A 
ATOM     42  N   UNL A   1      39.559  31.803  33.173  1.00  0.00    -0.354 N 
ATOM     43  C   UNL A   1      40.092  29.368  29.628  1.00  0.00     0.074 A 
ATOM     44  C   UNL A   1      39.119  29.719  28.614  1.00  0.00     0.031 C 
ATOM     45  C   UNL A   1      38.590  33.361  34.443  1.00  0.00     0.029 A 
ATOM     46  C   UNL A   1      39.668  32.373  34.422  1.00  0.00     0.049 A 
ATOM     47  H   UNL A   1      40.175  31.109  32.843  1.00  0.00     0.167 HD
ATOM     48  C   UNL A   1      41.045  28.416  29.479  1.00  0.00     0.034 A 
ATOM     49  C   UNL A   1      40.521  32.109  35.435  1.00  0.00     0.034 A 
ATOM     50  C   UNL A   1      42.001  28.071  30.502  1.00  0.00     0.049 A 
ATOM     51  C   UNL A   1      41.534  30.995  35.266  1.00  0.00     0.074 A 
ATOM     52  C   UNL A   1      43.018  27.133  30.448  1.00  0.00     0.029 A 
ATOM     53  N   UNL A   1      42.052  28.637  31.769  1.00  0.00    -0.354 N 
ATOM     54  N   UNL A   1      41.762  30.232  34.220  1.00  0.00    -0.248 NA
ATOM     55  C   UNL A   1      42.391  30.695  36.422  1.00  0.00     0.031 C 
ATOM     56  C   UNL A   1      43.625  27.070  31.706  1.00  0.00     0.029 A 
ATOM     57  C   UNL A   1      43.056  28.040  32.517  1.00  0.00     0.049 A 
ATOM     58  H   UNL A   1      41.462  29.357  32.090  1.00  0.00     0.167 HD
ATOM     59  C   UNL A   1      42.807  29.385  34.587  1.00  0.00     0.074 A 
ATOM     60  C   UNL A   1      43.176  29.743  35.940  1.00  0.00     0.031 C 
ATOM     61  C   UNL A   1      43.410  28.401  33.871  1.00  0.00     0.034 A 
BRANCH  48  62
ATOM     62  C   UNL A   1      41.051  27.635  28.186  1.00  0.00     0.023 A 
ATOM     63  C   UNL A   1      40.459  26.365  28.078  1.00  0.00     0.031 A 
ATOM     64  C   UNL A   1      41.685  28.165  27.046  1.00  0.00     0.131 A 
ATOM     65  C   UNL A   1      40.576  25.638  26.883  1.00  0.00     0.055 A 
ATOM     66  C   UNL A   1      41.720  27.472  25.835  1.00  0.00     0.041 A 
ATOM     67  F   UNL A   1      42.291  29.361  27.095  1.00  0.00    -0.206 F 
ATOM     68  C   UNL A   1      41.176  26.195  25.752  1.00  0.00     0.022 A 
BRANCH  65  69
ATOM     69  S   UNL A   1      40.062  23.899  26.873  1.00  0.00     0.124 S 
ATOM     70  O   UNL A   1      38.765  23.978  26.207  1.00  0.00    -0.237 OA
ATOM     71  O   UNL A   1      41.131  23.259  26.116  1.00  0.00    -0.237 OA
ATOM     72  O   UNL A   1      40.005  23.550  28.291  1.00  0.00    -0.744 OA
ENDBRANCH  65  69
ENDBRANCH  48  62
BRANCH  49  73
ATOM     73  C   UNL A   1      40.435  32.857  36.728  1.00  0.00     0.023 A 
ATOM     74  C   UNL A   1      39.519  32.486  37.731  1.00  0.00     0.031 A 
ATOM     75  C   UNL A   1      41.210  34.010  36.948  1.00  0.00     0.131 A 
ATOM     76  C   UNL A   1      39.368  33.285  38.875  1.00  0.00     0.055 A 
ATOM     77  C   UNL A   1      41.108  34.761  38.120  1.00  0.00     0.041 A 
ATOM     78  F   UNL A   1      42.085  34.429  36.020  1.00  0.00    -0.206 F 
ATOM     79  C   UNL A   1      40.171  34.408  39.085  1.00  0.00     0.022 A 
BRANCH  76  80
ATOM     80  S   UNL A   1      38.003  32.934  40.025  1.00  0.00     0.124 S 
ATOM     81  O   UNL A   1      36.871  32.817  39.113  1.00  0.00    -0.237 OA
ATOM     82  O   UNL A   1      38.441  31.701  40.667  1.00  0.00    -0.237 OA
ATOM     83  O   UNL A   1      37.985  34.109  40.896  1.00  0.00    -0.744 OA
ENDBRANCH  76  80
ENDBRANCH  49  73
BRANCH  61  84
ATOM     84  C   UNL A   1      44.570  27.676  34.520  1.00  0.00     0.023 A 
ATOM     85  C   UNL A   1      44.394  26.494  35.260  1.00  0.00     0.031 A 
ATOM     86  C   UNL A   1      45.877  28.183  34.390  1.00  0.00     0.131 A 
ATOM     87  C   UNL A   1      45.496  25.890  35.889  1.00  0.00     0.055 A 
ATOM     88  C   UNL A   1      46.977  27.540  34.960  1.00  0.00     0.041 A 
ATOM     89  F   UNL A   1      46.108  29.310  33.698  1.00  0.00    -0.206 F 
ATOM     90  C   UNL A   1      46.789  26.395  35.727  1.00  0.00     0.022 A 
BRANCH  87  91
ATOM     91  S   UNL A   1      45.205  24.491  37.007  1.00  0.00     0.124 S 
ATOM     92  O   UNL A   1      46.545  24.231  37.521  1.00  0.00    -0.237 OA
ATOM     93  O   UNL A   1      44.251  25.047  37.962  1.00  0.00    -0.237 OA
ATOM     94  O   UNL A   1      44.666  23.455  36.128  1.00  0.00    -0.744 OA
ENDBRANCH  87  91
ENDBRANCH  61  84
ENDBRANCH  35  36
ENDBRANCH  28  30
ENDBRANCH  27  28
ENDBRANCH  26  27
ENDBRANCH  25  26
ENDBRANCH  24  25
ENDBRANCH  23  24
ENDBRANCH   1  23
TORSDOF 23
ENDMDL
MODEL 3
REMARK VINA RESULT:      -9.8      5.149      9.593
REMARK SMILES C[C@@H](C(=O)OCCOCCOCCOC(=O)c1ccc(-c2c3nc(c(-c4cc(S(=O)(=O)[O-])ccc4F)c4ccc([nH]4)c(-c4cc(S(=O)(=O)[O-])ccc4F)c4nc(c(-c5cc(S(=O)(=O)[O-])ccc5F)c5ccc2[nH]5)C=C4)C=C3)cc1)c1ccc(Cc2cccs2)cc1F
REMARK SMILES IDX 9 1 8 2 7 3 6 4 5 5 3 6 4 7 2 8 1 9 80 10 81 11 91 12 82 13
REMARK SMILES IDX 90 14 92 15 83 16 84 17 85 18 86 19 89 20 87 21 88 22 10 23
REMARK SMILES IDX 11 24 12 25 13 26 14 27 15 28 16 29 17 30 18 31 79 32 19 33
REMARK SMILES IDX 78 34 20 35 21 36 22 37 72 38 23 39 77 40 71 41 73 42 24 43
REMARK SMILES IDX 76 44 70 45 69 46 25 48 57 49 37 50 56 51 38 52 41 53 55 54
REMARK SMILES IDX 74 55 39 56 40 57 54 59 75 60 42 61 26 62 27 63 35 64 28 65
REMARK SMILES IDX 34 66 36 67 33 68 29 69 30 70 31 71 32 72 58 73 59 74 67 75
REMARK SMILES IDX 60 76 66 77 68 78 65 79 61 80 62 81 63 82 64 83 43 84 44 85
REMARK SMILES IDX 52 86 45 87 51 88 53 89 50 90 46 91 47 92 48 93 49 94
REMARK H PARENT 73 47 41 58
REMARK Flexibility Score: inf
ROOT
ATOM      1  C   UNL A   1      32.522  36.355  30.655  1.00  0.00     0.188 C 
ENDROOT
BRANCH   1   2
ATOM      2  O   UNL A   1      32.570  35.227  29.787  1.00  0.00    -0.376 OA
BRANCH   2   3
ATOM      3  C   UNL A   1      33.623  35.153  28.828  1.00  0.00     0.202 C 
BRANCH   3   4
ATOM      4  C   UNL A   1      34.943  34.457  29.213  1.00  0.00     0.261 C 
BRANCH   4   5
ATOM      5  O   UNL A   1      34.836  33.030  29.400  1.00  0.00    -0.463 OA
BRANCH   5   6
ATOM      6  C   UNL A   1      35.175  32.240  28.345  1.00  0.00     0.313 C 
ATOM      7  O   UNL A   1      35.728  32.667  27.335  1.00  0.00    -0.252 OA
BRANCH   6   8
ATOM      8  C   UNL A   1      34.882  30.743  28.560  1.00  0.00     0.129 C 
ATOM      9  C   UNL A   1      36.095  29.925  29.037  1.00  0.00     0.025 C 
BRANCH   8  10
ATOM     10  C   UNL A   1      34.077  30.078  27.437  1.00  0.00     0.002 A 
ATOM     11  C   UNL A   1      34.502  28.905  26.794  1.00  0.00     0.008 A 
ATOM     12  C   UNL A   1      32.918  30.686  26.929  1.00  0.00     0.127 A 
ATOM     13  C   UNL A   1      33.801  28.374  25.705  1.00  0.00     0.004 A 
ATOM     14  C   UNL A   1      32.234  30.181  25.818  1.00  0.00     0.043 A 
ATOM     15  F   UNL A   1      32.450  31.810  27.490  1.00  0.00    -0.207 F 
ATOM     16  C   UNL A   1      32.689  29.032  25.167  1.00  0.00    -0.040 A 
BRANCH  16  17
ATOM     17  C   UNL A   1      32.010  28.531  23.906  1.00  0.00     0.082 C 
BRANCH  17  18
ATOM     18  C   UNL A   1      32.367  27.114  23.528  1.00  0.00     0.009 A 
ATOM     19  C   UNL A   1      31.942  25.920  24.083  1.00  0.00     0.016 A 
ATOM     20  S   UNL A   1      33.384  26.829  22.172  1.00  0.00    -0.149 S 
ATOM     21  C   UNL A   1      32.443  24.782  23.394  1.00  0.00     0.012 A 
ATOM     22  C   UNL A   1      33.219  25.137  22.315  1.00  0.00     0.065 A 
ENDBRANCH  17  18
ENDBRANCH  16  17
ENDBRANCH   8  10
ENDBRANCH   6   8
ENDBRANCH   5   6
ENDBRANCH   4   5
ENDBRANCH   3   4
ENDBRANCH   2   3
ENDBRANCH   1   2
BRANCH   1  23
ATOM     23  C   UNL A   1      32.320  36.121  32.160  1.00  0.00     0.188 C 
BRANCH  23  24
ATOM     24  O   UNL A   1      32.617  34.812  32.586  1.00  0.00    -0.376 OA
BRANCH  24  25
ATOM     25  C   UNL A   1      33.960  34.486  32.888  1.00  0.00     0.202 C 
BRANCH  25  26
ATOM     26  C   UNL A   1      34.453  33.025  32.923  1.00  0.00     0.261 C 
BRANCH  26  27
ATOM     27  O   UNL A   1      35.637  32.735  33.679  1.00  0.00    -0.460 OA
BRANCH  27  28
ATOM     28  C   UNL A   1      36.733  33.494  33.433  1.00  0.00     0.338 C 
ATOM     29  O   UNL A   1      36.978  34.592  33.909  1.00  0.00    -0.246 OA
BRANCH  28  30
ATOM     30  C   UNL A   1      37.692  32.658  32.672  1.00  0.00     0.060 A 
ATOM     31  C   UNL A   1      38.484  31.726  33.358  1.00  0.00     0.016 A 
ATOM     32  C   UNL A   1      37.788  32.778  31.285  1.00  0.00     0.016 A 
ATOM     33  C   UNL A   1      39.390  30.924  32.657  1.00  0.00     0.010 A 
ATOM     34  C   UNL A   1      38.716  31.995  30.589  1.00  0.00     0.010 A 
ATOM     35  C   UNL A   1      39.540  31.083  31.273  1.00  0.00    -0.014 A 
BRANCH  35  36
ATOM     36  C   UNL A   1      40.684  30.446  30.567  1.00  0.00     0.031 A 
ATOM     37  C   UNL A   1      41.985  31.197  30.502  1.00  0.00     0.074 A 
ATOM     38  C   UNL A   1      40.573  29.233  29.995  1.00  0.00     0.049 A 
ATOM     39  N   UNL A   1      43.093  30.890  29.879  1.00  0.00    -0.248 NA
ATOM     40  C   UNL A   1      42.034  32.476  31.227  1.00  0.00     0.031 C 
ATOM     41  C   UNL A   1      39.372  28.402  30.011  1.00  0.00     0.029 A 
ATOM     42  N   UNL A   1      41.489  28.488  29.290  1.00  0.00    -0.354 N 
ATOM     43  C   UNL A   1      43.962  31.951  30.109  1.00  0.00     0.074 A 
ATOM     44  C   UNL A   1      43.242  32.917  30.915  1.00  0.00     0.031 C 
ATOM     45  C   UNL A   1      39.633  27.252  29.364  1.00  0.00     0.029 A 
ATOM     46  C   UNL A   1      40.999  27.281  28.843  1.00  0.00     0.049 A 
ATOM     47  H   UNL A   1      42.410  28.790  29.121  1.00  0.00     0.167 HD
ATOM     48  C   UNL A   1      45.239  32.109  29.683  1.00  0.00     0.034 A 
ATOM     49  C   UNL A   1      41.577  26.328  28.081  1.00  0.00     0.034 A 
ATOM     50  C   UNL A   1      45.939  31.143  28.874  1.00  0.00     0.049 A 
ATOM     51  C   UNL A   1      42.982  26.559  27.564  1.00  0.00     0.074 A 
ATOM     52  C   UNL A   1      47.239  31.198  28.400  1.00  0.00     0.029 A 
ATOM     53  N   UNL A   1      45.397  29.954  28.401  1.00  0.00    -0.354 N 
ATOM     54  N   UNL A   1      43.793  27.571  27.784  1.00  0.00    -0.248 NA
ATOM     55  C   UNL A   1      43.543  25.528  26.678  1.00  0.00     0.031 C 
ATOM     56  C   UNL A   1      47.453  30.089  27.575  1.00  0.00     0.029 A 
ATOM     57  C   UNL A   1      46.322  29.289  27.612  1.00  0.00     0.049 A 
ATOM     58  H   UNL A   1      44.488  29.631  28.599  1.00  0.00     0.167 HD
ATOM     59  C   UNL A   1      44.965  27.279  27.088  1.00  0.00     0.074 A 
ATOM     60  C   UNL A   1      44.764  25.991  26.458  1.00  0.00     0.031 C 
ATOM     61  C   UNL A   1      46.107  28.007  26.980  1.00  0.00     0.034 A 
BRANCH  48  62
ATOM     62  C   UNL A   1      45.933  33.406  30.029  1.00  0.00     0.023 A 
ATOM     63  C   UNL A   1      45.723  34.583  29.292  1.00  0.00     0.031 A 
ATOM     64  C   UNL A   1      46.840  33.453  31.104  1.00  0.00     0.131 A 
ATOM     65  C   UNL A   1      46.464  35.737  29.594  1.00  0.00     0.055 A 
ATOM     66  C   UNL A   1      47.507  34.629  31.453  1.00  0.00     0.041 A 
ATOM     67  F   UNL A   1      47.101  32.354  31.828  1.00  0.00    -0.206 F 
ATOM     68  C   UNL A   1      47.332  35.776  30.687  1.00  0.00     0.022 A 
BRANCH  65  69
ATOM     69  S   UNL A   1      46.387  37.140  28.447  1.00  0.00     0.124 S 
ATOM     70  O   UNL A   1      46.294  38.269  29.368  1.00  0.00    -0.237 OA
ATOM     71  O   UNL A   1      47.641  37.017  27.713  1.00  0.00    -0.237 OA
ATOM     72  O   UNL A   1      45.179  36.881  27.668  1.00  0.00    -0.744 OA
ENDBRANCH  65  69
ENDBRANCH  48  62
BRANCH  49  73
ATOM     73  C   UNL A   1      40.830  25.089  27.699  1.00  0.00     0.023 A 
ATOM     74  C   UNL A   1      41.409  23.814  27.831  1.00  0.00     0.031 A 
ATOM     75  C   UNL A   1      39.552  25.168  27.116  1.00  0.00     0.131 A 
ATOM     76  C   UNL A   1      40.737  22.682  27.339  1.00  0.00     0.055 A 
ATOM     77  C   UNL A   1      38.856  24.033  26.696  1.00  0.00     0.041 A 
ATOM     78  F   UNL A   1      38.955  26.359  26.943  1.00  0.00    -0.206 F 
ATOM     79  C   UNL A   1      39.456  22.783  26.792  1.00  0.00     0.022 A 
BRANCH  76  80
ATOM     80  S   UNL A   1      41.611  21.089  27.282  1.00  0.00     0.124 S 
ATOM     81  O   UNL A   1      40.668  20.210  27.962  1.00  0.00    -0.237 OA
ATOM     82  O   UNL A   1      41.775  20.870  25.850  1.00  0.00    -0.237 OA
ATOM     83  O   UNL A   1      42.851  21.358  28.008  1.00  0.00    -0.744 OA
ENDBRANCH  76  80
ENDBRANCH  49  73
BRANCH  61  84
ATOM     84  C   UNL A   1      47.249  27.401  26.193  1.00  0.00     0.023 A 
ATOM     85  C   UNL A   1      48.294  26.694  26.814  1.00  0.00     0.031 A 
ATOM     86  C   UNL A   1      47.287  27.537  24.793  1.00  0.00     0.131 A 
ATOM     87  C   UNL A   1      49.359  26.198  26.043  1.00  0.00     0.055 A 
ATOM     88  C   UNL A   1      48.314  26.983  24.025  1.00  0.00     0.041 A 
ATOM     89  F   UNL A   1      46.320  28.204  24.143  1.00  0.00    -0.206 F 
ATOM     90  C   UNL A   1      49.365  26.322  24.651  1.00  0.00     0.022 A 
BRANCH  87  91
ATOM     91  S   UNL A   1      50.791  25.478  26.893  1.00  0.00     0.124 S 
ATOM     92  O   UNL A   1      50.188  24.356  27.605  1.00  0.00    -0.237 OA
ATOM     93  O   UNL A   1      51.671  25.130  25.782  1.00  0.00    -0.237 OA
ATOM     94  O   UNL A   1      51.270  26.566  27.743  1.00  0.00    -0.744 OA
ENDBRANCH  87  91
ENDBRANCH  61  84
ENDBRANCH  35  36
ENDBRANCH  28  30
ENDBRANCH  27  28
ENDBRANCH  26  27
ENDBRANCH  25  26
ENDBRANCH  24  25
ENDBRANCH  23  24
ENDBRANCH   1  23
TORSDOF 23
ENDMDL
