MODEL 1
REMARK VINA RESULT:     -10.4      0.000      0.000
REMARK SMILES Nc1nc(Nc2ccc(C(=O)OCCOCCOCCOC(=O)c3ccc(-c4c5nc(c(-c6cc(S(=O)(=O)[O-])ccc6F)c6ccc([nH]6)c(-c6cc(S(=O)(=O)[O-])ccc6F)c6nc(c(-c7cc(S(=O)(=O)[O-])ccc7F)c7ccc4[nH]7)C=C6)C=C5)cc3)cc2)ccc1[N+](=O)[O-]
REMARK SMILES IDX 16 1 15 2 14 3 13 4 12 5 10 6 11 7 9 8 6 9 7 10 88 11 8 12
REMARK SMILES IDX 87 13 5 14 4 16 2 17 3 18 91 19 90 20 89 21 1 22 92 25 93 26
REMARK SMILES IDX 94 27 17 28 18 29 19 30 20 31 21 32 22 33 23 34 24 35 25 36
REMARK SMILES IDX 86 37 26 38 85 39 27 40 28 41 29 42 79 43 30 44 84 45 78 46
REMARK SMILES IDX 80 47 31 48 83 49 77 50 76 51 32 53 64 54 44 55 63 56 45 57
REMARK SMILES IDX 48 58 62 59 81 60 46 61 47 62 61 64 82 65 49 66 33 67 34 68
REMARK SMILES IDX 42 69 35 70 41 71 43 72 40 73 36 74 37 75 38 76 39 77 65 78
REMARK SMILES IDX 66 79 74 80 67 81 73 82 75 83 72 84 68 85 69 86 70 87 71 88
REMARK SMILES IDX 50 89 51 90 59 91 52 92 58 93 60 94 57 95 53 96 54 97 55 98
REMARK SMILES IDX 56 99
REMARK H PARENT 5 15 1 23 1 24 80 52 48 63
REMARK Flexibility Score: inf
ROOT
ATOM      1  C   UNL A   1      33.150  23.504  23.206  1.00  0.00     0.188 C 
ENDROOT
BRANCH   1   2
ATOM      2  O   UNL A   1      32.386  24.190  24.183  1.00  0.00    -0.376 OA
BRANCH   2   3
ATOM      3  C   UNL A   1      32.010  25.543  23.982  1.00  0.00     0.202 C 
BRANCH   3   4
ATOM      4  C   UNL A   1      30.828  26.181  24.727  1.00  0.00     0.261 C 
BRANCH   4   5
ATOM      5  O   UNL A   1      31.181  27.213  25.655  1.00  0.00    -0.460 OA
BRANCH   5   6
ATOM      6  C   UNL A   1      31.437  28.422  25.090  1.00  0.00     0.338 C 
ATOM      7  O   UNL A   1      30.955  28.869  24.072  1.00  0.00    -0.246 OA
BRANCH   6   8
ATOM      8  C   UNL A   1      32.292  29.223  25.993  1.00  0.00     0.060 A 
ATOM      9  C   UNL A   1      33.913  30.921  27.516  1.00  0.00     0.040 A 
ATOM     10  C   UNL A   1      32.600  31.294  27.208  1.00  0.00     0.027 A 
ATOM     11  C   UNL A   1      34.373  29.653  27.122  1.00  0.00     0.027 A 
ATOM     12  C   UNL A   1      31.797  30.455  26.436  1.00  0.00     0.018 A 
ATOM     13  C   UNL A   1      33.564  28.795  26.373  1.00  0.00     0.018 A 
BRANCH   9  14
ATOM     14  N   UNL A   1      34.814  31.901  27.990  1.00  0.00    -0.340 N 
ATOM     15  H   UNL A   1      35.765  31.824  27.750  1.00  0.00     0.168 HD
BRANCH  14  16
ATOM     16  C   UNL A   1      34.403  32.984  28.795  1.00  0.00     0.133 A 
ATOM     17  C   UNL A   1      34.053  33.866  30.943  1.00  0.00     0.204 A 
ATOM     18  N   UNL A   1      34.389  32.839  30.142  1.00  0.00    -0.207 NA
ATOM     19  C   UNL A   1      33.683  35.092  30.409  1.00  0.00     0.311 A 
ATOM     20  C   UNL A   1      33.653  35.250  29.016  1.00  0.00     0.093 A 
ATOM     21  C   UNL A   1      34.008  34.176  28.201  1.00  0.00     0.054 A 
BRANCH  17  22
ATOM     22  N   UNL A   1      34.034  33.529  32.280  1.00  0.00    -0.378 N 
ATOM     23  H   UNL A   1      34.428  34.137  32.946  1.00  0.00     0.158 HD
ATOM     24  H   UNL A   1      33.628  32.680  32.568  1.00  0.00     0.158 HD
ENDBRANCH  17  22
BRANCH  19  25
ATOM     25  N   UNL A   1      33.346  36.220  31.266  1.00  0.00     0.066 N 
ATOM     26  O   UNL A   1      34.134  36.492  32.185  1.00  0.00    -0.258 OA
ATOM     27  O   UNL A   1      32.286  36.830  31.060  1.00  0.00    -0.258 OA
ENDBRANCH  19  25
ENDBRANCH  14  16
ENDBRANCH   9  14
ENDBRANCH   6   8
ENDBRANCH   5   6
ENDBRANCH   4   5
ENDBRANCH   3   4
ENDBRANCH   2   3
ENDBRANCH   1   2
BRANCH   1  28
ATOM     28  C   UNL A   1      34.662  23.281  23.414  1.00  0.00     0.188 C 
BRANCH  28  29
ATOM     29  O   UNL A   1      35.076  21.984  23.771  1.00  0.00    -0.376 OA
BRANCH  29  30
ATOM     30  C   UNL A   1      35.340  21.654  25.122  1.00  0.00     0.202 C 
BRANCH  30  31
ATOM     31  C   UNL A   1      36.703  21.267  25.730  1.00  0.00     0.261 C 
BRANCH  31  32
ATOM     32  O   UNL A   1      37.811  22.148  25.551  1.00  0.00    -0.460 OA
BRANCH  32  33
ATOM     33  C   UNL A   1      38.953  21.786  26.188  1.00  0.00     0.338 C 
ATOM     34  O   UNL A   1      39.444  20.671  26.240  1.00  0.00    -0.246 OA
BRANCH  33  35
ATOM     35  C   UNL A   1      39.619  23.006  26.682  1.00  0.00     0.060 A 
ATOM     36  C   UNL A   1      39.239  24.244  26.149  1.00  0.00     0.016 A 
ATOM     37  C   UNL A   1      40.629  22.923  27.642  1.00  0.00     0.016 A 
ATOM     38  C   UNL A   1      39.886  25.408  26.565  1.00  0.00     0.010 A 
ATOM     39  C   UNL A   1      41.289  24.089  28.042  1.00  0.00     0.010 A 
ATOM     40  C   UNL A   1      40.938  25.334  27.487  1.00  0.00    -0.014 A 
BRANCH  40  41
ATOM     41  C   UNL A   1      41.786  26.525  27.742  1.00  0.00     0.031 A 
ATOM     42  C   UNL A   1      41.215  27.646  28.569  1.00  0.00     0.074 A 
ATOM     43  C   UNL A   1      43.040  26.608  27.263  1.00  0.00     0.049 A 
ATOM     44  N   UNL A   1      41.733  28.810  28.863  1.00  0.00    -0.248 NA
ATOM     45  C   UNL A   1      39.877  27.420  29.136  1.00  0.00     0.031 C 
ATOM     46  C   UNL A   1      43.720  25.567  26.495  1.00  0.00     0.029 A 
ATOM     47  N   UNL A   1      43.962  27.622  27.346  1.00  0.00    -0.354 N 
ATOM     48  C   UNL A   1      40.784  29.458  29.648  1.00  0.00     0.074 A 
ATOM     49  C   UNL A   1      39.645  28.569  29.749  1.00  0.00     0.031 C 
ATOM     50  C   UNL A   1      44.949  26.002  26.165  1.00  0.00     0.029 A 
ATOM     51  C   UNL A   1      45.127  27.368  26.659  1.00  0.00     0.049 A 
ATOM     52  H   UNL A   1      43.804  28.453  27.849  1.00  0.00     0.167 HD
ATOM     53  C   UNL A   1      40.859  30.678  30.235  1.00  0.00     0.034 A 
ATOM     54  C   UNL A   1      46.195  28.159  26.430  1.00  0.00     0.034 A 
ATOM     55  C   UNL A   1      41.992  31.561  30.108  1.00  0.00     0.049 A 
ATOM     56  C   UNL A   1      46.211  29.558  27.005  1.00  0.00     0.074 A 
ATOM     57  C   UNL A   1      42.172  32.816  30.662  1.00  0.00     0.029 A 
ATOM     58  N   UNL A   1      43.132  31.291  29.364  1.00  0.00    -0.354 N 
ATOM     59  N   UNL A   1      45.309  30.159  27.748  1.00  0.00    -0.248 NA
ATOM     60  C   UNL A   1      47.391  30.383  26.713  1.00  0.00     0.031 C 
ATOM     61  C   UNL A   1      43.383  33.334  30.193  1.00  0.00     0.029 A 
ATOM     62  C   UNL A   1      44.003  32.369  29.417  1.00  0.00     0.049 A 
ATOM     63  H   UNL A   1      43.299  30.455  28.870  1.00  0.00     0.167 HD
ATOM     64  C   UNL A   1      45.836  31.416  28.043  1.00  0.00     0.074 A 
ATOM     65  C   UNL A   1      47.135  31.481  27.408  1.00  0.00     0.031 C 
ATOM     66  C   UNL A   1      45.297  32.423  28.777  1.00  0.00     0.034 A 
BRANCH  53  67
ATOM     67  C   UNL A   1      39.657  31.143  31.021  1.00  0.00     0.023 A 
ATOM     68  C   UNL A   1      39.669  31.200  32.426  1.00  0.00     0.031 A 
ATOM     69  C   UNL A   1      38.474  31.511  30.357  1.00  0.00     0.131 A 
ATOM     70  C   UNL A   1      38.502  31.551  33.121  1.00  0.00     0.055 A 
ATOM     71  C   UNL A   1      37.340  31.936  31.052  1.00  0.00     0.041 A 
ATOM     72  F   UNL A   1      38.395  31.453  29.018  1.00  0.00    -0.206 F 
ATOM     73  C   UNL A   1      37.346  31.945  32.443  1.00  0.00     0.022 A 
BRANCH  70  74
ATOM     74  S   UNL A   1      38.474  31.350  34.924  1.00  0.00     0.124 S 
ATOM     75  O   UNL A   1      39.852  31.681  35.279  1.00  0.00    -0.237 OA
ATOM     76  O   UNL A   1      37.460  32.314  35.333  1.00  0.00    -0.237 OA
ATOM     77  O   UNL A   1      38.112  29.946  35.106  1.00  0.00    -0.744 OA
ENDBRANCH  70  74
ENDBRANCH  53  67
BRANCH  54  78
ATOM     78  C   UNL A   1      47.330  27.682  25.583  1.00  0.00     0.023 A 
ATOM     79  C   UNL A   1      47.411  28.020  24.223  1.00  0.00     0.031 A 
ATOM     80  C   UNL A   1      48.306  26.815  26.104  1.00  0.00     0.131 A 
ATOM     81  C   UNL A   1      48.410  27.451  23.418  1.00  0.00     0.055 A 
ATOM     82  C   UNL A   1      49.335  26.300  25.313  1.00  0.00     0.041 A 
ATOM     83  F   UNL A   1      48.273  26.452  27.397  1.00  0.00    -0.206 F 
ATOM     84  C   UNL A   1      49.381  26.605  23.957  1.00  0.00     0.022 A 
BRANCH  81  85
ATOM     85  S   UNL A   1      48.357  27.749  21.629  1.00  0.00     0.124 S 
ATOM     86  O   UNL A   1      49.406  28.749  21.465  1.00  0.00    -0.237 OA
ATOM     87  O   UNL A   1      48.644  26.423  21.093  1.00  0.00    -0.237 OA
ATOM     88  O   UNL A   1      46.995  28.229  21.405  1.00  0.00    -0.744 OA
ENDBRANCH  81  85
ENDBRANCH  54  78
BRANCH  66  89
ATOM     89  C   UNL A   1      46.142  33.659  28.983  1.00  0.00     0.023 A 
ATOM     90  C   UNL A   1      46.078  34.762  28.113  1.00  0.00     0.031 A 
ATOM     91  C   UNL A   1      47.032  33.730  30.072  1.00  0.00     0.131 A 
ATOM     92  C   UNL A   1      46.928  35.861  28.314  1.00  0.00     0.055 A 
ATOM     93  C   UNL A   1      47.827  34.853  30.303  1.00  0.00     0.041 A 
ATOM     94  F   UNL A   1      47.138  32.707  30.935  1.00  0.00    -0.206 F 
ATOM     95  C   UNL A   1      47.787  35.922  29.414  1.00  0.00     0.022 A 
BRANCH  92  96
ATOM     96  S   UNL A   1      46.965  37.175  27.063  1.00  0.00     0.124 S 
ATOM     97  O   UNL A   1      45.545  37.378  26.795  1.00  0.00    -0.237 OA
ATOM     98  O   UNL A   1      47.642  38.259  27.768  1.00  0.00    -0.237 OA
ATOM     99  O   UNL A   1      47.724  36.582  25.963  1.00  0.00    -0.744 OA
ENDBRANCH  92  96
ENDBRANCH  66  89
ENDBRANCH  40  41
ENDBRANCH  33  35
ENDBRANCH  32  33
ENDBRANCH  31  32
ENDBRANCH  30  31
ENDBRANCH  29  30
ENDBRANCH  28  29
ENDBRANCH   1  28
TORSDOF 24
ENDMDL
MODEL 2
REMARK VINA RESULT:     -10.3      2.924      8.294
REMARK SMILES Nc1nc(Nc2ccc(C(=O)OCCOCCOCCOC(=O)c3ccc(-c4c5nc(c(-c6cc(S(=O)(=O)[O-])ccc6F)c6ccc([nH]6)c(-c6cc(S(=O)(=O)[O-])ccc6F)c6nc(c(-c7cc(S(=O)(=O)[O-])ccc7F)c7ccc4[nH]7)C=C6)C=C5)cc3)cc2)ccc1[N+](=O)[O-]
REMARK SMILES IDX 16 1 15 2 14 3 13 4 12 5 10 6 11 7 9 8 6 9 7 10 88 11 8 12
REMARK SMILES IDX 87 13 5 14 4 16 2 17 3 18 91 19 90 20 89 21 1 22 92 25 93 26
REMARK SMILES IDX 94 27 17 28 18 29 19 30 20 31 21 32 22 33 23 34 24 35 25 36
REMARK SMILES IDX 86 37 26 38 85 39 27 40 28 41 29 42 79 43 30 44 84 45 78 46
REMARK SMILES IDX 80 47 31 48 83 49 77 50 76 51 32 53 64 54 44 55 63 56 45 57
REMARK SMILES IDX 48 58 62 59 81 60 46 61 47 62 61 64 82 65 49 66 33 67 34 68
REMARK SMILES IDX 42 69 35 70 41 71 43 72 40 73 36 74 37 75 38 76 39 77 65 78
REMARK SMILES IDX 66 79 74 80 67 81 73 82 75 83 72 84 68 85 69 86 70 87 71 88
REMARK SMILES IDX 50 89 51 90 59 91 52 92 58 93 60 94 57 95 53 96 54 97 55 98
REMARK SMILES IDX 56 99
REMARK H PARENT 5 15 1 23 1 24 80 52 48 63
REMARK Flexibility Score: inf
ROOT
ATOM      1  C   UNL A   1      34.776  21.755  25.004  1.00  0.00     0.188 C 
ENDROOT
BRANCH   1   2
ATOM      2  O   UNL A   1      33.861  20.682  24.861  1.00  0.00    -0.376 OA
BRANCH   2   3
ATOM      3  C   UNL A   1      32.547  20.918  24.381  1.00  0.00     0.202 C 
BRANCH   3   4
ATOM      4  C   UNL A   1      31.705  22.109  24.860  1.00  0.00     0.261 C 
BRANCH   4   5
ATOM      5  O   UNL A   1      32.187  22.757  26.043  1.00  0.00    -0.460 OA
BRANCH   5   6
ATOM      6  C   UNL A   1      31.335  23.671  26.577  1.00  0.00     0.338 C 
ATOM      7  O   UNL A   1      30.409  23.455  27.327  1.00  0.00    -0.246 OA
BRANCH   6   8
ATOM      8  C   UNL A   1      31.795  25.037  26.242  1.00  0.00     0.060 A 
ATOM      9  C   UNL A   1      32.441  27.651  25.480  1.00  0.00     0.040 A 
ATOM     10  C   UNL A   1      31.375  27.418  26.358  1.00  0.00     0.027 A 
ATOM     11  C   UNL A   1      33.227  26.566  25.058  1.00  0.00     0.027 A 
ATOM     12  C   UNL A   1      31.043  26.115  26.725  1.00  0.00     0.018 A 
ATOM     13  C   UNL A   1      32.918  25.260  25.445  1.00  0.00     0.018 A 
BRANCH   9  14
ATOM     14  N   UNL A   1      32.551  28.912  24.853  1.00  0.00    -0.340 N 
ATOM     15  H   UNL A   1      33.449  29.276  24.678  1.00  0.00     0.168 HD
BRANCH  14  16
ATOM     16  C   UNL A   1      31.426  29.671  24.467  1.00  0.00     0.133 A 
ATOM     17  C   UNL A   1      29.626  29.978  22.992  1.00  0.00     0.204 A 
ATOM     18  N   UNL A   1      30.733  29.310  23.361  1.00  0.00    -0.207 NA
ATOM     19  C   UNL A   1      29.183  31.075  23.717  1.00  0.00     0.311 A 
ATOM     20  C   UNL A   1      29.910  31.488  24.842  1.00  0.00     0.093 A 
ATOM     21  C   UNL A   1      31.053  30.781  25.213  1.00  0.00     0.054 A 
BRANCH  17  22
ATOM     22  N   UNL A   1      29.079  29.516  21.813  1.00  0.00    -0.378 N 
ATOM     23  H   UNL A   1      29.650  29.392  21.021  1.00  0.00     0.158 HD
ATOM     24  H   UNL A   1      28.118  29.310  21.763  1.00  0.00     0.158 HD
ENDBRANCH  17  22
BRANCH  19  25
ATOM     25  N   UNL A   1      27.970  31.788  23.345  1.00  0.00     0.066 N 
ATOM     26  O   UNL A   1      28.065  32.651  22.457  1.00  0.00    -0.258 OA
ATOM     27  O   UNL A   1      26.916  31.528  23.946  1.00  0.00    -0.258 OA
ENDBRANCH  19  25
ENDBRANCH  14  16
ENDBRANCH   9  14
ENDBRANCH   6   8
ENDBRANCH   5   6
ENDBRANCH   4   5
ENDBRANCH   3   4
ENDBRANCH   2   3
ENDBRANCH   1   2
BRANCH   1  28
ATOM     28  C   UNL A   1      36.192  21.503  25.562  1.00  0.00     0.188 C 
BRANCH  28  29
ATOM     29  O   UNL A   1      36.814  20.291  25.211  1.00  0.00    -0.376 OA
BRANCH  29  30
ATOM     30  C   UNL A   1      38.207  20.238  24.961  1.00  0.00     0.202 C 
BRANCH  30  31
ATOM     31  C   UNL A   1      39.251  19.397  25.721  1.00  0.00     0.261 C 
BRANCH  31  32
ATOM     32  O   UNL A   1      40.626  19.770  25.641  1.00  0.00    -0.460 OA
BRANCH  32  33
ATOM     33  C   UNL A   1      41.268  19.894  26.829  1.00  0.00     0.338 C 
ATOM     34  O   UNL A   1      41.818  19.010  27.464  1.00  0.00    -0.246 OA
BRANCH  33  35
ATOM     35  C   UNL A   1      41.351  21.327  27.168  1.00  0.00     0.060 A 
ATOM     36  C   UNL A   1      40.880  22.267  26.243  1.00  0.00     0.016 A 
ATOM     37  C   UNL A   1      41.915  21.738  28.376  1.00  0.00     0.016 A 
ATOM     38  C   UNL A   1      40.989  23.630  26.519  1.00  0.00     0.010 A 
ATOM     39  C   UNL A   1      42.041  23.105  28.641  1.00  0.00     0.010 A 
ATOM     40  C   UNL A   1      41.603  24.058  27.703  1.00  0.00    -0.014 A 
BRANCH  40  41
ATOM     41  C   UNL A   1      41.942  25.491  27.887  1.00  0.00     0.031 A 
ATOM     42  C   UNL A   1      43.301  25.967  27.447  1.00  0.00     0.074 A 
ATOM     43  C   UNL A   1      41.061  26.356  28.420  1.00  0.00     0.049 A 
ATOM     44  N   UNL A   1      43.850  27.147  27.571  1.00  0.00    -0.248 NA
ATOM     45  C   UNL A   1      44.154  24.971  26.780  1.00  0.00     0.031 C 
ATOM     46  C   UNL A   1      39.700  26.027  28.835  1.00  0.00     0.029 A 
ATOM     47  N   UNL A   1      41.188  27.692  28.712  1.00  0.00    -0.354 N 
ATOM     48  C   UNL A   1      45.114  27.038  27.000  1.00  0.00     0.074 A 
ATOM     49  C   UNL A   1      45.261  25.664  26.566  1.00  0.00     0.031 C 
ATOM     50  C   UNL A   1      39.119  27.129  29.341  1.00  0.00     0.029 A 
ATOM     51  C   UNL A   1      40.081  28.231  29.328  1.00  0.00     0.049 A 
ATOM     52  H   UNL A   1      41.995  28.215  28.501  1.00  0.00     0.167 HD
ATOM     53  C   UNL A   1      46.061  27.996  26.847  1.00  0.00     0.034 A 
ATOM     54  C   UNL A   1      39.884  29.460  29.848  1.00  0.00     0.034 A 
ATOM     55  C   UNL A   1      45.908  29.355  27.304  1.00  0.00     0.049 A 
ATOM     56  C   UNL A   1      40.995  30.482  29.762  1.00  0.00     0.074 A 
ATOM     57  C   UNL A   1      46.803  30.405  27.197  1.00  0.00     0.029 A 
ATOM     58  N   UNL A   1      44.794  29.851  27.967  1.00  0.00    -0.354 N 
ATOM     59  N   UNL A   1      42.186  30.368  29.217  1.00  0.00    -0.248 NA
ATOM     60  C   UNL A   1      40.734  31.800  30.357  1.00  0.00     0.031 C 
ATOM     61  C   UNL A   1      46.264  31.511  27.862  1.00  0.00     0.029 A 
ATOM     62  C   UNL A   1      44.994  31.182  28.306  1.00  0.00     0.049 A 
ATOM     63  H   UNL A   1      43.980  29.335  28.169  1.00  0.00     0.167 HD
ATOM     64  C   UNL A   1      42.795  31.613  29.372  1.00  0.00     0.074 A 
ATOM     65  C   UNL A   1      41.838  32.463  30.048  1.00  0.00     0.031 C 
ATOM     66  C   UNL A   1      44.032  32.019  28.984  1.00  0.00     0.034 A 
BRANCH  53  67
ATOM     67  C   UNL A   1      47.363  27.585  26.205  1.00  0.00     0.023 A 
ATOM     68  C   UNL A   1      47.598  27.761  24.830  1.00  0.00     0.031 A 
ATOM     69  C   UNL A   1      48.376  26.986  26.975  1.00  0.00     0.131 A 
ATOM     70  C   UNL A   1      48.786  27.283  24.257  1.00  0.00     0.055 A 
ATOM     71  C   UNL A   1      49.589  26.585  26.413  1.00  0.00     0.041 A 
ATOM     72  F   UNL A   1      48.199  26.769  28.288  1.00  0.00    -0.206 F 
ATOM     73  C   UNL A   1      49.795  26.720  25.043  1.00  0.00     0.022 A 
BRANCH  70  74
ATOM     74  S   UNL A   1      48.936  27.280  22.449  1.00  0.00     0.124 S 
ATOM     75  O   UNL A   1      48.060  28.390  22.079  1.00  0.00    -0.237 OA
ATOM     76  O   UNL A   1      50.363  27.499  22.250  1.00  0.00    -0.237 OA
ATOM     77  O   UNL A   1      48.447  25.957  22.067  1.00  0.00    -0.744 OA
ENDBRANCH  70  74
ENDBRANCH  53  67
BRANCH  54  78
ATOM     78  C   UNL A   1      38.605  29.798  30.541  1.00  0.00     0.023 A 
ATOM     79  C   UNL A   1      37.619  30.571  29.907  1.00  0.00     0.031 A 
ATOM     80  C   UNL A   1      38.384  29.419  31.876  1.00  0.00     0.131 A 
ATOM     81  C   UNL A   1      36.487  30.989  30.625  1.00  0.00     0.055 A 
ATOM     82  C   UNL A   1      37.227  29.785  32.568  1.00  0.00     0.041 A 
ATOM     83  F   UNL A   1      39.297  28.686  32.535  1.00  0.00    -0.206 F 
ATOM     84  C   UNL A   1      36.277  30.589  31.946  1.00  0.00     0.022 A 
BRANCH  81  85
ATOM     85  S   UNL A   1      35.342  32.155  29.836  1.00  0.00     0.124 S 
ATOM     86  O   UNL A   1      36.252  33.197  29.376  1.00  0.00    -0.237 OA
ATOM     87  O   UNL A   1      34.735  31.328  28.799  1.00  0.00    -0.237 OA
ATOM     88  O   UNL A   1      34.448  32.541  30.925  1.00  0.00    -0.744 OA
ENDBRANCH  81  85
ENDBRANCH  54  78
BRANCH  66  89
ATOM     89  C   UNL A   1      44.394  33.466  29.228  1.00  0.00     0.023 A 
ATOM     90  C   UNL A   1      43.821  34.515  28.489  1.00  0.00     0.031 A 
ATOM     91  C   UNL A   1      45.337  33.797  30.220  1.00  0.00     0.131 A 
ATOM     92  C   UNL A   1      44.237  35.837  28.713  1.00  0.00     0.055 A 
ATOM     93  C   UNL A   1      45.697  35.119  30.483  1.00  0.00     0.041 A 
ATOM     94  F   UNL A   1      45.920  32.837  30.957  1.00  0.00    -0.206 F 
ATOM     95  C   UNL A   1      45.157  36.148  29.718  1.00  0.00     0.022 A 
BRANCH  92  96
ATOM     96  S   UNL A   1      43.629  37.142  27.608  1.00  0.00     0.124 S 
ATOM     97  O   UNL A   1      44.834  37.935  27.385  1.00  0.00    -0.237 OA
ATOM     98  O   UNL A   1      43.147  36.380  26.461  1.00  0.00    -0.237 OA
ATOM     99  O   UNL A   1      42.589  37.803  28.395  1.00  0.00    -0.744 OA
ENDBRANCH  92  96
ENDBRANCH  66  89
ENDBRANCH  40  41
ENDBRANCH  33  35
ENDBRANCH  32  33
ENDBRANCH  31  32
ENDBRANCH  30  31
ENDBRANCH  29  30
ENDBRANCH  28  29
ENDBRANCH   1  28
TORSDOF 24
ENDMDL
MODEL 3
REMARK VINA RESULT:     -10.0      3.811      9.684
REMARK SMILES Nc1nc(Nc2ccc(C(=O)OCCOCCOCCOC(=O)c3ccc(-c4c5nc(c(-c6cc(S(=O)(=O)[O-])ccc6F)c6ccc([nH]6)c(-c6cc(S(=O)(=O)[O-])ccc6F)c6nc(c(-c7cc(S(=O)(=O)[O-])ccc7F)c7ccc4[nH]7)C=C6)C=C5)cc3)cc2)ccc1[N+](=O)[O-]
REMARK SMILES IDX 16 1 15 2 14 3 13 4 12 5 10 6 11 7 9 8 6 9 7 10 88 11 8 12
REMARK SMILES IDX 87 13 5 14 4 16 2 17 3 18 91 19 90 20 89 21 1 22 92 25 93 26
REMARK SMILES IDX 94 27 17 28 18 29 19 30 20 31 21 32 22 33 23 34 24 35 25 36
REMARK SMILES IDX 86 37 26 38 85 39 27 40 28 41 29 42 79 43 30 44 84 45 78 46
REMARK SMILES IDX 80 47 31 48 83 49 77 50 76 51 32 53 64 54 44 55 63 56 45 57
REMARK SMILES IDX 48 58 62 59 81 60 46 61 47 62 61 64 82 65 49 66 33 67 34 68
REMARK SMILES IDX 42 69 35 70 41 71 43 72 40 73 36 74 37 75 38 76 39 77 65 78
REMARK SMILES IDX 66 79 74 80 67 81 73 82 75 83 72 84 68 85 69 86 70 87 71 88
REMARK SMILES IDX 50 89 51 90 59 91 52 92 58 93 60 94 57 95 53 96 54 97 55 98
REMARK SMILES IDX 56 99
REMARK H PARENT 5 15 1 23 1 24 80 52 48 63
REMARK Flexibility Score: inf
ROOT
ATOM      1  C   UNL A   1      34.451  24.673  23.587  1.00  0.00     0.188 C 
ENDROOT
BRANCH   1   2
ATOM      2  O   UNL A   1      34.033  25.434  22.467  1.00  0.00    -0.376 OA
BRANCH   2   3
ATOM      3  C   UNL A   1      32.671  25.803  22.316  1.00  0.00     0.202 C 
BRANCH   3   4
ATOM      4  C   UNL A   1      32.040  26.941  23.131  1.00  0.00     0.261 C 
BRANCH   4   5
ATOM      5  O   UNL A   1      31.390  26.535  24.341  1.00  0.00    -0.460 OA
BRANCH   5   6
ATOM      6  C   UNL A   1      30.498  25.521  24.193  1.00  0.00     0.338 C 
ATOM      7  O   UNL A   1      29.472  25.540  23.549  1.00  0.00    -0.246 OA
BRANCH   6   8
ATOM      8  C   UNL A   1      31.035  24.289  24.812  1.00  0.00     0.060 A 
ATOM      9  C   UNL A   1      32.271  22.093  26.027  1.00  0.00     0.040 A 
ATOM     10  C   UNL A   1      31.979  23.238  26.777  1.00  0.00     0.027 A 
ATOM     11  C   UNL A   1      31.861  22.033  24.685  1.00  0.00     0.027 A 
ATOM     12  C   UNL A   1      31.377  24.338  26.169  1.00  0.00     0.018 A 
ATOM     13  C   UNL A   1      31.232  23.121  24.076  1.00  0.00     0.018 A 
BRANCH   9  14
ATOM     14  N   UNL A   1      33.172  21.139  26.551  1.00  0.00    -0.340 N 
ATOM     15  H   UNL A   1      33.654  21.350  27.382  1.00  0.00     0.168 HD
BRANCH  14  16
ATOM     16  C   UNL A   1      33.410  19.895  25.928  1.00  0.00     0.133 A 
ATOM     17  C   UNL A   1      32.786  17.651  25.629  1.00  0.00     0.204 A 
ATOM     18  N   UNL A   1      32.622  18.838  26.240  1.00  0.00    -0.207 NA
ATOM     19  C   UNL A   1      33.787  17.471  24.685  1.00  0.00     0.311 A 
ATOM     20  C   UNL A   1      34.637  18.541  24.377  1.00  0.00     0.093 A 
ATOM     21  C   UNL A   1      34.451  19.766  25.017  1.00  0.00     0.054 A 
BRANCH  17  22
ATOM     22  N   UNL A   1      31.941  16.672  26.107  1.00  0.00    -0.378 N 
ATOM     23  H   UNL A   1      31.265  16.273  25.514  1.00  0.00     0.158 HD
ATOM     24  H   UNL A   1      32.013  16.373  27.042  1.00  0.00     0.158 HD
ENDBRANCH  17  22
BRANCH  19  25
ATOM     25  N   UNL A   1      33.955  16.200  23.995  1.00  0.00     0.066 N 
ATOM     26  O   UNL A   1      34.107  16.235  22.763  1.00  0.00    -0.258 OA
ATOM     27  O   UNL A   1      33.909  15.151  24.656  1.00  0.00    -0.258 OA
ENDBRANCH  19  25
ENDBRANCH  14  16
ENDBRANCH   9  14
ENDBRANCH   6   8
ENDBRANCH   5   6
ENDBRANCH   4   5
ENDBRANCH   3   4
ENDBRANCH   2   3
ENDBRANCH   1   2
BRANCH   1  28
ATOM     28  C   UNL A   1      35.137  23.306  23.388  1.00  0.00     0.188 C 
BRANCH  28  29
ATOM     29  O   UNL A   1      35.849  22.780  24.482  1.00  0.00    -0.376 OA
BRANCH  29  30
ATOM     30  C   UNL A   1      36.995  21.972  24.280  1.00  0.00     0.202 C 
BRANCH  30  31
ATOM     31  C   UNL A   1      37.759  21.168  25.350  1.00  0.00     0.261 C 
BRANCH  31  32
ATOM     32  O   UNL A   1      39.184  21.116  25.285  1.00  0.00    -0.460 OA
BRANCH  32  33
ATOM     33  C   UNL A   1      39.818  20.960  26.474  1.00  0.00     0.338 C 
ATOM     34  O   UNL A   1      40.156  19.910  26.995  1.00  0.00    -0.246 OA
BRANCH  33  35
ATOM     35  C   UNL A   1      40.197  22.292  26.980  1.00  0.00     0.060 A 
ATOM     36  C   UNL A   1      39.554  23.421  26.457  1.00  0.00     0.016 A 
ATOM     37  C   UNL A   1      41.201  22.426  27.941  1.00  0.00     0.016 A 
ATOM     38  C   UNL A   1      39.928  24.695  26.884  1.00  0.00     0.010 A 
ATOM     39  C   UNL A   1      41.586  23.705  28.353  1.00  0.00     0.010 A 
ATOM     40  C   UNL A   1      40.970  24.847  27.808  1.00  0.00    -0.014 A 
BRANCH  40  41
ATOM     41  C   UNL A   1      41.533  26.194  28.076  1.00  0.00     0.031 A 
ATOM     42  C   UNL A   1      42.935  26.488  27.615  1.00  0.00     0.074 A 
ATOM     43  C   UNL A   1      40.813  27.141  28.702  1.00  0.00     0.049 A 
ATOM     44  N   UNL A   1      43.664  27.558  27.798  1.00  0.00    -0.248 NA
ATOM     45  C   UNL A   1      43.604  25.426  26.847  1.00  0.00     0.031 C 
ATOM     46  C   UNL A   1      39.429  26.993  29.149  1.00  0.00     0.029 A 
ATOM     47  N   UNL A   1      41.153  28.417  29.081  1.00  0.00    -0.354 N 
ATOM     48  C   UNL A   1      44.878  27.301  27.170  1.00  0.00     0.074 A 
ATOM     49  C   UNL A   1      44.798  25.957  26.637  1.00  0.00     0.031 C 
ATOM     50  C   UNL A   1      39.042  28.130  29.753  1.00  0.00     0.029 A 
ATOM     51  C   UNL A   1      40.162  29.070  29.777  1.00  0.00     0.049 A 
ATOM     52  H   UNL A   1      42.025  28.825  28.874  1.00  0.00     0.167 HD
ATOM     53  C   UNL A   1      45.957  28.112  27.045  1.00  0.00     0.034 A 
ATOM     54  C   UNL A   1      40.173  30.273  30.388  1.00  0.00     0.034 A 
ATOM     55  C   UNL A   1      46.031  29.440  27.601  1.00  0.00     0.049 A 
ATOM     56  C   UNL A   1      41.427  31.117  30.328  1.00  0.00     0.074 A 
ATOM     57  C   UNL A   1      47.074  30.347  27.531  1.00  0.00     0.029 A 
ATOM     58  N   UNL A   1      45.027  30.050  28.341  1.00  0.00    -0.354 N 
ATOM     59  N   UNL A   1      42.569  30.864  29.729  1.00  0.00    -0.248 NA
ATOM     60  C   UNL A   1      41.391  32.411  31.023  1.00  0.00     0.031 C 
ATOM     61  C   UNL A   1      46.733  31.469  28.291  1.00  0.00     0.029 A 
ATOM     62  C   UNL A   1      45.441  31.305  28.763  1.00  0.00     0.049 A 
ATOM     63  H   UNL A   1      44.149  29.650  28.539  1.00  0.00     0.167 HD
ATOM     64  C   UNL A   1      43.368  31.986  29.944  1.00  0.00     0.074 A 
ATOM     65  C   UNL A   1      42.574  32.919  30.715  1.00  0.00     0.031 C 
ATOM     66  C   UNL A   1      44.640  32.227  29.535  1.00  0.00     0.034 A 
BRANCH  53  67
ATOM     67  C   UNL A   1      47.161  27.555  26.325  1.00  0.00     0.023 A 
ATOM     68  C   UNL A   1      48.151  26.818  26.999  1.00  0.00     0.031 A 
ATOM     69  C   UNL A   1      47.335  27.786  24.949  1.00  0.00     0.131 A 
ATOM     70  C   UNL A   1      49.299  26.397  26.311  1.00  0.00     0.055 A 
ATOM     71  C   UNL A   1      48.440  27.295  24.253  1.00  0.00     0.041 A 
ATOM     72  F   UNL A   1      46.435  28.504  24.258  1.00  0.00    -0.206 F 
ATOM     73  C   UNL A   1      49.438  26.607  24.937  1.00  0.00     0.022 A 
BRANCH  70  74
ATOM     74  S   UNL A   1      50.671  25.693  27.265  1.00  0.00     0.124 S 
ATOM     75  O   UNL A   1      51.744  25.679  26.273  1.00  0.00    -0.237 OA
ATOM     76  O   UNL A   1      50.822  26.650  28.354  1.00  0.00    -0.237 OA
ATOM     77  O   UNL A   1      50.177  24.374  27.655  1.00  0.00    -0.744 OA
ENDBRANCH  70  74
ENDBRANCH  53  67
BRANCH  54  78
ATOM     78  C   UNL A   1      38.983  30.750  31.154  1.00  0.00     0.023 A 
ATOM     79  C   UNL A   1      38.007  31.558  30.549  1.00  0.00     0.031 A 
ATOM     80  C   UNL A   1      38.845  30.469  32.524  1.00  0.00     0.131 A 
ATOM     81  C   UNL A   1      36.971  32.104  31.323  1.00  0.00     0.055 A 
ATOM     82  C   UNL A   1      37.778  30.963  33.277  1.00  0.00     0.041 A 
ATOM     83  F   UNL A   1      39.753  29.707  33.157  1.00  0.00    -0.206 F 
ATOM     84  C   UNL A   1      36.842  31.801  32.679  1.00  0.00     0.022 A 
BRANCH  81  85
ATOM     85  S   UNL A   1      35.853  33.307  30.551  1.00  0.00     0.124 S 
ATOM     86  O   UNL A   1      35.827  34.370  31.549  1.00  0.00    -0.237 OA
ATOM     87  O   UNL A   1      36.550  33.612  29.306  1.00  0.00    -0.237 OA
ATOM     88  O   UNL A   1      34.606  32.561  30.398  1.00  0.00    -0.744 OA
ENDBRANCH  81  85
ENDBRANCH  54  78
BRANCH  66  89
ATOM     89  C   UNL A   1      45.230  33.579  29.864  1.00  0.00     0.023 A 
ATOM     90  C   UNL A   1      45.092  34.683  29.005  1.00  0.00     0.031 A 
ATOM     91  C   UNL A   1      45.948  33.762  31.061  1.00  0.00     0.131 A 
ATOM     92  C   UNL A   1      45.710  35.902  29.327  1.00  0.00     0.055 A 
ATOM     93  C   UNL A   1      46.505  34.993  31.407  1.00  0.00     0.041 A 
ATOM     94  F   UNL A   1      46.115  32.743  31.920  1.00  0.00    -0.206 F 
ATOM     95  C   UNL A   1      46.399  36.069  30.531  1.00  0.00     0.022 A 
BRANCH  92  96
ATOM     96  S   UNL A   1      45.684  37.244  28.106  1.00  0.00     0.124 S 
ATOM     97  O   UNL A   1      45.200  38.368  28.901  1.00  0.00    -0.237 OA
ATOM     98  O   UNL A   1      47.081  37.313  27.688  1.00  0.00    -0.237 OA
ATOM     99  O   UNL A   1      44.755  36.762  27.085  1.00  0.00    -0.744 OA
ENDBRANCH  92  96
ENDBRANCH  66  89
ENDBRANCH  40  41
ENDBRANCH  33  35
ENDBRANCH  32  33
ENDBRANCH  31  32
ENDBRANCH  30  31
ENDBRANCH  29  30
ENDBRANCH  28  29
ENDBRANCH   1  28
TORSDOF 24
ENDMDL
