MODEL 1
REMARK VINA RESULT:     -10.1      0.000      0.000
REMARK SMILES C[C@H]([C@@H](C)C(=O)OCCOCCOCCOC(=O)c1ccc(-c2c3nc(c(-c4cc(S(=O)(=O)[O-])ccc4F)c4ccc([nH]4)c(-c4cc(S(=O)(=O)[O-])ccc4F)c4nc(c(-c5cc(S(=O)(=O)[O-])ccc5F)c5ccc2[nH]5)C=C4)C=C3)cc1)n1c(CC#N)nc2ccccc21
REMARK SMILES IDX 11 1 10 2 9 3 8 4 7 5 5 6 6 7 3 8 4 9 2 10 1 11 82 12 83 13
REMARK SMILES IDX 93 14 87 15 88 16 92 17 89 18 91 19 90 20 84 21 85 22 86 23
REMARK SMILES IDX 12 24 13 25 14 26 15 27 16 28 17 29 18 30 19 31 20 32 81 33
REMARK SMILES IDX 21 34 80 35 22 36 23 37 24 38 74 39 25 40 79 41 73 42 75 43
REMARK SMILES IDX 26 44 78 45 72 46 71 47 27 49 59 50 39 51 58 52 40 53 43 54
REMARK SMILES IDX 57 55 76 56 41 57 42 58 56 60 77 61 44 62 28 63 29 64 37 65
REMARK SMILES IDX 30 66 36 67 38 68 35 69 31 70 32 71 33 72 34 73 60 74 61 75
REMARK SMILES IDX 69 76 62 77 68 78 70 79 67 80 63 81 64 82 65 83 66 84 45 85
REMARK SMILES IDX 46 86 54 87 47 88 53 89 55 90 52 91 48 92 49 93 50 94 51 95
REMARK H PARENT 75 48 43 59
REMARK Flexibility Score: inf
ROOT
ATOM      1  C   UNL A   1      30.323  26.298  25.183  1.00  0.00     0.188 C 
ENDROOT
BRANCH   1   2
ATOM      2  O   UNL A   1      30.568  25.052  25.824  1.00  0.00    -0.376 OA
BRANCH   2   3
ATOM      3  C   UNL A   1      30.764  23.879  25.056  1.00  0.00     0.202 C 
BRANCH   3   4
ATOM      4  C   UNL A   1      30.765  23.994  23.530  1.00  0.00     0.261 C 
BRANCH   4   5
ATOM      5  O   UNL A   1      31.466  22.984  22.793  1.00  0.00    -0.463 OA
BRANCH   5   6
ATOM      6  C   UNL A   1      32.838  22.987  22.773  1.00  0.00     0.310 C 
ATOM      7  O   UNL A   1      33.525  23.900  22.348  1.00  0.00    -0.252 OA
BRANCH   6   8
ATOM      8  C   UNL A   1      33.364  21.575  23.071  1.00  0.00     0.119 C 
ATOM      9  C   UNL A   1      32.015  20.832  22.702  1.00  0.00     0.022 C 
BRANCH   8  10
ATOM     10  C   UNL A   1      34.210  21.454  24.506  1.00  0.00     0.100 C 
ATOM     11  C   UNL A   1      34.670  19.937  24.733  1.00  0.00     0.032 C 
BRANCH  10  12
ATOM     12  N   UNL A   1      35.452  22.248  24.846  1.00  0.00    -0.323 N 
ATOM     13  C   UNL A   1      35.181  23.080  25.881  1.00  0.00     0.124 A 
ATOM     14  C   UNL A   1      36.843  22.321  25.055  1.00  0.00     0.068 A 
ATOM     15  N   UNL A   1      35.787  24.223  25.723  1.00  0.00    -0.232 NA
ATOM     16  C   UNL A   1      37.003  23.691  25.480  1.00  0.00     0.089 A 
ATOM     17  C   UNL A   1      37.879  21.431  25.386  1.00  0.00     0.028 A 
ATOM     18  C   UNL A   1      38.175  24.229  26.031  1.00  0.00     0.030 A 
ATOM     19  C   UNL A   1      38.945  21.950  26.186  1.00  0.00     0.002 A 
ATOM     20  C   UNL A   1      39.106  23.310  26.482  1.00  0.00     0.002 A 
BRANCH  13  21
ATOM     21  C   UNL A   1      34.797  22.347  27.042  1.00  0.00     0.195 C 
BRANCH  21  22
ATOM     22  C   UNL A   1      33.408  22.468  27.645  1.00  0.00     0.070 C 
ATOM     23  N   UNL A   1      32.254  22.569  28.146  1.00  0.00    -0.198 NA
ENDBRANCH  21  22
ENDBRANCH  13  21
ENDBRANCH  10  12
ENDBRANCH   8  10
ENDBRANCH   6   8
ENDBRANCH   5   6
ENDBRANCH   4   5
ENDBRANCH   3   4
ENDBRANCH   2   3
ENDBRANCH   1   2
BRANCH   1  24
ATOM     24  C   UNL A   1      31.178  27.512  25.550  1.00  0.00     0.188 C 
BRANCH  24  25
ATOM     25  O   UNL A   1      31.094  28.607  24.676  1.00  0.00    -0.376 OA
BRANCH  25  26
ATOM     26  C   UNL A   1      31.968  29.691  24.910  1.00  0.00     0.202 C 
BRANCH  26  27
ATOM     27  C   UNL A   1      31.658  30.690  26.039  1.00  0.00     0.261 C 
BRANCH  27  28
ATOM     28  O   UNL A   1      32.561  30.760  27.161  1.00  0.00    -0.460 OA
BRANCH  28  29
ATOM     29  C   UNL A   1      33.250  31.906  27.380  1.00  0.00     0.338 C 
ATOM     30  O   UNL A   1      32.775  33.034  27.383  1.00  0.00    -0.246 OA
BRANCH  29  31
ATOM     31  C   UNL A   1      34.603  31.545  27.896  1.00  0.00     0.060 A 
ATOM     32  C   UNL A   1      34.873  30.213  28.255  1.00  0.00     0.016 A 
ATOM     33  C   UNL A   1      35.618  32.499  27.985  1.00  0.00     0.016 A 
ATOM     34  C   UNL A   1      36.140  29.845  28.732  1.00  0.00     0.010 A 
ATOM     35  C   UNL A   1      36.877  32.135  28.488  1.00  0.00     0.010 A 
ATOM     36  C   UNL A   1      37.138  30.813  28.895  1.00  0.00    -0.014 A 
BRANCH  36  37
ATOM     37  C   UNL A   1      38.368  30.510  29.684  1.00  0.00     0.031 A 
ATOM     38  C   UNL A   1      39.381  29.567  29.081  1.00  0.00     0.074 A 
ATOM     39  C   UNL A   1      38.600  31.046  30.897  1.00  0.00     0.049 A 
ATOM     40  N   UNL A   1      40.474  29.070  29.598  1.00  0.00    -0.248 NA
ATOM     41  C   UNL A   1      39.108  29.121  27.706  1.00  0.00     0.031 C 
ATOM     42  C   UNL A   1      37.739  32.015  31.573  1.00  0.00     0.029 A 
ATOM     43  N   UNL A   1      39.630  30.839  31.784  1.00  0.00    -0.354 N 
ATOM     44  C   UNL A   1      41.013  28.242  28.618  1.00  0.00     0.074 A 
ATOM     45  C   UNL A   1      40.106  28.279  27.491  1.00  0.00     0.031 C 
ATOM     46  C   UNL A   1      38.274  32.310  32.772  1.00  0.00     0.029 A 
ATOM     47  C   UNL A   1      39.487  31.516  32.973  1.00  0.00     0.049 A 
ATOM     48  H   UNL A   1      40.402  30.258  31.586  1.00  0.00     0.167 HD
ATOM     49  C   UNL A   1      42.161  27.518  28.651  1.00  0.00     0.034 A 
ATOM     50  C   UNL A   1      40.228  31.478  34.103  1.00  0.00     0.034 A 
ATOM     51  C   UNL A   1      43.053  27.479  29.783  1.00  0.00     0.049 A 
ATOM     52  C   UNL A   1      41.448  30.580  34.157  1.00  0.00     0.074 A 
ATOM     53  C   UNL A   1      44.250  26.794  29.912  1.00  0.00     0.029 A 
ATOM     54  N   UNL A   1      42.843  28.136  30.989  1.00  0.00    -0.354 N 
ATOM     55  N   UNL A   1      41.949  29.804  33.224  1.00  0.00    -0.248 NA
ATOM     56  C   UNL A   1      42.201  30.557  35.420  1.00  0.00     0.031 C 
ATOM     57  C   UNL A   1      44.715  26.963  31.220  1.00  0.00     0.029 A 
ATOM     58  C   UNL A   1      43.863  27.835  31.879  1.00  0.00     0.049 A 
ATOM     59  H   UNL A   1      42.081  28.728  31.183  1.00  0.00     0.167 HD
ATOM     60  C   UNL A   1      43.098  29.237  33.776  1.00  0.00     0.074 A 
ATOM     61  C   UNL A   1      43.219  29.766  35.117  1.00  0.00     0.031 C 
ATOM     62  C   UNL A   1      43.976  28.362  33.220  1.00  0.00     0.034 A 
BRANCH  49  63
ATOM     63  C   UNL A   1      42.477  26.660  27.448  1.00  0.00     0.023 A 
ATOM     64  C   UNL A   1      42.370  25.259  27.484  1.00  0.00     0.031 A 
ATOM     65  C   UNL A   1      42.920  27.255  26.254  1.00  0.00     0.131 A 
ATOM     66  C   UNL A   1      42.771  24.498  26.375  1.00  0.00     0.055 A 
ATOM     67  C   UNL A   1      43.234  26.497  25.124  1.00  0.00     0.041 A 
ATOM     68  F   UNL A   1      43.070  28.586  26.168  1.00  0.00    -0.206 F 
ATOM     69  C   UNL A   1      43.175  25.109  25.185  1.00  0.00     0.022 A 
BRANCH  66  70
ATOM     70  S   UNL A   1      42.906  22.699  26.560  1.00  0.00     0.124 S 
ATOM     71  O   UNL A   1      44.354  22.521  26.658  1.00  0.00    -0.237 OA
ATOM     72  O   UNL A   1      42.147  22.449  27.779  1.00  0.00    -0.237 OA
ATOM     73  O   UNL A   1      42.305  22.181  25.332  1.00  0.00    -0.744 OA
ENDBRANCH  66  70
ENDBRANCH  49  63
BRANCH  50  74
ATOM     74  C   UNL A   1      39.830  32.271  35.306  1.00  0.00     0.023 A 
ATOM     75  C   UNL A   1      39.037  31.709  36.319  1.00  0.00     0.031 A 
ATOM     76  C   UNL A   1      40.172  33.631  35.421  1.00  0.00     0.131 A 
ATOM     77  C   UNL A   1      38.570  32.512  37.373  1.00  0.00     0.055 A 
ATOM     78  C   UNL A   1      39.760  34.409  36.504  1.00  0.00     0.041 A 
ATOM     79  F   UNL A   1      40.915  34.227  34.474  1.00  0.00    -0.206 F 
ATOM     80  C   UNL A   1      38.941  33.854  37.482  1.00  0.00     0.022 A 
BRANCH  77  81
ATOM     81  S   UNL A   1      37.380  31.804  38.547  1.00  0.00     0.124 S 
ATOM     82  O   UNL A   1      36.280  32.758  38.463  1.00  0.00    -0.237 OA
ATOM     83  O   UNL A   1      37.133  30.487  37.972  1.00  0.00    -0.237 OA
ATOM     84  O   UNL A   1      38.110  31.803  39.814  1.00  0.00    -0.744 OA
ENDBRANCH  77  81
ENDBRANCH  50  74
BRANCH  62  85
ATOM     85  C   UNL A   1      45.186  27.970  34.041  1.00  0.00     0.023 A 
ATOM     86  C   UNL A   1      45.162  26.889  34.940  1.00  0.00     0.031 A 
ATOM     87  C   UNL A   1      46.386  28.697  33.917  1.00  0.00     0.131 A 
ATOM     88  C   UNL A   1      46.294  26.604  35.721  1.00  0.00     0.055 A 
ATOM     89  C   UNL A   1      47.529  28.363  34.645  1.00  0.00     0.041 A 
ATOM     90  F   UNL A   1      46.470  29.742  33.078  1.00  0.00    -0.206 F 
ATOM     91  C   UNL A   1      47.483  27.320  35.564  1.00  0.00     0.022 A 
BRANCH  88  92
ATOM     92  S   UNL A   1      46.162  25.344  37.021  1.00  0.00     0.124 S 
ATOM     93  O   UNL A   1      45.530  24.239  36.310  1.00  0.00    -0.237 OA
ATOM     94  O   UNL A   1      47.556  25.143  37.404  1.00  0.00    -0.237 OA
ATOM     95  O   UNL A   1      45.328  25.986  38.037  1.00  0.00    -0.744 OA
ENDBRANCH  88  92
ENDBRANCH  62  85
ENDBRANCH  36  37
ENDBRANCH  29  31
ENDBRANCH  28  29
ENDBRANCH  27  28
ENDBRANCH  26  27
ENDBRANCH  25  26
ENDBRANCH  24  25
ENDBRANCH   1  24
TORSDOF 24
ENDMDL
MODEL 2
REMARK VINA RESULT:     -10.1      1.404      2.345
REMARK SMILES C[C@H]([C@@H](C)C(=O)OCCOCCOCCOC(=O)c1ccc(-c2c3nc(c(-c4cc(S(=O)(=O)[O-])ccc4F)c4ccc([nH]4)c(-c4cc(S(=O)(=O)[O-])ccc4F)c4nc(c(-c5cc(S(=O)(=O)[O-])ccc5F)c5ccc2[nH]5)C=C4)C=C3)cc1)n1c(CC#N)nc2ccccc21
REMARK SMILES IDX 11 1 10 2 9 3 8 4 7 5 5 6 6 7 3 8 4 9 2 10 1 11 82 12 83 13
REMARK SMILES IDX 93 14 87 15 88 16 92 17 89 18 91 19 90 20 84 21 85 22 86 23
REMARK SMILES IDX 12 24 13 25 14 26 15 27 16 28 17 29 18 30 19 31 20 32 81 33
REMARK SMILES IDX 21 34 80 35 22 36 23 37 24 38 74 39 25 40 79 41 73 42 75 43
REMARK SMILES IDX 26 44 78 45 72 46 71 47 27 49 59 50 39 51 58 52 40 53 43 54
REMARK SMILES IDX 57 55 76 56 41 57 42 58 56 60 77 61 44 62 28 63 29 64 37 65
REMARK SMILES IDX 30 66 36 67 38 68 35 69 31 70 32 71 33 72 34 73 60 74 61 75
REMARK SMILES IDX 69 76 62 77 68 78 70 79 67 80 63 81 64 82 65 83 66 84 45 85
REMARK SMILES IDX 46 86 54 87 47 88 53 89 55 90 52 91 48 92 49 93 50 94 51 95
REMARK H PARENT 75 48 43 59
REMARK Flexibility Score: inf
ROOT
ATOM      1  C   UNL A   1      30.668  26.374  25.787  1.00  0.00     0.188 C 
ENDROOT
BRANCH   1   2
ATOM      2  O   UNL A   1      30.478  25.380  26.787  1.00  0.00    -0.376 OA
BRANCH   2   3
ATOM      3  C   UNL A   1      31.105  24.117  26.667  1.00  0.00     0.202 C 
BRANCH   3   4
ATOM      4  C   UNL A   1      30.827  23.276  25.418  1.00  0.00     0.261 C 
BRANCH   4   5
ATOM      5  O   UNL A   1      31.555  23.604  24.227  1.00  0.00    -0.463 OA
BRANCH   5   6
ATOM      6  C   UNL A   1      32.925  23.544  24.230  1.00  0.00     0.310 C 
ATOM      7  O   UNL A   1      33.656  24.371  24.748  1.00  0.00    -0.252 OA
BRANCH   6   8
ATOM      8  C   UNL A   1      33.399  22.472  23.238  1.00  0.00     0.119 C 
ATOM      9  C   UNL A   1      33.360  23.416  21.967  1.00  0.00     0.022 C 
BRANCH   8  10
ATOM     10  C   UNL A   1      32.631  20.999  23.411  1.00  0.00     0.100 C 
ATOM     11  C   UNL A   1      31.831  20.648  22.069  1.00  0.00     0.032 C 
BRANCH  10  12
ATOM     12  N   UNL A   1      33.323  19.698  23.752  1.00  0.00    -0.323 N 
ATOM     13  C   UNL A   1      34.125  19.888  24.829  1.00  0.00     0.124 A 
ATOM     14  C   UNL A   1      33.293  18.301  23.929  1.00  0.00     0.068 A 
ATOM     15  N   UNL A   1      35.231  19.209  24.704  1.00  0.00    -0.232 NA
ATOM     16  C   UNL A   1      34.629  18.038  24.407  1.00  0.00     0.089 A 
ATOM     17  C   UNL A   1      32.321  17.321  24.195  1.00  0.00     0.028 A 
ATOM     18  C   UNL A   1      35.061  16.819  24.950  1.00  0.00     0.030 A 
ATOM     19  C   UNL A   1      32.731  16.205  24.989  1.00  0.00     0.002 A 
ATOM     20  C   UNL A   1      34.063  15.943  25.338  1.00  0.00     0.002 A 
BRANCH  13  21
ATOM     21  C   UNL A   1      33.370  20.295  25.967  1.00  0.00     0.195 C 
BRANCH  21  22
ATOM     22  C   UNL A   1      33.852  21.393  26.901  1.00  0.00     0.070 C 
ATOM     23  N   UNL A   1      34.252  22.304  27.675  1.00  0.00    -0.198 NA
ENDBRANCH  21  22
ENDBRANCH  13  21
ENDBRANCH  10  12
ENDBRANCH   8  10
ENDBRANCH   6   8
ENDBRANCH   5   6
ENDBRANCH   4   5
ENDBRANCH   3   4
ENDBRANCH   2   3
ENDBRANCH   1   2
BRANCH   1  24
ATOM     24  C   UNL A   1      31.470  27.633  26.122  1.00  0.00     0.188 C 
BRANCH  24  25
ATOM     25  O   UNL A   1      31.644  28.546  25.071  1.00  0.00    -0.376 OA
BRANCH  25  26
ATOM     26  C   UNL A   1      32.578  29.586  25.265  1.00  0.00     0.202 C 
BRANCH  26  27
ATOM     27  C   UNL A   1      32.184  30.821  26.095  1.00  0.00     0.261 C 
BRANCH  27  28
ATOM     28  O   UNL A   1      32.817  31.017  27.376  1.00  0.00    -0.460 OA
BRANCH  28  29
ATOM     29  C   UNL A   1      33.610  32.100  27.559  1.00  0.00     0.338 C 
ATOM     30  O   UNL A   1      33.236  33.266  27.557  1.00  0.00    -0.246 OA
BRANCH  29  31
ATOM     31  C   UNL A   1      34.940  31.628  28.045  1.00  0.00     0.060 A 
ATOM     32  C   UNL A   1      35.119  30.269  28.355  1.00  0.00     0.016 A 
ATOM     33  C   UNL A   1      36.021  32.506  28.152  1.00  0.00     0.016 A 
ATOM     34  C   UNL A   1      36.362  29.797  28.802  1.00  0.00     0.010 A 
ATOM     35  C   UNL A   1      37.256  32.037  28.624  1.00  0.00     0.010 A 
ATOM     36  C   UNL A   1      37.428  30.687  28.984  1.00  0.00    -0.014 A 
BRANCH  36  37
ATOM     37  C   UNL A   1      38.642  30.272  29.745  1.00  0.00     0.031 A 
ATOM     38  C   UNL A   1      39.542  29.229  29.128  1.00  0.00     0.074 A 
ATOM     39  C   UNL A   1      38.957  30.794  30.946  1.00  0.00     0.049 A 
ATOM     40  N   UNL A   1      40.594  28.632  29.624  1.00  0.00    -0.248 NA
ATOM     41  C   UNL A   1      39.191  28.800  27.766  1.00  0.00     0.031 C 
ATOM     42  C   UNL A   1      38.213  31.848  31.632  1.00  0.00     0.029 A 
ATOM     43  N   UNL A   1      39.985  30.494  31.810  1.00  0.00    -0.354 N 
ATOM     44  C   UNL A   1      41.024  27.746  28.641  1.00  0.00     0.074 A 
ATOM     45  C   UNL A   1      40.096  27.862  27.536  1.00  0.00     0.031 C 
ATOM     46  C   UNL A   1      38.804  32.100  32.814  1.00  0.00     0.029 A 
ATOM     47  C   UNL A   1      39.939  31.194  32.994  1.00  0.00     0.049 A 
ATOM     48  H   UNL A   1      40.690  29.839  31.600  1.00  0.00     0.167 HD
ATOM     49  C   UNL A   1      42.096  26.913  28.653  1.00  0.00     0.034 A 
ATOM     50  C   UNL A   1      40.702  31.093  34.106  1.00  0.00     0.034 A 
ATOM     51  C   UNL A   1      43.009  26.797  29.764  1.00  0.00     0.049 A 
ATOM     52  C   UNL A   1      41.829  30.081  34.140  1.00  0.00     0.074 A 
ATOM     53  C   UNL A   1      44.137  25.999  29.871  1.00  0.00     0.029 A 
ATOM     54  N   UNL A   1      42.896  27.483  30.966  1.00  0.00    -0.354 N 
ATOM     55  N   UNL A   1      42.227  29.251  33.204  1.00  0.00    -0.248 NA
ATOM     56  C   UNL A   1      42.609  29.995  35.384  1.00  0.00     0.031 C 
ATOM     57  C   UNL A   1      44.649  26.134  31.165  1.00  0.00     0.029 A 
ATOM     58  C   UNL A   1      43.904  27.091  31.835  1.00  0.00     0.049 A 
ATOM     59  H   UNL A   1      42.201  28.148  31.172  1.00  0.00     0.167 HD
ATOM     60  C   UNL A   1      43.329  28.578  33.733  1.00  0.00     0.074 A 
ATOM     61  C   UNL A   1      43.536  29.105  35.065  1.00  0.00     0.031 C 
ATOM     62  C   UNL A   1      44.103  27.617  33.166  1.00  0.00     0.034 A 
BRANCH  49  63
ATOM     63  C   UNL A   1      42.296  26.017  27.453  1.00  0.00     0.023 A 
ATOM     64  C   UNL A   1      41.824  24.693  27.425  1.00  0.00     0.031 A 
ATOM     65  C   UNL A   1      42.995  26.490  26.329  1.00  0.00     0.131 A 
ATOM     66  C   UNL A   1      42.122  23.868  26.330  1.00  0.00     0.055 A 
ATOM     67  C   UNL A   1      43.211  25.691  25.204  1.00  0.00     0.041 A 
ATOM     68  F   UNL A   1      43.493  27.736  26.307  1.00  0.00    -0.206 F 
ATOM     69  C   UNL A   1      42.787  24.366  25.206  1.00  0.00     0.022 A 
BRANCH  66  70
ATOM     70  S   UNL A   1      41.765  22.094  26.458  1.00  0.00     0.124 S 
ATOM     71  O   UNL A   1      42.818  21.521  25.620  1.00  0.00    -0.237 OA
ATOM     72  O   UNL A   1      41.885  21.851  27.890  1.00  0.00    -0.237 OA
ATOM     73  O   UNL A   1      40.414  21.975  25.914  1.00  0.00    -0.744 OA
ENDBRANCH  66  70
ENDBRANCH  49  63
BRANCH  50  74
ATOM     74  C   UNL A   1      40.415  31.933  35.309  1.00  0.00     0.023 A 
ATOM     75  C   UNL A   1      39.353  31.625  36.175  1.00  0.00     0.031 A 
ATOM     76  C   UNL A   1      41.150  33.104  35.565  1.00  0.00     0.131 A 
ATOM     77  C   UNL A   1      39.025  32.500  37.223  1.00  0.00     0.055 A 
ATOM     78  C   UNL A   1      40.861  33.938  36.647  1.00  0.00     0.041 A 
ATOM     79  F   UNL A   1      42.166  33.458  34.762  1.00  0.00    -0.206 F 
ATOM     80  C   UNL A   1      39.783  33.645  37.476  1.00  0.00     0.022 A 
BRANCH  77  81
ATOM     81  S   UNL A   1      37.523  32.178  38.190  1.00  0.00     0.124 S 
ATOM     82  O   UNL A   1      36.560  33.062  37.543  1.00  0.00    -0.237 OA
ATOM     83  O   UNL A   1      37.326  30.748  37.978  1.00  0.00    -0.237 OA
ATOM     84  O   UNL A   1      37.904  32.558  39.549  1.00  0.00    -0.744 OA
ENDBRANCH  77  81
ENDBRANCH  50  74
BRANCH  62  85
ATOM     85  C   UNL A   1      45.290  27.116  33.961  1.00  0.00     0.023 A 
ATOM     86  C   UNL A   1      45.222  25.959  34.758  1.00  0.00     0.031 A 
ATOM     87  C   UNL A   1      46.512  27.813  33.917  1.00  0.00     0.131 A 
ATOM     88  C   UNL A   1      46.334  25.570  35.522  1.00  0.00     0.055 A 
ATOM     89  C   UNL A   1      47.634  27.380  34.624  1.00  0.00     0.041 A 
ATOM     90  F   UNL A   1      46.638  28.926  33.176  1.00  0.00    -0.206 F 
ATOM     91  C   UNL A   1      47.546  26.260  35.443  1.00  0.00     0.022 A 
BRANCH  88  92
ATOM     92  S   UNL A   1      46.147  24.203  36.701  1.00  0.00     0.124 S 
ATOM     93  O   UNL A   1      44.835  24.476  37.277  1.00  0.00    -0.237 OA
ATOM     94  O   UNL A   1      46.234  23.030  35.837  1.00  0.00    -0.237 OA
ATOM     95  O   UNL A   1      47.275  24.382  37.616  1.00  0.00    -0.744 OA
ENDBRANCH  88  92
ENDBRANCH  62  85
ENDBRANCH  36  37
ENDBRANCH  29  31
ENDBRANCH  28  29
ENDBRANCH  27  28
ENDBRANCH  26  27
ENDBRANCH  25  26
ENDBRANCH  24  25
ENDBRANCH   1  24
TORSDOF 24
ENDMDL
MODEL 3
REMARK VINA RESULT:      -9.8      2.120      2.982
REMARK SMILES C[C@H]([C@@H](C)C(=O)OCCOCCOCCOC(=O)c1ccc(-c2c3nc(c(-c4cc(S(=O)(=O)[O-])ccc4F)c4ccc([nH]4)c(-c4cc(S(=O)(=O)[O-])ccc4F)c4nc(c(-c5cc(S(=O)(=O)[O-])ccc5F)c5ccc2[nH]5)C=C4)C=C3)cc1)n1c(CC#N)nc2ccccc21
REMARK SMILES IDX 11 1 10 2 9 3 8 4 7 5 5 6 6 7 3 8 4 9 2 10 1 11 82 12 83 13
REMARK SMILES IDX 93 14 87 15 88 16 92 17 89 18 91 19 90 20 84 21 85 22 86 23
REMARK SMILES IDX 12 24 13 25 14 26 15 27 16 28 17 29 18 30 19 31 20 32 81 33
REMARK SMILES IDX 21 34 80 35 22 36 23 37 24 38 74 39 25 40 79 41 73 42 75 43
REMARK SMILES IDX 26 44 78 45 72 46 71 47 27 49 59 50 39 51 58 52 40 53 43 54
REMARK SMILES IDX 57 55 76 56 41 57 42 58 56 60 77 61 44 62 28 63 29 64 37 65
REMARK SMILES IDX 30 66 36 67 38 68 35 69 31 70 32 71 33 72 34 73 60 74 61 75
REMARK SMILES IDX 69 76 62 77 68 78 70 79 67 80 63 81 64 82 65 83 66 84 45 85
REMARK SMILES IDX 46 86 54 87 47 88 53 89 55 90 52 91 48 92 49 93 50 94 51 95
REMARK H PARENT 75 48 43 59
REMARK Flexibility Score: inf
ROOT
ATOM      1  C   UNL A   1      30.633  26.169  25.908  1.00  0.00     0.188 C 
ENDROOT
BRANCH   1   2
ATOM      2  O   UNL A   1      30.723  25.140  26.887  1.00  0.00    -0.376 OA
BRANCH   2   3
ATOM      3  C   UNL A   1      30.980  23.804  26.498  1.00  0.00     0.202 C 
BRANCH   3   4
ATOM      4  C   UNL A   1      30.757  23.410  25.035  1.00  0.00     0.261 C 
BRANCH   4   5
ATOM      5  O   UNL A   1      31.674  23.932  24.064  1.00  0.00    -0.463 OA
BRANCH   5   6
ATOM      6  C   UNL A   1      33.022  23.739  24.231  1.00  0.00     0.310 C 
ATOM      7  O   UNL A   1      33.762  24.494  24.838  1.00  0.00    -0.252 OA
BRANCH   6   8
ATOM      8  C   UNL A   1      33.505  22.620  23.297  1.00  0.00     0.119 C 
ATOM      9  C   UNL A   1      33.507  23.509  21.987  1.00  0.00     0.022 C 
BRANCH   8  10
ATOM     10  C   UNL A   1      32.714  21.165  23.514  1.00  0.00     0.100 C 
ATOM     11  C   UNL A   1      31.840  20.829  22.216  1.00  0.00     0.032 C 
BRANCH  10  12
ATOM     12  N   UNL A   1      33.395  19.850  23.825  1.00  0.00    -0.323 N 
ATOM     13  C   UNL A   1      34.170  19.997  24.927  1.00  0.00     0.124 A 
ATOM     14  C   UNL A   1      33.357  18.447  23.949  1.00  0.00     0.068 A 
ATOM     15  N   UNL A   1      35.276  19.319  24.805  1.00  0.00    -0.232 NA
ATOM     16  C   UNL A   1      34.679  18.162  24.451  1.00  0.00     0.089 A 
ATOM     17  C   UNL A   1      32.375  17.462  24.154  1.00  0.00     0.028 A 
ATOM     18  C   UNL A   1      35.094  16.923  24.959  1.00  0.00     0.030 A 
ATOM     19  C   UNL A   1      32.762  16.315  24.916  1.00  0.00     0.002 A 
ATOM     20  C   UNL A   1      34.084  16.037  25.289  1.00  0.00     0.002 A 
BRANCH  13  21
ATOM     21  C   UNL A   1      33.387  20.364  26.060  1.00  0.00     0.195 C 
BRANCH  21  22
ATOM     22  C   UNL A   1      33.826  21.457  27.021  1.00  0.00     0.070 C 
ATOM     23  N   UNL A   1      34.192  22.363  27.818  1.00  0.00    -0.198 NA
ENDBRANCH  21  22
ENDBRANCH  13  21
ENDBRANCH  10  12
ENDBRANCH   8  10
ENDBRANCH   6   8
ENDBRANCH   5   6
ENDBRANCH   4   5
ENDBRANCH   3   4
ENDBRANCH   2   3
ENDBRANCH   1   2
BRANCH   1  24
ATOM     24  C   UNL A   1      31.414  27.468  26.112  1.00  0.00     0.188 C 
BRANCH  24  25
ATOM     25  O   UNL A   1      31.391  28.371  25.037  1.00  0.00    -0.376 OA
BRANCH  25  26
ATOM     26  C   UNL A   1      32.242  29.494  25.117  1.00  0.00     0.202 C 
BRANCH  26  27
ATOM     27  C   UNL A   1      31.795  30.736  25.909  1.00  0.00     0.261 C 
BRANCH  27  28
ATOM     28  O   UNL A   1      32.394  30.980  27.198  1.00  0.00    -0.460 OA
BRANCH  28  29
ATOM     29  C   UNL A   1      33.160  32.085  27.368  1.00  0.00     0.338 C 
ATOM     30  O   UNL A   1      32.763  33.242  27.321  1.00  0.00    -0.246 OA
BRANCH  29  31
ATOM     31  C   UNL A   1      34.486  31.655  27.903  1.00  0.00     0.060 A 
ATOM     32  C   UNL A   1      34.668  30.322  28.309  1.00  0.00     0.016 A 
ATOM     33  C   UNL A   1      35.561  32.544  27.963  1.00  0.00     0.016 A 
ATOM     34  C   UNL A   1      35.906  29.890  28.805  1.00  0.00     0.010 A 
ATOM     35  C   UNL A   1      36.792  32.117  28.483  1.00  0.00     0.010 A 
ATOM     36  C   UNL A   1      36.966  30.796  28.938  1.00  0.00    -0.014 A 
BRANCH  36  37
ATOM     37  C   UNL A   1      38.171  30.442  29.742  1.00  0.00     0.031 A 
ATOM     38  C   UNL A   1      39.167  29.481  29.139  1.00  0.00     0.074 A 
ATOM     39  C   UNL A   1      38.397  30.947  30.970  1.00  0.00     0.049 A 
ATOM     40  N   UNL A   1      40.235  28.942  29.665  1.00  0.00    -0.248 NA
ATOM     41  C   UNL A   1      38.906  29.069  27.751  1.00  0.00     0.031 C 
ATOM     42  C   UNL A   1      37.553  31.929  31.649  1.00  0.00     0.029 A 
ATOM     43  N   UNL A   1      39.404  30.693  31.870  1.00  0.00    -0.354 N 
ATOM     44  C   UNL A   1      40.768  28.116  28.680  1.00  0.00     0.074 A 
ATOM     45  C   UNL A   1      39.882  28.202  27.538  1.00  0.00     0.031 C 
ATOM     46  C   UNL A   1      38.074  32.185  32.863  1.00  0.00     0.029 A 
ATOM     47  C   UNL A   1      39.259  31.352  33.070  1.00  0.00     0.049 A 
ATOM     48  H   UNL A   1      40.162  30.093  31.675  1.00  0.00     0.167 HD
ATOM     49  C   UNL A   1      41.892  27.358  28.719  1.00  0.00     0.034 A 
ATOM     50  C   UNL A   1      39.978  31.271  34.212  1.00  0.00     0.034 A 
ATOM     51  C   UNL A   1      42.763  27.271  29.866  1.00  0.00     0.049 A 
ATOM     52  C   UNL A   1      41.170  30.337  34.270  1.00  0.00     0.074 A 
ATOM     53  C   UNL A   1      43.937  26.549  30.003  1.00  0.00     0.029 A 
ATOM     54  N   UNL A   1      42.550  27.912  31.080  1.00  0.00    -0.354 N 
ATOM     55  N   UNL A   1      41.665  29.563  33.331  1.00  0.00    -0.248 NA
ATOM     56  C   UNL A   1      41.899  30.267  35.545  1.00  0.00     0.031 C 
ATOM     57  C   UNL A   1      44.382  26.679  31.322  1.00  0.00     0.029 A 
ATOM     58  C   UNL A   1      43.545  27.564  31.982  1.00  0.00     0.049 A 
ATOM     59  H   UNL A   1      41.803  28.522  31.272  1.00  0.00     0.167 HD
ATOM     60  C   UNL A   1      42.786  28.952  33.892  1.00  0.00     0.074 A 
ATOM     61  C   UNL A   1      42.899  29.452  35.245  1.00  0.00     0.031 C 
ATOM     62  C   UNL A   1      43.649  28.062  33.335  1.00  0.00     0.034 A 
BRANCH  49  63
ATOM     63  C   UNL A   1      42.206  26.514  27.506  1.00  0.00     0.023 A 
ATOM     64  C   UNL A   1      41.808  25.169  27.412  1.00  0.00     0.031 A 
ATOM     65  C   UNL A   1      42.939  27.059  26.437  1.00  0.00     0.131 A 
ATOM     66  C   UNL A   1      42.209  24.396  26.310  1.00  0.00     0.055 A 
ATOM     67  C   UNL A   1      43.259  26.309  25.303  1.00  0.00     0.041 A 
ATOM     68  F   UNL A   1      43.371  28.329  26.481  1.00  0.00    -0.206 F 
ATOM     69  C   UNL A   1      42.907  24.965  25.242  1.00  0.00     0.022 A 
BRANCH  66  70
ATOM     70  S   UNL A   1      41.941  22.603  26.365  1.00  0.00     0.124 S 
ATOM     71  O   UNL A   1      40.482  22.522  26.307  1.00  0.00    -0.237 OA
ATOM     72  O   UNL A   1      42.654  22.141  25.179  1.00  0.00    -0.237 OA
ATOM     73  O   UNL A   1      42.528  22.207  27.642  1.00  0.00    -0.744 OA
ENDBRANCH  66  70
ENDBRANCH  49  63
BRANCH  50  74
ATOM     74  C   UNL A   1      39.582  32.053  35.422  1.00  0.00     0.023 A 
ATOM     75  C   UNL A   1      40.141  33.314  35.689  1.00  0.00     0.031 A 
ATOM     76  C   UNL A   1      38.698  31.515  36.374  1.00  0.00     0.131 A 
ATOM     77  C   UNL A   1      39.850  33.970  36.897  1.00  0.00     0.055 A 
ATOM     78  C   UNL A   1      38.361  32.199  37.543  1.00  0.00     0.041 A 
ATOM     79  F   UNL A   1      38.145  30.306  36.181  1.00  0.00    -0.206 F 
ATOM     80  C   UNL A   1      38.950  33.430  37.818  1.00  0.00     0.022 A 
BRANCH  77  81
ATOM     81  S   UNL A   1      40.749  35.494  37.299  1.00  0.00     0.124 S 
ATOM     82  O   UNL A   1      41.050  35.295  38.712  1.00  0.00    -0.237 OA
ATOM     83  O   UNL A   1      41.885  35.427  36.385  1.00  0.00    -0.237 OA
ATOM     84  O   UNL A   1      39.779  36.549  37.010  1.00  0.00    -0.744 OA
ENDBRANCH  77  81
ENDBRANCH  50  74
BRANCH  62  85
ATOM     85  C   UNL A   1      44.831  27.619  34.169  1.00  0.00     0.023 A 
ATOM     86  C   UNL A   1      45.990  28.405  34.303  1.00  0.00     0.031 A 
ATOM     87  C   UNL A   1      44.794  26.383  34.842  1.00  0.00     0.131 A 
ATOM     88  C   UNL A   1      47.083  27.922  35.041  1.00  0.00     0.055 A 
ATOM     89  C   UNL A   1      45.857  25.940  35.631  1.00  0.00     0.041 A 
ATOM     90  F   UNL A   1      43.718  25.586  34.750  1.00  0.00    -0.206 F 
ATOM     91  C   UNL A   1      47.015  26.705  35.723  1.00  0.00     0.022 A 
BRANCH  88  92
ATOM     92  S   UNL A   1      48.636  28.860  35.016  1.00  0.00     0.124 S 
ATOM     93  O   UNL A   1      49.438  28.145  36.002  1.00  0.00    -0.237 OA
ATOM     94  O   UNL A   1      49.061  28.724  33.627  1.00  0.00    -0.237 OA
ATOM     95  O   UNL A   1      48.228  30.209  35.408  1.00  0.00    -0.744 OA
ENDBRANCH  88  92
ENDBRANCH  62  85
ENDBRANCH  36  37
ENDBRANCH  29  31
ENDBRANCH  28  29
ENDBRANCH  27  28
ENDBRANCH  26  27
ENDBRANCH  25  26
ENDBRANCH  24  25
ENDBRANCH   1  24
TORSDOF 24
ENDMDL
