MODEL 1
REMARK VINA RESULT:     -11.2      0.000      0.000
REMARK SMILES O=C(OCCOCCOCCOC(=O)[C@@H]1CC=CC[C@@H]1C(=O)Nc1sc2c(c1C(=O)N1CCCCC1)CCCC2)c1ccc(-c2c3nc(c(-c4cc(S(=O)(=O)[O-])ccc4F)c4ccc([nH]4)c(-c4cc(S(=O)(=O)[O-])ccc4F)c4nc(c(-c5cc(S(=O)(=O)[O-])ccc5F)c5ccc2[nH]5)C=C4)C=C3)cc1
REMARK SMILES IDX 7 1 6 2 5 3 4 4 3 5 2 6 1 7 41 8 42 9 103 10 43 11 102 12
REMARK SMILES IDX 44 13 45 14 46 15 96 16 47 17 101 18 95 19 97 20 48 21
REMARK SMILES IDX 100 22 94 23 93 24 49 26 81 27 61 28 80 29 62 30 65 31 79 32
REMARK SMILES IDX 98 33 63 34 64 35 78 37 99 38 66 39 50 40 51 41 59 42 52 43
REMARK SMILES IDX 58 44 60 45 57 46 53 47 54 48 55 49 56 50 82 51 83 52 91 53
REMARK SMILES IDX 84 54 90 55 92 56 89 57 85 58 86 59 87 60 88 61 67 62 68 63
REMARK SMILES IDX 76 64 69 65 75 66 77 67 74 68 70 69 71 70 72 71 73 72 8 73
REMARK SMILES IDX 9 74 10 75 11 76 12 77 13 78 14 79 15 80 16 81 20 82 17 83
REMARK SMILES IDX 19 84 18 85 21 86 22 87 23 88 24 90 25 91 28 92 26 93 27 94
REMARK SMILES IDX 40 95 37 96 39 97 38 98 29 99 30 100 31 101 32 102 36 103
REMARK SMILES IDX 33 104 35 105 34 106
REMARK H PARENT 97 25 65 36 23 89
REMARK Flexibility Score: inf
ROOT
ATOM      1  C   UNL A   1      32.271  29.458  25.428  1.00  0.00     0.188 C 
ENDROOT
BRANCH   1   2
ATOM      2  O   UNL A   1      31.041  30.090  25.053  1.00  0.00    -0.376 OA
BRANCH   2   3
ATOM      3  C   UNL A   1      30.870  31.394  25.614  1.00  0.00     0.202 C 
BRANCH   3   4
ATOM      4  C   UNL A   1      31.703  31.653  26.875  1.00  0.00     0.261 C 
BRANCH   4   5
ATOM      5  O   UNL A   1      32.008  33.046  27.040  1.00  0.00    -0.460 OA
BRANCH   5   6
ATOM      6  C   UNL A   1      32.971  33.589  27.829  1.00  0.00     0.338 C 
ATOM      7  O   UNL A   1      32.792  34.715  28.291  1.00  0.00    -0.246 OA
BRANCH   6   8
ATOM      8  C   UNL A   1      34.213  32.856  28.225  1.00  0.00     0.060 A 
ATOM      9  C   UNL A   1      34.306  31.474  28.407  1.00  0.00     0.016 A 
ATOM     10  C   UNL A   1      35.382  33.619  28.368  1.00  0.00     0.016 A 
ATOM     11  C   UNL A   1      35.483  30.882  28.867  1.00  0.00     0.010 A 
ATOM     12  C   UNL A   1      36.584  33.021  28.762  1.00  0.00     0.010 A 
ATOM     13  C   UNL A   1      36.626  31.654  29.072  1.00  0.00    -0.014 A 
BRANCH  13  14
ATOM     14  C   UNL A   1      37.811  31.058  29.736  1.00  0.00     0.031 A 
ATOM     15  C   UNL A   1      38.082  31.420  31.173  1.00  0.00     0.074 A 
ATOM     16  C   UNL A   1      38.605  30.188  29.083  1.00  0.00     0.049 A 
ATOM     17  N   UNL A   1      39.066  31.058  31.953  1.00  0.00    -0.248 NA
ATOM     18  C   UNL A   1      37.102  32.310  31.819  1.00  0.00     0.031 C 
ATOM     19  C   UNL A   1      38.394  29.706  27.718  1.00  0.00     0.029 A 
ATOM     20  N   UNL A   1      39.756  29.557  29.478  1.00  0.00    -0.354 N 
ATOM     21  C   UNL A   1      38.839  31.694  33.170  1.00  0.00     0.074 A 
ATOM     22  C   UNL A   1      37.640  32.488  33.013  1.00  0.00     0.031 C 
ATOM     23  C   UNL A   1      39.396  28.875  27.380  1.00  0.00     0.029 A 
ATOM     24  C   UNL A   1      40.340  28.794  28.490  1.00  0.00     0.049 A 
ATOM     25  H   UNL A   1      40.132  29.640  30.384  1.00  0.00     0.167 HD
ATOM     26  C   UNL A   1      39.559  31.615  34.316  1.00  0.00     0.034 A 
ATOM     27  C   UNL A   1      41.516  28.136  28.491  1.00  0.00     0.034 A 
ATOM     28  C   UNL A   1      40.739  30.803  34.461  1.00  0.00     0.049 A 
ATOM     29  C   UNL A   1      42.340  28.168  29.760  1.00  0.00     0.074 A 
ATOM     30  C   UNL A   1      41.537  30.622  35.577  1.00  0.00     0.029 A 
ATOM     31  N   UNL A   1      41.298  30.042  33.444  1.00  0.00    -0.354 N 
ATOM     32  N   UNL A   1      42.033  28.651  30.942  1.00  0.00    -0.248 NA
ATOM     33  C   UNL A   1      43.659  27.531  29.693  1.00  0.00     0.031 C 
ATOM     34  C   UNL A   1      42.610  29.796  35.217  1.00  0.00     0.029 A 
ATOM     35  C   UNL A   1      42.456  29.428  33.890  1.00  0.00     0.049 A 
ATOM     36  H   UNL A   1      40.925  29.952  32.537  1.00  0.00     0.167 HD
ATOM     37  C   UNL A   1      43.091  28.298  31.774  1.00  0.00     0.074 A 
ATOM     38  C   UNL A   1      44.010  27.523  30.967  1.00  0.00     0.031 C 
ATOM     39  C   UNL A   1      43.311  28.601  33.080  1.00  0.00     0.034 A 
BRANCH  26  40
ATOM     40  C   UNL A   1      39.113  32.481  35.465  1.00  0.00     0.023 A 
ATOM     41  C   UNL A   1      39.560  33.806  35.614  1.00  0.00     0.031 A 
ATOM     42  C   UNL A   1      38.281  31.948  36.466  1.00  0.00     0.131 A 
ATOM     43  C   UNL A   1      39.241  34.524  36.776  1.00  0.00     0.055 A 
ATOM     44  C   UNL A   1      37.904  32.695  37.583  1.00  0.00     0.041 A 
ATOM     45  F   UNL A   1      37.846  30.682  36.387  1.00  0.00    -0.206 F 
ATOM     46  C   UNL A   1      38.397  33.986  37.752  1.00  0.00     0.022 A 
BRANCH  43  47
ATOM     47  S   UNL A   1      40.063  36.115  37.064  1.00  0.00     0.124 S 
ATOM     48  O   UNL A   1      41.428  35.691  37.369  1.00  0.00    -0.237 OA
ATOM     49  O   UNL A   1      39.880  36.801  35.790  1.00  0.00    -0.237 OA
ATOM     50  O   UNL A   1      39.327  36.684  38.190  1.00  0.00    -0.744 OA
ENDBRANCH  43  47
ENDBRANCH  26  40
BRANCH  27  51
ATOM     51  C   UNL A   1      42.046  27.407  27.296  1.00  0.00     0.023 A 
ATOM     52  C   UNL A   1      42.291  26.022  27.360  1.00  0.00     0.031 A 
ATOM     53  C   UNL A   1      42.467  28.090  26.143  1.00  0.00     0.131 A 
ATOM     54  C   UNL A   1      43.017  25.386  26.345  1.00  0.00     0.055 A 
ATOM     55  C   UNL A   1      43.136  27.441  25.103  1.00  0.00     0.041 A 
ATOM     56  F   UNL A   1      42.261  29.410  26.018  1.00  0.00    -0.206 F 
ATOM     57  C   UNL A   1      43.436  26.087  25.212  1.00  0.00     0.022 A 
BRANCH  54  58
ATOM     58  S   UNL A   1      43.421  23.622  26.477  1.00  0.00     0.124 S 
ATOM     59  O   UNL A   1      42.687  23.239  27.674  1.00  0.00    -0.237 OA
ATOM     60  O   UNL A   1      42.926  23.076  25.217  1.00  0.00    -0.237 OA
ATOM     61  O   UNL A   1      44.878  23.649  26.606  1.00  0.00    -0.744 OA
ENDBRANCH  54  58
ENDBRANCH  27  51
BRANCH  39  62
ATOM     62  C   UNL A   1      44.543  27.995  33.700  1.00  0.00     0.023 A 
ATOM     63  C   UNL A   1      44.495  26.743  34.336  1.00  0.00     0.031 A 
ATOM     64  C   UNL A   1      45.743  28.724  33.756  1.00  0.00     0.131 A 
ATOM     65  C   UNL A   1      45.581  26.314  35.109  1.00  0.00     0.055 A 
ATOM     66  C   UNL A   1      46.855  28.247  34.453  1.00  0.00     0.041 A 
ATOM     67  F   UNL A   1      45.845  29.922  33.160  1.00  0.00    -0.206 F 
ATOM     68  C   UNL A   1      46.768  27.049  35.158  1.00  0.00     0.022 A 
BRANCH  65  69
ATOM     69  S   UNL A   1      45.352  24.868  36.178  1.00  0.00     0.124 S 
ATOM     70  O   UNL A   1      46.105  25.255  37.366  1.00  0.00    -0.237 OA
ATOM     71  O   UNL A   1      43.901  24.820  36.332  1.00  0.00    -0.237 OA
ATOM     72  O   UNL A   1      45.930  23.773  35.401  1.00  0.00    -0.744 OA
ENDBRANCH  65  69
ENDBRANCH  39  62
ENDBRANCH  13  14
ENDBRANCH   6   8
ENDBRANCH   5   6
ENDBRANCH   4   5
ENDBRANCH   3   4
ENDBRANCH   2   3
ENDBRANCH   1   2
BRANCH   1  73
ATOM     73  C   UNL A   1      33.224  29.354  24.234  1.00  0.00     0.188 C 
BRANCH  73  74
ATOM     74  O   UNL A   1      33.729  28.048  23.950  1.00  0.00    -0.376 OA
BRANCH  74  75
ATOM     75  C   UNL A   1      33.624  27.579  22.608  1.00  0.00     0.202 C 
BRANCH  75  76
ATOM     76  C   UNL A   1      33.651  26.061  22.375  1.00  0.00     0.261 C 
BRANCH  76  77
ATOM     77  O   UNL A   1      32.407  25.489  21.937  1.00  0.00    -0.463 OA
BRANCH  77  78
ATOM     78  C   UNL A   1      32.035  24.352  22.597  1.00  0.00     0.310 C 
ATOM     79  O   UNL A   1      32.611  23.278  22.480  1.00  0.00    -0.252 OA
BRANCH  78  80
ATOM     80  C   UNL A   1      30.841  24.603  23.506  1.00  0.00     0.116 C 
ATOM     81  C   UNL A   1      30.463  26.089  23.507  1.00  0.00     0.043 C 
ATOM     82  C   UNL A   1      31.117  24.039  24.907  1.00  0.00     0.097 C 
ATOM     83  C   UNL A   1      29.620  26.505  24.677  1.00  0.00    -0.030 C 
ATOM     84  C   UNL A   1      30.001  24.368  25.914  1.00  0.00     0.041 C 
ATOM     85  C   UNL A   1      29.404  25.730  25.749  1.00  0.00    -0.030 C 
BRANCH  82  86
ATOM     86  C   UNL A   1      32.449  24.514  25.505  1.00  0.00     0.229 C 
ATOM     87  O   UNL A   1      32.577  25.669  25.927  1.00  0.00    -0.274 OA
ATOM     88  N   UNL A   1      33.456  23.632  25.777  1.00  0.00    -0.317 N 
ATOM     89  H   UNL A   1      34.207  24.004  26.293  1.00  0.00     0.170 HD
BRANCH  88  90
ATOM     90  C   UNL A   1      33.584  22.301  25.438  1.00  0.00     0.108 A 
ATOM     91  S   UNL A   1      32.198  21.328  25.417  1.00  0.00    -0.122 S 
ATOM     92  C   UNL A   1      34.733  21.665  24.960  1.00  0.00     0.078 A 
ATOM     93  C   UNL A   1      33.135  19.944  25.197  1.00  0.00     0.011 A 
ATOM     94  C   UNL A   1      34.441  20.236  24.819  1.00  0.00    -0.019 A 
ATOM     95  C   UNL A   1      32.527  18.579  25.354  1.00  0.00     0.047 C 
ATOM     96  C   UNL A   1      35.350  19.104  24.423  1.00  0.00     0.037 C 
ATOM     97  C   UNL A   1      33.620  17.513  25.363  1.00  0.00     0.006 C 
ATOM     98  C   UNL A   1      34.610  17.772  24.234  1.00  0.00     0.005 C 
BRANCH  92  99
ATOM     99  C   UNL A   1      35.979  22.474  24.840  1.00  0.00     0.257 C 
ATOM    100  O   UNL A   1      36.133  23.248  23.888  1.00  0.00    -0.269 OA
ATOM    101  N   UNL A   1      36.903  22.495  25.874  1.00  0.00    -0.339 N 
ATOM    102  C   UNL A   1      37.417  23.791  26.308  1.00  0.00     0.120 C 
ATOM    103  C   UNL A   1      37.715  21.335  26.202  1.00  0.00     0.120 C 
ATOM    104  C   UNL A   1      38.876  24.003  25.908  1.00  0.00     0.022 C 
ATOM    105  C   UNL A   1      39.193  21.531  25.862  1.00  0.00     0.022 C 
ATOM    106  C   UNL A   1      39.732  22.846  26.410  1.00  0.00     0.004 C 
ENDBRANCH  92  99
ENDBRANCH  88  90
ENDBRANCH  82  86
ENDBRANCH  78  80
ENDBRANCH  77  78
ENDBRANCH  76  77
ENDBRANCH  75  76
ENDBRANCH  74  75
ENDBRANCH  73  74
ENDBRANCH   1  73
TORSDOF 23
ENDMDL
MODEL 2
REMARK VINA RESULT:     -11.1      1.822      2.060
REMARK SMILES O=C(OCCOCCOCCOC(=O)[C@@H]1CC=CC[C@@H]1C(=O)Nc1sc2c(c1C(=O)N1CCCCC1)CCCC2)c1ccc(-c2c3nc(c(-c4cc(S(=O)(=O)[O-])ccc4F)c4ccc([nH]4)c(-c4cc(S(=O)(=O)[O-])ccc4F)c4nc(c(-c5cc(S(=O)(=O)[O-])ccc5F)c5ccc2[nH]5)C=C4)C=C3)cc1
REMARK SMILES IDX 7 1 6 2 5 3 4 4 3 5 2 6 1 7 41 8 42 9 103 10 43 11 102 12
REMARK SMILES IDX 44 13 45 14 46 15 96 16 47 17 101 18 95 19 97 20 48 21
REMARK SMILES IDX 100 22 94 23 93 24 49 26 81 27 61 28 80 29 62 30 65 31 79 32
REMARK SMILES IDX 98 33 63 34 64 35 78 37 99 38 66 39 50 40 51 41 59 42 52 43
REMARK SMILES IDX 58 44 60 45 57 46 53 47 54 48 55 49 56 50 82 51 83 52 91 53
REMARK SMILES IDX 84 54 90 55 92 56 89 57 85 58 86 59 87 60 88 61 67 62 68 63
REMARK SMILES IDX 76 64 69 65 75 66 77 67 74 68 70 69 71 70 72 71 73 72 8 73
REMARK SMILES IDX 9 74 10 75 11 76 12 77 13 78 14 79 15 80 16 81 20 82 17 83
REMARK SMILES IDX 19 84 18 85 21 86 22 87 23 88 24 90 25 91 28 92 26 93 27 94
REMARK SMILES IDX 40 95 37 96 39 97 38 98 29 99 30 100 31 101 32 102 36 103
REMARK SMILES IDX 33 104 35 105 34 106
REMARK H PARENT 97 25 65 36 23 89
REMARK Flexibility Score: inf
ROOT
ATOM      1  C   UNL A   1      31.947  29.410  25.677  1.00  0.00     0.188 C 
ENDROOT
BRANCH   1   2
ATOM      2  O   UNL A   1      31.437  30.749  25.703  1.00  0.00    -0.376 OA
BRANCH   2   3
ATOM      3  C   UNL A   1      31.769  31.467  26.894  1.00  0.00     0.202 C 
BRANCH   3   4
ATOM      4  C   UNL A   1      31.848  32.988  26.713  1.00  0.00     0.261 C 
BRANCH   4   5
ATOM      5  O   UNL A   1      32.354  33.642  27.887  1.00  0.00    -0.460 OA
BRANCH   5   6
ATOM      6  C   UNL A   1      33.620  34.086  28.099  1.00  0.00     0.338 C 
ATOM      7  O   UNL A   1      33.841  35.294  28.032  1.00  0.00    -0.246 OA
BRANCH   6   8
ATOM      8  C   UNL A   1      34.749  33.184  28.481  1.00  0.00     0.060 A 
ATOM      9  C   UNL A   1      34.615  31.846  28.860  1.00  0.00     0.016 A 
ATOM     10  C   UNL A   1      36.044  33.718  28.397  1.00  0.00     0.016 A 
ATOM     11  C   UNL A   1      35.714  31.102  29.290  1.00  0.00     0.010 A 
ATOM     12  C   UNL A   1      37.159  32.954  28.760  1.00  0.00     0.010 A 
ATOM     13  C   UNL A   1      36.993  31.658  29.267  1.00  0.00    -0.014 A 
BRANCH  13  14
ATOM     14  C   UNL A   1      38.124  30.935  29.898  1.00  0.00     0.031 A 
ATOM     15  C   UNL A   1      38.438  31.221  31.344  1.00  0.00     0.074 A 
ATOM     16  C   UNL A   1      38.831  30.019  29.208  1.00  0.00     0.049 A 
ATOM     17  N   UNL A   1      39.392  30.745  32.101  1.00  0.00    -0.248 NA
ATOM     18  C   UNL A   1      37.547  32.173  32.029  1.00  0.00     0.031 C 
ATOM     19  C   UNL A   1      38.567  29.605  27.830  1.00  0.00     0.029 A 
ATOM     20  N   UNL A   1      39.923  29.273  29.570  1.00  0.00    -0.354 N 
ATOM     21  C   UNL A   1      39.233  31.357  33.340  1.00  0.00     0.074 A 
ATOM     22  C   UNL A   1      38.109  32.261  33.223  1.00  0.00     0.031 C 
ATOM     23  C   UNL A   1      39.487  28.699  27.454  1.00  0.00     0.029 A 
ATOM     24  C   UNL A   1      40.428  28.495  28.550  1.00  0.00     0.049 A 
ATOM     25  H   UNL A   1      40.312  29.291  30.474  1.00  0.00     0.167 HD
ATOM     26  C   UNL A   1      39.951  31.174  34.476  1.00  0.00     0.034 A 
ATOM     27  C   UNL A   1      41.539  27.734  28.517  1.00  0.00     0.034 A 
ATOM     28  C   UNL A   1      41.054  30.255  34.580  1.00  0.00     0.049 A 
ATOM     29  C   UNL A   1      42.372  27.648  29.777  1.00  0.00     0.074 A 
ATOM     30  C   UNL A   1      41.841  29.964  35.681  1.00  0.00     0.029 A 
ATOM     31  N   UNL A   1      41.533  29.481  33.532  1.00  0.00    -0.354 N 
ATOM     32  N   UNL A   1      42.119  28.116  30.978  1.00  0.00    -0.248 NA
ATOM     33  C   UNL A   1      43.628  26.897  29.675  1.00  0.00     0.031 C 
ATOM     34  C   UNL A   1      42.831  29.057  35.282  1.00  0.00     0.029 A 
ATOM     35  C   UNL A   1      42.634  28.750  33.945  1.00  0.00     0.049 A 
ATOM     36  H   UNL A   1      41.147  29.456  32.627  1.00  0.00     0.167 HD
ATOM     37  C   UNL A   1      43.148  27.640  31.786  1.00  0.00     0.074 A 
ATOM     38  C   UNL A   1      43.987  26.814  30.944  1.00  0.00     0.031 C 
ATOM     39  C   UNL A   1      43.404  27.877  33.099  1.00  0.00     0.034 A 
BRANCH  26  40
ATOM     40  C   UNL A   1      39.594  32.037  35.657  1.00  0.00     0.023 A 
ATOM     41  C   UNL A   1      38.787  31.562  36.707  1.00  0.00     0.031 A 
ATOM     42  C   UNL A   1      40.011  33.379  35.700  1.00  0.00     0.131 A 
ATOM     43  C   UNL A   1      38.357  32.444  37.710  1.00  0.00     0.055 A 
ATOM     44  C   UNL A   1      39.642  34.230  36.743  1.00  0.00     0.041 A 
ATOM     45  F   UNL A   1      40.762  33.891  34.713  1.00  0.00    -0.206 F 
ATOM     46  C   UNL A   1      38.796  33.770  37.747  1.00  0.00     0.022 A 
BRANCH  43  47
ATOM     47  S   UNL A   1      37.094  31.872  38.881  1.00  0.00     0.124 S 
ATOM     48  O   UNL A   1      35.962  32.729  38.537  1.00  0.00    -0.237 OA
ATOM     49  O   UNL A   1      36.955  30.462  38.534  1.00  0.00    -0.237 OA
ATOM     50  O   UNL A   1      37.694  32.136  40.187  1.00  0.00    -0.744 OA
ENDBRANCH  43  47
ENDBRANCH  26  40
BRANCH  27  51
ATOM     51  C   UNL A   1      41.991  27.001  27.293  1.00  0.00     0.023 A 
ATOM     52  C   UNL A   1      42.188  25.607  27.331  1.00  0.00     0.031 A 
ATOM     53  C   UNL A   1      42.389  27.683  26.130  1.00  0.00     0.131 A 
ATOM     54  C   UNL A   1      42.847  24.958  26.279  1.00  0.00     0.055 A 
ATOM     55  C   UNL A   1      42.989  27.022  25.056  1.00  0.00     0.041 A 
ATOM     56  F   UNL A   1      42.227  29.011  26.029  1.00  0.00    -0.206 F 
ATOM     57  C   UNL A   1      43.244  25.657  25.137  1.00  0.00     0.022 A 
BRANCH  54  58
ATOM     58  S   UNL A   1      43.191  23.179  26.374  1.00  0.00     0.124 S 
ATOM     59  O   UNL A   1      42.533  22.817  27.621  1.00  0.00    -0.237 OA
ATOM     60  O   UNL A   1      42.583  22.661  25.153  1.00  0.00    -0.237 OA
ATOM     61  O   UNL A   1      44.654  23.149  26.396  1.00  0.00    -0.744 OA
ENDBRANCH  54  58
ENDBRANCH  27  51
BRANCH  39  62
ATOM     62  C   UNL A   1      44.581  27.142  33.685  1.00  0.00     0.023 A 
ATOM     63  C   UNL A   1      45.878  27.681  33.625  1.00  0.00     0.031 A 
ATOM     64  C   UNL A   1      44.423  25.845  34.204  1.00  0.00     0.131 A 
ATOM     65  C   UNL A   1      46.978  26.881  33.955  1.00  0.00     0.055 A 
ATOM     66  C   UNL A   1      45.519  25.086  34.617  1.00  0.00     0.041 A 
ATOM     67  F   UNL A   1      43.207  25.286  34.289  1.00  0.00    -0.206 F 
ATOM     68  C   UNL A   1      46.808  25.593  34.468  1.00  0.00     0.022 A 
BRANCH  65  69
ATOM     69  S   UNL A   1      48.634  27.494  33.544  1.00  0.00     0.124 S 
ATOM     70  O   UNL A   1      48.550  27.627  32.094  1.00  0.00    -0.237 OA
ATOM     71  O   UNL A   1      48.701  28.743  34.295  1.00  0.00    -0.237 OA
ATOM     72  O   UNL A   1      49.520  26.433  34.025  1.00  0.00    -0.744 OA
ENDBRANCH  65  69
ENDBRANCH  39  62
ENDBRANCH  13  14
ENDBRANCH   6   8
ENDBRANCH   5   6
ENDBRANCH   4   5
ENDBRANCH   3   4
ENDBRANCH   2   3
ENDBRANCH   1   2
BRANCH   1  73
ATOM     73  C   UNL A   1      33.236  29.326  24.855  1.00  0.00     0.188 C 
BRANCH  73  74
ATOM     74  O   UNL A   1      33.070  29.232  23.440  1.00  0.00    -0.376 OA
BRANCH  74  75
ATOM     75  C   UNL A   1      34.177  28.756  22.678  1.00  0.00     0.202 C 
BRANCH  75  76
ATOM     76  C   UNL A   1      34.050  27.374  22.016  1.00  0.00     0.261 C 
BRANCH  76  77
ATOM     77  O   UNL A   1      33.648  26.312  22.897  1.00  0.00    -0.463 OA
BRANCH  77  78
ATOM     78  C   UNL A   1      32.909  25.327  22.307  1.00  0.00     0.310 C 
ATOM     79  O   UNL A   1      33.367  24.510  21.518  1.00  0.00    -0.252 OA
BRANCH  78  80
ATOM     80  C   UNL A   1      31.461  25.364  22.775  1.00  0.00     0.116 C 
ATOM     81  C   UNL A   1      30.983  26.811  22.946  1.00  0.00     0.043 C 
ATOM     82  C   UNL A   1      31.294  24.508  24.038  1.00  0.00     0.097 C 
ATOM     83  C   UNL A   1      29.763  26.954  23.808  1.00  0.00    -0.030 C 
ATOM     84  C   UNL A   1      29.880  24.600  24.639  1.00  0.00     0.041 C 
ATOM     85  C   UNL A   1      29.262  25.961  24.557  1.00  0.00    -0.030 C 
BRANCH  82  86
ATOM     86  C   UNL A   1      32.301  24.850  25.146  1.00  0.00     0.229 C 
ATOM     87  O   UNL A   1      32.322  25.976  25.657  1.00  0.00    -0.274 OA
ATOM     88  N   UNL A   1      33.057  23.880  25.737  1.00  0.00    -0.317 N 
ATOM     89  H   UNL A   1      33.560  24.170  26.532  1.00  0.00     0.170 HD
BRANCH  88  90
ATOM     90  C   UNL A   1      33.226  22.555  25.393  1.00  0.00     0.108 A 
ATOM     91  S   UNL A   1      31.862  21.556  25.299  1.00  0.00    -0.122 S 
ATOM     92  C   UNL A   1      34.408  21.945  24.964  1.00  0.00     0.078 A 
ATOM     93  C   UNL A   1      32.834  20.192  25.110  1.00  0.00     0.011 A 
ATOM     94  C   UNL A   1      34.150  20.512  24.796  1.00  0.00    -0.019 A 
ATOM     95  C   UNL A   1      32.246  18.815  25.226  1.00  0.00     0.047 C 
ATOM     96  C   UNL A   1      35.099  19.401  24.432  1.00  0.00     0.037 C 
ATOM     97  C   UNL A   1      33.357  17.769  25.276  1.00  0.00     0.006 C 
ATOM     98  C   UNL A   1      34.394  18.058  24.198  1.00  0.00     0.005 C 
BRANCH  92  99
ATOM     99  C   UNL A   1      35.642  22.778  24.909  1.00  0.00     0.257 C 
ATOM    100  O   UNL A   1      35.776  23.644  24.036  1.00  0.00    -0.269 OA
ATOM    101  N   UNL A   1      36.579  22.711  25.930  1.00  0.00    -0.339 N 
ATOM    102  C   UNL A   1      37.083  23.966  26.483  1.00  0.00     0.120 C 
ATOM    103  C   UNL A   1      37.409  21.535  26.134  1.00  0.00     0.120 C 
ATOM    104  C   UNL A   1      38.533  24.235  26.089  1.00  0.00     0.022 C 
ATOM    105  C   UNL A   1      38.880  21.783  25.798  1.00  0.00     0.022 C 
ATOM    106  C   UNL A   1      39.410  23.046  26.466  1.00  0.00     0.004 C 
ENDBRANCH  92  99
ENDBRANCH  88  90
ENDBRANCH  82  86
ENDBRANCH  78  80
ENDBRANCH  77  78
ENDBRANCH  76  77
ENDBRANCH  75  76
ENDBRANCH  74  75
ENDBRANCH  73  74
ENDBRANCH   1  73
TORSDOF 23
ENDMDL
MODEL 3
REMARK VINA RESULT:      -9.8      2.538      4.232
REMARK SMILES O=C(OCCOCCOCCOC(=O)[C@@H]1CC=CC[C@@H]1C(=O)Nc1sc2c(c1C(=O)N1CCCCC1)CCCC2)c1ccc(-c2c3nc(c(-c4cc(S(=O)(=O)[O-])ccc4F)c4ccc([nH]4)c(-c4cc(S(=O)(=O)[O-])ccc4F)c4nc(c(-c5cc(S(=O)(=O)[O-])ccc5F)c5ccc2[nH]5)C=C4)C=C3)cc1
REMARK SMILES IDX 7 1 6 2 5 3 4 4 3 5 2 6 1 7 41 8 42 9 103 10 43 11 102 12
REMARK SMILES IDX 44 13 45 14 46 15 96 16 47 17 101 18 95 19 97 20 48 21
REMARK SMILES IDX 100 22 94 23 93 24 49 26 81 27 61 28 80 29 62 30 65 31 79 32
REMARK SMILES IDX 98 33 63 34 64 35 78 37 99 38 66 39 50 40 51 41 59 42 52 43
REMARK SMILES IDX 58 44 60 45 57 46 53 47 54 48 55 49 56 50 82 51 83 52 91 53
REMARK SMILES IDX 84 54 90 55 92 56 89 57 85 58 86 59 87 60 88 61 67 62 68 63
REMARK SMILES IDX 76 64 69 65 75 66 77 67 74 68 70 69 71 70 72 71 73 72 8 73
REMARK SMILES IDX 9 74 10 75 11 76 12 77 13 78 14 79 15 80 16 81 20 82 17 83
REMARK SMILES IDX 19 84 18 85 21 86 22 87 23 88 24 90 25 91 28 92 26 93 27 94
REMARK SMILES IDX 40 95 37 96 39 97 38 98 29 99 30 100 31 101 32 102 36 103
REMARK SMILES IDX 33 104 35 105 34 106
REMARK H PARENT 97 25 65 36 23 89
REMARK Flexibility Score: inf
ROOT
ATOM      1  C   UNL A   1      33.153  33.289  27.722  1.00  0.00     0.188 C 
ENDROOT
BRANCH   1   2
ATOM      2  O   UNL A   1      33.434  34.621  28.168  1.00  0.00    -0.376 OA
BRANCH   2   3
ATOM      3  C   UNL A   1      32.504  35.111  29.137  1.00  0.00     0.202 C 
BRANCH   3   4
ATOM      4  C   UNL A   1      33.049  36.238  30.023  1.00  0.00     0.261 C 
BRANCH   4   5
ATOM      5  O   UNL A   1      32.572  36.137  31.374  1.00  0.00    -0.460 OA
BRANCH   5   6
ATOM      6  C   UNL A   1      33.316  35.992  32.500  1.00  0.00     0.338 C 
ATOM      7  O   UNL A   1      33.034  36.670  33.486  1.00  0.00    -0.246 OA
BRANCH   6   8
ATOM      8  C   UNL A   1      34.421  34.992  32.626  1.00  0.00     0.060 A 
ATOM      9  C   UNL A   1      34.270  33.681  33.084  1.00  0.00     0.016 A 
ATOM     10  C   UNL A   1      35.694  35.398  32.196  1.00  0.00     0.016 A 
ATOM     11  C   UNL A   1      35.374  32.844  33.257  1.00  0.00     0.010 A 
ATOM     12  C   UNL A   1      36.793  34.537  32.301  1.00  0.00     0.010 A 
ATOM     13  C   UNL A   1      36.648  33.273  32.889  1.00  0.00    -0.014 A 
BRANCH  13  14
ATOM     14  C   UNL A   1      37.834  32.458  33.247  1.00  0.00     0.031 A 
ATOM     15  C   UNL A   1      38.591  32.809  34.502  1.00  0.00     0.074 A 
ATOM     16  C   UNL A   1      38.206  31.407  32.490  1.00  0.00     0.049 A 
ATOM     17  N   UNL A   1      39.671  32.270  35.003  1.00  0.00    -0.248 NA
ATOM     18  C   UNL A   1      38.048  33.919  35.303  1.00  0.00     0.031 C 
ATOM     19  C   UNL A   1      37.503  30.929  31.299  1.00  0.00     0.029 A 
ATOM     20  N   UNL A   1      39.272  30.554  32.605  1.00  0.00    -0.354 N 
ATOM     21  C   UNL A   1      39.952  32.989  36.160  1.00  0.00     0.074 A 
ATOM     22  C   UNL A   1      38.944  34.022  36.269  1.00  0.00     0.031 C 
ATOM     23  C   UNL A   1      38.170  29.883  30.779  1.00  0.00     0.029 A 
ATOM     24  C   UNL A   1      39.367  29.641  31.577  1.00  0.00     0.049 A 
ATOM     25  H   UNL A   1      39.911  30.589  33.353  1.00  0.00     0.167 HD
ATOM     26  C   UNL A   1      40.951  32.800  37.057  1.00  0.00     0.034 A 
ATOM     27  C   UNL A   1      40.334  28.739  31.312  1.00  0.00     0.034 A 
ATOM     28  C   UNL A   1      41.935  31.754  36.943  1.00  0.00     0.049 A 
ATOM     29  C   UNL A   1      41.490  28.640  32.284  1.00  0.00     0.074 A 
ATOM     30  C   UNL A   1      42.978  31.446  37.798  1.00  0.00     0.029 A 
ATOM     31  N   UNL A   1      41.998  30.847  35.894  1.00  0.00    -0.354 N 
ATOM     32  N   UNL A   1      41.655  29.227  33.447  1.00  0.00    -0.248 NA
ATOM     33  C   UNL A   1      42.573  27.725  31.911  1.00  0.00     0.031 C 
ATOM     34  C   UNL A   1      43.706  30.389  37.237  1.00  0.00     0.029 A 
ATOM     35  C   UNL A   1      43.090  30.011  36.054  1.00  0.00     0.049 A 
ATOM     36  H   UNL A   1      41.360  30.805  35.146  1.00  0.00     0.167 HD
ATOM     37  C   UNL A   1      42.822  28.683  33.975  1.00  0.00     0.074 A 
ATOM     38  C   UNL A   1      43.282  27.691  33.026  1.00  0.00     0.031 C 
ATOM     39  C   UNL A   1      43.479  28.982  35.125  1.00  0.00     0.034 A 
BRANCH  26  40
ATOM     40  C   UNL A   1      41.053  33.789  38.188  1.00  0.00     0.023 A 
ATOM     41  C   UNL A   1      41.874  34.928  38.107  1.00  0.00     0.031 A 
ATOM     42  C   UNL A   1      40.371  33.551  39.394  1.00  0.00     0.131 A 
ATOM     43  C   UNL A   1      42.056  35.739  39.236  1.00  0.00     0.055 A 
ATOM     44  C   UNL A   1      40.496  34.406  40.490  1.00  0.00     0.041 A 
ATOM     45  F   UNL A   1      39.594  32.467  39.534  1.00  0.00    -0.206 F 
ATOM     46  C   UNL A   1      41.355  35.499  40.422  1.00  0.00     0.022 A 
BRANCH  43  47
ATOM     47  S   UNL A   1      43.334  37.026  39.182  1.00  0.00     0.124 S 
ATOM     48  O   UNL A   1      44.468  36.342  39.798  1.00  0.00    -0.237 OA
ATOM     49  O   UNL A   1      43.451  37.296  37.753  1.00  0.00    -0.237 OA
ATOM     50  O   UNL A   1      42.762  38.111  39.977  1.00  0.00    -0.744 OA
ENDBRANCH  43  47
ENDBRANCH  26  40
BRANCH  27  51
ATOM     51  C   UNL A   1      40.324  27.863  30.099  1.00  0.00     0.023 A 
ATOM     52  C   UNL A   1      41.157  28.157  29.003  1.00  0.00     0.031 A 
ATOM     53  C   UNL A   1      39.383  26.832  29.943  1.00  0.00     0.131 A 
ATOM     54  C   UNL A   1      40.973  27.502  27.779  1.00  0.00     0.055 A 
ATOM     55  C   UNL A   1      39.243  26.136  28.739  1.00  0.00     0.041 A 
ATOM     56  F   UNL A   1      38.559  26.500  30.949  1.00  0.00    -0.206 F 
ATOM     57  C   UNL A   1      40.023  26.487  27.642  1.00  0.00     0.022 A 
BRANCH  54  58
ATOM     58  S   UNL A   1      41.979  27.952  26.339  1.00  0.00     0.124 S 
ATOM     59  O   UNL A   1      41.448  29.266  26.005  1.00  0.00    -0.237 OA
ATOM     60  O   UNL A   1      43.340  27.925  26.866  1.00  0.00    -0.237 OA
ATOM     61  O   UNL A   1      41.663  26.880  25.395  1.00  0.00    -0.744 OA
ENDBRANCH  54  58
ENDBRANCH  27  51
BRANCH  39  62
ATOM     62  C   UNL A   1      44.694  28.145  35.429  1.00  0.00     0.023 A 
ATOM     63  C   UNL A   1      44.605  27.008  36.251  1.00  0.00     0.031 A 
ATOM     64  C   UNL A   1      45.966  28.550  34.989  1.00  0.00     0.131 A 
ATOM     65  C   UNL A   1      45.775  26.391  36.712  1.00  0.00     0.055 A 
ATOM     66  C   UNL A   1      47.123  27.874  35.380  1.00  0.00     0.041 A 
ATOM     67  F   UNL A   1      46.106  29.625  34.198  1.00  0.00    -0.206 F 
ATOM     68  C   UNL A   1      47.033  26.805  36.269  1.00  0.00     0.022 A 
BRANCH  65  69
ATOM     69  S   UNL A   1      45.627  25.153  38.028  1.00  0.00     0.124 S 
ATOM     70  O   UNL A   1      46.877  25.341  38.754  1.00  0.00    -0.237 OA
ATOM     71  O   UNL A   1      44.417  25.579  38.723  1.00  0.00    -0.237 OA
ATOM     72  O   UNL A   1      45.511  23.891  37.298  1.00  0.00    -0.744 OA
ENDBRANCH  65  69
ENDBRANCH  39  62
ENDBRANCH  13  14
ENDBRANCH   6   8
ENDBRANCH   5   6
ENDBRANCH   4   5
ENDBRANCH   3   4
ENDBRANCH   2   3
ENDBRANCH   1   2
BRANCH   1  73
ATOM     73  C   UNL A   1      34.376  32.383  27.885  1.00  0.00     0.188 C 
BRANCH  73  74
ATOM     74  O   UNL A   1      34.115  31.063  28.366  1.00  0.00    -0.376 OA
BRANCH  74  75
ATOM     75  C   UNL A   1      34.618  29.972  27.598  1.00  0.00     0.202 C 
BRANCH  75  76
ATOM     76  C   UNL A   1      33.717  29.398  26.494  1.00  0.00     0.261 C 
BRANCH  76  77
ATOM     77  O   UNL A   1      33.543  27.971  26.530  1.00  0.00    -0.463 OA
BRANCH  77  78
ATOM     78  C   UNL A   1      32.312  27.534  26.132  1.00  0.00     0.310 C 
ATOM     79  O   UNL A   1      31.407  27.250  26.907  1.00  0.00    -0.252 OA
BRANCH  78  80
ATOM     80  C   UNL A   1      32.207  27.475  24.615  1.00  0.00     0.116 C 
ATOM     81  C   UNL A   1      30.880  28.078  24.140  1.00  0.00     0.043 C 
ATOM     82  C   UNL A   1      32.440  26.039  24.126  1.00  0.00     0.097 C 
ATOM     83  C   UNL A   1      30.488  27.673  22.749  1.00  0.00    -0.030 C 
ATOM     84  C   UNL A   1      32.225  25.882  22.611  1.00  0.00     0.041 C 
ATOM     85  C   UNL A   1      31.097  26.698  22.060  1.00  0.00    -0.030 C 
BRANCH  82  86
ATOM     86  C   UNL A   1      31.561  25.001  24.838  1.00  0.00     0.229 C 
ATOM     87  O   UNL A   1      30.328  25.106  24.835  1.00  0.00    -0.274 OA
ATOM     88  N   UNL A   1      32.088  23.836  25.314  1.00  0.00    -0.317 N 
ATOM     89  H   UNL A   1      31.427  23.172  25.619  1.00  0.00     0.170 HD
BRANCH  88  90
ATOM     90  C   UNL A   1      33.405  23.444  25.437  1.00  0.00     0.108 A 
ATOM     91  S   UNL A   1      34.500  24.489  26.196  1.00  0.00    -0.122 S 
ATOM     92  C   UNL A   1      33.939  22.191  25.125  1.00  0.00     0.078 A 
ATOM     93  C   UNL A   1      35.796  23.506  25.753  1.00  0.00     0.011 A 
ATOM     94  C   UNL A   1      35.390  22.248  25.323  1.00  0.00    -0.019 A 
ATOM     95  C   UNL A   1      37.208  23.997  25.894  1.00  0.00     0.047 C 
ATOM     96  C   UNL A   1      36.439  21.202  25.053  1.00  0.00     0.037 C 
ATOM     97  C   UNL A   1      38.171  23.043  25.192  1.00  0.00     0.006 C 
ATOM     98  C   UNL A   1      37.833  21.602  25.555  1.00  0.00     0.005 C 
BRANCH  92  99
ATOM     99  C   UNL A   1      33.022  21.165  24.552  1.00  0.00     0.257 C 
ATOM    100  O   UNL A   1      31.974  21.506  23.990  1.00  0.00    -0.269 OA
ATOM    101  N   UNL A   1      33.409  19.835  24.489  1.00  0.00    -0.339 N 
ATOM    102  C   UNL A   1      33.211  19.120  23.232  1.00  0.00     0.120 C 
ATOM    103  C   UNL A   1      33.539  19.017  25.684  1.00  0.00     0.120 C 
ATOM    104  C   UNL A   1      32.092  18.084  23.320  1.00  0.00     0.022 C 
ATOM    105  C   UNL A   1      32.464  17.934  25.781  1.00  0.00     0.022 C 
ATOM    106  C   UNL A   1      32.343  17.137  24.488  1.00  0.00     0.004 C 
ENDBRANCH  92  99
ENDBRANCH  88  90
ENDBRANCH  82  86
ENDBRANCH  78  80
ENDBRANCH  77  78
ENDBRANCH  76  77
ENDBRANCH  75  76
ENDBRANCH  74  75
ENDBRANCH  73  74
ENDBRANCH   1  73
TORSDOF 23
ENDMDL
