MODEL 1
REMARK VINA RESULT:      -9.1      0.000      0.000
REMARK SMILES CCc1ccc(C(=O)OCCOCCOCCOC(=O)c2ccc(-c3c4nc(c(-c5cc(S(=O)(=O)[O-])ccc5F)c5ccc([nH]5)c(-c5cc(S(=O)(=O)[O-])ccc5F)c5nc(c(-c6cc(S(=O)(=O)[O-])ccc6F)c6ccc3[nH]6)C=C5)C=C4)cc2)cc1S(=O)(=O)C(CC)CC
REMARK SMILES IDX 13 1 12 2 11 3 10 4 9 5 7 6 8 7 6 8 3 9 4 10 85 11 5 12
REMARK SMILES IDX 84 13 2 14 1 15 86 16 87 17 88 18 89 19 90 20 91 21 92 22
REMARK SMILES IDX 93 23 14 24 15 25 16 26 17 27 18 28 19 29 20 30 21 31 22 32
REMARK SMILES IDX 83 33 23 34 82 35 24 36 25 37 26 38 76 39 27 40 81 41 75 42
REMARK SMILES IDX 77 43 28 44 80 45 74 46 73 47 29 49 61 50 41 51 60 52 42 53
REMARK SMILES IDX 45 54 59 55 78 56 43 57 44 58 58 60 79 61 46 62 30 63 31 64
REMARK SMILES IDX 39 65 32 66 38 67 40 68 37 69 33 70 34 71 35 72 36 73 62 74
REMARK SMILES IDX 63 75 71 76 64 77 70 78 72 79 69 80 65 81 66 82 67 83 68 84
REMARK SMILES IDX 47 85 48 86 56 87 49 88 55 89 57 90 54 91 50 92 51 93 52 94
REMARK SMILES IDX 53 95
REMARK H PARENT 77 48 45 59
REMARK Flexibility Score: inf
ROOT
ATOM      1  C   UNL A   1      42.000  20.057  26.174  1.00  0.00     0.188 C 
ENDROOT
BRANCH   1   2
ATOM      2  O   UNL A   1      41.623  20.563  27.444  1.00  0.00    -0.376 OA
BRANCH   2   3
ATOM      3  C   UNL A   1      40.564  21.510  27.431  1.00  0.00     0.202 C 
BRANCH   3   4
ATOM      4  C   UNL A   1      39.869  21.779  26.081  1.00  0.00     0.261 C 
BRANCH   4   5
ATOM      5  O   UNL A   1      38.456  22.054  26.143  1.00  0.00    -0.460 OA
BRANCH   5   6
ATOM      6  C   UNL A   1      38.065  23.349  26.137  1.00  0.00     0.338 C 
ATOM      7  O   UNL A   1      38.651  24.286  26.649  1.00  0.00    -0.246 OA
BRANCH   6   8
ATOM      8  C   UNL A   1      36.929  23.497  25.188  1.00  0.00     0.061 A 
ATOM      9  C   UNL A   1      34.673  23.537  23.424  1.00  0.00    -0.030 A 
ATOM     10  C   UNL A   1      35.841  22.735  23.206  1.00  0.00     0.006 A 
ATOM     11  C   UNL A   1      34.679  24.386  24.552  1.00  0.00     0.071 A 
ATOM     12  C   UNL A   1      36.954  22.733  24.039  1.00  0.00     0.016 A 
ATOM     13  C   UNL A   1      35.808  24.299  25.442  1.00  0.00     0.036 A 
BRANCH   9  14
ATOM     14  C   UNL A   1      33.648  23.183  22.371  1.00  0.00     0.033 C 
ATOM     15  C   UNL A   1      32.424  22.390  22.674  1.00  0.00     0.009 C 
ENDBRANCH   9  14
BRANCH  11  16
ATOM     16  S   UNL A   1      33.450  25.552  25.209  1.00  0.00     0.181 S 
ATOM     17  O   UNL A   1      32.517  24.716  25.941  1.00  0.00    -0.223 OA
ATOM     18  O   UNL A   1      34.275  26.469  25.996  1.00  0.00    -0.223 OA
BRANCH  16  19
ATOM     19  C   UNL A   1      32.539  26.692  24.208  1.00  0.00     0.113 C 
BRANCH  19  20
ATOM     20  C   UNL A   1      31.664  27.747  24.930  1.00  0.00     0.017 C 
ATOM     21  C   UNL A   1      30.875  28.760  24.119  1.00  0.00     0.005 C 
ENDBRANCH  19  20
BRANCH  19  22
ATOM     22  C   UNL A   1      32.968  27.116  22.780  1.00  0.00     0.017 C 
ATOM     23  C   UNL A   1      33.764  28.402  22.604  1.00  0.00     0.005 C 
ENDBRANCH  19  22
ENDBRANCH  16  19
ENDBRANCH  11  16
ENDBRANCH   6   8
ENDBRANCH   5   6
ENDBRANCH   4   5
ENDBRANCH   3   4
ENDBRANCH   2   3
ENDBRANCH   1   2
BRANCH   1  24
ATOM     24  C   UNL A   1      42.706  18.688  26.256  1.00  0.00     0.188 C 
BRANCH  24  25
ATOM     25  O   UNL A   1      43.914  18.471  25.547  1.00  0.00    -0.376 OA
BRANCH  25  26
ATOM     26  C   UNL A   1      44.385  19.451  24.637  1.00  0.00     0.202 C 
BRANCH  26  27
ATOM     27  C   UNL A   1      45.531  20.425  24.982  1.00  0.00     0.261 C 
BRANCH  27  28
ATOM     28  O   UNL A   1      45.192  21.663  25.619  1.00  0.00    -0.460 OA
BRANCH  28  29
ATOM     29  C   UNL A   1      44.583  22.586  24.837  1.00  0.00     0.338 C 
ATOM     30  O   UNL A   1      44.174  22.429  23.695  1.00  0.00    -0.246 OA
BRANCH  29  31
ATOM     31  C   UNL A   1      44.341  23.804  25.636  1.00  0.00     0.060 A 
ATOM     32  C   UNL A   1      43.984  24.996  24.989  1.00  0.00     0.016 A 
ATOM     33  C   UNL A   1      44.504  23.774  27.020  1.00  0.00     0.016 A 
ATOM     34  C   UNL A   1      43.806  26.170  25.724  1.00  0.00     0.010 A 
ATOM     35  C   UNL A   1      44.349  24.955  27.752  1.00  0.00     0.010 A 
ATOM     36  C   UNL A   1      44.027  26.163  27.106  1.00  0.00    -0.014 A 
BRANCH  36  37
ATOM     37  C   UNL A   1      44.126  27.437  27.864  1.00  0.00     0.031 A 
ATOM     38  C   UNL A   1      42.855  28.055  28.380  1.00  0.00     0.074 A 
ATOM     39  C   UNL A   1      45.306  28.049  28.068  1.00  0.00     0.049 A 
ATOM     40  N   UNL A   1      42.659  29.229  28.920  1.00  0.00    -0.248 NA
ATOM     41  C   UNL A   1      41.641  27.236  28.254  1.00  0.00     0.031 C 
ATOM     42  C   UNL A   1      46.612  27.523  27.674  1.00  0.00     0.029 A 
ATOM     43  N   UNL A   1      45.592  29.265  28.640  1.00  0.00    -0.354 N 
ATOM     44  C   UNL A   1      41.294  29.300  29.180  1.00  0.00     0.074 A 
ATOM     45  C   UNL A   1      40.711  28.060  28.710  1.00  0.00     0.031 C 
ATOM     46  C   UNL A   1      47.558  28.423  27.995  1.00  0.00     0.029 A 
ATOM     47  C   UNL A   1      46.923  29.610  28.566  1.00  0.00     0.049 A 
ATOM     48  H   UNL A   1      44.911  29.836  29.063  1.00  0.00     0.167 HD
ATOM     49  C   UNL A   1      40.593  30.306  29.758  1.00  0.00     0.034 A 
ATOM     50  C   UNL A   1      47.545  30.766  28.881  1.00  0.00     0.034 A 
ATOM     51  C   UNL A   1      41.187  31.541  30.204  1.00  0.00     0.049 A 
ATOM     52  C   UNL A   1      46.728  31.918  29.427  1.00  0.00     0.074 A 
ATOM     53  C   UNL A   1      40.572  32.624  30.808  1.00  0.00     0.029 A 
ATOM     54  N   UNL A   1      42.532  31.868  30.082  1.00  0.00    -0.354 N 
ATOM     55  N   UNL A   1      45.438  31.981  29.661  1.00  0.00    -0.248 NA
ATOM     56  C   UNL A   1      47.455  33.153  29.754  1.00  0.00     0.031 C 
ATOM     57  C   UNL A   1      41.524  33.634  30.974  1.00  0.00     0.029 A 
ATOM     58  C   UNL A   1      42.757  33.146  30.568  1.00  0.00     0.049 A 
ATOM     59  H   UNL A   1      43.224  31.278  29.706  1.00  0.00     0.167 HD
ATOM     60  C   UNL A   1      45.209  33.244  30.207  1.00  0.00     0.074 A 
ATOM     61  C   UNL A   1      46.494  33.907  30.267  1.00  0.00     0.031 C 
ATOM     62  C   UNL A   1      44.045  33.799  30.630  1.00  0.00     0.034 A 
BRANCH  49  63
ATOM     63  C   UNL A   1      39.098  30.130  29.879  1.00  0.00     0.023 A 
ATOM     64  C   UNL A   1      38.197  30.867  29.089  1.00  0.00     0.031 A 
ATOM     65  C   UNL A   1      38.564  29.233  30.821  1.00  0.00     0.131 A 
ATOM     66  C   UNL A   1      36.817  30.747  29.307  1.00  0.00     0.055 A 
ATOM     67  C   UNL A   1      37.188  29.053  30.971  1.00  0.00     0.041 A 
ATOM     68  F   UNL A   1      39.373  28.522  31.623  1.00  0.00    -0.206 F 
ATOM     69  C   UNL A   1      36.305  29.826  30.223  1.00  0.00     0.022 A 
BRANCH  66  70
ATOM     70  S   UNL A   1      35.708  31.925  28.488  1.00  0.00     0.124 S 
ATOM     71  O   UNL A   1      34.778  32.254  29.566  1.00  0.00    -0.237 OA
ATOM     72  O   UNL A   1      36.620  32.990  28.085  1.00  0.00    -0.237 OA
ATOM     73  O   UNL A   1      35.131  31.148  27.392  1.00  0.00    -0.744 OA
ENDBRANCH  66  70
ENDBRANCH  49  63
BRANCH  50  74
ATOM     74  C   UNL A   1      49.011  30.927  28.648  1.00  0.00     0.023 A 
ATOM     75  C   UNL A   1      49.498  31.488  27.457  1.00  0.00     0.031 A 
ATOM     76  C   UNL A   1      49.950  30.459  29.586  1.00  0.00     0.131 A 
ATOM     77  C   UNL A   1      50.880  31.519  27.211  1.00  0.00     0.055 A 
ATOM     78  C   UNL A   1      51.325  30.550  29.363  1.00  0.00     0.041 A 
ATOM     79  F   UNL A   1      49.541  29.906  30.739  1.00  0.00    -0.206 F 
ATOM     80  C   UNL A   1      51.798  31.070  28.163  1.00  0.00     0.022 A 
BRANCH  77  81
ATOM     81  S   UNL A   1      51.458  32.062  25.580  1.00  0.00     0.124 S 
ATOM     82  O   UNL A   1      52.803  32.534  25.885  1.00  0.00    -0.237 OA
ATOM     83  O   UNL A   1      51.370  30.830  24.802  1.00  0.00    -0.237 OA
ATOM     84  O   UNL A   1      50.500  33.102  25.207  1.00  0.00    -0.744 OA
ENDBRANCH  77  81
ENDBRANCH  50  74
BRANCH  62  85
ATOM     85  C   UNL A   1      44.113  35.165  31.275  1.00  0.00     0.023 A 
ATOM     86  C   UNL A   1      44.247  35.338  32.663  1.00  0.00     0.031 A 
ATOM     87  C   UNL A   1      44.055  36.319  30.470  1.00  0.00     0.131 A 
ATOM     88  C   UNL A   1      44.271  36.632  33.208  1.00  0.00     0.055 A 
ATOM     89  C   UNL A   1      44.148  37.602  31.010  1.00  0.00     0.041 A 
ATOM     90  F   UNL A   1      43.922  36.217  29.138  1.00  0.00    -0.206 F 
ATOM     91  C   UNL A   1      44.244  37.765  32.389  1.00  0.00     0.022 A 
BRANCH  88  92
ATOM     92  S   UNL A   1      44.247  36.823  35.011  1.00  0.00     0.124 S 
ATOM     93  O   UNL A   1      42.861  37.203  35.258  1.00  0.00    -0.237 OA
ATOM     94  O   UNL A   1      44.636  35.495  35.472  1.00  0.00    -0.237 OA
ATOM     95  O   UNL A   1      45.232  37.876  35.258  1.00  0.00    -0.744 OA
ENDBRANCH  88  92
ENDBRANCH  62  85
ENDBRANCH  36  37
ENDBRANCH  29  31
ENDBRANCH  28  29
ENDBRANCH  27  28
ENDBRANCH  26  27
ENDBRANCH  25  26
ENDBRANCH  24  25
ENDBRANCH   1  24
TORSDOF 25
ENDMDL
MODEL 2
REMARK VINA RESULT:      -8.8      2.759      8.436
REMARK SMILES CCc1ccc(C(=O)OCCOCCOCCOC(=O)c2ccc(-c3c4nc(c(-c5cc(S(=O)(=O)[O-])ccc5F)c5ccc([nH]5)c(-c5cc(S(=O)(=O)[O-])ccc5F)c5nc(c(-c6cc(S(=O)(=O)[O-])ccc6F)c6ccc3[nH]6)C=C5)C=C4)cc2)cc1S(=O)(=O)C(CC)CC
REMARK SMILES IDX 13 1 12 2 11 3 10 4 9 5 7 6 8 7 6 8 3 9 4 10 85 11 5 12
REMARK SMILES IDX 84 13 2 14 1 15 86 16 87 17 88 18 89 19 90 20 91 21 92 22
REMARK SMILES IDX 93 23 14 24 15 25 16 26 17 27 18 28 19 29 20 30 21 31 22 32
REMARK SMILES IDX 83 33 23 34 82 35 24 36 25 37 26 38 76 39 27 40 81 41 75 42
REMARK SMILES IDX 77 43 28 44 80 45 74 46 73 47 29 49 61 50 41 51 60 52 42 53
REMARK SMILES IDX 45 54 59 55 78 56 43 57 44 58 58 60 79 61 46 62 30 63 31 64
REMARK SMILES IDX 39 65 32 66 38 67 40 68 37 69 33 70 34 71 35 72 36 73 62 74
REMARK SMILES IDX 63 75 71 76 64 77 70 78 72 79 69 80 65 81 66 82 67 83 68 84
REMARK SMILES IDX 47 85 48 86 56 87 49 88 55 89 57 90 54 91 50 92 51 93 52 94
REMARK SMILES IDX 53 95
REMARK H PARENT 77 48 45 59
REMARK Flexibility Score: inf
ROOT
ATOM      1  C   UNL A   1      34.971  20.954  25.399  1.00  0.00     0.188 C 
ENDROOT
BRANCH   1   2
ATOM      2  O   UNL A   1      33.879  20.343  24.731  1.00  0.00    -0.376 OA
BRANCH   2   3
ATOM      3  C   UNL A   1      32.592  20.737  25.185  1.00  0.00     0.202 C 
BRANCH   3   4
ATOM      4  C   UNL A   1      32.047  22.091  24.687  1.00  0.00     0.261 C 
BRANCH   4   5
ATOM      5  O   UNL A   1      32.209  23.206  25.586  1.00  0.00    -0.460 OA
BRANCH   5   6
ATOM      6  C   UNL A   1      31.092  23.834  26.020  1.00  0.00     0.338 C 
ATOM      7  O   UNL A   1      30.194  23.341  26.680  1.00  0.00    -0.246 OA
BRANCH   6   8
ATOM      8  C   UNL A   1      31.245  25.293  25.782  1.00  0.00     0.061 A 
ATOM      9  C   UNL A   1      31.775  28.051  25.217  1.00  0.00    -0.030 A 
ATOM     10  C   UNL A   1      32.488  27.288  26.199  1.00  0.00     0.006 A 
ATOM     11  C   UNL A   1      30.722  27.400  24.539  1.00  0.00     0.071 A 
ATOM     12  C   UNL A   1      32.217  25.958  26.503  1.00  0.00     0.016 A 
ATOM     13  C   UNL A   1      30.521  25.999  24.813  1.00  0.00     0.036 A 
BRANCH   9  14
ATOM     14  C   UNL A   1      32.428  29.409  25.101  1.00  0.00     0.033 C 
ATOM     15  C   UNL A   1      33.145  30.057  26.235  1.00  0.00     0.009 C 
ENDBRANCH   9  14
BRANCH  11  16
ATOM     16  S   UNL A   1      29.572  27.957  23.247  1.00  0.00     0.181 S 
ATOM     17  O   UNL A   1      30.331  27.840  22.016  1.00  0.00    -0.223 OA
ATOM     18  O   UNL A   1      28.441  27.045  23.416  1.00  0.00    -0.223 OA
BRANCH  16  19
ATOM     19  C   UNL A   1      28.748  29.523  23.269  1.00  0.00     0.113 C 
BRANCH  19  20
ATOM     20  C   UNL A   1      29.508  30.729  23.875  1.00  0.00     0.017 C 
ATOM     21  C   UNL A   1      28.951  32.133  23.714  1.00  0.00     0.005 C 
ENDBRANCH  19  20
BRANCH  19  22
ATOM     22  C   UNL A   1      27.648  29.930  22.256  1.00  0.00     0.017 C 
ATOM     23  C   UNL A   1      28.065  30.512  20.912  1.00  0.00     0.005 C 
ENDBRANCH  19  22
ENDBRANCH  16  19
ENDBRANCH  11  16
ENDBRANCH   6   8
ENDBRANCH   5   6
ENDBRANCH   4   5
ENDBRANCH   3   4
ENDBRANCH   2   3
ENDBRANCH   1   2
BRANCH   1  24
ATOM     24  C   UNL A   1      35.752  21.937  24.505  1.00  0.00     0.188 C 
BRANCH  24  25
ATOM     25  O   UNL A   1      37.169  21.949  24.534  1.00  0.00    -0.376 OA
BRANCH  25  26
ATOM     26  C   UNL A   1      37.853  21.628  25.733  1.00  0.00     0.202 C 
BRANCH  26  27
ATOM     27  C   UNL A   1      39.158  22.332  26.161  1.00  0.00     0.261 C 
BRANCH  27  28
ATOM     28  O   UNL A   1      40.043  21.632  27.044  1.00  0.00    -0.460 OA
BRANCH  28  29
ATOM     29  C   UNL A   1      41.364  21.733  26.763  1.00  0.00     0.338 C 
ATOM     30  O   UNL A   1      42.062  20.904  26.198  1.00  0.00    -0.246 OA
BRANCH  29  31
ATOM     31  C   UNL A   1      41.824  23.092  27.114  1.00  0.00     0.060 A 
ATOM     32  C   UNL A   1      42.003  23.434  28.462  1.00  0.00     0.016 A 
ATOM     33  C   UNL A   1      42.040  24.036  26.111  1.00  0.00     0.016 A 
ATOM     34  C   UNL A   1      42.383  24.732  28.814  1.00  0.00     0.010 A 
ATOM     35  C   UNL A   1      42.398  25.340  26.466  1.00  0.00     0.010 A 
ATOM     36  C   UNL A   1      42.543  25.702  27.818  1.00  0.00    -0.014 A 
BRANCH  36  37
ATOM     37  C   UNL A   1      42.663  27.140  28.173  1.00  0.00     0.031 A 
ATOM     38  C   UNL A   1      44.039  27.746  28.216  1.00  0.00     0.074 A 
ATOM     39  C   UNL A   1      41.586  27.886  28.477  1.00  0.00     0.049 A 
ATOM     40  N   UNL A   1      44.420  28.918  28.651  1.00  0.00    -0.248 NA
ATOM     41  C   UNL A   1      45.133  26.903  27.710  1.00  0.00     0.031 C 
ATOM     42  C   UNL A   1      40.197  27.433  28.412  1.00  0.00     0.029 A 
ATOM     43  N   UNL A   1      41.498  29.181  28.927  1.00  0.00    -0.354 N 
ATOM     44  C   UNL A   1      45.802  28.948  28.491  1.00  0.00     0.074 A 
ATOM     45  C   UNL A   1      46.190  27.663  27.946  1.00  0.00     0.031 C 
ATOM     46  C   UNL A   1      39.396  28.429  28.831  1.00  0.00     0.029 A 
ATOM     47  C   UNL A   1      40.215  29.568  29.245  1.00  0.00     0.049 A 
ATOM     48  H   UNL A   1      42.277  29.776  29.014  1.00  0.00     0.167 HD
ATOM     49  C   UNL A   1      46.666  29.954  28.772  1.00  0.00     0.034 A 
ATOM     50  C   UNL A   1      39.765  30.692  29.841  1.00  0.00     0.034 A 
ATOM     51  C   UNL A   1      46.263  31.221  29.330  1.00  0.00     0.049 A 
ATOM     52  C   UNL A   1      40.757  31.761  30.246  1.00  0.00     0.074 A 
ATOM     53  C   UNL A   1      47.053  32.312  29.648  1.00  0.00     0.029 A 
ATOM     54  N   UNL A   1      44.960  31.564  29.670  1.00  0.00    -0.354 N 
ATOM     55  N   UNL A   1      42.062  31.778  30.100  1.00  0.00    -0.248 NA
ATOM     56  C   UNL A   1      40.212  32.965  30.891  1.00  0.00     0.031 C 
ATOM     57  C   UNL A   1      46.245  33.278  30.255  1.00  0.00     0.029 A 
ATOM     58  C   UNL A   1      44.932  32.834  30.224  1.00  0.00     0.049 A 
ATOM     59  H   UNL A   1      44.172  30.989  29.537  1.00  0.00     0.167 HD
ATOM     60  C   UNL A   1      42.485  33.012  30.593  1.00  0.00     0.074 A 
ATOM     61  C   UNL A   1      41.298  33.710  31.038  1.00  0.00     0.031 C 
ATOM     62  C   UNL A   1      43.740  33.526  30.660  1.00  0.00     0.034 A 
BRANCH  49  63
ATOM     63  C   UNL A   1      48.134  29.695  28.537  1.00  0.00     0.023 A 
ATOM     64  C   UNL A   1      48.891  28.878  29.395  1.00  0.00     0.031 A 
ATOM     65  C   UNL A   1      48.795  30.299  27.452  1.00  0.00     0.131 A 
ATOM     66  C   UNL A   1      50.274  28.748  29.198  1.00  0.00     0.055 A 
ATOM     67  C   UNL A   1      50.155  30.094  27.210  1.00  0.00     0.041 A 
ATOM     68  F   UNL A   1      48.132  31.112  26.614  1.00  0.00    -0.206 F 
ATOM     69  C   UNL A   1      50.906  29.328  28.095  1.00  0.00     0.022 A 
BRANCH  66  70
ATOM     70  S   UNL A   1      51.258  27.940  30.489  1.00  0.00     0.124 S 
ATOM     71  O   UNL A   1      50.253  27.112  31.151  1.00  0.00    -0.237 OA
ATOM     72  O   UNL A   1      52.266  27.222  29.714  1.00  0.00    -0.237 OA
ATOM     73  O   UNL A   1      51.761  29.057  31.286  1.00  0.00    -0.744 OA
ENDBRANCH  66  70
ENDBRANCH  49  63
BRANCH  50  74
ATOM     74  C   UNL A   1      38.312  30.859  30.146  1.00  0.00     0.023 A 
ATOM     75  C   UNL A   1      37.493  31.671  29.347  1.00  0.00     0.031 A 
ATOM     76  C   UNL A   1      37.736  30.263  31.283  1.00  0.00     0.131 A 
ATOM     77  C   UNL A   1      36.161  31.908  29.721  1.00  0.00     0.055 A 
ATOM     78  C   UNL A   1      36.394  30.451  31.617  1.00  0.00     0.041 A 
ATOM     79  F   UNL A   1      38.475  29.482  32.088  1.00  0.00    -0.206 F 
ATOM     80  C   UNL A   1      35.601  31.289  30.841  1.00  0.00     0.022 A 
BRANCH  77  81
ATOM     81  S   UNL A   1      35.197  33.121  28.778  1.00  0.00     0.124 S 
ATOM     82  O   UNL A   1      35.238  34.281  29.660  1.00  0.00    -0.237 OA
ATOM     83  O   UNL A   1      35.968  33.226  27.543  1.00  0.00    -0.237 OA
ATOM     84  O   UNL A   1      33.888  32.485  28.641  1.00  0.00    -0.744 OA
ENDBRANCH  77  81
ENDBRANCH  50  74
BRANCH  62  85
ATOM     85  C   UNL A   1      43.891  34.946  31.159  1.00  0.00     0.023 A 
ATOM     86  C   UNL A   1      43.903  36.052  30.294  1.00  0.00     0.031 A 
ATOM     87  C   UNL A   1      44.013  35.188  32.541  1.00  0.00     0.131 A 
ATOM     88  C   UNL A   1      44.080  37.345  30.813  1.00  0.00     0.055 A 
ATOM     89  C   UNL A   1      44.121  36.480  33.057  1.00  0.00     0.041 A 
ATOM     90  F   UNL A   1      44.014  34.170  33.416  1.00  0.00    -0.206 F 
ATOM     91  C   UNL A   1      44.168  37.567  32.190  1.00  0.00     0.022 A 
BRANCH  88  92
ATOM     92  S   UNL A   1      44.286  38.730  29.661  1.00  0.00     0.124 S 
ATOM     93  O   UNL A   1      44.751  39.794  30.545  1.00  0.00    -0.237 OA
ATOM     94  O   UNL A   1      45.270  38.210  28.717  1.00  0.00    -0.237 OA
ATOM     95  O   UNL A   1      42.944  38.923  29.112  1.00  0.00    -0.744 OA
ENDBRANCH  88  92
ENDBRANCH  62  85
ENDBRANCH  36  37
ENDBRANCH  29  31
ENDBRANCH  28  29
ENDBRANCH  27  28
ENDBRANCH  26  27
ENDBRANCH  25  26
ENDBRANCH  24  25
ENDBRANCH   1  24
TORSDOF 25
ENDMDL
MODEL 3
REMARK VINA RESULT:      -8.7      2.479      8.021
REMARK SMILES CCc1ccc(C(=O)OCCOCCOCCOC(=O)c2ccc(-c3c4nc(c(-c5cc(S(=O)(=O)[O-])ccc5F)c5ccc([nH]5)c(-c5cc(S(=O)(=O)[O-])ccc5F)c5nc(c(-c6cc(S(=O)(=O)[O-])ccc6F)c6ccc3[nH]6)C=C5)C=C4)cc2)cc1S(=O)(=O)C(CC)CC
REMARK SMILES IDX 13 1 12 2 11 3 10 4 9 5 7 6 8 7 6 8 3 9 4 10 85 11 5 12
REMARK SMILES IDX 84 13 2 14 1 15 86 16 87 17 88 18 89 19 90 20 91 21 92 22
REMARK SMILES IDX 93 23 14 24 15 25 16 26 17 27 18 28 19 29 20 30 21 31 22 32
REMARK SMILES IDX 83 33 23 34 82 35 24 36 25 37 26 38 76 39 27 40 81 41 75 42
REMARK SMILES IDX 77 43 28 44 80 45 74 46 73 47 29 49 61 50 41 51 60 52 42 53
REMARK SMILES IDX 45 54 59 55 78 56 43 57 44 58 58 60 79 61 46 62 30 63 31 64
REMARK SMILES IDX 39 65 32 66 38 67 40 68 37 69 33 70 34 71 35 72 36 73 62 74
REMARK SMILES IDX 63 75 71 76 64 77 70 78 72 79 69 80 65 81 66 82 67 83 68 84
REMARK SMILES IDX 47 85 48 86 56 87 49 88 55 89 57 90 54 91 50 92 51 93 52 94
REMARK SMILES IDX 53 95
REMARK H PARENT 77 48 45 59
REMARK Flexibility Score: inf
ROOT
ATOM      1  C   UNL A   1      37.982  21.054  25.206  1.00  0.00     0.188 C 
ENDROOT
BRANCH   1   2
ATOM      2  O   UNL A   1      36.721  21.327  24.618  1.00  0.00    -0.376 OA
BRANCH   2   3
ATOM      3  C   UNL A   1      36.706  22.395  23.681  1.00  0.00     0.202 C 
BRANCH   3   4
ATOM      4  C   UNL A   1      35.523  23.383  23.748  1.00  0.00     0.261 C 
BRANCH   4   5
ATOM      5  O   UNL A   1      34.266  22.898  23.236  1.00  0.00    -0.460 OA
BRANCH   5   6
ATOM      6  C   UNL A   1      33.309  22.560  24.131  1.00  0.00     0.338 C 
ATOM      7  O   UNL A   1      33.136  21.460  24.625  1.00  0.00    -0.246 OA
BRANCH   6   8
ATOM      8  C   UNL A   1      32.651  23.803  24.614  1.00  0.00     0.061 A 
ATOM      9  C   UNL A   1      31.621  26.283  25.610  1.00  0.00    -0.030 A 
ATOM     10  C   UNL A   1      32.192  25.266  26.443  1.00  0.00     0.006 A 
ATOM     11  C   UNL A   1      31.525  26.003  24.230  1.00  0.00     0.071 A 
ATOM     12  C   UNL A   1      32.665  24.045  25.973  1.00  0.00     0.016 A 
ATOM     13  C   UNL A   1      32.101  24.768  23.760  1.00  0.00     0.036 A 
BRANCH   9  14
ATOM     14  C   UNL A   1      31.329  27.493  26.467  1.00  0.00     0.033 C 
ATOM     15  C   UNL A   1      32.362  28.146  27.318  1.00  0.00     0.009 C 
ENDBRANCH   9  14
BRANCH  11  16
ATOM     16  S   UNL A   1      30.888  26.969  22.829  1.00  0.00     0.181 S 
ATOM     17  O   UNL A   1      31.281  26.207  21.658  1.00  0.00    -0.223 OA
ATOM     18  O   UNL A   1      29.456  27.042  23.121  1.00  0.00    -0.223 OA
BRANCH  16  19
ATOM     19  C   UNL A   1      31.264  28.677  22.557  1.00  0.00     0.113 C 
BRANCH  19  20
ATOM     20  C   UNL A   1      30.086  29.682  22.540  1.00  0.00     0.017 C 
ATOM     21  C   UNL A   1      29.733  30.457  23.797  1.00  0.00     0.005 C 
ENDBRANCH  19  20
BRANCH  19  22
ATOM     22  C   UNL A   1      32.625  29.326  22.915  1.00  0.00     0.017 C 
ATOM     23  C   UNL A   1      33.872  28.450  22.944  1.00  0.00     0.005 C 
ENDBRANCH  19  22
ENDBRANCH  16  19
ENDBRANCH  11  16
ENDBRANCH   6   8
ENDBRANCH   5   6
ENDBRANCH   4   5
ENDBRANCH   3   4
ENDBRANCH   2   3
ENDBRANCH   1   2
BRANCH   1  24
ATOM     24  C   UNL A   1      38.417  19.584  25.043  1.00  0.00     0.188 C 
BRANCH  24  25
ATOM     25  O   UNL A   1      39.667  19.154  25.556  1.00  0.00    -0.376 OA
BRANCH  25  26
ATOM     26  C   UNL A   1      40.396  19.994  26.436  1.00  0.00     0.202 C 
BRANCH  26  27
ATOM     27  C   UNL A   1      41.819  20.498  26.116  1.00  0.00     0.261 C 
BRANCH  27  28
ATOM     28  O   UNL A   1      41.983  21.882  25.779  1.00  0.00    -0.460 OA
BRANCH  28  29
ATOM     29  C   UNL A   1      43.154  22.449  26.156  1.00  0.00     0.338 C 
ATOM     30  O   UNL A   1      44.276  21.985  26.015  1.00  0.00    -0.246 OA
BRANCH  29  31
ATOM     31  C   UNL A   1      42.886  23.818  26.641  1.00  0.00     0.060 A 
ATOM     32  C   UNL A   1      42.628  24.841  25.716  1.00  0.00     0.016 A 
ATOM     33  C   UNL A   1      42.928  24.095  28.006  1.00  0.00     0.016 A 
ATOM     34  C   UNL A   1      42.428  26.152  26.155  1.00  0.00     0.010 A 
ATOM     35  C   UNL A   1      42.751  25.412  28.442  1.00  0.00     0.010 A 
ATOM     36  C   UNL A   1      42.529  26.450  27.518  1.00  0.00    -0.014 A 
BRANCH  36  37
ATOM     37  C   UNL A   1      42.607  27.860  27.982  1.00  0.00     0.031 A 
ATOM     38  C   UNL A   1      43.964  28.504  28.064  1.00  0.00     0.074 A 
ATOM     39  C   UNL A   1      41.510  28.545  28.350  1.00  0.00     0.049 A 
ATOM     40  N   UNL A   1      44.312  29.651  28.586  1.00  0.00    -0.248 NA
ATOM     41  C   UNL A   1      45.079  27.738  27.487  1.00  0.00     0.031 C 
ATOM     42  C   UNL A   1      40.135  28.056  28.259  1.00  0.00     0.029 A 
ATOM     43  N   UNL A   1      41.385  29.799  28.899  1.00  0.00    -0.354 N 
ATOM     44  C   UNL A   1      45.690  29.736  28.420  1.00  0.00     0.074 A 
ATOM     45  C   UNL A   1      46.114  28.511  27.775  1.00  0.00     0.031 C 
ATOM     46  C   UNL A   1      39.307  28.990  28.758  1.00  0.00     0.029 A 
ATOM     47  C   UNL A   1      40.094  30.119  29.254  1.00  0.00     0.049 A 
ATOM     48  H   UNL A   1      42.146  30.409  29.027  1.00  0.00     0.167 HD
ATOM     49  C   UNL A   1      46.525  30.745  28.773  1.00  0.00     0.034 A 
ATOM     50  C   UNL A   1      39.614  31.179  29.938  1.00  0.00     0.034 A 
ATOM     51  C   UNL A   1      46.087  31.952  29.429  1.00  0.00     0.049 A 
ATOM     52  C   UNL A   1      40.575  32.245  30.417  1.00  0.00     0.074 A 
ATOM     53  C   UNL A   1      46.846  33.039  29.825  1.00  0.00     0.029 A 
ATOM     54  N   UNL A   1      44.778  32.226  29.803  1.00  0.00    -0.354 N 
ATOM     55  N   UNL A   1      41.878  32.315  30.266  1.00  0.00    -0.248 NA
ATOM     56  C   UNL A   1      39.999  33.377  31.157  1.00  0.00     0.031 C 
ATOM     57  C   UNL A   1      46.013  33.929  30.510  1.00  0.00     0.029 A 
ATOM     58  C   UNL A   1      44.715  33.448  30.453  1.00  0.00     0.049 A 
ATOM     59  H   UNL A   1      44.007  31.638  29.630  1.00  0.00     0.167 HD
ATOM     60  C   UNL A   1      42.267  33.520  30.850  1.00  0.00     0.074 A 
ATOM     61  C   UNL A   1      41.062  34.143  31.355  1.00  0.00     0.031 C 
ATOM     62  C   UNL A   1      43.506  34.066  30.948  1.00  0.00     0.034 A 
BRANCH  49  63
ATOM     63  C   UNL A   1      47.999  30.551  28.509  1.00  0.00     0.023 A 
ATOM     64  C   UNL A   1      48.823  29.832  29.392  1.00  0.00     0.031 A 
ATOM     65  C   UNL A   1      48.595  31.122  27.370  1.00  0.00     0.131 A 
ATOM     66  C   UNL A   1      50.205  29.765  29.161  1.00  0.00     0.055 A 
ATOM     67  C   UNL A   1      49.957  30.976  27.099  1.00  0.00     0.041 A 
ATOM     68  F   UNL A   1      47.866  31.843  26.504  1.00  0.00    -0.206 F 
ATOM     69  C   UNL A   1      50.774  30.308  28.007  1.00  0.00     0.022 A 
BRANCH  66  70
ATOM     70  S   UNL A   1      51.268  29.093  30.468  1.00  0.00     0.124 S 
ATOM     71  O   UNL A   1      51.976  30.290  30.916  1.00  0.00    -0.237 OA
ATOM     72  O   UNL A   1      50.300  28.536  31.407  1.00  0.00    -0.237 OA
ATOM     73  O   UNL A   1      52.095  28.112  29.768  1.00  0.00    -0.744 OA
ENDBRANCH  66  70
ENDBRANCH  49  63
BRANCH  50  74
ATOM     74  C   UNL A   1      38.160  31.276  30.264  1.00  0.00     0.023 A 
ATOM     75  C   UNL A   1      37.275  31.977  29.429  1.00  0.00     0.031 A 
ATOM     76  C   UNL A   1      37.644  30.726  31.452  1.00  0.00     0.131 A 
ATOM     77  C   UNL A   1      35.938  32.156  29.817  1.00  0.00     0.055 A 
ATOM     78  C   UNL A   1      36.299  30.852  31.802  1.00  0.00     0.041 A 
ATOM     79  F   UNL A   1      38.445  30.051  32.292  1.00  0.00    -0.206 F 
ATOM     80  C   UNL A   1      35.439  31.584  30.989  1.00  0.00     0.022 A 
BRANCH  77  81
ATOM     81  S   UNL A   1      34.881  33.238  28.815  1.00  0.00     0.124 S 
ATOM     82  O   UNL A   1      34.723  34.391  29.692  1.00  0.00    -0.237 OA
ATOM     83  O   UNL A   1      35.701  33.443  27.625  1.00  0.00    -0.237 OA
ATOM     84  O   UNL A   1      33.675  32.439  28.608  1.00  0.00    -0.744 OA
ENDBRANCH  77  81
ENDBRANCH  50  74
BRANCH  62  85
ATOM     85  C   UNL A   1      43.617  35.447  31.555  1.00  0.00     0.023 A 
ATOM     86  C   UNL A   1      43.691  36.611  30.772  1.00  0.00     0.031 A 
ATOM     87  C   UNL A   1      43.636  35.593  32.955  1.00  0.00     0.131 A 
ATOM     88  C   UNL A   1      43.827  37.864  31.391  1.00  0.00     0.055 A 
ATOM     89  C   UNL A   1      43.702  36.846  33.566  1.00  0.00     0.041 A 
ATOM     90  F   UNL A   1      43.574  34.517  33.756  1.00  0.00    -0.206 F 
ATOM     91  C   UNL A   1      43.811  37.990  32.783  1.00  0.00     0.022 A 
BRANCH  88  92
ATOM     92  S   UNL A   1      44.115  39.326  30.356  1.00  0.00     0.124 S 
ATOM     93  O   UNL A   1      44.019  38.768  29.011  1.00  0.00    -0.237 OA
ATOM     94  O   UNL A   1      43.029  40.213  30.758  1.00  0.00    -0.237 OA
ATOM     95  O   UNL A   1      45.452  39.767  30.750  1.00  0.00    -0.744 OA
ENDBRANCH  88  92
ENDBRANCH  62  85
ENDBRANCH  36  37
ENDBRANCH  29  31
ENDBRANCH  28  29
ENDBRANCH  27  28
ENDBRANCH  26  27
ENDBRANCH  25  26
ENDBRANCH  24  25
ENDBRANCH   1  24
TORSDOF 25
ENDMDL
