MODEL 1
REMARK VINA RESULT:      -7.7      0.000      0.000
REMARK SMILES CC[C@@H]1CC(=O)N(Cc2ccc(/C=C/C(=O)OCCOCCOCCOC(=O)c3ccc(-c4c5nc(c(-c6cc(S(=O)(=O)[O-])ccc6F)c6ccc([nH]6)c(-c6cc(S(=O)(=O)[O-])ccc6F)c6nc(c(-c7cc(S(=O)(=O)[O-])ccc7F)c7ccc4[nH]7)C=C6)C=C5)cc3)cc2F)C1
REMARK SMILES IDX 21 1 20 2 19 3 18 4 17 5 15 6 16 7 14 8 13 9 12 10 9 11
REMARK SMILES IDX 10 12 93 13 11 14 92 15 94 16 8 17 7 18 3 19 4 20 95 21 5 22
REMARK SMILES IDX 6 23 2 24 1 25 22 26 23 27 24 28 25 29 26 30 27 31 28 32
REMARK SMILES IDX 29 33 30 34 91 35 31 36 90 37 32 38 33 39 34 40 84 41 35 42
REMARK SMILES IDX 89 43 83 44 85 45 36 46 88 47 82 48 81 49 37 51 69 52 49 53
REMARK SMILES IDX 68 54 50 55 53 56 67 57 86 58 51 59 52 60 66 62 87 63 54 64
REMARK SMILES IDX 38 65 39 66 47 67 40 68 46 69 48 70 45 71 41 72 42 73 43 74
REMARK SMILES IDX 44 75 70 76 71 77 79 78 72 79 78 80 80 81 77 82 73 83 74 84
REMARK SMILES IDX 75 85 76 86 55 87 56 88 64 89 57 90 63 91 65 92 62 93 58 94
REMARK SMILES IDX 59 95 60 96 61 97
REMARK H PARENT 85 50 53 61
REMARK Flexibility Score: inf
ROOT
ATOM      1  C   UNL A   1      46.142  22.577  24.261  1.00  0.00     0.188 C 
ENDROOT
BRANCH   1   2
ATOM      2  O   UNL A   1      46.847  23.315  25.244  1.00  0.00    -0.376 OA
BRANCH   2   3
ATOM      3  C   UNL A   1      46.164  24.215  26.102  1.00  0.00     0.202 C 
BRANCH   3   4
ATOM      4  C   UNL A   1      46.014  23.989  27.617  1.00  0.00     0.261 C 
BRANCH   4   5
ATOM      5  O   UNL A   1      44.778  24.414  28.206  1.00  0.00    -0.460 OA
BRANCH   5   6
ATOM      6  C   UNL A   1      44.436  23.781  29.353  1.00  0.00     0.330 C 
ATOM      7  O   UNL A   1      44.522  22.582  29.571  1.00  0.00    -0.247 OA
BRANCH   6   8
ATOM      8  C   UNL A   1      44.033  24.724  30.417  1.00  0.00     0.094 C 
ATOM      9  C   UNL A   1      44.804  25.696  30.933  1.00  0.00     0.016 C 
BRANCH   9  10
ATOM     10  C   UNL A   1      44.347  26.639  31.967  1.00  0.00    -0.022 A 
ATOM     11  C   UNL A   1      43.649  28.654  33.833  1.00  0.00     0.007 A 
ATOM     12  C   UNL A   1      42.709  28.184  32.913  1.00  0.00     0.009 A 
ATOM     13  C   UNL A   1      44.891  28.017  33.879  1.00  0.00     0.128 A 
ATOM     14  C   UNL A   1      43.048  27.171  32.005  1.00  0.00     0.008 A 
ATOM     15  C   UNL A   1      45.249  27.035  32.957  1.00  0.00     0.047 A 
ATOM     16  F   UNL A   1      45.800  28.379  34.797  1.00  0.00    -0.207 F 
BRANCH  11  17
ATOM     17  C   UNL A   1      43.356  29.852  34.701  1.00  0.00     0.158 C 
BRANCH  17  18
ATOM     18  N   UNL A   1      42.034  30.421  34.454  1.00  0.00    -0.338 N 
ATOM     19  C   UNL A   1      40.475  32.034  33.807  1.00  0.00     0.017 C 
ATOM     20  C   UNL A   1      39.745  30.897  34.539  1.00  0.00     0.105 C 
ATOM     21  C   UNL A   1      41.772  31.357  33.391  1.00  0.00     0.124 C 
ATOM     22  C   UNL A   1      40.881  30.105  35.153  1.00  0.00     0.223 C 
ATOM     23  O   UNL A   1      40.771  29.316  36.076  1.00  0.00    -0.275 OA
BRANCH  19  24
ATOM     24  C   UNL A   1      40.648  33.257  34.733  1.00  0.00     0.002 C 
ATOM     25  C   UNL A   1      39.628  33.364  35.857  1.00  0.00     0.004 C 
ENDBRANCH  19  24
ENDBRANCH  17  18
ENDBRANCH  11  17
ENDBRANCH   9  10
ENDBRANCH   6   8
ENDBRANCH   5   6
ENDBRANCH   4   5
ENDBRANCH   3   4
ENDBRANCH   2   3
ENDBRANCH   1   2
BRANCH   1  26
ATOM     26  C   UNL A   1      45.171  21.462  24.696  1.00  0.00     0.188 C 
BRANCH  26  27
ATOM     27  O   UNL A   1      43.805  21.801  24.705  1.00  0.00    -0.376 OA
BRANCH  27  28
ATOM     28  C   UNL A   1      43.090  21.828  25.929  1.00  0.00     0.202 C 
BRANCH  28  29
ATOM     29  C   UNL A   1      41.854  20.975  26.291  1.00  0.00     0.261 C 
BRANCH  29  30
ATOM     30  O   UNL A   1      40.882  21.509  27.191  1.00  0.00    -0.460 OA
BRANCH  30  31
ATOM     31  C   UNL A   1      39.911  22.272  26.625  1.00  0.00     0.338 C 
ATOM     32  O   UNL A   1      38.997  21.890  25.920  1.00  0.00    -0.246 OA
BRANCH  31  33
ATOM     33  C   UNL A   1      40.038  23.646  27.147  1.00  0.00     0.060 A 
ATOM     34  C   UNL A   1      39.451  24.700  26.434  1.00  0.00     0.016 A 
ATOM     35  C   UNL A   1      40.761  23.893  28.314  1.00  0.00     0.016 A 
ATOM     36  C   UNL A   1      39.599  26.012  26.883  1.00  0.00     0.010 A 
ATOM     37  C   UNL A   1      40.928  25.210  28.749  1.00  0.00     0.010 A 
ATOM     38  C   UNL A   1      40.369  26.278  28.023  1.00  0.00    -0.014 A 
BRANCH  38  39
ATOM     39  C   UNL A   1      40.737  27.675  28.366  1.00  0.00     0.031 A 
ATOM     40  C   UNL A   1      42.188  28.068  28.305  1.00  0.00     0.074 A 
ATOM     41  C   UNL A   1      39.803  28.580  28.712  1.00  0.00     0.049 A 
ATOM     42  N   UNL A   1      42.758  29.189  28.662  1.00  0.00    -0.248 NA
ATOM     43  C   UNL A   1      43.119  27.060  27.772  1.00  0.00     0.031 C 
ATOM     44  C   UNL A   1      38.362  28.338  28.739  1.00  0.00     0.029 A 
ATOM     45  N   UNL A   1      39.933  29.887  29.111  1.00  0.00    -0.354 N 
ATOM     46  C   UNL A   1      44.114  29.020  28.405  1.00  0.00     0.074 A 
ATOM     47  C   UNL A   1      44.284  27.680  27.887  1.00  0.00     0.031 C 
ATOM     48  C   UNL A   1      37.740  29.461  29.141  1.00  0.00     0.029 A 
ATOM     49  C   UNL A   1      38.740  30.484  29.446  1.00  0.00     0.049 A 
ATOM     50  H   UNL A   1      40.799  30.353  29.154  1.00  0.00     0.167 HD
ATOM     51  C   UNL A   1      45.122  29.907  28.580  1.00  0.00     0.034 A 
ATOM     52  C   UNL A   1      38.488  31.703  29.967  1.00  0.00     0.034 A 
ATOM     53  C   UNL A   1      44.940  31.239  29.096  1.00  0.00     0.049 A 
ATOM     54  C   UNL A   1      39.640  32.636  30.254  1.00  0.00     0.074 A 
ATOM     55  C   UNL A   1      45.899  32.214  29.307  1.00  0.00     0.029 A 
ATOM     56  N   UNL A   1      43.726  31.782  29.488  1.00  0.00    -0.354 N 
ATOM     57  N   UNL A   1      40.923  32.451  30.043  1.00  0.00    -0.248 NA
ATOM     58  C   UNL A   1      39.312  33.936  30.855  1.00  0.00     0.031 C 
ATOM     59  C   UNL A   1      45.276  33.320  29.891  1.00  0.00     0.029 A 
ATOM     60  C   UNL A   1      43.916  33.066  29.971  1.00  0.00     0.049 A 
ATOM     61  H   UNL A   1      42.856  31.322  29.432  1.00  0.00     0.167 HD
ATOM     62  C   UNL A   1      41.550  33.622  30.463  1.00  0.00     0.074 A 
ATOM     63  C   UNL A   1      40.507  34.507  30.935  1.00  0.00     0.031 C 
ATOM     64  C   UNL A   1      42.870  33.937  30.450  1.00  0.00     0.034 A 
BRANCH  51  65
ATOM     65  C   UNL A   1      46.518  29.457  28.247  1.00  0.00     0.023 A 
ATOM     66  C   UNL A   1      47.310  28.761  29.174  1.00  0.00     0.031 A 
ATOM     67  C   UNL A   1      47.047  29.692  26.966  1.00  0.00     0.131 A 
ATOM     68  C   UNL A   1      48.602  28.347  28.816  1.00  0.00     0.055 A 
ATOM     69  C   UNL A   1      48.309  29.227  26.595  1.00  0.00     0.041 A 
ATOM     70  F   UNL A   1      46.339  30.370  26.048  1.00  0.00    -0.206 F 
ATOM     71  C   UNL A   1      49.096  28.553  27.525  1.00  0.00     0.022 A 
BRANCH  68  72
ATOM     72  S   UNL A   1      49.658  27.589  30.081  1.00  0.00     0.124 S 
ATOM     73  O   UNL A   1      50.179  28.766  30.772  1.00  0.00    -0.237 OA
ATOM     74  O   UNL A   1      48.714  26.772  30.833  1.00  0.00    -0.237 OA
ATOM     75  O   UNL A   1      50.643  26.844  29.301  1.00  0.00    -0.744 OA
ENDBRANCH  68  72
ENDBRANCH  51  65
BRANCH  52  76
ATOM     76  C   UNL A   1      37.090  32.102  30.295  1.00  0.00     0.023 A 
ATOM     77  C   UNL A   1      36.229  32.603  29.307  1.00  0.00     0.031 A 
ATOM     78  C   UNL A   1      36.601  32.005  31.611  1.00  0.00     0.131 A 
ATOM     79  C   UNL A   1      34.930  33.009  29.653  1.00  0.00     0.055 A 
ATOM     80  C   UNL A   1      35.295  32.369  31.941  1.00  0.00     0.041 A 
ATOM     81  F   UNL A   1      37.386  31.534  32.592  1.00  0.00    -0.206 F 
ATOM     82  C   UNL A   1      34.453  32.881  30.960  1.00  0.00     0.022 A 
BRANCH  79  83
ATOM     83  S   UNL A   1      33.877  33.746  28.373  1.00  0.00     0.124 S 
ATOM     84  O   UNL A   1      33.376  32.562  27.683  1.00  0.00    -0.237 OA
ATOM     85  O   UNL A   1      32.903  34.487  29.168  1.00  0.00    -0.237 OA
ATOM     86  O   UNL A   1      34.805  34.573  27.603  1.00  0.00    -0.744 OA
ENDBRANCH  79  83
ENDBRANCH  52  76
BRANCH  64  87
ATOM     87  C   UNL A   1      43.270  35.309  30.928  1.00  0.00     0.023 A 
ATOM     88  C   UNL A   1      43.414  36.387  30.039  1.00  0.00     0.031 A 
ATOM     89  C   UNL A   1      43.451  35.552  32.302  1.00  0.00     0.131 A 
ATOM     90  C   UNL A   1      43.755  37.656  30.532  1.00  0.00     0.055 A 
ATOM     91  C   UNL A   1      43.740  36.826  32.791  1.00  0.00     0.041 A 
ATOM     92  F   UNL A   1      43.320  34.557  33.194  1.00  0.00    -0.206 F 
ATOM     93  C   UNL A   1      43.900  37.886  31.902  1.00  0.00     0.022 A 
BRANCH  90  94
ATOM     94  S   UNL A   1      44.044  39.003  29.352  1.00  0.00     0.124 S 
ATOM     95  O   UNL A   1      42.706  39.221  28.810  1.00  0.00    -0.237 OA
ATOM     96  O   UNL A   1      44.566  40.064  30.206  1.00  0.00    -0.237 OA
ATOM     97  O   UNL A   1      45.008  38.435  28.411  1.00  0.00    -0.744 OA
ENDBRANCH  90  94
ENDBRANCH  64  87
ENDBRANCH  38  39
ENDBRANCH  31  33
ENDBRANCH  30  31
ENDBRANCH  29  30
ENDBRANCH  28  29
ENDBRANCH  27  28
ENDBRANCH  26  27
ENDBRANCH   1  26
TORSDOF 24
ENDMDL
MODEL 2
REMARK VINA RESULT:      -7.7      3.708      9.411
REMARK SMILES CC[C@@H]1CC(=O)N(Cc2ccc(/C=C/C(=O)OCCOCCOCCOC(=O)c3ccc(-c4c5nc(c(-c6cc(S(=O)(=O)[O-])ccc6F)c6ccc([nH]6)c(-c6cc(S(=O)(=O)[O-])ccc6F)c6nc(c(-c7cc(S(=O)(=O)[O-])ccc7F)c7ccc4[nH]7)C=C6)C=C5)cc3)cc2F)C1
REMARK SMILES IDX 21 1 20 2 19 3 18 4 17 5 15 6 16 7 14 8 13 9 12 10 9 11
REMARK SMILES IDX 10 12 93 13 11 14 92 15 94 16 8 17 7 18 3 19 4 20 95 21 5 22
REMARK SMILES IDX 6 23 2 24 1 25 22 26 23 27 24 28 25 29 26 30 27 31 28 32
REMARK SMILES IDX 29 33 30 34 91 35 31 36 90 37 32 38 33 39 34 40 84 41 35 42
REMARK SMILES IDX 89 43 83 44 85 45 36 46 88 47 82 48 81 49 37 51 69 52 49 53
REMARK SMILES IDX 68 54 50 55 53 56 67 57 86 58 51 59 52 60 66 62 87 63 54 64
REMARK SMILES IDX 38 65 39 66 47 67 40 68 46 69 48 70 45 71 41 72 42 73 43 74
REMARK SMILES IDX 44 75 70 76 71 77 79 78 72 79 78 80 80 81 77 82 73 83 74 84
REMARK SMILES IDX 75 85 76 86 55 87 56 88 64 89 57 90 63 91 65 92 62 93 58 94
REMARK SMILES IDX 59 95 60 96 61 97
REMARK H PARENT 85 50 53 61
REMARK Flexibility Score: inf
ROOT
ATOM      1  C   UNL A   1      33.310  22.556  23.459  1.00  0.00     0.188 C 
ENDROOT
BRANCH   1   2
ATOM      2  O   UNL A   1      33.865  23.812  23.110  1.00  0.00    -0.376 OA
BRANCH   2   3
ATOM      3  C   UNL A   1      33.113  25.005  23.267  1.00  0.00     0.202 C 
BRANCH   3   4
ATOM      4  C   UNL A   1      31.794  25.074  24.058  1.00  0.00     0.261 C 
BRANCH   4   5
ATOM      5  O   UNL A   1      31.568  26.267  24.819  1.00  0.00    -0.460 OA
BRANCH   5   6
ATOM      6  C   UNL A   1      31.662  26.124  26.162  1.00  0.00     0.330 C 
ATOM      7  O   UNL A   1      31.265  25.172  26.818  1.00  0.00    -0.247 OA
BRANCH   6   8
ATOM      8  C   UNL A   1      32.427  27.221  26.793  1.00  0.00     0.094 C 
ATOM      9  C   UNL A   1      32.817  28.352  26.183  1.00  0.00     0.016 C 
BRANCH   9  10
ATOM     10  C   UNL A   1      33.545  29.437  26.863  1.00  0.00    -0.022 A 
ATOM     11  C   UNL A   1      35.117  31.539  27.928  1.00  0.00     0.007 A 
ATOM     12  C   UNL A   1      33.774  31.751  27.609  1.00  0.00     0.009 A 
ATOM     13  C   UNL A   1      35.617  30.239  27.820  1.00  0.00     0.128 A 
ATOM     14  C   UNL A   1      32.991  30.704  27.103  1.00  0.00     0.008 A 
ATOM     15  C   UNL A   1      34.856  29.202  27.283  1.00  0.00     0.047 A 
ATOM     16  F   UNL A   1      36.878  29.969  28.188  1.00  0.00    -0.207 F 
BRANCH  11  17
ATOM     17  C   UNL A   1      36.015  32.688  28.314  1.00  0.00     0.158 C 
BRANCH  17  18
ATOM     18  N   UNL A   1      35.873  33.072  29.716  1.00  0.00    -0.338 N 
ATOM     19  C   UNL A   1      34.757  33.605  31.696  1.00  0.00     0.017 C 
ATOM     20  C   UNL A   1      36.242  33.973  31.844  1.00  0.00     0.105 C 
ATOM     21  C   UNL A   1      34.794  32.607  30.548  1.00  0.00     0.124 C 
ATOM     22  C   UNL A   1      36.760  33.866  30.423  1.00  0.00     0.223 C 
ATOM     23  O   UNL A   1      37.789  34.373  30.010  1.00  0.00    -0.275 OA
BRANCH  19  24
ATOM     24  C   UNL A   1      33.906  34.866  31.435  1.00  0.00     0.002 C 
ATOM     25  C   UNL A   1      34.205  36.046  32.348  1.00  0.00     0.004 C 
ENDBRANCH  19  24
ENDBRANCH  17  18
ENDBRANCH  11  17
ENDBRANCH   9  10
ENDBRANCH   6   8
ENDBRANCH   5   6
ENDBRANCH   4   5
ENDBRANCH   3   4
ENDBRANCH   2   3
ENDBRANCH   1   2
BRANCH   1  26
ATOM     26  C   UNL A   1      33.791  21.839  24.735  1.00  0.00     0.188 C 
BRANCH  26  27
ATOM     27  O   UNL A   1      34.872  20.951  24.573  1.00  0.00    -0.376 OA
BRANCH  27  28
ATOM     28  C   UNL A   1      36.185  21.457  24.404  1.00  0.00     0.202 C 
BRANCH  28  29
ATOM     29  C   UNL A   1      37.465  20.951  25.107  1.00  0.00     0.261 C 
BRANCH  29  30
ATOM     30  O   UNL A   1      38.121  21.800  26.049  1.00  0.00    -0.460 OA
BRANCH  30  31
ATOM     31  C   UNL A   1      39.408  21.476  26.336  1.00  0.00     0.338 C 
ATOM     32  O   UNL A   1      39.979  20.435  26.073  1.00  0.00    -0.246 OA
BRANCH  31  33
ATOM     33  C   UNL A   1      40.078  22.674  26.880  1.00  0.00     0.060 A 
ATOM     34  C   UNL A   1      39.698  23.937  26.410  1.00  0.00     0.016 A 
ATOM     35  C   UNL A   1      41.097  22.544  27.824  1.00  0.00     0.016 A 
ATOM     36  C   UNL A   1      40.350  25.079  26.875  1.00  0.00     0.010 A 
ATOM     37  C   UNL A   1      41.765  23.686  28.271  1.00  0.00     0.010 A 
ATOM     38  C   UNL A   1      41.412  24.957  27.781  1.00  0.00    -0.014 A 
BRANCH  38  39
ATOM     39  C   UNL A   1      42.268  26.130  28.090  1.00  0.00     0.031 A 
ATOM     40  C   UNL A   1      41.752  27.154  29.064  1.00  0.00     0.074 A 
ATOM     41  C   UNL A   1      43.482  26.278  27.531  1.00  0.00     0.049 A 
ATOM     42  N   UNL A   1      42.267  28.306  29.405  1.00  0.00    -0.248 NA
ATOM     43  C   UNL A   1      40.485  26.836  29.742  1.00  0.00     0.031 C 
ATOM     44  C   UNL A   1      44.119  25.320  26.628  1.00  0.00     0.029 A 
ATOM     45  N   UNL A   1      44.395  27.298  27.638  1.00  0.00    -0.354 N 
ATOM     46  C   UNL A   1      41.386  28.854  30.330  1.00  0.00     0.074 A 
ATOM     47  C   UNL A   1      40.290  27.921  30.477  1.00  0.00     0.031 C 
ATOM     48  C   UNL A   1      45.318  25.802  26.258  1.00  0.00     0.029 A 
ATOM     49  C   UNL A   1      45.514  27.122  26.858  1.00  0.00     0.049 A 
ATOM     50  H   UNL A   1      44.261  28.082  28.218  1.00  0.00     0.167 HD
ATOM     51  C   UNL A   1      41.487  30.027  31.000  1.00  0.00     0.034 A 
ATOM     52  C   UNL A   1      46.560  27.945  26.630  1.00  0.00     0.034 A 
ATOM     53  C   UNL A   1      42.583  30.948  30.845  1.00  0.00     0.049 A 
ATOM     54  C   UNL A   1      46.598  29.294  27.305  1.00  0.00     0.074 A 
ATOM     55  C   UNL A   1      42.778  32.162  31.482  1.00  0.00     0.029 A 
ATOM     56  N   UNL A   1      43.663  30.766  29.994  1.00  0.00    -0.354 N 
ATOM     57  N   UNL A   1      45.738  29.819  28.149  1.00  0.00    -0.248 NA
ATOM     58  C   UNL A   1      47.740  30.165  26.994  1.00  0.00     0.031 C 
ATOM     59  C   UNL A   1      43.938  32.744  30.965  1.00  0.00     0.029 A 
ATOM     60  C   UNL A   1      44.510  31.859  30.065  1.00  0.00     0.049 A 
ATOM     61  H   UNL A   1      43.806  29.975  29.424  1.00  0.00     0.167 HD
ATOM     62  C   UNL A   1      46.252  31.070  28.486  1.00  0.00     0.074 A 
ATOM     63  C   UNL A   1      47.495  31.220  27.760  1.00  0.00     0.031 C 
ATOM     64  C   UNL A   1      45.742  32.004  29.328  1.00  0.00     0.034 A 
BRANCH  51  65
ATOM     65  C   UNL A   1      40.367  30.401  31.932  1.00  0.00     0.023 A 
ATOM     66  C   UNL A   1      40.517  30.341  33.327  1.00  0.00     0.031 A 
ATOM     67  C   UNL A   1      39.145  30.866  31.414  1.00  0.00     0.131 A 
ATOM     68  C   UNL A   1      39.451  30.714  34.159  1.00  0.00     0.055 A 
ATOM     69  C   UNL A   1      38.110  31.292  32.247  1.00  0.00     0.041 A 
ATOM     70  F   UNL A   1      38.944  30.924  30.088  1.00  0.00    -0.206 F 
ATOM     71  C   UNL A   1      38.258  31.213  33.629  1.00  0.00     0.022 A 
BRANCH  68  72
ATOM     72  S   UNL A   1      39.619  30.480  35.949  1.00  0.00     0.124 S 
ATOM     73  O   UNL A   1      40.383  31.664  36.331  1.00  0.00    -0.237 OA
ATOM     74  O   UNL A   1      38.232  30.444  36.396  1.00  0.00    -0.237 OA
ATOM     75  O   UNL A   1      40.342  29.215  36.062  1.00  0.00    -0.744 OA
ENDBRANCH  68  72
ENDBRANCH  51  65
BRANCH  52  76
ATOM     76  C   UNL A   1      47.640  27.538  25.687  1.00  0.00     0.023 A 
ATOM     77  C   UNL A   1      47.605  27.920  24.338  1.00  0.00     0.031 A 
ATOM     78  C   UNL A   1      48.715  26.742  26.121  1.00  0.00     0.131 A 
ATOM     79  C   UNL A   1      48.615  27.489  23.463  1.00  0.00     0.055 A 
ATOM     80  C   UNL A   1      49.740  26.352  25.257  1.00  0.00     0.041 A 
ATOM     81  F   UNL A   1      48.793  26.347  27.402  1.00  0.00    -0.206 F 
ATOM     82  C   UNL A   1      49.690  26.719  23.917  1.00  0.00     0.022 A 
BRANCH  79  83
ATOM     83  S   UNL A   1      48.487  27.916  21.705  1.00  0.00     0.124 S 
ATOM     84  O   UNL A   1      49.732  28.643  21.485  1.00  0.00    -0.237 OA
ATOM     85  O   UNL A   1      48.391  26.602  21.077  1.00  0.00    -0.237 OA
ATOM     86  O   UNL A   1      47.271  28.724  21.638  1.00  0.00    -0.744 OA
ENDBRANCH  79  83
ENDBRANCH  52  76
BRANCH  64  87
ATOM     87  C   UNL A   1      46.539  33.265  29.544  1.00  0.00     0.023 A 
ATOM     88  C   UNL A   1      46.395  34.381  28.705  1.00  0.00     0.031 A 
ATOM     89  C   UNL A   1      47.410  33.367  30.645  1.00  0.00     0.131 A 
ATOM     90  C   UNL A   1      47.133  35.547  28.964  1.00  0.00     0.055 A 
ATOM     91  C   UNL A   1      48.102  34.545  30.926  1.00  0.00     0.041 A 
ATOM     92  F   UNL A   1      47.580  32.330  31.480  1.00  0.00    -0.206 F 
ATOM     93  C   UNL A   1      47.969  35.643  30.080  1.00  0.00     0.022 A 
BRANCH  90  94
ATOM     94  S   UNL A   1      47.012  36.934  27.801  1.00  0.00     0.124 S 
ATOM     95  O   UNL A   1      45.663  37.427  28.058  1.00  0.00    -0.237 OA
ATOM     96  O   UNL A   1      48.101  37.804  28.234  1.00  0.00    -0.237 OA
ATOM     97  O   UNL A   1      47.205  36.305  26.495  1.00  0.00    -0.744 OA
ENDBRANCH  90  94
ENDBRANCH  64  87
ENDBRANCH  38  39
ENDBRANCH  31  33
ENDBRANCH  30  31
ENDBRANCH  29  30
ENDBRANCH  28  29
ENDBRANCH  27  28
ENDBRANCH  26  27
ENDBRANCH   1  26
TORSDOF 24
ENDMDL
MODEL 3
REMARK VINA RESULT:      -7.5      4.195      7.741
REMARK SMILES CC[C@@H]1CC(=O)N(Cc2ccc(/C=C/C(=O)OCCOCCOCCOC(=O)c3ccc(-c4c5nc(c(-c6cc(S(=O)(=O)[O-])ccc6F)c6ccc([nH]6)c(-c6cc(S(=O)(=O)[O-])ccc6F)c6nc(c(-c7cc(S(=O)(=O)[O-])ccc7F)c7ccc4[nH]7)C=C6)C=C5)cc3)cc2F)C1
REMARK SMILES IDX 21 1 20 2 19 3 18 4 17 5 15 6 16 7 14 8 13 9 12 10 9 11
REMARK SMILES IDX 10 12 93 13 11 14 92 15 94 16 8 17 7 18 3 19 4 20 95 21 5 22
REMARK SMILES IDX 6 23 2 24 1 25 22 26 23 27 24 28 25 29 26 30 27 31 28 32
REMARK SMILES IDX 29 33 30 34 91 35 31 36 90 37 32 38 33 39 34 40 84 41 35 42
REMARK SMILES IDX 89 43 83 44 85 45 36 46 88 47 82 48 81 49 37 51 69 52 49 53
REMARK SMILES IDX 68 54 50 55 53 56 67 57 86 58 51 59 52 60 66 62 87 63 54 64
REMARK SMILES IDX 38 65 39 66 47 67 40 68 46 69 48 70 45 71 41 72 42 73 43 74
REMARK SMILES IDX 44 75 70 76 71 77 79 78 72 79 78 80 80 81 77 82 73 83 74 84
REMARK SMILES IDX 75 85 76 86 55 87 56 88 64 89 57 90 63 91 65 92 62 93 58 94
REMARK SMILES IDX 59 95 60 96 61 97
REMARK H PARENT 85 50 53 61
REMARK Flexibility Score: inf
ROOT
ATOM      1  C   UNL A   1      37.283  20.471  24.950  1.00  0.00     0.188 C 
ENDROOT
BRANCH   1   2
ATOM      2  O   UNL A   1      35.962  19.958  24.950  1.00  0.00    -0.376 OA
BRANCH   2   3
ATOM      3  C   UNL A   1      35.719  18.584  24.692  1.00  0.00     0.202 C 
BRANCH   3   4
ATOM      4  C   UNL A   1      34.311  18.002  24.470  1.00  0.00     0.261 C 
BRANCH   4   5
ATOM      5  O   UNL A   1      33.447  18.740  23.598  1.00  0.00    -0.460 OA
BRANCH   5   6
ATOM      6  C   UNL A   1      32.643  19.644  24.208  1.00  0.00     0.330 C 
ATOM      7  O   UNL A   1      31.902  19.429  25.155  1.00  0.00    -0.247 OA
BRANCH   6   8
ATOM      8  C   UNL A   1      32.829  21.011  23.677  1.00  0.00     0.094 C 
ATOM      9  C   UNL A   1      33.170  22.089  24.400  1.00  0.00     0.016 C 
BRANCH   9  10
ATOM     10  C   UNL A   1      33.382  23.427  23.822  1.00  0.00    -0.022 A 
ATOM     11  C   UNL A   1      33.504  26.057  22.774  1.00  0.00     0.007 A 
ATOM     12  C   UNL A   1      34.225  25.717  23.921  1.00  0.00     0.009 A 
ATOM     13  C   UNL A   1      32.828  25.035  22.102  1.00  0.00     0.128 A 
ATOM     14  C   UNL A   1      34.182  24.410  24.427  1.00  0.00     0.008 A 
ATOM     15  C   UNL A   1      32.750  23.743  22.617  1.00  0.00     0.047 A 
ATOM     16  F   UNL A   1      32.186  25.294  20.954  1.00  0.00    -0.207 F 
BRANCH  11  17
ATOM     17  C   UNL A   1      33.405  27.489  22.313  1.00  0.00     0.158 C 
BRANCH  17  18
ATOM     18  N   UNL A   1      32.470  28.278  23.111  1.00  0.00    -0.338 N 
ATOM     19  C   UNL A   1      31.614  29.308  25.023  1.00  0.00     0.017 C 
ATOM     20  C   UNL A   1      30.541  29.325  23.923  1.00  0.00     0.105 C 
ATOM     21  C   UNL A   1      32.887  29.101  24.216  1.00  0.00     0.124 C 
ATOM     22  C   UNL A   1      31.108  28.378  22.884  1.00  0.00     0.223 C 
ATOM     23  O   UNL A   1      30.465  27.838  22.000  1.00  0.00    -0.275 OA
BRANCH  19  24
ATOM     24  C   UNL A   1      31.314  28.206  26.061  1.00  0.00     0.002 C 
ATOM     25  C   UNL A   1      31.748  28.525  27.484  1.00  0.00     0.004 C 
ENDBRANCH  19  24
ENDBRANCH  17  18
ENDBRANCH  11  17
ENDBRANCH   9  10
ENDBRANCH   6   8
ENDBRANCH   5   6
ENDBRANCH   4   5
ENDBRANCH   3   4
ENDBRANCH   2   3
ENDBRANCH   1   2
BRANCH   1  26
ATOM     26  C   UNL A   1      37.523  21.957  25.277  1.00  0.00     0.188 C 
BRANCH  26  27
ATOM     27  O   UNL A   1      38.626  22.236  26.107  1.00  0.00    -0.376 OA
BRANCH  27  28
ATOM     28  C   UNL A   1      39.754  21.377  26.098  1.00  0.00     0.202 C 
BRANCH  28  29
ATOM     29  C   UNL A   1      41.218  21.778  26.383  1.00  0.00     0.261 C 
BRANCH  29  30
ATOM     30  O   UNL A   1      42.041  22.217  25.302  1.00  0.00    -0.460 OA
BRANCH  30  31
ATOM     31  C   UNL A   1      43.361  22.357  25.585  1.00  0.00     0.338 C 
ATOM     32  O   UNL A   1      44.252  21.565  25.341  1.00  0.00    -0.246 OA
BRANCH  31  33
ATOM     33  C   UNL A   1      43.585  23.725  26.094  1.00  0.00     0.060 A 
ATOM     34  C   UNL A   1      43.965  23.898  27.430  1.00  0.00     0.016 A 
ATOM     35  C   UNL A   1      43.386  24.827  25.262  1.00  0.00     0.016 A 
ATOM     36  C   UNL A   1      44.135  25.184  27.945  1.00  0.00     0.010 A 
ATOM     37  C   UNL A   1      43.533  26.113  25.786  1.00  0.00     0.010 A 
ATOM     38  C   UNL A   1      43.884  26.300  27.135  1.00  0.00    -0.014 A 
BRANCH  38  39
ATOM     39  C   UNL A   1      43.820  27.657  27.733  1.00  0.00     0.031 A 
ATOM     40  C   UNL A   1      45.097  28.442  27.860  1.00  0.00     0.074 A 
ATOM     41  C   UNL A   1      42.654  28.187  28.143  1.00  0.00     0.049 A 
ATOM     42  N   UNL A   1      45.307  29.593  28.444  1.00  0.00    -0.248 NA
ATOM     43  C   UNL A   1      46.297  27.848  27.249  1.00  0.00     0.031 C 
ATOM     44  C   UNL A   1      41.344  27.553  28.008  1.00  0.00     0.029 A 
ATOM     45  N   UNL A   1      42.387  29.384  28.761  1.00  0.00    -0.354 N 
ATOM     46  C   UNL A   1      46.661  29.858  28.277  1.00  0.00     0.074 A 
ATOM     47  C   UNL A   1      47.229  28.737  27.562  1.00  0.00     0.031 C 
ATOM     48  C   UNL A   1      40.411  28.365  28.536  1.00  0.00     0.029 A 
ATOM     49  C   UNL A   1      41.062  29.554  29.088  1.00  0.00     0.049 A 
ATOM     50  H   UNL A   1      43.079  30.057  28.954  1.00  0.00     0.167 HD
ATOM     51  C   UNL A   1      47.364  30.944  28.680  1.00  0.00     0.034 A 
ATOM     52  C   UNL A   1      40.451  30.538  29.779  1.00  0.00     0.034 A 
ATOM     53  C   UNL A   1      46.787  32.055  29.391  1.00  0.00     0.049 A 
ATOM     54  C   UNL A   1      41.273  31.686  30.312  1.00  0.00     0.074 A 
ATOM     55  C   UNL A   1      47.416  33.204  29.840  1.00  0.00     0.029 A 
ATOM     56  N   UNL A   1      45.455  32.158  29.764  1.00  0.00    -0.354 N 
ATOM     57  N   UNL A   1      42.561  31.908  30.183  1.00  0.00    -0.248 NA
ATOM     58  C   UNL A   1      40.564  32.712  31.089  1.00  0.00     0.031 C 
ATOM     59  C   UNL A   1      46.480  33.967  30.543  1.00  0.00     0.029 A 
ATOM     60  C   UNL A   1      45.249  33.335  30.465  1.00  0.00     0.049 A 
ATOM     61  H   UNL A   1      44.758  31.493  29.559  1.00  0.00     0.167 HD
ATOM     62  C   UNL A   1      42.808  33.111  30.841  1.00  0.00     0.074 A 
ATOM     63  C   UNL A   1      41.539  33.569  31.362  1.00  0.00     0.031 C 
ATOM     64  C   UNL A   1      43.981  33.778  30.991  1.00  0.00     0.034 A 
BRANCH  51  65
ATOM     65  C   UNL A   1      48.841  30.969  28.397  1.00  0.00     0.023 A 
ATOM     66  C   UNL A   1      49.768  30.358  29.256  1.00  0.00     0.031 A 
ATOM     67  C   UNL A   1      49.323  31.578  27.225  1.00  0.00     0.131 A 
ATOM     68  C   UNL A   1      51.135  30.393  28.945  1.00  0.00     0.055 A 
ATOM     69  C   UNL A   1      50.677  31.558  26.890  1.00  0.00     0.041 A 
ATOM     70  F   UNL A   1      48.481  32.193  26.379  1.00  0.00    -0.206 F 
ATOM     71  C   UNL A   1      51.593  30.966  27.755  1.00  0.00     0.022 A 
BRANCH  68  72
ATOM     72  S   UNL A   1      52.321  29.734  30.148  1.00  0.00     0.124 S 
ATOM     73  O   UNL A   1      52.833  30.958  30.759  1.00  0.00    -0.237 OA
ATOM     74  O   UNL A   1      51.479  28.900  30.998  1.00  0.00    -0.237 OA
ATOM     75  O   UNL A   1      53.281  29.008  29.320  1.00  0.00    -0.744 OA
ENDBRANCH  68  72
ENDBRANCH  51  65
BRANCH  52  76
ATOM     76  C   UNL A   1      38.986  30.465  30.049  1.00  0.00     0.023 A 
ATOM     77  C   UNL A   1      38.062  31.100  29.206  1.00  0.00     0.031 A 
ATOM     78  C   UNL A   1      38.493  29.773  31.170  1.00  0.00     0.131 A 
ATOM     79  C   UNL A   1      36.691  31.048  29.507  1.00  0.00     0.055 A 
ATOM     80  C   UNL A   1      37.126  29.689  31.441  1.00  0.00     0.041 A 
ATOM     81  F   UNL A   1      39.336  29.152  32.009  1.00  0.00    -0.206 F 
ATOM     82  C   UNL A   1      36.217  30.335  30.611  1.00  0.00     0.022 A 
BRANCH  79  83
ATOM     83  S   UNL A   1      35.532  31.962  28.454  1.00  0.00     0.124 S 
ATOM     84  O   UNL A   1      36.346  33.098  28.033  1.00  0.00    -0.237 OA
ATOM     85  O   UNL A   1      35.218  30.980  27.421  1.00  0.00    -0.237 OA
ATOM     86  O   UNL A   1      34.430  32.283  29.359  1.00  0.00    -0.744 OA
ENDBRANCH  79  83
ENDBRANCH  52  76
BRANCH  64  87
ATOM     87  C   UNL A   1      43.951  35.096  31.720  1.00  0.00     0.023 A 
ATOM     88  C   UNL A   1      43.925  36.320  31.031  1.00  0.00     0.031 A 
ATOM     89  C   UNL A   1      43.887  35.123  33.126  1.00  0.00     0.131 A 
ATOM     90  C   UNL A   1      43.863  37.523  31.750  1.00  0.00     0.055 A 
ATOM     91  C   UNL A   1      43.775  36.321  33.833  1.00  0.00     0.041 A 
ATOM     92  F   UNL A   1      43.904  33.982  33.832  1.00  0.00    -0.206 F 
ATOM     93  C   UNL A   1      43.768  37.531  33.144  1.00  0.00     0.022 A 
BRANCH  90  94
ATOM     94  S   UNL A   1      43.943  39.090  30.839  1.00  0.00     0.124 S 
ATOM     95  O   UNL A   1      43.342  38.727  29.560  1.00  0.00    -0.237 OA
ATOM     96  O   UNL A   1      43.156  39.984  31.682  1.00  0.00    -0.237 OA
ATOM     97  O   UNL A   1      45.374  39.387  30.790  1.00  0.00    -0.744 OA
ENDBRANCH  90  94
ENDBRANCH  64  87
ENDBRANCH  38  39
ENDBRANCH  31  33
ENDBRANCH  30  31
ENDBRANCH  29  30
ENDBRANCH  28  29
ENDBRANCH  27  28
ENDBRANCH  26  27
ENDBRANCH   1  26
TORSDOF 24
ENDMDL
