MODEL 1
REMARK VINA RESULT:     -10.7      0.000      0.000
REMARK SMILES C[N@@H+]1CC2(CC[NH+](C(=O)c3cc(-c4ccncc4)n[nH]3)CC2)C[C@H]1C(=O)OCCOCCOCCOC(=O)c1ccc(-c2c3nc(c(-c4cc(S(=O)(=O)[O-])ccc4F)c4ccc([nH]4)c(-c4cc(S(=O)(=O)[O-])ccc4F)c4nc(c(-c5cc(S(=O)(=O)[O-])ccc5F)c5ccc2[nH]5)C=C4)C=C3)cc1
REMARK SMILES IDX 31 1 30 2 29 3 28 4 27 5 25 6 26 7 24 8 1 9 2 10 3 11 4 13
REMARK SMILES IDX 23 14 5 15 22 16 6 17 21 18 7 19 8 21 9 22 10 23 11 24 20 25
REMARK SMILES IDX 12 26 19 27 13 29 14 30 18 31 15 32 17 33 16 34 32 35 33 36
REMARK SMILES IDX 34 37 35 38 36 39 37 40 38 41 39 42 40 43 101 44 41 45
REMARK SMILES IDX 100 46 42 47 43 48 44 49 94 50 45 51 99 52 93 53 95 54 46 55
REMARK SMILES IDX 98 56 92 57 91 58 47 60 79 61 59 62 78 63 60 64 63 65 77 66
REMARK SMILES IDX 96 67 61 68 62 69 76 71 97 72 64 73 48 74 49 75 57 76 50 77
REMARK SMILES IDX 56 78 58 79 55 80 51 81 52 82 53 83 54 84 80 85 81 86 89 87
REMARK SMILES IDX 82 88 88 89 90 90 87 91 83 92 84 93 85 94 86 95 65 96 66 97
REMARK SMILES IDX 74 98 67 99 73 100 75 101 72 102 68 103 69 104 70 105 71 106
REMARK H PARENT 2 12 7 20 20 28 95 59 63 70
REMARK Flexibility Score: inf
ROOT
ATOM      1  C   UNL A   1      41.955  19.912  26.798  1.00  0.00     0.188 C 
ENDROOT
BRANCH   1   2
ATOM      2  O   UNL A   1      40.742  20.601  26.492  1.00  0.00    -0.376 OA
BRANCH   2   3
ATOM      3  C   UNL A   1      40.498  21.866  27.085  1.00  0.00     0.202 C 
BRANCH   3   4
ATOM      4  C   UNL A   1      39.291  22.653  26.571  1.00  0.00     0.261 C 
BRANCH   4   5
ATOM      5  O   UNL A   1      38.264  21.828  25.997  1.00  0.00    -0.459 OA
BRANCH   5   6
ATOM      6  C   UNL A   1      37.349  22.463  25.218  1.00  0.00     0.365 C 
ATOM      7  O   UNL A   1      37.304  23.683  25.077  1.00  0.00    -0.245 OA
BRANCH   6   8
ATOM      8  C   UNL A   1      36.314  21.543  24.547  1.00  0.00     0.295 C 
ATOM      9  C   UNL A   1      35.286  19.328  24.604  1.00  0.00     0.333 C 
ATOM     10  N   UNL A   1      35.721  20.479  25.401  1.00  0.00    -0.325 N 
ATOM     11  C   UNL A   1      34.585  21.093  26.099  1.00  0.00     0.270 C 
ATOM     12  H   UNL A   1      36.412  20.123  26.061  1.00  0.00     0.348 HD
ATOM     13  C   UNL A   1      34.093  22.276  25.240  1.00  0.00     0.036 C 
ATOM     14  C   UNL A   1      35.124  22.379  24.098  1.00  0.00     0.091 C 
ATOM     15  C   UNL A   1      34.071  23.571  26.089  1.00  0.00     0.075 C 
ATOM     16  C   UNL A   1      32.688  22.025  24.638  1.00  0.00     0.075 C 
ATOM     17  C   UNL A   1      32.941  23.535  27.114  1.00  0.00     0.271 C 
ATOM     18  C   UNL A   1      31.563  22.107  25.669  1.00  0.00     0.271 C 
ATOM     19  N   UNL A   1      31.665  23.348  26.427  1.00  0.00    -0.266 N 
ATOM     20  H   UNL A   1      30.697  23.505  26.518  1.00  0.00     0.357 HD
BRANCH  19  21
ATOM     21  C   UNL A   1      30.566  24.197  26.508  1.00  0.00     0.362 C 
ATOM     22  O   UNL A   1      29.607  23.954  27.237  1.00  0.00    -0.224 OA
BRANCH  21  23
ATOM     23  C   UNL A   1      30.595  25.410  25.737  1.00  0.00     0.163 A 
ATOM     24  C   UNL A   1      29.665  26.032  24.928  1.00  0.00     0.068 A 
ATOM     25  N   UNL A   1      31.666  26.256  25.752  1.00  0.00    -0.269 N 
ATOM     26  C   UNL A   1      30.322  27.168  24.393  1.00  0.00     0.093 A 
ATOM     27  N   UNL A   1      31.567  27.274  24.880  1.00  0.00    -0.175 NA
ATOM     28  H   UNL A   1      32.440  26.131  26.347  1.00  0.00     0.190 HD
BRANCH  26  29
ATOM     29  C   UNL A   1      29.802  28.116  23.421  1.00  0.00     0.005 A 
ATOM     30  C   UNL A   1      30.665  28.929  22.688  1.00  0.00     0.030 A 
ATOM     31  C   UNL A   1      28.426  28.225  23.221  1.00  0.00     0.030 A 
ATOM     32  C   UNL A   1      30.112  29.814  21.779  1.00  0.00     0.111 A 
ATOM     33  C   UNL A   1      27.971  29.148  22.297  1.00  0.00     0.111 A 
ATOM     34  N   UNL A   1      28.784  29.945  21.569  1.00  0.00    -0.265 NA
ENDBRANCH  26  29
ENDBRANCH  21  23
ENDBRANCH  19  21
ENDBRANCH   6   8
ENDBRANCH   5   6
ENDBRANCH   4   5
ENDBRANCH   3   4
ENDBRANCH   2   3
ENDBRANCH   1   2
BRANCH   1  35
ATOM     35  C   UNL A   1      43.086  19.859  25.753  1.00  0.00     0.188 C 
BRANCH  35  36
ATOM     36  O   UNL A   1      43.226  21.060  25.009  1.00  0.00    -0.376 OA
BRANCH  36  37
ATOM     37  C   UNL A   1      43.949  22.096  25.647  1.00  0.00     0.202 C 
BRANCH  37  38
ATOM     38  C   UNL A   1      44.101  23.340  24.768  1.00  0.00     0.261 C 
BRANCH  38  39
ATOM     39  O   UNL A   1      44.293  24.574  25.481  1.00  0.00    -0.460 OA
BRANCH  39  40
ATOM     40  C   UNL A   1      43.231  25.403  25.571  1.00  0.00     0.338 C 
ATOM     41  O   UNL A   1      42.365  25.568  24.719  1.00  0.00    -0.246 OA
BRANCH  40  42
ATOM     42  C   UNL A   1      43.177  25.946  26.945  1.00  0.00     0.060 A 
ATOM     43  C   UNL A   1      42.117  25.581  27.785  1.00  0.00     0.016 A 
ATOM     44  C   UNL A   1      44.172  26.813  27.407  1.00  0.00     0.016 A 
ATOM     45  C   UNL A   1      42.032  26.108  29.080  1.00  0.00     0.010 A 
ATOM     46  C   UNL A   1      44.076  27.352  28.695  1.00  0.00     0.010 A 
ATOM     47  C   UNL A   1      42.991  27.026  29.529  1.00  0.00    -0.014 A 
BRANCH  47  48
ATOM     48  C   UNL A   1      42.773  27.794  30.785  1.00  0.00     0.031 A 
ATOM     49  C   UNL A   1      41.798  28.942  30.756  1.00  0.00     0.074 A 
ATOM     50  C   UNL A   1      43.436  27.503  31.921  1.00  0.00     0.049 A 
ATOM     51  N   UNL A   1      41.515  29.818  31.684  1.00  0.00    -0.248 NA
ATOM     52  C   UNL A   1      41.046  29.125  29.504  1.00  0.00     0.031 C 
ATOM     53  C   UNL A   1      44.379  26.399  32.091  1.00  0.00     0.029 A 
ATOM     54  N   UNL A   1      43.431  28.131  33.144  1.00  0.00    -0.354 N 
ATOM     55  C   UNL A   1      40.568  30.670  31.124  1.00  0.00     0.074 A 
ATOM     56  C   UNL A   1      40.337  30.212  29.771  1.00  0.00     0.031 C 
ATOM     57  C   UNL A   1      44.884  26.445  33.337  1.00  0.00     0.029 A 
ATOM     58  C   UNL A   1      44.332  27.603  34.042  1.00  0.00     0.049 A 
ATOM     59  H   UNL A   1      42.838  28.887  33.359  1.00  0.00     0.167 HD
ATOM     60  C   UNL A   1      39.949  31.737  31.686  1.00  0.00     0.034 A 
ATOM     61  C   UNL A   1      44.697  28.027  35.271  1.00  0.00     0.034 A 
ATOM     62  C   UNL A   1      40.186  32.188  33.034  1.00  0.00     0.049 A 
ATOM     63  C   UNL A   1      44.038  29.262  35.852  1.00  0.00     0.074 A 
ATOM     64  C   UNL A   1      39.580  33.233  33.709  1.00  0.00     0.029 A 
ATOM     65  N   UNL A   1      41.114  31.637  33.907  1.00  0.00    -0.354 N 
ATOM     66  N   UNL A   1      43.118  30.036  35.324  1.00  0.00    -0.248 NA
ATOM     67  C   UNL A   1      44.464  29.674  37.198  1.00  0.00     0.031 C 
ATOM     68  C   UNL A   1      40.193  33.362  34.959  1.00  0.00     0.029 A 
ATOM     69  C   UNL A   1      41.124  32.345  35.098  1.00  0.00     0.049 A 
ATOM     70  H   UNL A   1      41.683  30.859  33.708  1.00  0.00     0.167 HD
ATOM     71  C   UNL A   1      42.833  31.003  36.288  1.00  0.00     0.074 A 
ATOM     72  C   UNL A   1      43.666  30.705  37.432  1.00  0.00     0.031 C 
ATOM     73  C   UNL A   1      41.959  32.039  36.235  1.00  0.00     0.034 A 
BRANCH  60  74
ATOM     74  C   UNL A   1      38.999  32.528  30.822  1.00  0.00     0.023 A 
ATOM     75  C   UNL A   1      37.649  32.165  30.674  1.00  0.00     0.031 A 
ATOM     76  C   UNL A   1      39.458  33.666  30.136  1.00  0.00     0.131 A 
ATOM     77  C   UNL A   1      36.817  32.907  29.821  1.00  0.00     0.055 A 
ATOM     78  C   UNL A   1      38.609  34.440  29.344  1.00  0.00     0.041 A 
ATOM     79  F   UNL A   1      40.744  34.042  30.222  1.00  0.00    -0.206 F 
ATOM     80  C   UNL A   1      37.282  34.056  29.175  1.00  0.00     0.022 A 
BRANCH  77  81
ATOM     81  S   UNL A   1      35.146  32.291  29.483  1.00  0.00     0.124 S 
ATOM     82  O   UNL A   1      35.409  30.893  29.148  1.00  0.00    -0.237 OA
ATOM     83  O   UNL A   1      34.461  32.526  30.748  1.00  0.00    -0.237 OA
ATOM     84  O   UNL A   1      34.694  33.117  28.366  1.00  0.00    -0.744 OA
ENDBRANCH  77  81
ENDBRANCH  60  74
BRANCH  61  85
ATOM     85  C   UNL A   1      45.785  27.337  36.029  1.00  0.00     0.023 A 
ATOM     86  C   UNL A   1      45.509  26.260  36.887  1.00  0.00     0.031 A 
ATOM     87  C   UNL A   1      47.108  27.814  35.980  1.00  0.00     0.131 A 
ATOM     88  C   UNL A   1      46.525  25.736  37.703  1.00  0.00     0.055 A 
ATOM     89  C   UNL A   1      48.127  27.249  36.749  1.00  0.00     0.041 A 
ATOM     90  F   UNL A   1      47.428  28.848  35.185  1.00  0.00    -0.206 F 
ATOM     91  C   UNL A   1      47.834  26.215  37.632  1.00  0.00     0.022 A 
BRANCH  88  92
ATOM     92  S   UNL A   1      46.082  24.498  38.955  1.00  0.00     0.124 S 
ATOM     93  O   UNL A   1      47.344  24.332  39.667  1.00  0.00    -0.237 OA
ATOM     94  O   UNL A   1      45.017  25.176  39.687  1.00  0.00    -0.237 OA
ATOM     95  O   UNL A   1      45.656  23.348  38.161  1.00  0.00    -0.744 OA
ENDBRANCH  88  92
ENDBRANCH  61  85
BRANCH  73  96
ATOM     96  C   UNL A   1      41.815  32.892  37.473  1.00  0.00     0.023 A 
ATOM     97  C   UNL A   1      40.940  32.547  38.519  1.00  0.00     0.031 A 
ATOM     98  C   UNL A   1      42.569  34.072  37.607  1.00  0.00     0.131 A 
ATOM     99  C   UNL A   1      40.804  33.398  39.627  1.00  0.00     0.055 A 
ATOM    100  C   UNL A   1      42.474  34.884  38.738  1.00  0.00     0.041 A 
ATOM    101  F   UNL A   1      43.420  34.453  36.640  1.00  0.00    -0.206 F 
ATOM    102  C   UNL A   1      41.577  34.555  39.750  1.00  0.00     0.022 A 
BRANCH  99 103
ATOM    103  S   UNL A   1      39.537  33.019  40.869  1.00  0.00     0.124 S 
ATOM    104  O   UNL A   1      39.118  34.351  41.293  1.00  0.00    -0.237 OA
ATOM    105  O   UNL A   1      38.560  32.259  40.096  1.00  0.00    -0.237 OA
ATOM    106  O   UNL A   1      40.264  32.247  41.877  1.00  0.00    -0.744 OA
ENDBRANCH  99 103
ENDBRANCH  73  96
ENDBRANCH  47  48
ENDBRANCH  40  42
ENDBRANCH  39  40
ENDBRANCH  38  39
ENDBRANCH  37  38
ENDBRANCH  36  37
ENDBRANCH  35  36
ENDBRANCH   1  35
TORSDOF 23
ENDMDL
MODEL 2
REMARK VINA RESULT:     -10.3      5.368      7.839
REMARK SMILES C[N@@H+]1CC2(CC[NH+](C(=O)c3cc(-c4ccncc4)n[nH]3)CC2)C[C@H]1C(=O)OCCOCCOCCOC(=O)c1ccc(-c2c3nc(c(-c4cc(S(=O)(=O)[O-])ccc4F)c4ccc([nH]4)c(-c4cc(S(=O)(=O)[O-])ccc4F)c4nc(c(-c5cc(S(=O)(=O)[O-])ccc5F)c5ccc2[nH]5)C=C4)C=C3)cc1
REMARK SMILES IDX 31 1 30 2 29 3 28 4 27 5 25 6 26 7 24 8 1 9 2 10 3 11 4 13
REMARK SMILES IDX 23 14 5 15 22 16 6 17 21 18 7 19 8 21 9 22 10 23 11 24 20 25
REMARK SMILES IDX 12 26 19 27 13 29 14 30 18 31 15 32 17 33 16 34 32 35 33 36
REMARK SMILES IDX 34 37 35 38 36 39 37 40 38 41 39 42 40 43 101 44 41 45
REMARK SMILES IDX 100 46 42 47 43 48 44 49 94 50 45 51 99 52 93 53 95 54 46 55
REMARK SMILES IDX 98 56 92 57 91 58 47 60 79 61 59 62 78 63 60 64 63 65 77 66
REMARK SMILES IDX 96 67 61 68 62 69 76 71 97 72 64 73 48 74 49 75 57 76 50 77
REMARK SMILES IDX 56 78 58 79 55 80 51 81 52 82 53 83 54 84 80 85 81 86 89 87
REMARK SMILES IDX 82 88 88 89 90 90 87 91 83 92 84 93 85 94 86 95 65 96 66 97
REMARK SMILES IDX 74 98 67 99 73 100 75 101 72 102 68 103 69 104 70 105 71 106
REMARK H PARENT 2 12 7 20 20 28 95 59 63 70
REMARK Flexibility Score: inf
ROOT
ATOM      1  C   UNL A   1      40.533  20.542  26.883  1.00  0.00     0.188 C 
ENDROOT
BRANCH   1   2
ATOM      2  O   UNL A   1      39.475  20.720  25.941  1.00  0.00    -0.376 OA
BRANCH   2   3
ATOM      3  C   UNL A   1      38.774  21.952  25.913  1.00  0.00     0.202 C 
BRANCH   3   4
ATOM      4  C   UNL A   1      37.429  21.972  25.185  1.00  0.00     0.261 C 
BRANCH   4   5
ATOM      5  O   UNL A   1      36.591  20.844  25.488  1.00  0.00    -0.459 OA
BRANCH   5   6
ATOM      6  C   UNL A   1      35.284  21.118  25.738  1.00  0.00     0.365 C 
ATOM      7  O   UNL A   1      34.849  21.404  26.850  1.00  0.00    -0.245 OA
BRANCH   6   8
ATOM      8  C   UNL A   1      34.348  20.993  24.522  1.00  0.00     0.295 C 
ATOM      9  C   UNL A   1      32.417  19.809  23.610  1.00  0.00     0.333 C 
ATOM     10  N   UNL A   1      32.981  20.472  24.790  1.00  0.00    -0.325 N 
ATOM     11  C   UNL A   1      32.166  21.629  25.181  1.00  0.00     0.270 C 
ATOM     12  H   UNL A   1      33.003  19.769  25.528  1.00  0.00     0.348 HD
ATOM     13  C   UNL A   1      32.809  22.885  24.558  1.00  0.00     0.036 C 
ATOM     14  C   UNL A   1      34.120  22.375  23.927  1.00  0.00     0.091 C 
ATOM     15  C   UNL A   1      33.093  23.934  25.662  1.00  0.00     0.075 C 
ATOM     16  C   UNL A   1      31.925  23.518  23.455  1.00  0.00     0.075 C 
ATOM     17  C   UNL A   1      31.798  24.558  26.171  1.00  0.00     0.271 C 
ATOM     18  C   UNL A   1      30.691  24.235  24.004  1.00  0.00     0.271 C 
ATOM     19  N   UNL A   1      31.078  25.167  25.056  1.00  0.00    -0.266 N 
ATOM     20  H   UNL A   1      30.416  25.863  24.838  1.00  0.00     0.357 HD
BRANCH  19  21
ATOM     21  C   UNL A   1      30.687  26.500  24.970  1.00  0.00     0.362 C 
ATOM     22  O   UNL A   1      29.531  26.824  24.708  1.00  0.00    -0.224 OA
BRANCH  21  23
ATOM     23  C   UNL A   1      31.675  27.509  25.242  1.00  0.00     0.163 A 
ATOM     24  C   UNL A   1      32.258  27.963  26.408  1.00  0.00     0.068 A 
ATOM     25  N   UNL A   1      32.298  28.204  24.246  1.00  0.00    -0.269 N 
ATOM     26  C   UNL A   1      33.112  29.025  26.019  1.00  0.00     0.093 A 
ATOM     27  N   UNL A   1      33.099  29.188  24.688  1.00  0.00    -0.175 NA
ATOM     28  H   UNL A   1      32.172  28.002  23.291  1.00  0.00     0.190 HD
BRANCH  26  29
ATOM     29  C   UNL A   1      33.899  29.890  26.884  1.00  0.00     0.005 A 
ATOM     30  C   UNL A   1      35.176  29.511  27.296  1.00  0.00     0.030 A 
ATOM     31  C   UNL A   1      33.376  31.109  27.315  1.00  0.00     0.030 A 
ATOM     32  C   UNL A   1      35.878  30.374  28.119  1.00  0.00     0.111 A 
ATOM     33  C   UNL A   1      34.152  31.896  28.147  1.00  0.00     0.111 A 
ATOM     34  N   UNL A   1      35.393  31.556  28.558  1.00  0.00    -0.265 NA
ENDBRANCH  26  29
ENDBRANCH  21  23
ENDBRANCH  19  21
ENDBRANCH   6   8
ENDBRANCH   5   6
ENDBRANCH   4   5
ENDBRANCH   3   4
ENDBRANCH   2   3
ENDBRANCH   1   2
BRANCH   1  35
ATOM     35  C   UNL A   1      41.984  20.401  26.382  1.00  0.00     0.188 C 
BRANCH  35  36
ATOM     36  O   UNL A   1      42.334  21.350  25.386  1.00  0.00    -0.376 OA
BRANCH  36  37
ATOM     37  C   UNL A   1      42.271  22.707  25.783  1.00  0.00     0.202 C 
BRANCH  37  38
ATOM     38  C   UNL A   1      43.370  23.562  25.145  1.00  0.00     0.261 C 
BRANCH  38  39
ATOM     39  O   UNL A   1      43.209  24.982  25.302  1.00  0.00    -0.460 OA
BRANCH  39  40
ATOM     40  C   UNL A   1      44.336  25.721  25.402  1.00  0.00     0.338 C 
ATOM     41  O   UNL A   1      45.367  25.561  24.759  1.00  0.00    -0.246 OA
BRANCH  40  42
ATOM     42  C   UNL A   1      44.060  26.875  26.284  1.00  0.00     0.060 A 
ATOM     43  C   UNL A   1      43.310  27.950  25.792  1.00  0.00     0.016 A 
ATOM     44  C   UNL A   1      44.540  26.896  27.597  1.00  0.00     0.016 A 
ATOM     45  C   UNL A   1      43.065  29.066  26.602  1.00  0.00     0.010 A 
ATOM     46  C   UNL A   1      44.308  28.019  28.399  1.00  0.00     0.010 A 
ATOM     47  C   UNL A   1      43.595  29.123  27.899  1.00  0.00    -0.014 A 
BRANCH  47  48
ATOM     48  C   UNL A   1      43.574  30.396  28.669  1.00  0.00     0.031 A 
ATOM     49  C   UNL A   1      44.789  31.285  28.605  1.00  0.00     0.074 A 
ATOM     50  C   UNL A   1      42.519  30.752  29.426  1.00  0.00     0.049 A 
ATOM     51  N   UNL A   1      45.053  32.384  29.261  1.00  0.00    -0.248 NA
ATOM     52  C   UNL A   1      45.852  30.869  27.676  1.00  0.00     0.031 C 
ATOM     53  C   UNL A   1      41.271  30.000  29.547  1.00  0.00     0.029 A 
ATOM     54  N   UNL A   1      42.341  31.833  30.258  1.00  0.00    -0.354 N 
ATOM     55  C   UNL A   1      46.318  32.782  28.842  1.00  0.00     0.074 A 
ATOM     56  C   UNL A   1      46.774  31.796  27.885  1.00  0.00     0.031 C 
ATOM     57  C   UNL A   1      40.468  30.627  30.425  1.00  0.00     0.029 A 
ATOM     58  C   UNL A   1      41.156  31.802  30.960  1.00  0.00     0.049 A 
ATOM     59  H   UNL A   1      42.998  32.561  30.343  1.00  0.00     0.167 HD
ATOM     60  C   UNL A   1      47.035  33.868  29.221  1.00  0.00     0.034 A 
ATOM     61  C   UNL A   1      40.700  32.604  31.946  1.00  0.00     0.034 A 
ATOM     62  C   UNL A   1      46.575  34.843  30.177  1.00  0.00     0.049 A 
ATOM     63  C   UNL A   1      41.549  33.774  32.399  1.00  0.00     0.074 A 
ATOM     64  C   UNL A   1      47.209  36.000  30.597  1.00  0.00     0.029 A 
ATOM     65  N   UNL A   1      45.378  34.771  30.875  1.00  0.00    -0.354 N 
ATOM     66  N   UNL A   1      42.729  34.157  31.967  1.00  0.00    -0.248 NA
ATOM     67  C   UNL A   1      41.000  34.622  33.467  1.00  0.00     0.031 C 
ATOM     68  C   UNL A   1      46.433  36.585  31.602  1.00  0.00     0.029 A 
ATOM     69  C   UNL A   1      45.274  35.841  31.751  1.00  0.00     0.049 A 
ATOM     70  H   UNL A   1      44.702  34.064  30.766  1.00  0.00     0.167 HD
ATOM     71  C   UNL A   1      43.043  35.309  32.688  1.00  0.00     0.074 A 
ATOM     72  C   UNL A   1      41.925  35.566  33.569  1.00  0.00     0.031 C 
ATOM     73  C   UNL A   1      44.152  36.088  32.625  1.00  0.00     0.034 A 
BRANCH  60  74
ATOM     74  C   UNL A   1      48.420  34.025  28.646  1.00  0.00     0.023 A 
ATOM     75  C   UNL A   1      48.647  34.652  27.409  1.00  0.00     0.031 A 
ATOM     76  C   UNL A   1      49.533  33.537  29.355  1.00  0.00     0.131 A 
ATOM     77  C   UNL A   1      49.951  34.732  26.896  1.00  0.00     0.055 A 
ATOM     78  C   UNL A   1      50.833  33.680  28.872  1.00  0.00     0.041 A 
ATOM     79  F   UNL A   1      49.371  32.907  30.530  1.00  0.00    -0.206 F 
ATOM     80  C   UNL A   1      51.048  34.272  27.630  1.00  0.00     0.022 A 
BRANCH  77  81
ATOM     81  S   UNL A   1      50.185  35.349  25.207  1.00  0.00     0.124 S 
ATOM     82  O   UNL A   1      50.937  34.255  24.595  1.00  0.00    -0.237 OA
ATOM     83  O   UNL A   1      48.815  35.521  24.741  1.00  0.00    -0.237 OA
ATOM     84  O   UNL A   1      50.941  36.585  25.395  1.00  0.00    -0.744 OA
ENDBRANCH  77  81
ENDBRANCH  60  74
BRANCH  61  85
ATOM     85  C   UNL A   1      39.407  32.311  32.636  1.00  0.00     0.023 A 
ATOM     86  C   UNL A   1      38.240  33.036  32.343  1.00  0.00     0.031 A 
ATOM     87  C   UNL A   1      39.346  31.363  33.674  1.00  0.00     0.131 A 
ATOM     88  C   UNL A   1      37.084  32.846  33.117  1.00  0.00     0.055 A 
ATOM     89  C   UNL A   1      38.176  31.135  34.401  1.00  0.00     0.041 A 
ATOM     90  F   UNL A   1      40.434  30.647  34.005  1.00  0.00    -0.206 F 
ATOM     91  C   UNL A   1      37.040  31.892  34.136  1.00  0.00     0.022 A 
BRANCH  88  92
ATOM     92  S   UNL A   1      35.670  33.954  32.855  1.00  0.00     0.124 S 
ATOM     93  O   UNL A   1      34.600  33.237  33.538  1.00  0.00    -0.237 OA
ATOM     94  O   UNL A   1      36.128  35.184  33.493  1.00  0.00    -0.237 OA
ATOM     95  O   UNL A   1      35.551  34.016  31.400  1.00  0.00    -0.744 OA
ENDBRANCH  88  92
ENDBRANCH  61  85
BRANCH  73  96
ATOM     96  C   UNL A   1      44.184  37.326  33.490  1.00  0.00     0.023 A 
ATOM     97  C   UNL A   1      43.678  38.560  33.044  1.00  0.00     0.031 A 
ATOM     98  C   UNL A   1      44.732  37.266  34.784  1.00  0.00     0.131 A 
ATOM     99  C   UNL A   1      43.776  39.694  33.866  1.00  0.00     0.055 A 
ATOM    100  C   UNL A   1      44.772  38.383  35.621  1.00  0.00     0.041 A 
ATOM    101  F   UNL A   1      45.231  36.114  35.263  1.00  0.00    -0.206 F 
ATOM    102  C   UNL A   1      44.304  39.609  35.157  1.00  0.00     0.022 A 
BRANCH  99 103
ATOM    103  S   UNL A   1      43.282  41.305  33.195  1.00  0.00     0.124 S 
ATOM    104  O   UNL A   1      43.720  41.204  31.806  1.00  0.00    -0.237 OA
ATOM    105  O   UNL A   1      41.839  41.303  33.411  1.00  0.00    -0.237 OA
ATOM    106  O   UNL A   1      44.029  42.261  34.012  1.00  0.00    -0.744 OA
ENDBRANCH  99 103
ENDBRANCH  73  96
ENDBRANCH  47  48
ENDBRANCH  40  42
ENDBRANCH  39  40
ENDBRANCH  38  39
ENDBRANCH  37  38
ENDBRANCH  36  37
ENDBRANCH  35  36
ENDBRANCH   1  35
TORSDOF 23
ENDMDL
MODEL 3
REMARK VINA RESULT:     -10.2      4.957     10.197
REMARK SMILES C[N@@H+]1CC2(CC[NH+](C(=O)c3cc(-c4ccncc4)n[nH]3)CC2)C[C@H]1C(=O)OCCOCCOCCOC(=O)c1ccc(-c2c3nc(c(-c4cc(S(=O)(=O)[O-])ccc4F)c4ccc([nH]4)c(-c4cc(S(=O)(=O)[O-])ccc4F)c4nc(c(-c5cc(S(=O)(=O)[O-])ccc5F)c5ccc2[nH]5)C=C4)C=C3)cc1
REMARK SMILES IDX 31 1 30 2 29 3 28 4 27 5 25 6 26 7 24 8 1 9 2 10 3 11 4 13
REMARK SMILES IDX 23 14 5 15 22 16 6 17 21 18 7 19 8 21 9 22 10 23 11 24 20 25
REMARK SMILES IDX 12 26 19 27 13 29 14 30 18 31 15 32 17 33 16 34 32 35 33 36
REMARK SMILES IDX 34 37 35 38 36 39 37 40 38 41 39 42 40 43 101 44 41 45
REMARK SMILES IDX 100 46 42 47 43 48 44 49 94 50 45 51 99 52 93 53 95 54 46 55
REMARK SMILES IDX 98 56 92 57 91 58 47 60 79 61 59 62 78 63 60 64 63 65 77 66
REMARK SMILES IDX 96 67 61 68 62 69 76 71 97 72 64 73 48 74 49 75 57 76 50 77
REMARK SMILES IDX 56 78 58 79 55 80 51 81 52 82 53 83 54 84 80 85 81 86 89 87
REMARK SMILES IDX 82 88 88 89 90 90 87 91 83 92 84 93 85 94 86 95 65 96 66 97
REMARK SMILES IDX 74 98 67 99 73 100 75 101 72 102 68 103 69 104 70 105 71 106
REMARK H PARENT 2 12 7 20 20 28 95 59 63 70
REMARK Flexibility Score: inf
ROOT
ATOM      1  C   UNL A   1      32.723  29.093  26.813  1.00  0.00     0.188 C 
ENDROOT
BRANCH   1   2
ATOM      2  O   UNL A   1      32.156  29.417  25.543  1.00  0.00    -0.376 OA
BRANCH   2   3
ATOM      3  C   UNL A   1      32.958  29.300  24.379  1.00  0.00     0.202 C 
BRANCH   3   4
ATOM      4  C   UNL A   1      32.418  28.423  23.248  1.00  0.00     0.261 C 
BRANCH   4   5
ATOM      5  O   UNL A   1      33.443  27.747  22.500  1.00  0.00    -0.459 OA
BRANCH   5   6
ATOM      6  C   UNL A   1      33.257  26.416  22.296  1.00  0.00     0.365 C 
ATOM      7  O   UNL A   1      33.519  25.847  21.239  1.00  0.00    -0.245 OA
BRANCH   6   8
ATOM      8  C   UNL A   1      32.635  25.655  23.480  1.00  0.00     0.295 C 
ATOM      9  C   UNL A   1      30.985  23.972  24.118  1.00  0.00     0.333 C 
ATOM     10  N   UNL A   1      32.054  24.320  23.177  1.00  0.00    -0.325 N 
ATOM     11  C   UNL A   1      33.159  23.358  23.260  1.00  0.00     0.270 C 
ATOM     12  H   UNL A   1      31.629  24.316  22.250  1.00  0.00     0.348 HD
ATOM     13  C   UNL A   1      34.226  23.953  24.202  1.00  0.00     0.036 C 
ATOM     14  C   UNL A   1      33.717  25.375  24.513  1.00  0.00     0.091 C 
ATOM     15  C   UNL A   1      35.597  23.998  23.483  1.00  0.00     0.075 C 
ATOM     16  C   UNL A   1      34.358  23.158  25.524  1.00  0.00     0.075 C 
ATOM     17  C   UNL A   1      36.178  22.596  23.323  1.00  0.00     0.271 C 
ATOM     18  C   UNL A   1      35.046  21.803  25.351  1.00  0.00     0.271 C 
ATOM     19  N   UNL A   1      36.305  21.967  24.635  1.00  0.00    -0.266 N 
ATOM     20  H   UNL A   1      36.805  21.275  25.126  1.00  0.00     0.357 HD
BRANCH  19  21
ATOM     21  C   UNL A   1      37.480  21.467  25.187  1.00  0.00     0.362 C 
ATOM     22  O   UNL A   1      37.831  20.300  25.025  1.00  0.00    -0.224 OA
BRANCH  21  23
ATOM     23  C   UNL A   1      38.313  22.373  25.930  1.00  0.00     0.163 A 
ATOM     24  C   UNL A   1      38.251  23.734  26.158  1.00  0.00     0.068 A 
ATOM     25  N   UNL A   1      39.384  21.945  26.659  1.00  0.00    -0.269 N 
ATOM     26  C   UNL A   1      39.407  24.047  26.916  1.00  0.00     0.093 A 
ATOM     27  N   UNL A   1      40.116  22.941  27.188  1.00  0.00    -0.175 NA
ATOM     28  H   UNL A   1      39.600  20.993  26.787  1.00  0.00     0.190 HD
BRANCH  26  29
ATOM     29  C   UNL A   1      39.852  25.361  27.351  1.00  0.00     0.005 A 
ATOM     30  C   UNL A   1      40.551  26.199  26.483  1.00  0.00     0.030 A 
ATOM     31  C   UNL A   1      39.586  25.793  28.650  1.00  0.00     0.030 A 
ATOM     32  C   UNL A   1      40.949  27.438  26.953  1.00  0.00     0.111 A 
ATOM     33  C   UNL A   1      40.037  27.045  29.028  1.00  0.00     0.111 A 
ATOM     34  N   UNL A   1      40.712  27.878  28.207  1.00  0.00    -0.265 NA
ENDBRANCH  26  29
ENDBRANCH  21  23
ENDBRANCH  19  21
ENDBRANCH   6   8
ENDBRANCH   5   6
ENDBRANCH   4   5
ENDBRANCH   3   4
ENDBRANCH   2   3
ENDBRANCH   1   2
BRANCH   1  35
ATOM     35  C   UNL A   1      34.224  28.758  26.915  1.00  0.00     0.188 C 
BRANCH  35  36
ATOM     36  O   UNL A   1      35.025  29.861  27.311  1.00  0.00    -0.376 OA
BRANCH  36  37
ATOM     37  C   UNL A   1      34.317  31.020  27.711  1.00  0.00     0.202 C 
BRANCH  37  38
ATOM     38  C   UNL A   1      34.877  31.644  28.993  1.00  0.00     0.261 C 
BRANCH  38  39
ATOM     39  O   UNL A   1      36.257  31.345  29.267  1.00  0.00    -0.460 OA
BRANCH  39  40
ATOM     40  C   UNL A   1      36.518  30.609  30.369  1.00  0.00     0.338 C 
ATOM     41  O   UNL A   1      36.198  29.441  30.554  1.00  0.00    -0.246 OA
BRANCH  40  42
ATOM     42  C   UNL A   1      37.417  31.388  31.247  1.00  0.00     0.060 A 
ATOM     43  C   UNL A   1      37.127  32.734  31.505  1.00  0.00     0.016 A 
ATOM     44  C   UNL A   1      38.546  30.792  31.818  1.00  0.00     0.016 A 
ATOM     45  C   UNL A   1      37.983  33.497  32.308  1.00  0.00     0.010 A 
ATOM     46  C   UNL A   1      39.409  31.560  32.607  1.00  0.00     0.010 A 
ATOM     47  C   UNL A   1      39.150  32.924  32.834  1.00  0.00    -0.014 A 
BRANCH  47  48
ATOM     48  C   UNL A   1      40.196  33.778  33.458  1.00  0.00     0.031 A 
ATOM     49  C   UNL A   1      40.149  33.985  34.950  1.00  0.00     0.074 A 
ATOM     50  C   UNL A   1      41.155  34.378  32.726  1.00  0.00     0.049 A 
ATOM     51  N   UNL A   1      40.880  34.760  35.707  1.00  0.00    -0.248 NA
ATOM     52  C   UNL A   1      39.132  33.213  35.682  1.00  0.00     0.031 C 
ATOM     53  C   UNL A   1      41.332  34.232  31.282  1.00  0.00     0.029 A 
ATOM     54  N   UNL A   1      42.149  35.251  33.099  1.00  0.00    -0.354 N 
ATOM     55  C   UNL A   1      40.400  34.587  37.001  1.00  0.00     0.074 A 
ATOM     56  C   UNL A   1      39.305  33.643  36.922  1.00  0.00     0.031 C 
ATOM     57  C   UNL A   1      42.354  35.013  30.888  1.00  0.00     0.029 A 
ATOM     58  C   UNL A   1      42.879  35.745  32.041  1.00  0.00     0.049 A 
ATOM     59  H   UNL A   1      42.323  35.500  34.036  1.00  0.00     0.167 HD
ATOM     60  C   UNL A   1      40.831  35.162  38.150  1.00  0.00     0.034 A 
ATOM     61  C   UNL A   1      43.831  36.702  32.003  1.00  0.00     0.034 A 
ATOM     62  C   UNL A   1      41.920  36.103  38.220  1.00  0.00     0.049 A 
ATOM     63  C   UNL A   1      44.250  37.379  33.292  1.00  0.00     0.074 A 
ATOM     64  C   UNL A   1      42.459  36.712  39.340  1.00  0.00     0.029 A 
ATOM     65  N   UNL A   1      42.626  36.588  37.128  1.00  0.00    -0.354 N 
ATOM     66  N   UNL A   1      43.811  37.179  34.513  1.00  0.00    -0.248 NA
ATOM     67  C   UNL A   1      45.298  38.406  33.195  1.00  0.00     0.031 C 
ATOM     68  C   UNL A   1      43.437  37.618  38.920  1.00  0.00     0.029 A 
ATOM     69  C   UNL A   1      43.568  37.516  37.544  1.00  0.00     0.049 A 
ATOM     70  H   UNL A   1      42.479  36.314  36.194  1.00  0.00     0.167 HD
ATOM     71  C   UNL A   1      44.554  38.030  35.330  1.00  0.00     0.074 A 
ATOM     72  C   UNL A   1      45.478  38.732  34.467  1.00  0.00     0.031 C 
ATOM     73  C   UNL A   1      44.485  38.211  36.673  1.00  0.00     0.034 A 
BRANCH  60  74
ATOM     74  C   UNL A   1      40.082  34.837  39.418  1.00  0.00     0.023 A 
ATOM     75  C   UNL A   1      40.325  33.660  40.145  1.00  0.00     0.031 A 
ATOM     76  C   UNL A   1      39.107  35.727  39.904  1.00  0.00     0.131 A 
ATOM     77  C   UNL A   1      39.568  33.381  41.294  1.00  0.00     0.055 A 
ATOM     78  C   UNL A   1      38.406  35.477  41.084  1.00  0.00     0.041 A 
ATOM     79  F   UNL A   1      38.818  36.854  39.235  1.00  0.00    -0.206 F 
ATOM     80  C   UNL A   1      38.628  34.293  41.781  1.00  0.00     0.022 A 
BRANCH  77  81
ATOM     81  S   UNL A   1      39.753  31.760  42.086  1.00  0.00     0.124 S 
ATOM     82  O   UNL A   1      39.658  32.111  43.501  1.00  0.00    -0.237 OA
ATOM     83  O   UNL A   1      38.628  31.011  41.538  1.00  0.00    -0.237 OA
ATOM     84  O   UNL A   1      41.073  31.312  41.649  1.00  0.00    -0.744 OA
ENDBRANCH  77  81
ENDBRANCH  60  74
BRANCH  61  85
ATOM     85  C   UNL A   1      44.421  37.145  30.703  1.00  0.00     0.023 A 
ATOM     86  C   UNL A   1      43.827  38.164  29.939  1.00  0.00     0.031 A 
ATOM     87  C   UNL A   1      45.537  36.483  30.158  1.00  0.00     0.131 A 
ATOM     88  C   UNL A   1      44.312  38.449  28.652  1.00  0.00     0.055 A 
ATOM     89  C   UNL A   1      46.052  36.812  28.903  1.00  0.00     0.041 A 
ATOM     90  F   UNL A   1      46.139  35.495  30.839  1.00  0.00    -0.206 F 
ATOM     91  C   UNL A   1      45.428  37.789  28.134  1.00  0.00     0.022 A 
BRANCH  88  92
ATOM     92  S   UNL A   1      43.385  39.612  27.612  1.00  0.00     0.124 S 
ATOM     93  O   UNL A   1      43.984  39.380  26.302  1.00  0.00    -0.237 OA
ATOM     94  O   UNL A   1      42.014  39.144  27.783  1.00  0.00    -0.237 OA
ATOM     95  O   UNL A   1      43.677  40.913  28.211  1.00  0.00    -0.744 OA
ENDBRANCH  88  92
ENDBRANCH  61  85
BRANCH  73  96
ATOM     96  C   UNL A   1      45.476  39.165  37.299  1.00  0.00     0.023 A 
ATOM     97  C   UNL A   1      45.204  40.537  37.438  1.00  0.00     0.031 A 
ATOM     98  C   UNL A   1      46.714  38.687  37.765  1.00  0.00     0.131 A 
ATOM     99  C   UNL A   1      46.177  41.392  37.981  1.00  0.00     0.055 A 
ATOM    100  C   UNL A   1      47.654  39.531  38.359  1.00  0.00     0.041 A 
ATOM    101  F   UNL A   1      47.028  37.385  37.658  1.00  0.00    -0.206 F 
ATOM    102  C   UNL A   1      47.393  40.894  38.457  1.00  0.00     0.022 A 
BRANCH  99 103
ATOM    103  S   UNL A   1      45.870  43.179  37.978  1.00  0.00     0.124 S 
ATOM    104  O   UNL A   1      45.680  43.454  36.558  1.00  0.00    -0.237 OA
ATOM    105  O   UNL A   1      44.679  43.292  38.814  1.00  0.00    -0.237 OA
ATOM    106  O   UNL A   1      47.089  43.738  38.561  1.00  0.00    -0.744 OA
ENDBRANCH  99 103
ENDBRANCH  73  96
ENDBRANCH  47  48
ENDBRANCH  40  42
ENDBRANCH  39  40
ENDBRANCH  38  39
ENDBRANCH  37  38
ENDBRANCH  36  37
ENDBRANCH  35  36
ENDBRANCH   1  35
TORSDOF 23
ENDMDL
