MODEL 1
REMARK VINA RESULT:     -10.1      0.000      0.000
REMARK SMILES O=C(N[C@H]1C=C[C@@H](C(=O)OCCOCCOCCOC(=O)c2ccc(-c3c4nc(c(-c5cc(S(=O)(=O)[O-])ccc5F)c5ccc([nH]5)c(-c5cc(S(=O)(=O)[O-])ccc5F)c5nc(c(-c6cc(S(=O)(=O)[O-])ccc6F)c6ccc3[nH]6)C=C5)C=C4)cc2)C1)c1ccc(CO)cc1
REMARK SMILES IDX 14 1 13 2 12 3 11 4 10 5 8 6 9 7 7 8 4 9 5 10 85 11 6 12
REMARK SMILES IDX 3 13 1 14 2 15 86 17 87 18 93 19 88 20 92 21 89 22 90 23
REMARK SMILES IDX 91 24 15 26 16 27 17 28 18 29 19 30 20 31 21 32 22 33 23 34
REMARK SMILES IDX 84 35 24 36 83 37 25 38 26 39 27 40 77 41 28 42 82 43 76 44
REMARK SMILES IDX 78 45 29 46 81 47 75 48 74 49 30 51 62 52 42 53 61 54 43 55
REMARK SMILES IDX 46 56 60 57 79 58 44 59 45 60 59 62 80 63 47 64 31 65 32 66
REMARK SMILES IDX 40 67 33 68 39 69 41 70 38 71 34 72 35 73 36 74 37 75 63 76
REMARK SMILES IDX 64 77 72 78 65 79 71 80 73 81 70 82 66 83 67 84 68 85 69 86
REMARK SMILES IDX 48 87 49 88 57 89 50 90 56 91 58 92 55 93 51 94 52 95 53 96
REMARK SMILES IDX 54 97
REMARK H PARENT 3 16 91 25 78 50 46 61
REMARK Flexibility Score: inf
ROOT
ATOM      1  C   UNL A   1      32.797  29.641  25.076  1.00  0.00     0.188 C 
ENDROOT
BRANCH   1   2
ATOM      2  O   UNL A   1      33.958  28.958  24.608  1.00  0.00    -0.376 OA
BRANCH   2   3
ATOM      3  C   UNL A   1      34.038  28.588  23.236  1.00  0.00     0.202 C 
BRANCH   3   4
ATOM      4  C   UNL A   1      33.536  27.190  22.874  1.00  0.00     0.261 C 
BRANCH   4   5
ATOM      5  O   UNL A   1      33.846  26.219  23.888  1.00  0.00    -0.463 OA
BRANCH   5   6
ATOM      6  C   UNL A   1      34.035  24.952  23.440  1.00  0.00     0.312 C 
ATOM      7  O   UNL A   1      33.933  24.624  22.261  1.00  0.00    -0.252 OA
BRANCH   6   8
ATOM      8  C   UNL A   1      34.472  23.979  24.537  1.00  0.00     0.124 C 
ATOM      9  C   UNL A   1      33.498  22.669  26.399  1.00  0.00     0.106 C 
ATOM     10  C   UNL A   1      33.446  21.934  25.103  1.00  0.00    -0.006 C 
ATOM     11  C   UNL A   1      33.833  24.096  25.932  1.00  0.00     0.048 C 
ATOM     12  C   UNL A   1      34.030  22.612  24.113  1.00  0.00    -0.014 C 
BRANCH   9  13
ATOM     13  N   UNL A   1      32.253  22.628  27.147  1.00  0.00    -0.346 N 
ATOM     14  O   UNL A   1      30.047  22.952  27.548  1.00  0.00    -0.269 OA
ATOM     15  C   UNL A   1      31.040  23.213  26.878  1.00  0.00     0.251 C 
ATOM     16  H   UNL A   1      32.284  22.100  27.977  1.00  0.00     0.164 HD
BRANCH  15  17
ATOM     17  C   UNL A   1      30.966  24.258  25.842  1.00  0.00     0.039 A 
ATOM     18  C   UNL A   1      31.052  25.613  26.165  1.00  0.00     0.014 A 
ATOM     19  C   UNL A   1      30.654  23.846  24.543  1.00  0.00     0.014 A 
ATOM     20  C   UNL A   1      30.732  26.564  25.195  1.00  0.00     0.007 A 
ATOM     21  C   UNL A   1      30.333  24.799  23.579  1.00  0.00     0.007 A 
ATOM     22  C   UNL A   1      30.347  26.163  23.903  1.00  0.00    -0.023 A 
BRANCH  22  23
ATOM     23  C   UNL A   1      29.878  27.187  22.903  1.00  0.00     0.191 C 
BRANCH  23  24
ATOM     24  O   UNL A   1      29.972  28.498  23.442  1.00  0.00    -0.392 OA
ATOM     25  H   UNL A   1      30.716  28.965  23.029  1.00  0.00     0.211 HD
ENDBRANCH  23  24
ENDBRANCH  22  23
ENDBRANCH  15  17
ENDBRANCH   9  13
ENDBRANCH   6   8
ENDBRANCH   5   6
ENDBRANCH   4   5
ENDBRANCH   3   4
ENDBRANCH   2   3
ENDBRANCH   1   2
BRANCH   1  26
ATOM     26  C   UNL A   1      32.338  29.430  26.529  1.00  0.00     0.188 C 
BRANCH  26  27
ATOM     27  O   UNL A   1      32.069  30.625  27.242  1.00  0.00    -0.376 OA
BRANCH  27  28
ATOM     28  C   UNL A   1      31.410  31.643  26.504  1.00  0.00     0.202 C 
BRANCH  28  29
ATOM     29  C   UNL A   1      31.873  33.044  26.916  1.00  0.00     0.261 C 
BRANCH  29  30
ATOM     30  O   UNL A   1      33.130  33.067  27.614  1.00  0.00    -0.460 OA
BRANCH  30  31
ATOM     31  C   UNL A   1      33.317  34.083  28.488  1.00  0.00     0.338 C 
ATOM     32  O   UNL A   1      32.577  35.035  28.672  1.00  0.00    -0.246 OA
BRANCH  31  33
ATOM     33  C   UNL A   1      34.462  33.731  29.352  1.00  0.00     0.060 A 
ATOM     34  C   UNL A   1      35.739  34.196  29.009  1.00  0.00     0.016 A 
ATOM     35  C   UNL A   1      34.274  32.959  30.501  1.00  0.00     0.016 A 
ATOM     36  C   UNL A   1      36.837  33.864  29.803  1.00  0.00     0.010 A 
ATOM     37  C   UNL A   1      35.376  32.612  31.283  1.00  0.00     0.010 A 
ATOM     38  C   UNL A   1      36.666  33.041  30.924  1.00  0.00    -0.014 A 
BRANCH  38  39
ATOM     39  C   UNL A   1      37.845  32.457  31.611  1.00  0.00     0.031 A 
ATOM     40  C   UNL A   1      38.559  31.316  30.944  1.00  0.00     0.074 A 
ATOM     41  C   UNL A   1      38.259  32.915  32.806  1.00  0.00     0.049 A 
ATOM     42  N   UNL A   1      39.552  30.586  31.380  1.00  0.00    -0.248 NA
ATOM     43  C   UNL A   1      38.079  30.945  29.603  1.00  0.00     0.031 C 
ATOM     44  C   UNL A   1      37.671  34.036  33.534  1.00  0.00     0.029 A 
ATOM     45  N   UNL A   1      39.270  32.474  33.623  1.00  0.00    -0.354 N 
ATOM     46  C   UNL A   1      39.818  29.668  30.369  1.00  0.00     0.074 A 
ATOM     47  C   UNL A   1      38.856  29.914  29.315  1.00  0.00     0.031 C 
ATOM     48  C   UNL A   1      38.319  34.182  34.703  1.00  0.00     0.029 A 
ATOM     49  C   UNL A   1      39.342  33.143  34.823  1.00  0.00     0.049 A 
ATOM     50  H   UNL A   1      39.885  31.746  33.375  1.00  0.00     0.167 HD
ATOM     51  C   UNL A   1      40.776  28.712  30.322  1.00  0.00     0.034 A 
ATOM     52  C   UNL A   1      40.121  32.919  35.902  1.00  0.00     0.034 A 
ATOM     53  C   UNL A   1      41.710  28.458  31.390  1.00  0.00     0.049 A 
ATOM     54  C   UNL A   1      41.120  31.786  35.866  1.00  0.00     0.074 A 
ATOM     55  C   UNL A   1      42.726  27.519  31.443  1.00  0.00     0.029 A 
ATOM     56  N   UNL A   1      41.729  29.133  32.604  1.00  0.00    -0.354 N 
ATOM     57  N   UNL A   1      41.371  30.932  34.899  1.00  0.00    -0.248 NA
ATOM     58  C   UNL A   1      41.943  31.589  37.068  1.00  0.00     0.031 C 
ATOM     59  C   UNL A   1      43.313  27.581  32.712  1.00  0.00     0.029 A 
ATOM     60  C   UNL A   1      42.716  28.608  33.425  1.00  0.00     0.049 A 
ATOM     61  H   UNL A   1      41.130  29.875  32.846  1.00  0.00     0.167 HD
ATOM     62  C   UNL A   1      42.402  30.119  35.368  1.00  0.00     0.074 A 
ATOM     63  C   UNL A   1      42.730  30.590  36.698  1.00  0.00     0.031 C 
ATOM     64  C   UNL A   1      43.025  29.081  34.753  1.00  0.00     0.034 A 
BRANCH  51  65
ATOM     65  C   UNL A   1      40.814  27.840  29.092  1.00  0.00     0.023 A 
ATOM     66  C   UNL A   1      41.728  28.074  28.050  1.00  0.00     0.031 A 
ATOM     67  C   UNL A   1      39.890  26.792  28.937  1.00  0.00     0.131 A 
ATOM     68  C   UNL A   1      41.651  27.320  26.870  1.00  0.00     0.055 A 
ATOM     69  C   UNL A   1      39.870  25.994  27.792  1.00  0.00     0.041 A 
ATOM     70  F   UNL A   1      38.976  26.540  29.888  1.00  0.00    -0.206 F 
ATOM     71  C   UNL A   1      40.744  26.266  26.743  1.00  0.00     0.022 A 
BRANCH  68  72
ATOM     72  S   UNL A   1      42.654  27.832  25.448  1.00  0.00     0.124 S 
ATOM     73  O   UNL A   1      42.637  26.624  24.625  1.00  0.00    -0.237 OA
ATOM     74  O   UNL A   1      41.905  28.969  24.926  1.00  0.00    -0.237 OA
ATOM     75  O   UNL A   1      43.949  28.155  26.040  1.00  0.00    -0.744 OA
ENDBRANCH  68  72
ENDBRANCH  51  65
BRANCH  52  76
ATOM     76  C   UNL A   1      39.960  33.743  37.135  1.00  0.00     0.023 A 
ATOM     77  C   UNL A   1      40.903  34.724  37.481  1.00  0.00     0.031 A 
ATOM     78  C   UNL A   1      38.895  33.509  38.021  1.00  0.00     0.131 A 
ATOM     79  C   UNL A   1      40.787  35.404  38.704  1.00  0.00     0.055 A 
ATOM     80  C   UNL A   1      38.756  34.223  39.213  1.00  0.00     0.041 A 
ATOM     81  F   UNL A   1      37.968  32.579  37.740  1.00  0.00    -0.206 F 
ATOM     82  C   UNL A   1      39.713  35.169  39.566  1.00  0.00     0.022 A 
BRANCH  79  83
ATOM     83  S   UNL A   1      42.109  36.547  39.193  1.00  0.00     0.124 S 
ATOM     84  O   UNL A   1      42.229  36.267  40.619  1.00  0.00    -0.237 OA
ATOM     85  O   UNL A   1      43.218  36.101  38.357  1.00  0.00    -0.237 OA
ATOM     86  O   UNL A   1      41.565  37.861  38.856  1.00  0.00    -0.744 OA
ENDBRANCH  79  83
ENDBRANCH  52  76
BRANCH  64  87
ATOM     87  C   UNL A   1      44.161  28.420  35.497  1.00  0.00     0.023 A 
ATOM     88  C   UNL A   1      43.966  27.267  36.279  1.00  0.00     0.031 A 
ATOM     89  C   UNL A   1      45.459  28.957  35.422  1.00  0.00     0.131 A 
ATOM     90  C   UNL A   1      45.043  26.716  36.991  1.00  0.00     0.055 A 
ATOM     91  C   UNL A   1      46.537  28.372  36.088  1.00  0.00     0.041 A 
ATOM     92  F   UNL A   1      45.702  30.057  34.690  1.00  0.00    -0.206 F 
ATOM     93  C   UNL A   1      46.330  27.253  36.888  1.00  0.00     0.022 A 
BRANCH  90  94
ATOM     94  S   UNL A   1      44.727  25.334  38.122  1.00  0.00     0.124 S 
ATOM     95  O   UNL A   1      43.488  24.780  37.585  1.00  0.00    -0.237 OA
ATOM     96  O   UNL A   1      45.919  24.511  37.950  1.00  0.00    -0.237 OA
ATOM     97  O   UNL A   1      44.604  25.979  39.427  1.00  0.00    -0.744 OA
ENDBRANCH  90  94
ENDBRANCH  64  87
ENDBRANCH  38  39
ENDBRANCH  31  33
ENDBRANCH  30  31
ENDBRANCH  29  30
ENDBRANCH  28  29
ENDBRANCH  27  28
ENDBRANCH  26  27
ENDBRANCH   1  26
TORSDOF 24
ENDMDL
MODEL 2
REMARK VINA RESULT:     -10.1      1.790      2.090
REMARK SMILES O=C(N[C@H]1C=C[C@@H](C(=O)OCCOCCOCCOC(=O)c2ccc(-c3c4nc(c(-c5cc(S(=O)(=O)[O-])ccc5F)c5ccc([nH]5)c(-c5cc(S(=O)(=O)[O-])ccc5F)c5nc(c(-c6cc(S(=O)(=O)[O-])ccc6F)c6ccc3[nH]6)C=C5)C=C4)cc2)C1)c1ccc(CO)cc1
REMARK SMILES IDX 14 1 13 2 12 3 11 4 10 5 8 6 9 7 7 8 4 9 5 10 85 11 6 12
REMARK SMILES IDX 3 13 1 14 2 15 86 17 87 18 93 19 88 20 92 21 89 22 90 23
REMARK SMILES IDX 91 24 15 26 16 27 17 28 18 29 19 30 20 31 21 32 22 33 23 34
REMARK SMILES IDX 84 35 24 36 83 37 25 38 26 39 27 40 77 41 28 42 82 43 76 44
REMARK SMILES IDX 78 45 29 46 81 47 75 48 74 49 30 51 62 52 42 53 61 54 43 55
REMARK SMILES IDX 46 56 60 57 79 58 44 59 45 60 59 62 80 63 47 64 31 65 32 66
REMARK SMILES IDX 40 67 33 68 39 69 41 70 38 71 34 72 35 73 36 74 37 75 63 76
REMARK SMILES IDX 64 77 72 78 65 79 71 80 73 81 70 82 66 83 67 84 68 85 69 86
REMARK SMILES IDX 48 87 49 88 57 89 50 90 56 91 58 92 55 93 51 94 52 95 53 96
REMARK SMILES IDX 54 97
REMARK H PARENT 3 16 91 25 78 50 46 61
REMARK Flexibility Score: inf
ROOT
ATOM      1  C   UNL A   1      32.866  29.666  25.025  1.00  0.00     0.188 C 
ENDROOT
BRANCH   1   2
ATOM      2  O   UNL A   1      33.942  28.892  24.500  1.00  0.00    -0.376 OA
BRANCH   2   3
ATOM      3  C   UNL A   1      33.963  28.589  23.110  1.00  0.00     0.202 C 
BRANCH   3   4
ATOM      4  C   UNL A   1      33.646  27.145  22.719  1.00  0.00     0.261 C 
BRANCH   4   5
ATOM      5  O   UNL A   1      34.021  26.207  23.742  1.00  0.00    -0.463 OA
BRANCH   5   6
ATOM      6  C   UNL A   1      34.024  24.905  23.362  1.00  0.00     0.312 C 
ATOM      7  O   UNL A   1      33.754  24.526  22.226  1.00  0.00    -0.252 OA
BRANCH   6   8
ATOM      8  C   UNL A   1      34.478  23.950  24.469  1.00  0.00     0.124 C 
ATOM      9  C   UNL A   1      33.531  22.662  26.359  1.00  0.00     0.106 C 
ATOM     10  C   UNL A   1      33.470  21.908  25.075  1.00  0.00    -0.006 C 
ATOM     11  C   UNL A   1      33.853  24.084  25.868  1.00  0.00     0.048 C 
ATOM     12  C   UNL A   1      34.040  22.575  24.069  1.00  0.00    -0.014 C 
BRANCH   9  13
ATOM     13  N   UNL A   1      32.295  22.625  27.121  1.00  0.00    -0.346 N 
ATOM     14  O   UNL A   1      30.099  22.974  27.554  1.00  0.00    -0.269 OA
ATOM     15  C   UNL A   1      31.088  23.235  26.878  1.00  0.00     0.251 C 
ATOM     16  H   UNL A   1      32.326  22.078  27.939  1.00  0.00     0.164 HD
BRANCH  15  17
ATOM     17  C   UNL A   1      31.019  24.302  25.866  1.00  0.00     0.039 A 
ATOM     18  C   UNL A   1      31.164  25.646  26.212  1.00  0.00     0.014 A 
ATOM     19  C   UNL A   1      30.652  23.929  24.570  1.00  0.00     0.014 A 
ATOM     20  C   UNL A   1      30.848  26.628  25.272  1.00  0.00     0.007 A 
ATOM     21  C   UNL A   1      30.335  24.912  23.636  1.00  0.00     0.007 A 
ATOM     22  C   UNL A   1      30.408  26.268  23.986  1.00  0.00    -0.023 A 
BRANCH  22  23
ATOM     23  C   UNL A   1      29.945  27.328  23.022  1.00  0.00     0.191 C 
BRANCH  23  24
ATOM     24  O   UNL A   1      28.581  27.656  23.251  1.00  0.00    -0.392 OA
ATOM     25  H   UNL A   1      28.015  26.952  22.895  1.00  0.00     0.211 HD
ENDBRANCH  23  24
ENDBRANCH  22  23
ENDBRANCH  15  17
ENDBRANCH   9  13
ENDBRANCH   6   8
ENDBRANCH   5   6
ENDBRANCH   4   5
ENDBRANCH   3   4
ENDBRANCH   2   3
ENDBRANCH   1   2
BRANCH   1  26
ATOM     26  C   UNL A   1      32.390  29.409  26.465  1.00  0.00     0.188 C 
BRANCH  26  27
ATOM     27  O   UNL A   1      32.135  30.581  27.221  1.00  0.00    -0.376 OA
BRANCH  27  28
ATOM     28  C   UNL A   1      31.380  31.584  26.558  1.00  0.00     0.202 C 
BRANCH  28  29
ATOM     29  C   UNL A   1      31.890  32.993  26.875  1.00  0.00     0.261 C 
BRANCH  29  30
ATOM     30  O   UNL A   1      33.164  33.021  27.544  1.00  0.00    -0.460 OA
BRANCH  30  31
ATOM     31  C   UNL A   1      33.377  34.052  28.394  1.00  0.00     0.338 C 
ATOM     32  O   UNL A   1      32.677  35.040  28.534  1.00  0.00    -0.246 OA
BRANCH  31  33
ATOM     33  C   UNL A   1      34.485  33.674  29.294  1.00  0.00     0.060 A 
ATOM     34  C   UNL A   1      35.736  34.284  29.122  1.00  0.00     0.016 A 
ATOM     35  C   UNL A   1      34.289  32.734  30.308  1.00  0.00     0.016 A 
ATOM     36  C   UNL A   1      36.802  33.932  29.952  1.00  0.00     0.010 A 
ATOM     37  C   UNL A   1      35.360  32.370  31.123  1.00  0.00     0.010 A 
ATOM     38  C   UNL A   1      36.627  32.947  30.933  1.00  0.00    -0.014 A 
BRANCH  38  39
ATOM     39  C   UNL A   1      37.804  32.369  31.629  1.00  0.00     0.031 A 
ATOM     40  C   UNL A   1      38.525  31.226  30.971  1.00  0.00     0.074 A 
ATOM     41  C   UNL A   1      38.210  32.832  32.824  1.00  0.00     0.049 A 
ATOM     42  N   UNL A   1      39.517  30.501  31.415  1.00  0.00    -0.248 NA
ATOM     43  C   UNL A   1      38.054  30.850  29.628  1.00  0.00     0.031 C 
ATOM     44  C   UNL A   1      37.615  33.954  33.545  1.00  0.00     0.029 A 
ATOM     45  N   UNL A   1      39.217  32.396  33.650  1.00  0.00    -0.354 N 
ATOM     46  C   UNL A   1      39.790  29.580  30.409  1.00  0.00     0.074 A 
ATOM     47  C   UNL A   1      38.835  29.819  29.348  1.00  0.00     0.031 C 
ATOM     48  C   UNL A   1      38.255  34.106  34.718  1.00  0.00     0.029 A 
ATOM     49  C   UNL A   1      39.280  33.070  34.847  1.00  0.00     0.049 A 
ATOM     50  H   UNL A   1      39.835  31.669  33.408  1.00  0.00     0.167 HD
ATOM     51  C   UNL A   1      40.751  28.626  30.371  1.00  0.00     0.034 A 
ATOM     52  C   UNL A   1      40.053  32.852  35.932  1.00  0.00     0.034 A 
ATOM     53  C   UNL A   1      41.679  28.378  31.446  1.00  0.00     0.049 A 
ATOM     54  C   UNL A   1      41.055  31.720  35.906  1.00  0.00     0.074 A 
ATOM     55  C   UNL A   1      42.697  27.441  31.509  1.00  0.00     0.029 A 
ATOM     56  N   UNL A   1      41.689  29.057  32.657  1.00  0.00    -0.354 N 
ATOM     57  N   UNL A   1      41.314  30.864  34.944  1.00  0.00    -0.248 NA
ATOM     58  C   UNL A   1      41.871  31.530  37.114  1.00  0.00     0.031 C 
ATOM     59  C   UNL A   1      43.277  27.509  32.781  1.00  0.00     0.029 A 
ATOM     60  C   UNL A   1      42.673  28.538  33.486  1.00  0.00     0.049 A 
ATOM     61  H   UNL A   1      41.088  29.798  32.893  1.00  0.00     0.167 HD
ATOM     62  C   UNL A   1      42.344  30.055  35.422  1.00  0.00     0.074 A 
ATOM     63  C   UNL A   1      42.663  30.531  36.752  1.00  0.00     0.031 C 
ATOM     64  C   UNL A   1      42.973  29.016  34.815  1.00  0.00     0.034 A 
BRANCH  51  65
ATOM     65  C   UNL A   1      40.798  27.749  29.145  1.00  0.00     0.023 A 
ATOM     66  C   UNL A   1      41.748  27.953  28.129  1.00  0.00     0.031 A 
ATOM     67  C   UNL A   1      39.849  26.728  28.966  1.00  0.00     0.131 A 
ATOM     68  C   UNL A   1      41.682  27.198  26.948  1.00  0.00     0.055 A 
ATOM     69  C   UNL A   1      39.838  25.928  27.823  1.00  0.00     0.041 A 
ATOM     70  F   UNL A   1      38.902  26.505  29.891  1.00  0.00    -0.206 F 
ATOM     71  C   UNL A   1      40.749  26.171  26.798  1.00  0.00     0.022 A 
BRANCH  68  72
ATOM     72  S   UNL A   1      42.739  27.677  25.554  1.00  0.00     0.124 S 
ATOM     73  O   UNL A   1      42.105  28.918  25.115  1.00  0.00    -0.237 OA
ATOM     74  O   UNL A   1      44.048  27.815  26.183  1.00  0.00    -0.237 OA
ATOM     75  O   UNL A   1      42.609  26.557  24.625  1.00  0.00    -0.744 OA
ENDBRANCH  68  72
ENDBRANCH  51  65
BRANCH  52  76
ATOM     76  C   UNL A   1      39.884  33.679  37.161  1.00  0.00     0.023 A 
ATOM     77  C   UNL A   1      39.180  33.192  38.274  1.00  0.00     0.031 A 
ATOM     78  C   UNL A   1      40.366  34.999  37.210  1.00  0.00     0.131 A 
ATOM     79  C   UNL A   1      38.939  34.034  39.371  1.00  0.00     0.055 A 
ATOM     80  C   UNL A   1      40.167  35.816  38.325  1.00  0.00     0.041 A 
ATOM     81  F   UNL A   1      41.042  35.515  36.171  1.00  0.00    -0.206 F 
ATOM     82  C   UNL A   1      39.438  35.338  39.409  1.00  0.00     0.022 A 
BRANCH  79  83
ATOM     83  S   UNL A   1      37.889  33.425  40.720  1.00  0.00     0.124 S 
ATOM     84  O   UNL A   1      37.291  34.663  41.211  1.00  0.00    -0.237 OA
ATOM     85  O   UNL A   1      36.992  32.515  40.018  1.00  0.00    -0.237 OA
ATOM     86  O   UNL A   1      38.838  32.786  41.629  1.00  0.00    -0.744 OA
ENDBRANCH  79  83
ENDBRANCH  52  76
BRANCH  64  87
ATOM     87  C   UNL A   1      44.106  28.361  35.567  1.00  0.00     0.023 A 
ATOM     88  C   UNL A   1      45.435  28.802  35.442  1.00  0.00     0.031 A 
ATOM     89  C   UNL A   1      43.848  27.274  36.423  1.00  0.00     0.131 A 
ATOM     90  C   UNL A   1      46.462  28.130  36.124  1.00  0.00     0.055 A 
ATOM     91  C   UNL A   1      44.866  26.645  37.141  1.00  0.00     0.041 A 
ATOM     92  F   UNL A   1      42.597  26.811  36.579  1.00  0.00    -0.206 F 
ATOM     93  C   UNL A   1      46.183  27.064  36.984  1.00  0.00     0.022 A 
BRANCH  90  94
ATOM     94  S   UNL A   1      48.182  28.614  35.811  1.00  0.00     0.124 S 
ATOM     95  O   UNL A   1      48.880  27.996  36.934  1.00  0.00    -0.237 OA
ATOM     96  O   UNL A   1      48.438  28.027  34.500  1.00  0.00    -0.237 OA
ATOM     97  O   UNL A   1      48.138  30.075  35.836  1.00  0.00    -0.744 OA
ENDBRANCH  90  94
ENDBRANCH  64  87
ENDBRANCH  38  39
ENDBRANCH  31  33
ENDBRANCH  30  31
ENDBRANCH  29  30
ENDBRANCH  28  29
ENDBRANCH  27  28
ENDBRANCH  26  27
ENDBRANCH   1  26
TORSDOF 24
ENDMDL
MODEL 3
REMARK VINA RESULT:     -10.0      2.462      7.855
REMARK SMILES O=C(N[C@H]1C=C[C@@H](C(=O)OCCOCCOCCOC(=O)c2ccc(-c3c4nc(c(-c5cc(S(=O)(=O)[O-])ccc5F)c5ccc([nH]5)c(-c5cc(S(=O)(=O)[O-])ccc5F)c5nc(c(-c6cc(S(=O)(=O)[O-])ccc6F)c6ccc3[nH]6)C=C5)C=C4)cc2)C1)c1ccc(CO)cc1
REMARK SMILES IDX 14 1 13 2 12 3 11 4 10 5 8 6 9 7 7 8 4 9 5 10 85 11 6 12
REMARK SMILES IDX 3 13 1 14 2 15 86 17 87 18 93 19 88 20 92 21 89 22 90 23
REMARK SMILES IDX 91 24 15 26 16 27 17 28 18 29 19 30 20 31 21 32 22 33 23 34
REMARK SMILES IDX 84 35 24 36 83 37 25 38 26 39 27 40 77 41 28 42 82 43 76 44
REMARK SMILES IDX 78 45 29 46 81 47 75 48 74 49 30 51 62 52 42 53 61 54 43 55
REMARK SMILES IDX 46 56 60 57 79 58 44 59 45 60 59 62 80 63 47 64 31 65 32 66
REMARK SMILES IDX 40 67 33 68 39 69 41 70 38 71 34 72 35 73 36 74 37 75 63 76
REMARK SMILES IDX 64 77 72 78 65 79 71 80 73 81 70 82 66 83 67 84 68 85 69 86
REMARK SMILES IDX 48 87 49 88 57 89 50 90 56 91 58 92 55 93 51 94 52 95 53 96
REMARK SMILES IDX 54 97
REMARK H PARENT 3 16 91 25 78 50 46 61
REMARK Flexibility Score: inf
ROOT
ATOM      1  C   UNL A   1      32.492  29.703  24.792  1.00  0.00     0.188 C 
ENDROOT
BRANCH   1   2
ATOM      2  O   UNL A   1      33.409  28.729  24.299  1.00  0.00    -0.376 OA
BRANCH   2   3
ATOM      3  C   UNL A   1      33.491  28.503  22.896  1.00  0.00     0.202 C 
BRANCH   3   4
ATOM      4  C   UNL A   1      33.120  27.103  22.405  1.00  0.00     0.261 C 
BRANCH   4   5
ATOM      5  O   UNL A   1      34.090  26.114  22.790  1.00  0.00    -0.463 OA
BRANCH   5   6
ATOM      6  C   UNL A   1      33.641  24.834  22.796  1.00  0.00     0.312 C 
ATOM      7  O   UNL A   1      32.575  24.483  22.298  1.00  0.00    -0.252 OA
BRANCH   6   8
ATOM      8  C   UNL A   1      34.633  23.846  23.415  1.00  0.00     0.124 C 
ATOM      9  C   UNL A   1      34.914  22.483  25.462  1.00  0.00     0.106 C 
ATOM     10  C   UNL A   1      34.126  21.773  24.415  1.00  0.00    -0.006 C 
ATOM     11  C   UNL A   1      34.916  23.924  24.926  1.00  0.00     0.048 C 
ATOM     12  C   UNL A   1      34.031  22.481  23.288  1.00  0.00    -0.014 C 
BRANCH   9  13
ATOM     13  N   UNL A   1      34.329  22.405  26.790  1.00  0.00    -0.346 N 
ATOM     14  O   UNL A   1      32.716  22.564  28.373  1.00  0.00    -0.269 OA
ATOM     15  C   UNL A   1      33.110  22.845  27.246  1.00  0.00     0.251 C 
ATOM     16  H   UNL A   1      34.894  21.971  27.469  1.00  0.00     0.164 HD
BRANCH  15  17
ATOM     17  C   UNL A   1      32.324  23.765  26.407  1.00  0.00     0.039 A 
ATOM     18  C   UNL A   1      32.534  25.144  26.442  1.00  0.00     0.014 A 
ATOM     19  C   UNL A   1      31.258  23.218  25.687  1.00  0.00     0.014 A 
ATOM     20  C   UNL A   1      31.610  25.988  25.824  1.00  0.00     0.007 A 
ATOM     21  C   UNL A   1      30.337  24.064  25.073  1.00  0.00     0.007 A 
ATOM     22  C   UNL A   1      30.493  25.456  25.157  1.00  0.00    -0.023 A 
BRANCH  22  23
ATOM     23  C   UNL A   1      29.434  26.373  24.606  1.00  0.00     0.191 C 
BRANCH  23  24
ATOM     24  O   UNL A   1      29.862  26.961  23.385  1.00  0.00    -0.392 OA
ATOM     25  H   UNL A   1      29.829  26.297  22.677  1.00  0.00     0.211 HD
ENDBRANCH  23  24
ENDBRANCH  22  23
ENDBRANCH  15  17
ENDBRANCH   9  13
ENDBRANCH   6   8
ENDBRANCH   5   6
ENDBRANCH   4   5
ENDBRANCH   3   4
ENDBRANCH   2   3
ENDBRANCH   1   2
BRANCH   1  26
ATOM     26  C   UNL A   1      31.956  29.569  26.227  1.00  0.00     0.188 C 
BRANCH  26  27
ATOM     27  O   UNL A   1      32.184  30.700  27.050  1.00  0.00    -0.376 OA
BRANCH  27  28
ATOM     28  C   UNL A   1      31.460  31.869  26.697  1.00  0.00     0.202 C 
BRANCH  28  29
ATOM     29  C   UNL A   1      32.125  33.141  27.233  1.00  0.00     0.261 C 
BRANCH  29  30
ATOM     30  O   UNL A   1      33.561  33.141  27.135  1.00  0.00    -0.460 OA
BRANCH  30  31
ATOM     31  C   UNL A   1      34.233  33.786  28.116  1.00  0.00     0.338 C 
ATOM     32  O   UNL A   1      33.873  34.787  28.713  1.00  0.00    -0.246 OA
BRANCH  31  33
ATOM     33  C   UNL A   1      35.381  32.943  28.508  1.00  0.00     0.060 A 
ATOM     34  C   UNL A   1      35.176  31.571  28.712  1.00  0.00     0.016 A 
ATOM     35  C   UNL A   1      36.652  33.500  28.660  1.00  0.00     0.016 A 
ATOM     36  C   UNL A   1      36.243  30.758  29.096  1.00  0.00     0.010 A 
ATOM     37  C   UNL A   1      37.713  32.689  29.063  1.00  0.00     0.010 A 
ATOM     38  C   UNL A   1      37.509  31.320  29.308  1.00  0.00    -0.014 A 
BRANCH  38  39
ATOM     39  C   UNL A   1      38.574  30.532  29.976  1.00  0.00     0.031 A 
ATOM     40  C   UNL A   1      38.957  30.907  31.381  1.00  0.00     0.074 A 
ATOM     41  C   UNL A   1      39.202  29.523  29.347  1.00  0.00     0.049 A 
ATOM     42  N   UNL A   1      39.909  30.432  32.140  1.00  0.00    -0.248 NA
ATOM     43  C   UNL A   1      38.155  31.969  32.009  1.00  0.00     0.031 C 
ATOM     44  C   UNL A   1      38.896  29.044  28.001  1.00  0.00     0.029 A 
ATOM     45  N   UNL A   1      40.242  28.728  29.761  1.00  0.00    -0.354 N 
ATOM     46  C   UNL A   1      39.824  31.137  33.336  1.00  0.00     0.074 A 
ATOM     47  C   UNL A   1      38.749  32.095  33.185  1.00  0.00     0.031 C 
ATOM     48  C   UNL A   1      39.748  28.050  27.690  1.00  0.00     0.029 A 
ATOM     49  C   UNL A   1      40.681  27.848  28.799  1.00  0.00     0.049 A 
ATOM     50  H   UNL A   1      40.638  28.784  30.660  1.00  0.00     0.167 HD
ATOM     51  C   UNL A   1      40.570  30.997  34.458  1.00  0.00     0.034 A 
ATOM     52  C   UNL A   1      41.732  27.003  28.804  1.00  0.00     0.034 A 
ATOM     53  C   UNL A   1      41.658  30.059  34.586  1.00  0.00     0.049 A 
ATOM     54  C   UNL A   1      42.611  26.929  30.032  1.00  0.00     0.074 A 
ATOM     55  C   UNL A   1      42.474  29.830  35.680  1.00  0.00     0.029 A 
ATOM     56  N   UNL A   1      42.095  29.209  33.579  1.00  0.00    -0.354 N 
ATOM     57  N   UNL A   1      42.514  27.591  31.162  1.00  0.00    -0.248 NA
ATOM     58  C   UNL A   1      43.742  25.990  29.982  1.00  0.00     0.031 C 
ATOM     59  C   UNL A   1      43.445  28.891  35.313  1.00  0.00     0.029 A 
ATOM     60  C   UNL A   1      43.190  28.478  34.015  1.00  0.00     0.049 A 
ATOM     61  H   UNL A   1      41.687  29.135  32.687  1.00  0.00     0.167 HD
ATOM     62  C   UNL A   1      43.552  27.124  31.967  1.00  0.00     0.074 A 
ATOM     63  C   UNL A   1      44.256  26.120  31.196  1.00  0.00     0.031 C 
ATOM     64  C   UNL A   1      43.889  27.487  33.231  1.00  0.00     0.034 A 
BRANCH  51  65
ATOM     65  C   UNL A   1      40.262  31.924  35.606  1.00  0.00     0.023 A 
ATOM     66  C   UNL A   1      39.172  31.696  36.465  1.00  0.00     0.031 A 
ATOM     67  C   UNL A   1      41.036  33.078  35.815  1.00  0.00     0.131 A 
ATOM     68  C   UNL A   1      38.843  32.646  37.444  1.00  0.00     0.055 A 
ATOM     69  C   UNL A   1      40.751  33.979  36.841  1.00  0.00     0.041 A 
ATOM     70  F   UNL A   1      42.073  33.360  35.009  1.00  0.00    -0.206 F 
ATOM     71  C   UNL A   1      39.640  33.774  37.654  1.00  0.00     0.022 A 
BRANCH  68  72
ATOM     72  S   UNL A   1      37.278  32.459  38.341  1.00  0.00     0.124 S 
ATOM     73  O   UNL A   1      36.339  33.115  37.434  1.00  0.00    -0.237 OA
ATOM     74  O   UNL A   1      37.151  31.011  38.455  1.00  0.00    -0.237 OA
ATOM     75  O   UNL A   1      37.516  33.166  39.597  1.00  0.00    -0.744 OA
ENDBRANCH  68  72
ENDBRANCH  51  65
BRANCH  52  76
ATOM     76  C   UNL A   1      42.058  26.192  27.596  1.00  0.00     0.023 A 
ATOM     77  C   UNL A   1      41.710  24.834  27.516  1.00  0.00     0.031 A 
ATOM     78  C   UNL A   1      42.785  26.751  26.530  1.00  0.00     0.131 A 
ATOM     79  C   UNL A   1      42.129  24.068  26.416  1.00  0.00     0.055 A 
ATOM     80  C   UNL A   1      43.156  25.997  25.415  1.00  0.00     0.041 A 
ATOM     81  F   UNL A   1      43.146  28.043  26.558  1.00  0.00    -0.206 F 
ATOM     82  C   UNL A   1      42.839  24.644  25.360  1.00  0.00     0.022 A 
BRANCH  79  83
ATOM     83  S   UNL A   1      41.803  22.283  26.424  1.00  0.00     0.124 S 
ATOM     84  O   UNL A   1      42.698  21.815  25.371  1.00  0.00    -0.237 OA
ATOM     85  O   UNL A   1      42.170  21.915  27.787  1.00  0.00    -0.237 OA
ATOM     86  O   UNL A   1      40.377  22.196  26.118  1.00  0.00    -0.744 OA
ENDBRANCH  79  83
ENDBRANCH  52  76
BRANCH  64  87
ATOM     87  C   UNL A   1      45.041  26.754  33.876  1.00  0.00     0.023 A 
ATOM     88  C   UNL A   1      44.849  25.578  34.623  1.00  0.00     0.031 A 
ATOM     89  C   UNL A   1      46.352  27.245  33.740  1.00  0.00     0.131 A 
ATOM     90  C   UNL A   1      45.945  24.958  35.244  1.00  0.00     0.055 A 
ATOM     91  C   UNL A   1      47.445  26.593  34.314  1.00  0.00     0.041 A 
ATOM     92  F   UNL A   1      46.593  28.364  33.038  1.00  0.00    -0.206 F 
ATOM     93  C   UNL A   1      47.243  25.450  35.082  1.00  0.00     0.022 A 
BRANCH  90  94
ATOM     94  S   UNL A   1      45.644  23.543  36.338  1.00  0.00     0.124 S 
ATOM     95  O   UNL A   1      44.738  22.727  35.536  1.00  0.00    -0.237 OA
ATOM     96  O   UNL A   1      46.987  23.005  36.528  1.00  0.00    -0.237 OA
ATOM     97  O   UNL A   1      45.046  24.148  37.526  1.00  0.00    -0.744 OA
ENDBRANCH  90  94
ENDBRANCH  64  87
ENDBRANCH  38  39
ENDBRANCH  31  33
ENDBRANCH  30  31
ENDBRANCH  29  30
ENDBRANCH  28  29
ENDBRANCH  27  28
ENDBRANCH  26  27
ENDBRANCH   1  26
TORSDOF 24
ENDMDL
