MODEL 1
REMARK VINA RESULT:     -11.3      0.000      0.000
REMARK SMILES Cc1ccnc(C(=O)c2[nH]c3ccc(F)cc3c2CC(=O)OCCOCCOCCOC(=O)c2ccc(-c3c4nc(c(-c5cc(S(=O)(=O)[O-])ccc5F)c5ccc([nH]5)c(-c5cc(S(=O)(=O)[O-])ccc5F)c5nc(c(-c6cc(S(=O)(=O)[O-])ccc6F)c6ccc3[nH]6)C=C5)C=C4)cc2)c1
REMARK SMILES IDX 26 1 25 2 24 3 23 4 22 5 20 6 21 7 19 8 18 9 9 10 10 11
REMARK SMILES IDX 11 12 17 14 12 15 16 16 13 17 14 18 15 19 7 20 8 21 6 22
REMARK SMILES IDX 1 23 2 24 3 25 97 26 4 27 5 28 27 29 28 30 29 31 30 32 31 33
REMARK SMILES IDX 32 34 33 35 34 36 35 37 96 38 36 39 95 40 37 41 38 42 39 43
REMARK SMILES IDX 89 44 40 45 94 46 88 47 90 48 41 49 93 50 87 51 86 52 42 54
REMARK SMILES IDX 74 55 54 56 73 57 55 58 58 59 72 60 91 61 56 62 57 63 71 65
REMARK SMILES IDX 92 66 59 67 43 68 44 69 52 70 45 71 51 72 53 73 50 74 46 75
REMARK SMILES IDX 47 76 48 77 49 78 75 79 76 80 84 81 77 82 83 83 85 84 82 85
REMARK SMILES IDX 78 86 79 87 80 88 81 89 60 90 61 91 69 92 62 93 68 94 70 95
REMARK SMILES IDX 67 96 63 97 64 98 65 99 66 100
REMARK H PARENT 10 13 90 53 58 64
REMARK Flexibility Score: inf
ROOT
ATOM      1  C   UNL A   1      30.389  24.862  25.610  1.00  0.00     0.188 C 
ENDROOT
BRANCH   1   2
ATOM      2  O   UNL A   1      31.153  24.500  26.768  1.00  0.00    -0.376 OA
BRANCH   2   3
ATOM      3  C   UNL A   1      31.679  23.147  26.705  1.00  0.00     0.202 C 
BRANCH   3   4
ATOM      4  C   UNL A   1      33.016  22.950  27.441  1.00  0.00     0.261 C 
BRANCH   4   5
ATOM      5  O   UNL A   1      33.852  22.035  26.702  1.00  0.00    -0.463 OA
BRANCH   5   6
ATOM      6  C   UNL A   1      34.894  22.610  26.045  1.00  0.00     0.310 C 
ATOM      7  O   UNL A   1      35.709  23.352  26.581  1.00  0.00    -0.252 OA
BRANCH   6   8
ATOM      8  C   UNL A   1      34.937  22.265  24.580  1.00  0.00     0.161 C 
BRANCH   8   9
ATOM      9  C   UNL A   1      33.842  22.819  23.712  1.00  0.00     0.000 A 
ATOM     10  C   UNL A   1      32.905  22.129  22.946  1.00  0.00     0.093 A 
ATOM     11  N   UNL A   1      32.441  23.065  22.028  1.00  0.00    -0.352 N 
ATOM     12  C   UNL A   1      32.744  24.340  22.380  1.00  0.00     0.046 A 
ATOM     13  H   UNL A   1      31.947  22.829  21.209  1.00  0.00     0.167 HD
ATOM     14  C   UNL A   1      33.620  24.238  23.454  1.00  0.00     0.007 A 
ATOM     15  C   UNL A   1      32.323  25.541  21.796  1.00  0.00     0.030 A 
ATOM     16  C   UNL A   1      34.097  25.449  24.001  1.00  0.00     0.049 A 
ATOM     17  C   UNL A   1      32.791  26.717  22.369  1.00  0.00     0.041 A 
ATOM     18  C   UNL A   1      33.655  26.664  23.455  1.00  0.00     0.123 A 
ATOM     19  F   UNL A   1      34.074  27.815  23.999  1.00  0.00    -0.207 F 
BRANCH  10  20
ATOM     20  C   UNL A   1      32.334  20.807  22.736  1.00  0.00     0.227 C 
ATOM     21  O   UNL A   1      31.537  20.778  21.801  1.00  0.00    -0.285 OA
BRANCH  20  22
ATOM     22  C   UNL A   1      32.281  19.589  23.612  1.00  0.00     0.113 A 
ATOM     23  C   UNL A   1      34.197  16.300  23.363  1.00  0.00     0.044 C 
ATOM     24  C   UNL A   1      33.436  17.448  23.965  1.00  0.00    -0.047 A 
ATOM     25  C   UNL A   1      33.320  17.649  25.325  1.00  0.00     0.023 A 
ATOM     26  C   UNL A   1      32.924  18.451  23.139  1.00  0.00     0.036 A 
ATOM     27  C   UNL A   1      32.675  18.807  25.757  1.00  0.00     0.112 A 
ATOM     28  N   UNL A   1      32.151  19.775  24.945  1.00  0.00    -0.253 NA
ENDBRANCH  20  22
ENDBRANCH  10  20
ENDBRANCH   8   9
ENDBRANCH   6   8
ENDBRANCH   5   6
ENDBRANCH   4   5
ENDBRANCH   3   4
ENDBRANCH   2   3
ENDBRANCH   1   2
BRANCH   1  29
ATOM     29  C   UNL A   1      30.270  26.382  25.304  1.00  0.00     0.188 C 
BRANCH  29  30
ATOM     30  O   UNL A   1      31.147  27.219  26.090  1.00  0.00    -0.376 OA
BRANCH  30  31
ATOM     31  C   UNL A   1      31.401  28.527  25.533  1.00  0.00     0.202 C 
BRANCH  31  32
ATOM     32  C   UNL A   1      31.842  29.584  26.593  1.00  0.00     0.261 C 
BRANCH  32  33
ATOM     33  O   UNL A   1      32.979  30.417  26.203  1.00  0.00    -0.460 OA
BRANCH  33  34
ATOM     34  C   UNL A   1      33.411  31.390  27.063  1.00  0.00     0.338 C 
ATOM     35  O   UNL A   1      32.803  32.432  27.313  1.00  0.00    -0.246 OA
BRANCH  34  36
ATOM     36  C   UNL A   1      34.719  31.057  27.721  1.00  0.00     0.060 A 
ATOM     37  C   UNL A   1      34.959  29.749  28.172  1.00  0.00     0.016 A 
ATOM     38  C   UNL A   1      35.701  32.021  27.963  1.00  0.00     0.016 A 
ATOM     39  C   UNL A   1      36.209  29.359  28.673  1.00  0.00     0.010 A 
ATOM     40  C   UNL A   1      36.923  31.655  28.581  1.00  0.00     0.010 A 
ATOM     41  C   UNL A   1      37.201  30.313  28.916  1.00  0.00    -0.014 A 
BRANCH  41  42
ATOM     42  C   UNL A   1      38.353  29.923  29.793  1.00  0.00     0.031 A 
ATOM     43  C   UNL A   1      39.348  28.944  29.217  1.00  0.00     0.074 A 
ATOM     44  C   UNL A   1      38.611  30.478  30.996  1.00  0.00     0.049 A 
ATOM     45  N   UNL A   1      40.428  28.429  29.746  1.00  0.00    -0.248 NA
ATOM     46  C   UNL A   1      39.085  28.506  27.837  1.00  0.00     0.031 C 
ATOM     47  C   UNL A   1      37.831  31.539  31.629  1.00  0.00     0.029 A 
ATOM     48  N   UNL A   1      39.628  30.237  31.898  1.00  0.00    -0.354 N 
ATOM     49  C   UNL A   1      40.975  27.611  28.762  1.00  0.00     0.074 A 
ATOM     50  C   UNL A   1      40.097  27.685  27.616  1.00  0.00     0.031 C 
ATOM     51  C   UNL A   1      38.391  31.852  32.814  1.00  0.00     0.029 A 
ATOM     52  C   UNL A   1      39.554  30.992  33.051  1.00  0.00     0.049 A 
ATOM     53  H   UNL A   1      40.345  29.584  31.733  1.00  0.00     0.167 HD
ATOM     54  C   UNL A   1      42.102  26.857  28.803  1.00  0.00     0.034 A 
ATOM     55  C   UNL A   1      40.317  30.979  34.170  1.00  0.00     0.034 A 
ATOM     56  C   UNL A   1      42.956  26.744  29.958  1.00  0.00     0.049 A 
ATOM     57  C   UNL A   1      41.485  30.010  34.257  1.00  0.00     0.074 A 
ATOM     58  C   UNL A   1      44.074  25.947  30.129  1.00  0.00     0.029 A 
ATOM     59  N   UNL A   1      42.776  27.439  31.147  1.00  0.00    -0.354 N 
ATOM     60  N   UNL A   1      41.951  29.188  33.344  1.00  0.00    -0.248 NA
ATOM     61  C   UNL A   1      42.223  29.963  35.529  1.00  0.00     0.031 C 
ATOM     62  C   UNL A   1      44.529  26.108  31.443  1.00  0.00     0.029 A 
ATOM     63  C   UNL A   1      43.744  27.066  32.066  1.00  0.00     0.049 A 
ATOM     64  H   UNL A   1      42.066  28.101  31.312  1.00  0.00     0.167 HD
ATOM     65  C   UNL A   1      43.049  28.552  33.924  1.00  0.00     0.074 A 
ATOM     66  C   UNL A   1      43.187  29.093  35.258  1.00  0.00     0.031 C 
ATOM     67  C   UNL A   1      43.872  27.607  33.399  1.00  0.00     0.034 A 
BRANCH  54  68
ATOM     68  C   UNL A   1      42.395  26.022  27.581  1.00  0.00     0.023 A 
ATOM     69  C   UNL A   1      41.884  24.720  27.432  1.00  0.00     0.031 A 
ATOM     70  C   UNL A   1      43.282  26.499  26.600  1.00  0.00     0.131 A 
ATOM     71  C   UNL A   1      42.338  23.910  26.381  1.00  0.00     0.055 A 
ATOM     72  C   UNL A   1      43.662  25.719  25.509  1.00  0.00     0.041 A 
ATOM     73  F   UNL A   1      43.824  27.723  26.707  1.00  0.00    -0.206 F 
ATOM     74  C   UNL A   1      43.206  24.407  25.405  1.00  0.00     0.022 A 
BRANCH  71  75
ATOM     75  S   UNL A   1      41.925  22.142  26.406  1.00  0.00     0.124 S 
ATOM     76  O   UNL A   1      40.497  22.169  26.097  1.00  0.00    -0.237 OA
ATOM     77  O   UNL A   1      42.795  21.599  25.370  1.00  0.00    -0.237 OA
ATOM     78  O   UNL A   1      42.250  21.734  27.771  1.00  0.00    -0.744 OA
ENDBRANCH  71  75
ENDBRANCH  54  68
BRANCH  55  79
ATOM     79  C   UNL A   1      39.982  31.837  35.355  1.00  0.00     0.023 A 
ATOM     80  C   UNL A   1      39.078  31.417  36.349  1.00  0.00     0.031 A 
ATOM     81  C   UNL A   1      40.485  33.149  35.448  1.00  0.00     0.131 A 
ATOM     82  C   UNL A   1      38.674  32.309  37.361  1.00  0.00     0.055 A 
ATOM     83  C   UNL A   1      40.124  34.013  36.486  1.00  0.00     0.041 A 
ATOM     84  F   UNL A   1      41.330  33.621  34.518  1.00  0.00    -0.206 F 
ATOM     85  C   UNL A   1      39.204  33.599  37.443  1.00  0.00     0.022 A 
BRANCH  82  86
ATOM     86  S   UNL A   1      37.370  31.802  38.519  1.00  0.00     0.124 S 
ATOM     87  O   UNL A   1      37.150  30.413  38.130  1.00  0.00    -0.237 OA
ATOM     88  O   UNL A   1      38.011  32.014  39.812  1.00  0.00    -0.237 OA
ATOM     89  O   UNL A   1      36.270  32.715  38.217  1.00  0.00    -0.744 OA
ENDBRANCH  82  86
ENDBRANCH  55  79
BRANCH  67  90
ATOM     90  C   UNL A   1      45.026  27.128  34.251  1.00  0.00     0.023 A 
ATOM     91  C   UNL A   1      44.958  25.941  35.000  1.00  0.00     0.031 A 
ATOM     92  C   UNL A   1      46.223  27.866  34.292  1.00  0.00     0.131 A 
ATOM     93  C   UNL A   1      46.051  25.548  35.790  1.00  0.00     0.055 A 
ATOM     94  C   UNL A   1      47.325  27.443  35.037  1.00  0.00     0.041 A 
ATOM     95  F   UNL A   1      46.346  29.008  33.596  1.00  0.00    -0.206 F 
ATOM     96  C   UNL A   1      47.239  26.283  35.800  1.00  0.00     0.022 A 
BRANCH  93  97
ATOM     97  S   UNL A   1      45.877  24.097  36.867  1.00  0.00     0.124 S 
ATOM     98  O   UNL A   1      44.912  23.286  36.133  1.00  0.00    -0.237 OA
ATOM     99  O   UNL A   1      47.241  23.579  36.915  1.00  0.00    -0.237 OA
ATOM    100  O   UNL A   1      45.386  24.659  38.125  1.00  0.00    -0.744 OA
ENDBRANCH  93  97
ENDBRANCH  67  90
ENDBRANCH  41  42
ENDBRANCH  34  36
ENDBRANCH  33  34
ENDBRANCH  32  33
ENDBRANCH  31  32
ENDBRANCH  30  31
ENDBRANCH  29  30
ENDBRANCH   1  29
TORSDOF 23
ENDMDL
MODEL 2
REMARK VINA RESULT:     -11.1      1.960      3.551
REMARK SMILES Cc1ccnc(C(=O)c2[nH]c3ccc(F)cc3c2CC(=O)OCCOCCOCCOC(=O)c2ccc(-c3c4nc(c(-c5cc(S(=O)(=O)[O-])ccc5F)c5ccc([nH]5)c(-c5cc(S(=O)(=O)[O-])ccc5F)c5nc(c(-c6cc(S(=O)(=O)[O-])ccc6F)c6ccc3[nH]6)C=C5)C=C4)cc2)c1
REMARK SMILES IDX 26 1 25 2 24 3 23 4 22 5 20 6 21 7 19 8 18 9 9 10 10 11
REMARK SMILES IDX 11 12 17 14 12 15 16 16 13 17 14 18 15 19 7 20 8 21 6 22
REMARK SMILES IDX 1 23 2 24 3 25 97 26 4 27 5 28 27 29 28 30 29 31 30 32 31 33
REMARK SMILES IDX 32 34 33 35 34 36 35 37 96 38 36 39 95 40 37 41 38 42 39 43
REMARK SMILES IDX 89 44 40 45 94 46 88 47 90 48 41 49 93 50 87 51 86 52 42 54
REMARK SMILES IDX 74 55 54 56 73 57 55 58 58 59 72 60 91 61 56 62 57 63 71 65
REMARK SMILES IDX 92 66 59 67 43 68 44 69 52 70 45 71 51 72 53 73 50 74 46 75
REMARK SMILES IDX 47 76 48 77 49 78 75 79 76 80 84 81 77 82 83 83 85 84 82 85
REMARK SMILES IDX 78 86 79 87 80 88 81 89 60 90 61 91 69 92 62 93 68 94 70 95
REMARK SMILES IDX 67 96 63 97 64 98 65 99 66 100
REMARK H PARENT 10 13 90 53 58 64
REMARK Flexibility Score: inf
ROOT
ATOM      1  C   UNL A   1      30.515  24.228  26.226  1.00  0.00     0.188 C 
ENDROOT
BRANCH   1   2
ATOM      2  O   UNL A   1      31.636  23.979  27.084  1.00  0.00    -0.376 OA
BRANCH   2   3
ATOM      3  C   UNL A   1      32.170  22.634  26.952  1.00  0.00     0.202 C 
BRANCH   3   4
ATOM      4  C   UNL A   1      33.355  22.326  27.883  1.00  0.00     0.261 C 
BRANCH   4   5
ATOM      5  O   UNL A   1      34.252  21.393  27.244  1.00  0.00    -0.463 OA
BRANCH   5   6
ATOM      6  C   UNL A   1      35.193  21.959  26.442  1.00  0.00     0.310 C 
ATOM      7  O   UNL A   1      35.663  23.075  26.629  1.00  0.00    -0.252 OA
BRANCH   6   8
ATOM      8  C   UNL A   1      35.587  21.085  25.280  1.00  0.00     0.161 C 
BRANCH   8   9
ATOM      9  C   UNL A   1      34.495  20.295  24.614  1.00  0.00     0.000 A 
ATOM     10  C   UNL A   1      33.365  20.764  23.948  1.00  0.00     0.093 A 
ATOM     11  N   UNL A   1      32.494  19.679  23.922  1.00  0.00    -0.352 N 
ATOM     12  C   UNL A   1      33.113  18.503  24.195  1.00  0.00     0.046 A 
ATOM     13  H   UNL A   1      31.532  19.756  23.727  1.00  0.00     0.167 HD
ATOM     14  C   UNL A   1      34.391  18.840  24.626  1.00  0.00     0.007 A 
ATOM     15  C   UNL A   1      32.608  17.201  24.117  1.00  0.00     0.030 A 
ATOM     16  C   UNL A   1      35.240  17.772  24.988  1.00  0.00     0.049 A 
ATOM     17  C   UNL A   1      33.473  16.168  24.458  1.00  0.00     0.041 A 
ATOM     18  C   UNL A   1      34.765  16.456  24.877  1.00  0.00     0.123 A 
ATOM     19  F   UNL A   1      35.584  15.439  25.181  1.00  0.00    -0.207 F 
BRANCH  10  20
ATOM     20  C   UNL A   1      32.781  21.965  23.370  1.00  0.00     0.227 C 
ATOM     21  O   UNL A   1      31.747  21.737  22.745  1.00  0.00    -0.285 OA
BRANCH  20  22
ATOM     22  C   UNL A   1      33.347  23.332  23.118  1.00  0.00     0.113 A 
ATOM     23  C   UNL A   1      32.383  25.948  20.514  1.00  0.00     0.044 C 
ATOM     24  C   UNL A   1      32.917  25.354  21.788  1.00  0.00    -0.047 A 
ATOM     25  C   UNL A   1      33.262  26.111  22.889  1.00  0.00     0.023 A 
ATOM     26  C   UNL A   1      32.949  23.967  21.946  1.00  0.00     0.036 A 
ATOM     27  C   UNL A   1      33.646  25.434  24.045  1.00  0.00     0.112 A 
ATOM     28  N   UNL A   1      33.703  24.075  24.190  1.00  0.00    -0.253 NA
ENDBRANCH  20  22
ENDBRANCH  10  20
ENDBRANCH   8   9
ENDBRANCH   6   8
ENDBRANCH   5   6
ENDBRANCH   4   5
ENDBRANCH   3   4
ENDBRANCH   2   3
ENDBRANCH   1   2
BRANCH   1  29
ATOM     29  C   UNL A   1      30.269  25.707  25.815  1.00  0.00     0.188 C 
BRANCH  29  30
ATOM     30  O   UNL A   1      31.030  26.671  26.576  1.00  0.00    -0.376 OA
BRANCH  30  31
ATOM     31  C   UNL A   1      31.499  27.809  25.821  1.00  0.00     0.202 C 
BRANCH  31  32
ATOM     32  C   UNL A   1      31.699  29.094  26.683  1.00  0.00     0.261 C 
BRANCH  32  33
ATOM     33  O   UNL A   1      32.575  30.106  26.096  1.00  0.00    -0.460 OA
BRANCH  33  34
ATOM     34  C   UNL A   1      32.952  31.178  26.859  1.00  0.00     0.338 C 
ATOM     35  O   UNL A   1      32.306  32.220  26.980  1.00  0.00    -0.246 OA
BRANCH  34  36
ATOM     36  C   UNL A   1      34.248  30.959  27.584  1.00  0.00     0.060 A 
ATOM     37  C   UNL A   1      34.616  29.663  27.979  1.00  0.00     0.016 A 
ATOM     38  C   UNL A   1      35.091  32.015  27.943  1.00  0.00     0.016 A 
ATOM     39  C   UNL A   1      35.870  29.391  28.541  1.00  0.00     0.010 A 
ATOM     40  C   UNL A   1      36.308  31.756  28.621  1.00  0.00     0.010 A 
ATOM     41  C   UNL A   1      36.725  30.437  28.901  1.00  0.00    -0.014 A 
BRANCH  41  42
ATOM     42  C   UNL A   1      37.860  30.130  29.831  1.00  0.00     0.031 A 
ATOM     43  C   UNL A   1      38.944  29.219  29.307  1.00  0.00     0.074 A 
ATOM     44  C   UNL A   1      38.025  30.707  31.040  1.00  0.00     0.049 A 
ATOM     45  N   UNL A   1      40.032  28.781  29.887  1.00  0.00    -0.248 NA
ATOM     46  C   UNL A   1      38.774  28.758  27.920  1.00  0.00     0.031 C 
ATOM     47  C   UNL A   1      37.147  31.714  31.631  1.00  0.00     0.029 A 
ATOM     48  N   UNL A   1      39.015  30.539  31.989  1.00  0.00    -0.354 N 
ATOM     49  C   UNL A   1      40.677  27.998  28.935  1.00  0.00     0.074 A 
ATOM     50  C   UNL A   1      39.849  28.008  27.749  1.00  0.00     0.031 C 
ATOM     51  C   UNL A   1      37.631  32.069  32.838  1.00  0.00     0.029 A 
ATOM     52  C   UNL A   1      38.838  31.292  33.132  1.00  0.00     0.049 A 
ATOM     53  H   UNL A   1      39.782  29.935  31.860  1.00  0.00     0.167 HD
ATOM     54  C   UNL A   1      41.850  27.324  29.031  1.00  0.00     0.034 A 
ATOM     55  C   UNL A   1      39.550  31.335  34.284  1.00  0.00     0.034 A 
ATOM     56  C   UNL A   1      42.657  27.274  30.223  1.00  0.00     0.049 A 
ATOM     57  C   UNL A   1      40.776  30.449  34.429  1.00  0.00     0.074 A 
ATOM     58  C   UNL A   1      43.818  26.556  30.450  1.00  0.00     0.029 A 
ATOM     59  N   UNL A   1      42.377  27.960  31.398  1.00  0.00    -0.354 N 
ATOM     60  N   UNL A   1      41.337  29.657  33.544  1.00  0.00    -0.248 NA
ATOM     61  C   UNL A   1      41.457  30.458  35.733  1.00  0.00     0.031 C 
ATOM     62  C   UNL A   1      44.201  26.753  31.781  1.00  0.00     0.029 A 
ATOM     63  C   UNL A   1      43.326  27.657  32.362  1.00  0.00     0.049 A 
ATOM     64  H   UNL A   1      41.617  28.572  31.526  1.00  0.00     0.167 HD
ATOM     65  C   UNL A   1      42.449  29.100  34.176  1.00  0.00     0.074 A 
ATOM     66  C   UNL A   1      42.489  29.655  35.512  1.00  0.00     0.031 C 
ATOM     67  C   UNL A   1      43.356  28.211  33.695  1.00  0.00     0.034 A 
BRANCH  54  68
ATOM     68  C   UNL A   1      42.254  26.506  27.828  1.00  0.00     0.023 A 
ATOM     69  C   UNL A   1      41.983  25.128  27.744  1.00  0.00     0.031 A 
ATOM     70  C   UNL A   1      43.011  27.095  26.801  1.00  0.00     0.131 A 
ATOM     71  C   UNL A   1      42.545  24.371  26.706  1.00  0.00     0.055 A 
ATOM     72  C   UNL A   1      43.494  26.351  25.724  1.00  0.00     0.041 A 
ATOM     73  F   UNL A   1      43.326  28.399  26.845  1.00  0.00    -0.206 F 
ATOM     74  C   UNL A   1      43.280  24.976  25.683  1.00  0.00     0.022 A 
BRANCH  71  75
ATOM     75  S   UNL A   1      42.459  22.560  26.808  1.00  0.00     0.124 S 
ATOM     76  O   UNL A   1      42.474  22.345  28.252  1.00  0.00    -0.237 OA
ATOM     77  O   UNL A   1      41.202  22.265  26.130  1.00  0.00    -0.237 OA
ATOM     78  O   UNL A   1      43.664  22.120  26.107  1.00  0.00    -0.744 OA
ENDBRANCH  71  75
ENDBRANCH  54  68
BRANCH  55  79
ATOM     79  C   UNL A   1      39.104  32.173  35.447  1.00  0.00     0.023 A 
ATOM     80  C   UNL A   1      39.570  33.487  35.642  1.00  0.00     0.031 A 
ATOM     81  C   UNL A   1      38.281  31.623  36.447  1.00  0.00     0.131 A 
ATOM     82  C   UNL A   1      39.249  34.184  36.822  1.00  0.00     0.055 A 
ATOM     83  C   UNL A   1      37.919  32.338  37.592  1.00  0.00     0.041 A 
ATOM     84  F   UNL A   1      37.824  30.365  36.335  1.00  0.00    -0.206 F 
ATOM     85  C   UNL A   1      38.413  33.623  37.790  1.00  0.00     0.022 A 
BRANCH  82  86
ATOM     86  S   UNL A   1      40.014  35.803  37.131  1.00  0.00     0.124 S 
ATOM     87  O   UNL A   1      41.401  35.432  37.391  1.00  0.00    -0.237 OA
ATOM     88  O   UNL A   1      39.760  36.505  35.877  1.00  0.00    -0.237 OA
ATOM     89  O   UNL A   1      39.279  36.314  38.286  1.00  0.00    -0.744 OA
ENDBRANCH  82  86
ENDBRANCH  55  79
BRANCH  67  90
ATOM     90  C   UNL A   1      44.501  27.816  34.601  1.00  0.00     0.023 A 
ATOM     91  C   UNL A   1      44.413  26.724  35.482  1.00  0.00     0.031 A 
ATOM     92  C   UNL A   1      45.710  28.535  34.562  1.00  0.00     0.131 A 
ATOM     93  C   UNL A   1      45.498  26.408  36.316  1.00  0.00     0.055 A 
ATOM     94  C   UNL A   1      46.803  28.184  35.354  1.00  0.00     0.041 A 
ATOM     95  F   UNL A   1      45.852  29.587  33.740  1.00  0.00    -0.206 F 
ATOM     96  C   UNL A   1      46.698  27.120  36.246  1.00  0.00     0.022 A 
BRANCH  93  97
ATOM     97  S   UNL A   1      45.299  25.094  37.552  1.00  0.00     0.124 S 
ATOM     98  O   UNL A   1      44.485  24.119  36.834  1.00  0.00    -0.237 OA
ATOM     99  O   UNL A   1      46.680  24.701  37.815  1.00  0.00    -0.237 OA
ATOM    100  O   UNL A   1      44.626  25.766  38.663  1.00  0.00    -0.744 OA
ENDBRANCH  93  97
ENDBRANCH  67  90
ENDBRANCH  41  42
ENDBRANCH  34  36
ENDBRANCH  33  34
ENDBRANCH  32  33
ENDBRANCH  31  32
ENDBRANCH  30  31
ENDBRANCH  29  30
ENDBRANCH   1  29
TORSDOF 23
ENDMDL
MODEL 3
REMARK VINA RESULT:     -10.4      3.580      6.476
REMARK SMILES Cc1ccnc(C(=O)c2[nH]c3ccc(F)cc3c2CC(=O)OCCOCCOCCOC(=O)c2ccc(-c3c4nc(c(-c5cc(S(=O)(=O)[O-])ccc5F)c5ccc([nH]5)c(-c5cc(S(=O)(=O)[O-])ccc5F)c5nc(c(-c6cc(S(=O)(=O)[O-])ccc6F)c6ccc3[nH]6)C=C5)C=C4)cc2)c1
REMARK SMILES IDX 26 1 25 2 24 3 23 4 22 5 20 6 21 7 19 8 18 9 9 10 10 11
REMARK SMILES IDX 11 12 17 14 12 15 16 16 13 17 14 18 15 19 7 20 8 21 6 22
REMARK SMILES IDX 1 23 2 24 3 25 97 26 4 27 5 28 27 29 28 30 29 31 30 32 31 33
REMARK SMILES IDX 32 34 33 35 34 36 35 37 96 38 36 39 95 40 37 41 38 42 39 43
REMARK SMILES IDX 89 44 40 45 94 46 88 47 90 48 41 49 93 50 87 51 86 52 42 54
REMARK SMILES IDX 74 55 54 56 73 57 55 58 58 59 72 60 91 61 56 62 57 63 71 65
REMARK SMILES IDX 92 66 59 67 43 68 44 69 52 70 45 71 51 72 53 73 50 74 46 75
REMARK SMILES IDX 47 76 48 77 49 78 75 79 76 80 84 81 77 82 83 83 85 84 82 85
REMARK SMILES IDX 78 86 79 87 80 88 81 89 60 90 61 91 69 92 62 93 68 94 70 95
REMARK SMILES IDX 67 96 63 97 64 98 65 99 66 100
REMARK H PARENT 10 13 90 53 58 64
REMARK Flexibility Score: inf
ROOT
ATOM      1  C   UNL A   1      34.515  33.222  29.284  1.00  0.00     0.188 C 
ENDROOT
BRANCH   1   2
ATOM      2  O   UNL A   1      33.955  32.357  28.287  1.00  0.00    -0.376 OA
BRANCH   2   3
ATOM      3  C   UNL A   1      34.812  31.230  27.961  1.00  0.00     0.202 C 
BRANCH   3   4
ATOM      4  C   UNL A   1      34.077  30.035  27.328  1.00  0.00     0.261 C 
BRANCH   4   5
ATOM      5  O   UNL A   1      33.211  30.496  26.270  1.00  0.00    -0.463 OA
BRANCH   5   6
ATOM      6  C   UNL A   1      32.814  29.537  25.393  1.00  0.00     0.310 C 
ATOM      7  O   UNL A   1      33.261  29.428  24.257  1.00  0.00    -0.252 OA
BRANCH   6   8
ATOM      8  C   UNL A   1      31.746  28.631  25.946  1.00  0.00     0.161 C 
BRANCH   8   9
ATOM      9  C   UNL A   1      31.323  27.468  25.091  1.00  0.00     0.000 A 
ATOM     10  C   UNL A   1      30.613  27.483  23.892  1.00  0.00     0.093 A 
ATOM     11  N   UNL A   1      30.114  26.191  23.762  1.00  0.00    -0.352 N 
ATOM     12  C   UNL A   1      30.734  25.303  24.580  1.00  0.00     0.046 A 
ATOM     13  H   UNL A   1      29.388  25.946  23.143  1.00  0.00     0.167 HD
ATOM     14  C   UNL A   1      31.524  26.064  25.434  1.00  0.00     0.007 A 
ATOM     15  C   UNL A   1      30.612  23.910  24.625  1.00  0.00     0.030 A 
ATOM     16  C   UNL A   1      32.271  25.360  26.402  1.00  0.00     0.049 A 
ATOM     17  C   UNL A   1      31.376  23.241  25.573  1.00  0.00     0.041 A 
ATOM     18  C   UNL A   1      32.194  23.959  26.437  1.00  0.00     0.123 A 
ATOM     19  F   UNL A   1      32.934  23.286  27.329  1.00  0.00    -0.207 F 
BRANCH  10  20
ATOM     20  C   UNL A   1      30.171  28.365  22.824  1.00  0.00     0.227 C 
ATOM     21  O   UNL A   1      30.329  27.875  21.708  1.00  0.00    -0.285 OA
BRANCH  20  22
ATOM     22  C   UNL A   1      29.872  29.836  22.799  1.00  0.00     0.113 A 
ATOM     23  C   UNL A   1      27.939  31.907  20.244  1.00  0.00     0.044 C 
ATOM     24  C   UNL A   1      28.539  31.486  21.556  1.00  0.00    -0.047 A 
ATOM     25  C   UNL A   1      28.232  32.091  22.757  1.00  0.00     0.023 A 
ATOM     26  C   UNL A   1      29.344  30.346  21.618  1.00  0.00     0.036 A 
ATOM     27  C   UNL A   1      28.775  31.542  23.918  1.00  0.00     0.112 A 
ATOM     28  N   UNL A   1      29.585  30.442  23.973  1.00  0.00    -0.253 NA
ENDBRANCH  20  22
ENDBRANCH  10  20
ENDBRANCH   8   9
ENDBRANCH   6   8
ENDBRANCH   5   6
ENDBRANCH   4   5
ENDBRANCH   3   4
ENDBRANCH   2   3
ENDBRANCH   1   2
BRANCH   1  29
ATOM     29  C   UNL A   1      35.018  34.610  28.796  1.00  0.00     0.188 C 
BRANCH  29  30
ATOM     30  O   UNL A   1      33.966  35.558  28.509  1.00  0.00    -0.376 OA
BRANCH  30  31
ATOM     31  C   UNL A   1      32.946  35.661  29.526  1.00  0.00     0.202 C 
BRANCH  31  32
ATOM     32  C   UNL A   1      32.970  37.014  30.303  1.00  0.00     0.261 C 
BRANCH  32  33
ATOM     33  O   UNL A   1      32.987  36.894  31.760  1.00  0.00    -0.460 OA
BRANCH  33  34
ATOM     34  C   UNL A   1      32.810  35.659  32.324  1.00  0.00     0.338 C 
ATOM     35  O   UNL A   1      31.717  35.131  32.538  1.00  0.00    -0.246 OA
BRANCH  34  36
ATOM     36  C   UNL A   1      34.103  34.967  32.644  1.00  0.00     0.060 A 
ATOM     37  C   UNL A   1      34.089  33.765  33.371  1.00  0.00     0.016 A 
ATOM     38  C   UNL A   1      35.345  35.506  32.300  1.00  0.00     0.016 A 
ATOM     39  C   UNL A   1      35.255  33.018  33.583  1.00  0.00     0.010 A 
ATOM     40  C   UNL A   1      36.538  34.811  32.619  1.00  0.00     0.010 A 
ATOM     41  C   UNL A   1      36.504  33.543  33.238  1.00  0.00    -0.014 A 
BRANCH  41  42
ATOM     42  C   UNL A   1      37.724  32.897  33.821  1.00  0.00     0.031 A 
ATOM     43  C   UNL A   1      38.308  31.731  33.059  1.00  0.00     0.074 A 
ATOM     44  C   UNL A   1      38.387  33.365  34.899  1.00  0.00     0.049 A 
ATOM     45  N   UNL A   1      39.348  30.984  33.328  1.00  0.00    -0.248 NA
ATOM     46  C   UNL A   1      37.622  31.381  31.806  1.00  0.00     0.031 C 
ATOM     47  C   UNL A   1      38.038  34.563  35.660  1.00  0.00     0.029 A 
ATOM     48  N   UNL A   1      39.520  32.894  35.533  1.00  0.00    -0.354 N 
ATOM     49  C   UNL A   1      39.443  30.079  32.275  1.00  0.00     0.074 A 
ATOM     50  C   UNL A   1      38.345  30.361  31.377  1.00  0.00     0.031 C 
ATOM     51  C   UNL A   1      38.929  34.727  36.658  1.00  0.00     0.029 A 
ATOM     52  C   UNL A   1      39.900  33.630  36.637  1.00  0.00     0.049 A 
ATOM     53  H   UNL A   1      40.014  32.100  35.225  1.00  0.00     0.167 HD
ATOM     54  C   UNL A   1      40.353  29.096  32.069  1.00  0.00     0.034 A 
ATOM     55  C   UNL A   1      40.896  33.433  37.534  1.00  0.00     0.034 A 
ATOM     56  C   UNL A   1      41.422  28.781  32.983  1.00  0.00     0.049 A 
ATOM     57  C   UNL A   1      41.810  32.230  37.371  1.00  0.00     0.074 A 
ATOM     58  C   UNL A   1      42.348  27.755  32.907  1.00  0.00     0.029 A 
ATOM     59  N   UNL A   1      41.699  29.482  34.149  1.00  0.00    -0.354 N 
ATOM     60  N   UNL A   1      41.845  31.338  36.407  1.00  0.00    -0.248 NA
ATOM     61  C   UNL A   1      42.813  32.004  38.424  1.00  0.00     0.031 C 
ATOM     62  C   UNL A   1      43.139  27.794  34.061  1.00  0.00     0.029 A 
ATOM     63  C   UNL A   1      42.760  28.892  34.817  1.00  0.00     0.049 A 
ATOM     64  H   UNL A   1      41.212  30.281  34.456  1.00  0.00     0.167 HD
ATOM     65  C   UNL A   1      42.888  30.468  36.725  1.00  0.00     0.074 A 
ATOM     66  C   UNL A   1      43.467  30.947  37.961  1.00  0.00     0.031 C 
ATOM     67  C   UNL A   1      43.329  29.372  36.054  1.00  0.00     0.034 A 
BRANCH  54  68
ATOM     68  C   UNL A   1      40.145  28.233  30.848  1.00  0.00     0.023 A 
ATOM     69  C   UNL A   1      40.835  28.471  29.646  1.00  0.00     0.031 A 
ATOM     70  C   UNL A   1      39.165  27.225  30.859  1.00  0.00     0.131 A 
ATOM     71  C   UNL A   1      40.469  27.774  28.484  1.00  0.00     0.055 A 
ATOM     72  C   UNL A   1      38.867  26.475  29.721  1.00  0.00     0.041 A 
ATOM     73  F   UNL A   1      38.454  26.975  31.971  1.00  0.00    -0.206 F 
ATOM     74  C   UNL A   1      39.507  26.762  28.518  1.00  0.00     0.022 A 
BRANCH  71  75
ATOM     75  S   UNL A   1      41.138  28.333  26.891  1.00  0.00     0.124 S 
ATOM     76  O   UNL A   1      42.380  28.982  27.303  1.00  0.00    -0.237 OA
ATOM     77  O   UNL A   1      41.283  27.083  26.154  1.00  0.00    -0.237 OA
ATOM     78  O   UNL A   1      40.108  29.239  26.387  1.00  0.00    -0.744 OA
ENDBRANCH  71  75
ENDBRANCH  54  68
BRANCH  55  79
ATOM     79  C   UNL A   1      41.060  34.328  38.728  1.00  0.00     0.023 A 
ATOM     80  C   UNL A   1      40.207  34.245  39.845  1.00  0.00     0.031 A 
ATOM     81  C   UNL A   1      42.015  35.362  38.717  1.00  0.00     0.131 A 
ATOM     82  C   UNL A   1      40.297  35.200  40.876  1.00  0.00     0.055 A 
ATOM     83  C   UNL A   1      42.137  36.274  39.768  1.00  0.00     0.041 A 
ATOM     84  F   UNL A   1      42.841  35.513  37.670  1.00  0.00    -0.206 F 
ATOM     85  C   UNL A   1      41.267  36.204  40.851  1.00  0.00     0.022 A 
BRANCH  82  86
ATOM     86  S   UNL A   1      39.066  35.179  42.212  1.00  0.00     0.124 S 
ATOM     87  O   UNL A   1      39.633  36.138  43.154  1.00  0.00    -0.237 OA
ATOM     88  O   UNL A   1      37.854  35.600  41.517  1.00  0.00    -0.237 OA
ATOM     89  O   UNL A   1      39.071  33.788  42.661  1.00  0.00    -0.744 OA
ENDBRANCH  82  86
ENDBRANCH  55  79
BRANCH  67  90
ATOM     90  C   UNL A   1      44.527  28.640  36.616  1.00  0.00     0.023 A 
ATOM     91  C   UNL A   1      44.398  27.639  37.595  1.00  0.00     0.031 A 
ATOM     92  C   UNL A   1      45.819  28.936  36.142  1.00  0.00     0.131 A 
ATOM     93  C   UNL A   1      45.543  27.000  38.098  1.00  0.00     0.055 A 
ATOM     94  C   UNL A   1      46.947  28.260  36.607  1.00  0.00     0.041 A 
ATOM     95  F   UNL A   1      46.003  29.882  35.207  1.00  0.00    -0.206 F 
ATOM     96  C   UNL A   1      46.815  27.292  37.598  1.00  0.00     0.022 A 
BRANCH  93  97
ATOM     97  S   UNL A   1      45.360  25.827  39.470  1.00  0.00     0.124 S 
ATOM     98  O   UNL A   1      45.062  24.581  38.770  1.00  0.00    -0.237 OA
ATOM     99  O   UNL A   1      46.666  25.897  40.118  1.00  0.00    -0.237 OA
ATOM    100  O   UNL A   1      44.253  26.379  40.250  1.00  0.00    -0.744 OA
ENDBRANCH  93  97
ENDBRANCH  67  90
ENDBRANCH  41  42
ENDBRANCH  34  36
ENDBRANCH  33  34
ENDBRANCH  32  33
ENDBRANCH  31  32
ENDBRANCH  30  31
ENDBRANCH  29  30
ENDBRANCH   1  29
TORSDOF 23
ENDMDL
