MODEL 1
REMARK VINA RESULT:     -10.8      0.000      0.000
REMARK SMILES O=C(OCCOCCOCCOC(=O)[C@@H]1CCCC[C@H]1C(=O)Nc1ccc(NC(=O)c2ccco2)cc1)c1ccc(-c2c3nc(c(-c4cc(S(=O)(=O)[O-])ccc4F)c4ccc([nH]4)c(-c4cc(S(=O)(=O)[O-])ccc4F)c4nc(c(-c5cc(S(=O)(=O)[O-])ccc5F)c5ccc2[nH]5)C=C4)C=C3)cc1
REMARK SMILES IDX 8 1 7 2 6 3 5 4 4 5 3 6 2 7 1 8 38 9 39 10 100 11 40 12
REMARK SMILES IDX 99 13 41 14 42 15 43 16 93 17 44 18 98 19 92 20 94 21 45 22
REMARK SMILES IDX 97 23 91 24 90 25 46 27 78 28 58 29 77 30 59 31 62 32 76 33
REMARK SMILES IDX 95 34 60 35 61 36 75 38 96 39 63 40 47 41 48 42 56 43 49 44
REMARK SMILES IDX 55 45 57 46 54 47 50 48 51 49 52 50 53 51 79 52 80 53 88 54
REMARK SMILES IDX 81 55 87 56 89 57 86 58 82 59 83 60 84 61 85 62 64 63 65 64
REMARK SMILES IDX 73 65 66 66 72 67 74 68 71 69 67 70 68 71 69 72 70 73 9 74
REMARK SMILES IDX 10 75 11 76 12 77 13 78 14 79 15 80 16 81 20 82 17 83 19 84
REMARK SMILES IDX 18 85 21 86 22 87 23 88 24 90 25 91 37 92 26 93 36 94 27 95
REMARK SMILES IDX 28 96 29 97 30 99 31 100 32 101 35 102 33 103 34 104
REMARK H PARENT 94 26 62 37 23 89 28 98
REMARK Flexibility Score: inf
ROOT
ATOM      1  C   UNL A   1      33.993  32.372  27.947  1.00  0.00     0.188 C 
ENDROOT
BRANCH   1   2
ATOM      2  C   UNL A   1      34.499  33.188  29.131  1.00  0.00     0.188 C 
BRANCH   2   3
ATOM      3  O   UNL A   1      34.440  34.603  28.962  1.00  0.00    -0.376 OA
BRANCH   3   4
ATOM      4  C   UNL A   1      33.105  35.128  28.933  1.00  0.00     0.202 C 
BRANCH   4   5
ATOM      5  C   UNL A   1      32.878  36.500  29.614  1.00  0.00     0.261 C 
BRANCH   5   6
ATOM      6  O   UNL A   1      32.195  36.457  30.885  1.00  0.00    -0.460 OA
BRANCH   6   7
ATOM      7  C   UNL A   1      32.683  36.202  32.127  1.00  0.00     0.338 C 
ATOM      8  O   UNL A   1      32.209  36.810  33.086  1.00  0.00    -0.246 OA
BRANCH   7   9
ATOM      9  C   UNL A   1      33.786  35.232  32.380  1.00  0.00     0.060 A 
ATOM     10  C   UNL A   1      33.586  33.912  32.772  1.00  0.00     0.016 A 
ATOM     11  C   UNL A   1      35.102  35.637  32.158  1.00  0.00     0.016 A 
ATOM     12  C   UNL A   1      34.622  33.046  33.092  1.00  0.00     0.010 A 
ATOM     13  C   UNL A   1      36.157  34.736  32.378  1.00  0.00     0.010 A 
ATOM     14  C   UNL A   1      35.927  33.426  32.877  1.00  0.00    -0.014 A 
BRANCH  14  15
ATOM     15  C   UNL A   1      37.062  32.547  33.302  1.00  0.00     0.031 A 
ATOM     16  C   UNL A   1      37.704  32.975  34.593  1.00  0.00     0.074 A 
ATOM     17  C   UNL A   1      37.466  31.424  32.645  1.00  0.00     0.049 A 
ATOM     18  N   UNL A   1      38.866  32.671  35.081  1.00  0.00    -0.248 NA
ATOM     19  C   UNL A   1      36.899  33.863  35.467  1.00  0.00     0.031 C 
ATOM     20  C   UNL A   1      36.716  30.696  31.611  1.00  0.00     0.029 A 
ATOM     21  N   UNL A   1      38.652  30.705  32.685  1.00  0.00    -0.354 N 
ATOM     22  C   UNL A   1      38.903  33.272  36.335  1.00  0.00     0.074 A 
ATOM     23  C   UNL A   1      37.728  34.092  36.470  1.00  0.00     0.031 C 
ATOM     24  C   UNL A   1      37.501  29.769  31.023  1.00  0.00     0.029 A 
ATOM     25  C   UNL A   1      38.834  29.857  31.578  1.00  0.00     0.049 A 
ATOM     26  H   UNL A   1      39.303  30.781  33.418  1.00  0.00     0.167 HD
ATOM     27  C   UNL A   1      39.806  33.055  37.316  1.00  0.00     0.034 A 
ATOM     28  C   UNL A   1      39.970  29.316  31.054  1.00  0.00     0.034 A 
ATOM     29  C   UNL A   1      40.956  32.224  37.088  1.00  0.00     0.049 A 
ATOM     30  C   UNL A   1      41.120  29.379  32.031  1.00  0.00     0.074 A 
ATOM     31  C   UNL A   1      41.980  31.894  37.947  1.00  0.00     0.029 A 
ATOM     32  N   UNL A   1      41.227  31.597  35.870  1.00  0.00    -0.354 N 
ATOM     33  N   UNL A   1      41.205  30.048  33.163  1.00  0.00    -0.248 NA
ATOM     34  C   UNL A   1      42.272  28.530  31.737  1.00  0.00     0.031 C 
ATOM     35  C   UNL A   1      42.897  31.115  37.231  1.00  0.00     0.029 A 
ATOM     36  C   UNL A   1      42.405  30.886  35.951  1.00  0.00     0.049 A 
ATOM     37  H   UNL A   1      40.658  31.655  35.068  1.00  0.00     0.167 HD
ATOM     38  C   UNL A   1      42.421  29.701  33.723  1.00  0.00     0.074 A 
ATOM     39  C   UNL A   1      43.030  28.754  32.801  1.00  0.00     0.031 C 
ATOM     40  C   UNL A   1      42.981  30.069  34.906  1.00  0.00     0.034 A 
BRANCH  27  41
ATOM     41  C   UNL A   1      39.544  33.710  38.650  1.00  0.00     0.023 A 
ATOM     42  C   UNL A   1      38.741  33.084  39.627  1.00  0.00     0.031 A 
ATOM     43  C   UNL A   1      40.014  35.003  38.923  1.00  0.00     0.131 A 
ATOM     44  C   UNL A   1      38.364  33.782  40.786  1.00  0.00     0.055 A 
ATOM     45  C   UNL A   1      39.702  35.663  40.115  1.00  0.00     0.041 A 
ATOM     46  F   UNL A   1      40.751  35.667  38.019  1.00  0.00    -0.206 F 
ATOM     47  C   UNL A   1      38.862  35.059  41.049  1.00  0.00     0.022 A 
BRANCH  44  48
ATOM     48  S   UNL A   1      37.093  33.062  41.866  1.00  0.00     0.124 S 
ATOM     49  O   UNL A   1      36.526  32.024  41.006  1.00  0.00    -0.237 OA
ATOM     50  O   UNL A   1      37.870  32.590  43.005  1.00  0.00    -0.237 OA
ATOM     51  O   UNL A   1      36.200  34.186  42.142  1.00  0.00    -0.744 OA
ENDBRANCH  44  48
ENDBRANCH  27  41
BRANCH  28  52
ATOM     52  C   UNL A   1      40.158  28.698  29.651  1.00  0.00     0.023 A 
ATOM     53  C   UNL A   1      39.765  27.398  29.310  1.00  0.00     0.031 A 
ATOM     54  C   UNL A   1      40.921  29.318  28.630  1.00  0.00     0.131 A 
ATOM     55  C   UNL A   1      40.093  26.849  28.030  1.00  0.00     0.055 A 
ATOM     56  C   UNL A   1      41.099  28.857  27.321  1.00  0.00     0.041 A 
ATOM     57  F   UNL A   1      41.662  30.388  28.863  1.00  0.00    -0.206 F 
ATOM     58  C   UNL A   1      40.680  27.595  27.009  1.00  0.00     0.022 A 
BRANCH  55  59
ATOM     59  S   UNL A   1      40.001  25.054  27.776  1.00  0.00     0.124 S 
ATOM     60  O   UNL A   1      41.292  24.626  28.303  1.00  0.00    -0.237 OA
ATOM     61  O   UNL A   1      38.826  24.704  28.562  1.00  0.00    -0.237 OA
ATOM     62  O   UNL A   1      39.848  24.918  26.327  1.00  0.00    -0.744 OA
ENDBRANCH  55  59
ENDBRANCH  28  52
BRANCH  40  63
ATOM     63  C   UNL A   1      44.319  29.460  35.186  1.00  0.00     0.023 A 
ATOM     64  C   UNL A   1      44.429  28.245  35.881  1.00  0.00     0.031 A 
ATOM     65  C   UNL A   1      45.488  30.123  34.780  1.00  0.00     0.131 A 
ATOM     66  C   UNL A   1      45.699  27.749  36.188  1.00  0.00     0.055 A 
ATOM     67  C   UNL A   1      46.746  29.594  35.037  1.00  0.00     0.041 A 
ATOM     68  F   UNL A   1      45.415  31.294  34.127  1.00  0.00    -0.206 F 
ATOM     69  C   UNL A   1      46.857  28.406  35.755  1.00  0.00     0.022 A 
BRANCH  66  70
ATOM     70  S   UNL A   1      45.823  26.286  37.249  1.00  0.00     0.124 S 
ATOM     71  O   UNL A   1      46.049  25.222  36.274  1.00  0.00    -0.237 OA
ATOM     72  O   UNL A   1      46.954  26.616  38.108  1.00  0.00    -0.237 OA
ATOM     73  O   UNL A   1      44.526  26.244  37.921  1.00  0.00    -0.744 OA
ENDBRANCH  66  70
ENDBRANCH  40  63
ENDBRANCH  14  15
ENDBRANCH   7   9
ENDBRANCH   6   7
ENDBRANCH   5   6
ENDBRANCH   4   5
ENDBRANCH   3   4
ENDBRANCH   2   3
ENDBRANCH   1   2
BRANCH   1  74
ATOM     74  O   UNL A   1      34.556  31.084  27.731  1.00  0.00    -0.376 OA
BRANCH  74  75
ATOM     75  C   UNL A   1      33.751  30.114  27.073  1.00  0.00     0.202 C 
BRANCH  75  76
ATOM     76  C   UNL A   1      34.314  28.700  26.856  1.00  0.00     0.261 C 
BRANCH  76  77
ATOM     77  O   UNL A   1      33.359  27.704  26.484  1.00  0.00    -0.463 OA
BRANCH  77  78
ATOM     78  C   UNL A   1      33.554  27.079  25.285  1.00  0.00     0.309 C 
ATOM     79  O   UNL A   1      34.477  26.310  25.016  1.00  0.00    -0.252 OA
BRANCH  78  80
ATOM     80  C   UNL A   1      32.446  27.475  24.325  1.00  0.00     0.111 C 
ATOM     81  C   UNL A   1      31.225  28.100  24.986  1.00  0.00     0.016 C 
ATOM     82  C   UNL A   1      32.159  26.287  23.403  1.00  0.00     0.093 C 
ATOM     83  C   UNL A   1      30.054  28.257  24.021  1.00  0.00     0.001 C 
ATOM     84  C   UNL A   1      30.808  26.243  22.677  1.00  0.00     0.014 C 
ATOM     85  C   UNL A   1      29.660  26.929  23.400  1.00  0.00     0.001 C 
BRANCH  82  86
ATOM     86  C   UNL A   1      33.341  26.203  22.447  1.00  0.00     0.228 C 
ATOM     87  O   UNL A   1      33.773  27.224  21.904  1.00  0.00    -0.274 OA
ATOM     88  N   UNL A   1      33.902  24.996  22.116  1.00  0.00    -0.326 N 
ATOM     89  H   UNL A   1      34.380  24.953  21.258  1.00  0.00     0.169 HD
BRANCH  88  90
ATOM     90  C   UNL A   1      33.864  23.813  22.875  1.00  0.00     0.041 A 
ATOM     91  C   UNL A   1      32.642  23.188  22.960  1.00  0.00     0.028 A 
ATOM     92  C   UNL A   1      34.898  23.310  23.662  1.00  0.00     0.028 A 
ATOM     93  C   UNL A   1      32.463  22.140  23.864  1.00  0.00     0.028 A 
ATOM     94  C   UNL A   1      34.730  22.134  24.423  1.00  0.00     0.028 A 
ATOM     95  C   UNL A   1      33.478  21.563  24.578  1.00  0.00     0.041 A 
BRANCH  95  96
ATOM     96  N   UNL A   1      33.244  20.591  25.564  1.00  0.00    -0.319 N 
ATOM     97  C   UNL A   1      32.968  19.227  25.507  1.00  0.00     0.291 C 
ATOM     98  H   UNL A   1      33.283  20.946  26.482  1.00  0.00     0.170 HD
ATOM     99  O   UNL A   1      32.487  18.752  26.540  1.00  0.00    -0.265 OA
BRANCH  97 100
ATOM    100  C   UNL A   1      33.311  18.390  24.370  1.00  0.00     0.191 A 
ATOM    101  C   UNL A   1      34.366  17.527  24.111  1.00  0.00     0.056 A 
ATOM    102  O   UNL A   1      32.432  18.331  23.316  1.00  0.00    -0.459 OA
ATOM    103  C   UNL A   1      34.122  16.936  22.841  1.00  0.00     0.043 A 
ATOM    104  C   UNL A   1      32.937  17.468  22.395  1.00  0.00     0.196 A 
ENDBRANCH  97 100
ENDBRANCH  95  96
ENDBRANCH  88  90
ENDBRANCH  82  86
ENDBRANCH  78  80
ENDBRANCH  77  78
ENDBRANCH  76  77
ENDBRANCH  75  76
ENDBRANCH  74  75
ENDBRANCH   1  74
TORSDOF 24
ENDMDL
MODEL 2
REMARK VINA RESULT:     -10.6      1.792      7.613
REMARK SMILES O=C(OCCOCCOCCOC(=O)[C@@H]1CCCC[C@H]1C(=O)Nc1ccc(NC(=O)c2ccco2)cc1)c1ccc(-c2c3nc(c(-c4cc(S(=O)(=O)[O-])ccc4F)c4ccc([nH]4)c(-c4cc(S(=O)(=O)[O-])ccc4F)c4nc(c(-c5cc(S(=O)(=O)[O-])ccc5F)c5ccc2[nH]5)C=C4)C=C3)cc1
REMARK SMILES IDX 8 1 7 2 6 3 5 4 4 5 3 6 2 7 1 8 38 9 39 10 100 11 40 12
REMARK SMILES IDX 99 13 41 14 42 15 43 16 93 17 44 18 98 19 92 20 94 21 45 22
REMARK SMILES IDX 97 23 91 24 90 25 46 27 78 28 58 29 77 30 59 31 62 32 76 33
REMARK SMILES IDX 95 34 60 35 61 36 75 38 96 39 63 40 47 41 48 42 56 43 49 44
REMARK SMILES IDX 55 45 57 46 54 47 50 48 51 49 52 50 53 51 79 52 80 53 88 54
REMARK SMILES IDX 81 55 87 56 89 57 86 58 82 59 83 60 84 61 85 62 64 63 65 64
REMARK SMILES IDX 73 65 66 66 72 67 74 68 71 69 67 70 68 71 69 72 70 73 9 74
REMARK SMILES IDX 10 75 11 76 12 77 13 78 14 79 15 80 16 81 20 82 17 83 19 84
REMARK SMILES IDX 18 85 21 86 22 87 23 88 24 90 25 91 37 92 26 93 36 94 27 95
REMARK SMILES IDX 28 96 29 97 30 99 31 100 32 101 35 102 33 103 34 104
REMARK H PARENT 94 26 62 37 23 89 28 98
REMARK Flexibility Score: inf
ROOT
ATOM      1  C   UNL A   1      34.828  31.597  28.276  1.00  0.00     0.188 C 
ENDROOT
BRANCH   1   2
ATOM      2  C   UNL A   1      35.752  32.770  27.968  1.00  0.00     0.188 C 
BRANCH   2   3
ATOM      3  O   UNL A   1      35.092  33.982  27.607  1.00  0.00    -0.376 OA
BRANCH   3   4
ATOM      4  C   UNL A   1      33.695  34.001  27.934  1.00  0.00     0.202 C 
BRANCH   4   5
ATOM      5  C   UNL A   1      33.200  35.170  28.819  1.00  0.00     0.261 C 
BRANCH   5   6
ATOM      6  O   UNL A   1      32.644  34.791  30.096  1.00  0.00    -0.460 OA
BRANCH   6   7
ATOM      7  C   UNL A   1      33.229  34.747  31.321  1.00  0.00     0.338 C 
ATOM      8  O   UNL A   1      32.648  35.266  32.274  1.00  0.00    -0.246 OA
BRANCH   7   9
ATOM      9  C   UNL A   1      34.558  34.115  31.562  1.00  0.00     0.060 A 
ATOM     10  C   UNL A   1      34.734  32.895  32.205  1.00  0.00     0.016 A 
ATOM     11  C   UNL A   1      35.700  34.744  31.066  1.00  0.00     0.016 A 
ATOM     12  C   UNL A   1      35.980  32.362  32.503  1.00  0.00     0.010 A 
ATOM     13  C   UNL A   1      36.962  34.161  31.270  1.00  0.00     0.010 A 
ATOM     14  C   UNL A   1      37.119  32.965  32.021  1.00  0.00    -0.014 A 
BRANCH  14  15
ATOM     15  C   UNL A   1      38.476  32.464  32.407  1.00  0.00     0.031 A 
ATOM     16  C   UNL A   1      38.967  31.333  31.548  1.00  0.00     0.074 A 
ATOM     17  C   UNL A   1      39.250  32.995  33.396  1.00  0.00     0.049 A 
ATOM     18  N   UNL A   1      39.905  30.466  31.775  1.00  0.00    -0.248 NA
ATOM     19  C   UNL A   1      38.311  31.175  30.227  1.00  0.00     0.031 C 
ATOM     20  C   UNL A   1      39.065  34.300  34.047  1.00  0.00     0.029 A 
ATOM     21  N   UNL A   1      40.330  32.485  34.100  1.00  0.00    -0.354 N 
ATOM     22  C   UNL A   1      39.992  29.710  30.612  1.00  0.00     0.074 A 
ATOM     23  C   UNL A   1      38.912  30.101  29.745  1.00  0.00     0.031 C 
ATOM     24  C   UNL A   1      39.870  34.408  35.125  1.00  0.00     0.029 A 
ATOM     25  C   UNL A   1      40.595  33.168  35.300  1.00  0.00     0.049 A 
ATOM     26  H   UNL A   1      40.861  31.717  33.788  1.00  0.00     0.167 HD
ATOM     27  C   UNL A   1      40.970  28.840  30.277  1.00  0.00     0.034 A 
ATOM     28  C   UNL A   1      41.266  32.768  36.417  1.00  0.00     0.034 A 
ATOM     29  C   UNL A   1      42.007  28.502  31.212  1.00  0.00     0.049 A 
ATOM     30  C   UNL A   1      42.120  31.552  36.150  1.00  0.00     0.074 A 
ATOM     31  C   UNL A   1      43.071  27.641  31.064  1.00  0.00     0.029 A 
ATOM     32  N   UNL A   1      42.083  29.027  32.505  1.00  0.00    -0.354 N 
ATOM     33  N   UNL A   1      42.119  30.758  35.098  1.00  0.00    -0.248 NA
ATOM     34  C   UNL A   1      43.144  31.244  37.146  1.00  0.00     0.031 C 
ATOM     35  C   UNL A   1      43.756  27.603  32.285  1.00  0.00     0.029 A 
ATOM     36  C   UNL A   1      43.173  28.505  33.168  1.00  0.00     0.049 A 
ATOM     37  H   UNL A   1      41.450  29.677  32.887  1.00  0.00     0.167 HD
ATOM     38  C   UNL A   1      43.145  29.853  35.301  1.00  0.00     0.074 A 
ATOM     39  C   UNL A   1      43.747  30.209  36.577  1.00  0.00     0.031 C 
ATOM     40  C   UNL A   1      43.603  28.851  34.504  1.00  0.00     0.034 A 
BRANCH  27  41
ATOM     41  C   UNL A   1      40.926  28.256  28.886  1.00  0.00     0.023 A 
ATOM     42  C   UNL A   1      40.320  27.007  28.636  1.00  0.00     0.031 A 
ATOM     43  C   UNL A   1      41.569  28.895  27.816  1.00  0.00     0.131 A 
ATOM     44  C   UNL A   1      40.444  26.401  27.375  1.00  0.00     0.055 A 
ATOM     45  C   UNL A   1      41.620  28.323  26.541  1.00  0.00     0.041 A 
ATOM     46  F   UNL A   1      42.197  30.068  27.996  1.00  0.00    -0.206 F 
ATOM     47  C   UNL A   1      41.068  27.063  26.318  1.00  0.00     0.022 A 
BRANCH  44  48
ATOM     48  S   UNL A   1      39.918  24.672  27.181  1.00  0.00     0.124 S 
ATOM     49  O   UNL A   1      41.188  23.959  27.313  1.00  0.00    -0.237 OA
ATOM     50  O   UNL A   1      38.975  24.500  28.280  1.00  0.00    -0.237 OA
ATOM     51  O   UNL A   1      39.331  24.639  25.843  1.00  0.00    -0.744 OA
ENDBRANCH  44  48
ENDBRANCH  27  41
BRANCH  28  52
ATOM     52  C   UNL A   1      41.219  33.408  37.822  1.00  0.00     0.023 A 
ATOM     53  C   UNL A   1      40.448  32.914  38.882  1.00  0.00     0.031 A 
ATOM     54  C   UNL A   1      41.801  34.667  38.117  1.00  0.00     0.131 A 
ATOM     55  C   UNL A   1      40.353  33.637  40.113  1.00  0.00     0.055 A 
ATOM     56  C   UNL A   1      41.851  35.293  39.367  1.00  0.00     0.041 A 
ATOM     57  F   UNL A   1      42.278  35.455  37.168  1.00  0.00    -0.206 F 
ATOM     58  C   UNL A   1      41.111  34.773  40.390  1.00  0.00     0.022 A 
BRANCH  55  59
ATOM     59  S   UNL A   1      39.015  33.248  41.277  1.00  0.00     0.124 S 
ATOM     60  O   UNL A   1      39.102  31.793  41.334  1.00  0.00    -0.237 OA
ATOM     61  O   UNL A   1      39.439  33.974  42.467  1.00  0.00    -0.237 OA
ATOM     62  O   UNL A   1      37.820  33.772  40.616  1.00  0.00    -0.744 OA
ENDBRANCH  55  59
ENDBRANCH  28  52
BRANCH  40  63
ATOM     63  C   UNL A   1      44.765  28.087  35.058  1.00  0.00     0.023 A 
ATOM     64  C   UNL A   1      44.569  26.941  35.844  1.00  0.00     0.031 A 
ATOM     65  C   UNL A   1      46.074  28.537  34.820  1.00  0.00     0.131 A 
ATOM     66  C   UNL A   1      45.678  26.301  36.404  1.00  0.00     0.055 A 
ATOM     67  C   UNL A   1      47.175  27.861  35.332  1.00  0.00     0.041 A 
ATOM     68  F   UNL A   1      46.293  29.639  34.086  1.00  0.00    -0.206 F 
ATOM     69  C   UNL A   1      46.979  26.743  36.138  1.00  0.00     0.022 A 
BRANCH  66  70
ATOM     70  S   UNL A   1      45.396  24.942  37.568  1.00  0.00     0.124 S 
ATOM     71  O   UNL A   1      45.721  25.564  38.848  1.00  0.00    -0.237 OA
ATOM     72  O   UNL A   1      43.987  24.630  37.350  1.00  0.00    -0.237 OA
ATOM     73  O   UNL A   1      46.334  23.913  37.122  1.00  0.00    -0.744 OA
ENDBRANCH  66  70
ENDBRANCH  40  63
ENDBRANCH  14  15
ENDBRANCH   7   9
ENDBRANCH   6   7
ENDBRANCH   5   6
ENDBRANCH   4   5
ENDBRANCH   3   4
ENDBRANCH   2   3
ENDBRANCH   1   2
BRANCH   1  74
ATOM     74  O   UNL A   1      35.070  30.363  27.612  1.00  0.00    -0.376 OA
BRANCH  74  75
ATOM     75  C   UNL A   1      33.958  29.502  27.394  1.00  0.00     0.202 C 
BRANCH  75  76
ATOM     76  C   UNL A   1      32.789  29.996  26.528  1.00  0.00     0.261 C 
BRANCH  76  77
ATOM     77  O   UNL A   1      31.808  29.012  26.192  1.00  0.00    -0.463 OA
BRANCH  77  78
ATOM     78  C   UNL A   1      31.391  28.976  24.892  1.00  0.00     0.309 C 
ATOM     79  O   UNL A   1      30.740  29.851  24.320  1.00  0.00    -0.252 OA
BRANCH  78  80
ATOM     80  C   UNL A   1      31.860  27.682  24.250  1.00  0.00     0.111 C 
ATOM     81  C   UNL A   1      33.352  27.623  23.952  1.00  0.00     0.016 C 
ATOM     82  C   UNL A   1      30.940  27.371  23.065  1.00  0.00     0.093 C 
ATOM     83  C   UNL A   1      33.730  26.418  23.097  1.00  0.00     0.001 C 
ATOM     84  C   UNL A   1      31.452  26.411  21.982  1.00  0.00     0.014 C 
ATOM     85  C   UNL A   1      32.960  26.397  21.789  1.00  0.00     0.001 C 
BRANCH  82  86
ATOM     86  C   UNL A   1      29.617  26.921  23.669  1.00  0.00     0.228 C 
ATOM     87  O   UNL A   1      28.570  27.504  23.375  1.00  0.00    -0.274 OA
ATOM     88  N   UNL A   1      29.568  25.915  24.600  1.00  0.00    -0.326 N 
ATOM     89  H   UNL A   1      28.796  25.915  25.209  1.00  0.00     0.169 HD
BRANCH  88  90
ATOM     90  C   UNL A   1      30.507  24.882  24.775  1.00  0.00     0.041 A 
ATOM     91  C   UNL A   1      30.576  23.952  23.765  1.00  0.00     0.028 A 
ATOM     92  C   UNL A   1      31.250  24.635  25.929  1.00  0.00     0.028 A 
ATOM     93  C   UNL A   1      31.315  22.782  23.954  1.00  0.00     0.028 A 
ATOM     94  C   UNL A   1      32.129  23.536  26.008  1.00  0.00     0.028 A 
ATOM     95  C   UNL A   1      32.127  22.555  25.031  1.00  0.00     0.041 A 
BRANCH  95  96
ATOM     96  N   UNL A   1      32.762  21.321  25.245  1.00  0.00    -0.319 N 
ATOM     97  C   UNL A   1      33.986  20.797  24.832  1.00  0.00     0.291 C 
ATOM     98  H   UNL A   1      32.236  20.700  25.799  1.00  0.00     0.170 HD
ATOM     99  O   UNL A   1      34.079  19.569  24.917  1.00  0.00    -0.265 OA
BRANCH  97 100
ATOM    100  C   UNL A   1      35.113  21.622  24.433  1.00  0.00     0.191 A 
ATOM    101  C   UNL A   1      35.226  22.754  23.638  1.00  0.00     0.056 A 
ATOM    102  O   UNL A   1      36.350  21.333  24.955  1.00  0.00    -0.459 OA
ATOM    103  C   UNL A   1      36.590  23.153  23.669  1.00  0.00     0.043 A 
ATOM    104  C   UNL A   1      37.233  22.247  24.476  1.00  0.00     0.196 A 
ENDBRANCH  97 100
ENDBRANCH  95  96
ENDBRANCH  88  90
ENDBRANCH  82  86
ENDBRANCH  78  80
ENDBRANCH  77  78
ENDBRANCH  76  77
ENDBRANCH  75  76
ENDBRANCH  74  75
ENDBRANCH   1  74
TORSDOF 24
ENDMDL
MODEL 3
REMARK VINA RESULT:     -10.2      8.199     10.896
REMARK SMILES O=C(OCCOCCOCCOC(=O)[C@@H]1CCCC[C@H]1C(=O)Nc1ccc(NC(=O)c2ccco2)cc1)c1ccc(-c2c3nc(c(-c4cc(S(=O)(=O)[O-])ccc4F)c4ccc([nH]4)c(-c4cc(S(=O)(=O)[O-])ccc4F)c4nc(c(-c5cc(S(=O)(=O)[O-])ccc5F)c5ccc2[nH]5)C=C4)C=C3)cc1
REMARK SMILES IDX 8 1 7 2 6 3 5 4 4 5 3 6 2 7 1 8 38 9 39 10 100 11 40 12
REMARK SMILES IDX 99 13 41 14 42 15 43 16 93 17 44 18 98 19 92 20 94 21 45 22
REMARK SMILES IDX 97 23 91 24 90 25 46 27 78 28 58 29 77 30 59 31 62 32 76 33
REMARK SMILES IDX 95 34 60 35 61 36 75 38 96 39 63 40 47 41 48 42 56 43 49 44
REMARK SMILES IDX 55 45 57 46 54 47 50 48 51 49 52 50 53 51 79 52 80 53 88 54
REMARK SMILES IDX 81 55 87 56 89 57 86 58 82 59 83 60 84 61 85 62 64 63 65 64
REMARK SMILES IDX 73 65 66 66 72 67 74 68 71 69 67 70 68 71 69 72 70 73 9 74
REMARK SMILES IDX 10 75 11 76 12 77 13 78 14 79 15 80 16 81 20 82 17 83 19 84
REMARK SMILES IDX 18 85 21 86 22 87 23 88 24 90 25 91 37 92 26 93 36 94 27 95
REMARK SMILES IDX 28 96 29 97 30 99 31 100 32 101 35 102 33 103 34 104
REMARK H PARENT 94 26 62 37 23 89 28 98
REMARK Flexibility Score: inf
ROOT
ATOM      1  C   UNL A   1      34.142  32.291  28.159  1.00  0.00     0.188 C 
ENDROOT
BRANCH   1   2
ATOM      2  C   UNL A   1      35.305  33.264  27.998  1.00  0.00     0.188 C 
BRANCH   2   3
ATOM      3  O   UNL A   1      35.243  34.424  28.826  1.00  0.00    -0.376 OA
BRANCH   3   4
ATOM      4  C   UNL A   1      34.581  34.207  30.080  1.00  0.00     0.202 C 
BRANCH   4   5
ATOM      5  C   UNL A   1      35.465  34.234  31.351  1.00  0.00     0.261 C 
BRANCH   5   6
ATOM      6  O   UNL A   1      36.712  33.514  31.256  1.00  0.00    -0.460 OA
BRANCH   6   7
ATOM      7  C   UNL A   1      37.921  33.791  31.809  1.00  0.00     0.338 C 
ATOM      8  O   UNL A   1      38.039  33.739  33.033  1.00  0.00    -0.246 OA
BRANCH   7   9
ATOM      9  C   UNL A   1      39.113  34.177  31.000  1.00  0.00     0.060 A 
ATOM     10  C   UNL A   1      39.054  34.558  29.663  1.00  0.00     0.016 A 
ATOM     11  C   UNL A   1      40.361  34.223  31.621  1.00  0.00     0.016 A 
ATOM     12  C   UNL A   1      40.179  34.829  28.897  1.00  0.00     0.010 A 
ATOM     13  C   UNL A   1      41.495  34.597  30.882  1.00  0.00     0.010 A 
ATOM     14  C   UNL A   1      41.420  34.882  29.491  1.00  0.00    -0.014 A 
BRANCH  14  15
ATOM     15  C   UNL A   1      42.656  35.077  28.671  1.00  0.00     0.031 A 
ATOM     16  C   UNL A   1      43.599  33.907  28.716  1.00  0.00     0.074 A 
ATOM     17  C   UNL A   1      42.912  36.168  27.895  1.00  0.00     0.049 A 
ATOM     18  N   UNL A   1      44.859  33.845  28.413  1.00  0.00    -0.248 NA
ATOM     19  C   UNL A   1      43.022  32.611  29.148  1.00  0.00     0.031 C 
ATOM     20  C   UNL A   1      41.942  37.187  27.471  1.00  0.00     0.029 A 
ATOM     21  N   UNL A   1      44.091  36.666  27.359  1.00  0.00    -0.354 N 
ATOM     22  C   UNL A   1      45.203  32.506  28.556  1.00  0.00     0.074 A 
ATOM     23  C   UNL A   1      44.077  31.815  29.129  1.00  0.00     0.031 C 
ATOM     24  C   UNL A   1      42.577  38.235  26.902  1.00  0.00     0.029 A 
ATOM     25  C   UNL A   1      44.005  38.013  26.964  1.00  0.00     0.049 A 
ATOM     26  H   UNL A   1      44.909  36.128  27.265  1.00  0.00     0.167 HD
ATOM     27  C   UNL A   1      46.339  31.907  28.136  1.00  0.00     0.034 A 
ATOM     28  C   UNL A   1      44.982  38.945  26.779  1.00  0.00     0.034 A 
ATOM     29  C   UNL A   1      47.417  32.679  27.583  1.00  0.00     0.049 A 
ATOM     30  C   UNL A   1      46.345  38.308  26.652  1.00  0.00     0.074 A 
ATOM     31  C   UNL A   1      48.642  32.260  27.114  1.00  0.00     0.029 A 
ATOM     32  N   UNL A   1      47.380  34.069  27.442  1.00  0.00    -0.354 N 
ATOM     33  N   UNL A   1      46.701  37.065  26.906  1.00  0.00    -0.248 NA
ATOM     34  C   UNL A   1      47.408  39.147  26.104  1.00  0.00     0.031 C 
ATOM     35  C   UNL A   1      49.365  33.400  26.743  1.00  0.00     0.029 A 
ATOM     36  C   UNL A   1      48.562  34.525  26.899  1.00  0.00     0.049 A 
ATOM     37  H   UNL A   1      46.618  34.640  27.695  1.00  0.00     0.167 HD
ATOM     38  C   UNL A   1      48.033  36.967  26.546  1.00  0.00     0.074 A 
ATOM     39  C   UNL A   1      48.411  38.282  26.050  1.00  0.00     0.031 C 
ATOM     40  C   UNL A   1      48.871  35.896  26.562  1.00  0.00     0.034 A 
BRANCH  27  41
ATOM     41  C   UNL A   1      46.414  30.405  28.265  1.00  0.00     0.023 A 
ATOM     42  C   UNL A   1      45.985  29.559  27.221  1.00  0.00     0.031 A 
ATOM     43  C   UNL A   1      46.826  29.804  29.463  1.00  0.00     0.131 A 
ATOM     44  C   UNL A   1      45.897  28.172  27.425  1.00  0.00     0.055 A 
ATOM     45  C   UNL A   1      46.812  28.417  29.633  1.00  0.00     0.041 A 
ATOM     46  F   UNL A   1      47.210  30.555  30.508  1.00  0.00    -0.206 F 
ATOM     47  C   UNL A   1      46.333  27.593  28.616  1.00  0.00     0.022 A 
BRANCH  44  48
ATOM     48  S   UNL A   1      45.059  27.157  26.173  1.00  0.00     0.124 S 
ATOM     49  O   UNL A   1      43.714  27.041  26.736  1.00  0.00    -0.237 OA
ATOM     50  O   UNL A   1      45.177  27.970  24.969  1.00  0.00    -0.237 OA
ATOM     51  O   UNL A   1      45.830  25.915  26.165  1.00  0.00    -0.744 OA
ENDBRANCH  44  48
ENDBRANCH  27  41
BRANCH  28  52
ATOM     52  C   UNL A   1      44.816  40.478  26.699  1.00  0.00     0.023 A 
ATOM     53  C   UNL A   1      44.536  41.174  25.516  1.00  0.00     0.031 A 
ATOM     54  C   UNL A   1      45.122  41.346  27.777  1.00  0.00     0.131 A 
ATOM     55  C   UNL A   1      44.528  42.605  25.496  1.00  0.00     0.055 A 
ATOM     56  C   UNL A   1      44.953  42.734  27.808  1.00  0.00     0.041 A 
ATOM     57  F   UNL A   1      45.730  40.915  28.870  1.00  0.00    -0.206 F 
ATOM     58  C   UNL A   1      44.652  43.384  26.645  1.00  0.00     0.022 A 
BRANCH  55  59
ATOM     59  S   UNL A   1      44.632  43.478  23.907  1.00  0.00     0.124 S 
ATOM     60  O   UNL A   1      43.468  44.354  23.988  1.00  0.00    -0.237 OA
ATOM     61  O   UNL A   1      45.937  44.116  24.005  1.00  0.00    -0.237 OA
ATOM     62  O   UNL A   1      44.532  42.405  22.918  1.00  0.00    -0.744 OA
ENDBRANCH  55  59
ENDBRANCH  28  52
BRANCH  40  63
ATOM     63  C   UNL A   1      50.256  36.174  26.066  1.00  0.00     0.023 A 
ATOM     64  C   UNL A   1      51.317  36.380  26.962  1.00  0.00     0.031 A 
ATOM     65  C   UNL A   1      50.499  36.264  24.686  1.00  0.00     0.131 A 
ATOM     66  C   UNL A   1      52.578  36.711  26.460  1.00  0.00     0.055 A 
ATOM     67  C   UNL A   1      51.770  36.535  24.193  1.00  0.00     0.041 A 
ATOM     68  F   UNL A   1      49.503  36.087  23.805  1.00  0.00    -0.206 F 
ATOM     69  C   UNL A   1      52.815  36.772  25.082  1.00  0.00     0.022 A 
BRANCH  66  70
ATOM     70  S   UNL A   1      53.884  37.160  27.631  1.00  0.00     0.124 S 
ATOM     71  O   UNL A   1      54.817  37.895  26.781  1.00  0.00    -0.237 OA
ATOM     72  O   UNL A   1      53.160  37.953  28.619  1.00  0.00    -0.237 OA
ATOM     73  O   UNL A   1      54.370  35.868  28.110  1.00  0.00    -0.744 OA
ENDBRANCH  66  70
ENDBRANCH  40  63
ENDBRANCH  14  15
ENDBRANCH   7   9
ENDBRANCH   6   7
ENDBRANCH   5   6
ENDBRANCH   4   5
ENDBRANCH   3   4
ENDBRANCH   2   3
ENDBRANCH   1   2
BRANCH   1  74
ATOM     74  O   UNL A   1      34.059  31.193  27.260  1.00  0.00    -0.376 OA
BRANCH  74  75
ATOM     75  C   UNL A   1      32.859  30.428  27.260  1.00  0.00     0.202 C 
BRANCH  75  76
ATOM     76  C   UNL A   1      32.885  28.998  26.698  1.00  0.00     0.261 C 
BRANCH  76  77
ATOM     77  O   UNL A   1      31.641  28.510  26.190  1.00  0.00    -0.463 OA
BRANCH  77  78
ATOM     78  C   UNL A   1      31.431  28.636  24.846  1.00  0.00     0.309 C 
ATOM     79  O   UNL A   1      30.955  29.621  24.281  1.00  0.00    -0.252 OA
BRANCH  78  80
ATOM     80  C   UNL A   1      31.880  27.365  24.146  1.00  0.00     0.111 C 
ATOM     81  C   UNL A   1      33.344  27.354  23.725  1.00  0.00     0.016 C 
ATOM     82  C   UNL A   1      30.874  27.044  23.038  1.00  0.00     0.093 C 
ATOM     83  C   UNL A   1      33.683  26.172  22.822  1.00  0.00     0.001 C 
ATOM     84  C   UNL A   1      31.321  26.114  21.900  1.00  0.00     0.014 C 
ATOM     85  C   UNL A   1      32.808  26.147  21.583  1.00  0.00     0.001 C 
BRANCH  82  86
ATOM     86  C   UNL A   1      29.619  26.547  23.741  1.00  0.00     0.228 C 
ATOM     87  O   UNL A   1      28.530  27.082  23.519  1.00  0.00    -0.274 OA
ATOM     88  N   UNL A   1      29.681  25.552  24.683  1.00  0.00    -0.326 N 
ATOM     89  H   UNL A   1      28.956  25.528  25.347  1.00  0.00     0.169 HD
BRANCH  88  90
ATOM     90  C   UNL A   1      30.674  24.562  24.799  1.00  0.00     0.041 A 
ATOM     91  C   UNL A   1      30.774  23.682  23.748  1.00  0.00     0.028 A 
ATOM     92  C   UNL A   1      31.445  24.302  25.930  1.00  0.00     0.028 A 
ATOM     93  C   UNL A   1      31.573  22.544  23.873  1.00  0.00     0.028 A 
ATOM     94  C   UNL A   1      32.380  23.246  25.948  1.00  0.00     0.028 A 
ATOM     95  C   UNL A   1      32.413  22.311  24.929  1.00  0.00     0.041 A 
BRANCH  95  96
ATOM     96  N   UNL A   1      33.112  21.102  25.078  1.00  0.00    -0.319 N 
ATOM     97  C   UNL A   1      34.427  20.726  24.812  1.00  0.00     0.291 C 
ATOM     98  H   UNL A   1      32.562  20.374  25.446  1.00  0.00     0.170 HD
ATOM     99  O   UNL A   1      34.613  19.507  24.744  1.00  0.00    -0.265 OA
BRANCH  97 100
ATOM    100  C   UNL A   1      35.526  21.672  24.723  1.00  0.00     0.191 A 
ATOM    101  C   UNL A   1      35.904  22.600  23.764  1.00  0.00     0.056 A 
ATOM    102  O   UNL A   1      36.377  21.784  25.795  1.00  0.00    -0.459 OA
ATOM    103  C   UNL A   1      37.040  23.288  24.271  1.00  0.00     0.043 A 
ATOM    104  C   UNL A   1      37.294  22.744  25.507  1.00  0.00     0.196 A 
ENDBRANCH  97 100
ENDBRANCH  95  96
ENDBRANCH  88  90
ENDBRANCH  82  86
ENDBRANCH  78  80
ENDBRANCH  77  78
ENDBRANCH  76  77
ENDBRANCH  75  76
ENDBRANCH  74  75
ENDBRANCH   1  74
TORSDOF 24
ENDMDL
