MODEL 1
REMARK VINA RESULT:     -10.7      0.000      0.000
REMARK SMILES CC[C@@](C)(NC(=O)c1cc(C)c(Br)s1)C(=O)OCCOCCOCCOC(=O)c1ccc(-c2c3nc(c(-c4cc(S(=O)(=O)[O-])ccc4F)c4ccc([nH]4)c(-c4cc(S(=O)(=O)[O-])ccc4F)c4nc(c(-c5cc(S(=O)(=O)[O-])ccc5F)c5ccc2[nH]5)C=C4)C=C3)cc1
REMARK SMILES IDX 22 1 21 2 20 3 19 4 18 5 17 6 15 7 16 8 3 9 4 10 2 11 1 12
REMARK SMILES IDX 5 13 6 14 7 16 8 17 9 18 14 19 10 20 12 21 11 22 13 23 23 24
REMARK SMILES IDX 24 25 25 26 26 27 27 28 28 29 29 30 30 31 91 32 31 33 90 34
REMARK SMILES IDX 32 35 33 36 34 37 84 38 35 39 89 40 83 41 85 42 36 43 88 44
REMARK SMILES IDX 82 45 81 46 37 48 69 49 49 50 68 51 50 52 53 53 67 54 86 55
REMARK SMILES IDX 51 56 52 57 66 59 87 60 54 61 38 62 39 63 47 64 40 65 46 66
REMARK SMILES IDX 48 67 45 68 41 69 42 70 43 71 44 72 70 73 71 74 79 75 72 76
REMARK SMILES IDX 78 77 80 78 77 79 73 80 74 81 75 82 76 83 55 84 56 85 64 86
REMARK SMILES IDX 57 87 63 88 65 89 62 90 58 91 59 92 60 93 61 94
REMARK H PARENT 5 15 85 47 53 58
REMARK Flexibility Score: inf
ROOT
ATOM      1  C   UNL A   1      40.088  21.511  26.707  1.00  0.00     0.188 C 
ENDROOT
BRANCH   1   2
ATOM      2  C   UNL A   1      39.007  21.010  25.735  1.00  0.00     0.188 C 
BRANCH   2   3
ATOM      3  O   UNL A   1      37.991  21.978  25.495  1.00  0.00    -0.376 OA
BRANCH   3   4
ATOM      4  C   UNL A   1      37.224  21.819  24.298  1.00  0.00     0.202 C 
BRANCH   4   5
ATOM      5  C   UNL A   1      36.597  23.063  23.627  1.00  0.00     0.261 C 
BRANCH   5   6
ATOM      6  O   UNL A   1      35.365  23.421  24.241  1.00  0.00    -0.462 OA
BRANCH   6   7
ATOM      7  C   UNL A   1      34.223  23.339  23.527  1.00  0.00     0.331 C 
ATOM      8  O   UNL A   1      34.123  23.671  22.353  1.00  0.00    -0.249 OA
BRANCH   7   9
ATOM      9  C   UNL A   1      33.104  22.658  24.363  1.00  0.00     0.135 C 
ATOM     10  C   UNL A   1      31.836  22.544  23.509  1.00  0.00     0.047 C 
BRANCH   9  11
ATOM     11  C   UNL A   1      33.560  21.170  24.710  1.00  0.00     0.037 C 
ATOM     12  C   UNL A   1      32.561  20.030  24.491  1.00  0.00     0.007 C 
ENDBRANCH   9  11
BRANCH   9  13
ATOM     13  N   UNL A   1      32.748  23.327  25.675  1.00  0.00    -0.336 N 
ATOM     14  C   UNL A   1      31.686  24.106  26.135  1.00  0.00     0.262 C 
ATOM     15  H   UNL A   1      33.429  23.174  26.370  1.00  0.00     0.165 HD
ATOM     16  O   UNL A   1      31.160  23.691  27.175  1.00  0.00    -0.268 OA
BRANCH  14  17
ATOM     17  C   UNL A   1      31.354  25.431  25.599  1.00  0.00     0.093 A 
ATOM     18  C   UNL A   1      30.410  25.895  24.690  1.00  0.00     0.030 A 
ATOM     19  S   UNL A   1      31.973  26.809  26.424  1.00  0.00    -0.123 S 
ATOM     20  C   UNL A   1      30.495  27.333  24.448  1.00  0.00    -0.025 A 
ATOM     21  C   UNL A   1      31.475  27.882  25.242  1.00  0.00     0.074 A 
ATOM     22  C   UNL A   1      29.664  28.115  23.494  1.00  0.00     0.046 C 
ATOM     23  Br  UNL A   1      32.092  29.655  25.161  1.00  0.00    -0.039 Br
ENDBRANCH  14  17
ENDBRANCH   9  13
ENDBRANCH   7   9
ENDBRANCH   6   7
ENDBRANCH   5   6
ENDBRANCH   4   5
ENDBRANCH   3   4
ENDBRANCH   2   3
ENDBRANCH   1   2
BRANCH   1  24
ATOM     24  O   UNL A   1      40.792  22.637  26.199  1.00  0.00    -0.376 OA
BRANCH  24  25
ATOM     25  C   UNL A   1      42.134  22.885  26.646  1.00  0.00     0.202 C 
BRANCH  25  26
ATOM     26  C   UNL A   1      42.683  24.290  26.299  1.00  0.00     0.261 C 
BRANCH  26  27
ATOM     27  O   UNL A   1      41.949  25.301  26.960  1.00  0.00    -0.460 OA
BRANCH  27  28
ATOM     28  C   UNL A   1      41.713  26.330  26.142  1.00  0.00     0.338 C 
ATOM     29  O   UNL A   1      42.287  26.588  25.075  1.00  0.00    -0.246 OA
BRANCH  28  30
ATOM     30  C   UNL A   1      40.557  27.060  26.626  1.00  0.00     0.060 A 
ATOM     31  C   UNL A   1      40.611  28.424  26.358  1.00  0.00     0.016 A 
ATOM     32  C   UNL A   1      39.847  26.486  27.685  1.00  0.00     0.016 A 
ATOM     33  C   UNL A   1      40.410  29.228  27.430  1.00  0.00     0.010 A 
ATOM     34  C   UNL A   1      39.641  27.293  28.759  1.00  0.00     0.010 A 
ATOM     35  C   UNL A   1      40.072  28.610  28.641  1.00  0.00    -0.014 A 
BRANCH  35  36
ATOM     36  C   UNL A   1      40.145  29.437  29.805  1.00  0.00     0.031 A 
ATOM     37  C   UNL A   1      38.935  30.256  29.909  1.00  0.00     0.074 A 
ATOM     38  C   UNL A   1      41.201  29.405  30.628  1.00  0.00     0.049 A 
ATOM     39  N   UNL A   1      38.816  31.502  29.607  1.00  0.00    -0.248 NA
ATOM     40  C   UNL A   1      37.659  29.533  30.045  1.00  0.00     0.031 C 
ATOM     41  C   UNL A   1      42.300  28.439  30.683  1.00  0.00     0.029 A 
ATOM     42  N   UNL A   1      41.443  30.204  31.690  1.00  0.00    -0.354 N 
ATOM     43  C   UNL A   1      37.473  31.773  29.802  1.00  0.00     0.074 A 
ATOM     44  C   UNL A   1      36.798  30.507  29.757  1.00  0.00     0.031 C 
ATOM     45  C   UNL A   1      42.927  28.562  31.876  1.00  0.00     0.029 A 
ATOM     46  C   UNL A   1      42.350  29.686  32.599  1.00  0.00     0.049 A 
ATOM     47  H   UNL A   1      41.011  31.082  31.807  1.00  0.00     0.167 HD
ATOM     48  C   UNL A   1      37.090  32.959  30.336  1.00  0.00     0.034 A 
ATOM     49  C   UNL A   1      42.489  30.096  33.887  1.00  0.00     0.034 A 
ATOM     50  C   UNL A   1      38.131  33.955  30.175  1.00  0.00     0.049 A 
ATOM     51  C   UNL A   1      41.892  31.463  33.967  1.00  0.00     0.074 A 
ATOM     52  C   UNL A   1      38.796  34.468  29.076  1.00  0.00     0.029 A 
ATOM     53  N   UNL A   1      38.927  34.251  31.262  1.00  0.00    -0.354 N 
ATOM     54  N   UNL A   1      42.387  32.498  33.339  1.00  0.00    -0.248 NA
ATOM     55  C   UNL A   1      40.477  31.577  34.303  1.00  0.00     0.031 C 
ATOM     56  C   UNL A   1      40.152  34.614  29.492  1.00  0.00     0.029 A 
ATOM     57  C   UNL A   1      40.238  34.263  30.842  1.00  0.00     0.049 A 
ATOM     58  H   UNL A   1      38.613  34.424  32.179  1.00  0.00     0.167 HD
ATOM     59  C   UNL A   1      41.289  33.181  32.831  1.00  0.00     0.074 A 
ATOM     60  C   UNL A   1      40.138  32.622  33.538  1.00  0.00     0.031 C 
ATOM     61  C   UNL A   1      41.376  33.915  31.679  1.00  0.00     0.034 A 
BRANCH  48  62
ATOM     62  C   UNL A   1      35.969  33.074  31.342  1.00  0.00     0.023 A 
ATOM     63  C   UNL A   1      34.901  33.911  30.994  1.00  0.00     0.031 A 
ATOM     64  C   UNL A   1      36.000  32.645  32.694  1.00  0.00     0.131 A 
ATOM     65  C   UNL A   1      33.997  34.362  31.968  1.00  0.00     0.055 A 
ATOM     66  C   UNL A   1      35.059  33.043  33.643  1.00  0.00     0.041 A 
ATOM     67  F   UNL A   1      36.978  31.897  33.214  1.00  0.00    -0.206 F 
ATOM     68  C   UNL A   1      34.066  33.934  33.291  1.00  0.00     0.022 A 
BRANCH  65  69
ATOM     69  S   UNL A   1      32.830  35.659  31.503  1.00  0.00     0.124 S 
ATOM     70  O   UNL A   1      32.532  35.300  30.121  1.00  0.00    -0.237 OA
ATOM     71  O   UNL A   1      31.757  35.452  32.470  1.00  0.00    -0.237 OA
ATOM     72  O   UNL A   1      33.604  36.885  31.679  1.00  0.00    -0.744 OA
ENDBRANCH  65  69
ENDBRANCH  48  62
BRANCH  49  73
ATOM     73  C   UNL A   1      42.722  29.214  35.064  1.00  0.00     0.023 A 
ATOM     74  C   UNL A   1      41.921  28.088  35.336  1.00  0.00     0.031 A 
ATOM     75  C   UNL A   1      43.902  29.350  35.836  1.00  0.00     0.131 A 
ATOM     76  C   UNL A   1      42.301  27.167  36.342  1.00  0.00     0.055 A 
ATOM     77  C   UNL A   1      44.266  28.445  36.835  1.00  0.00     0.041 A 
ATOM     78  F   UNL A   1      44.792  30.323  35.588  1.00  0.00    -0.206 F 
ATOM     79  C   UNL A   1      43.470  27.343  37.088  1.00  0.00     0.022 A 
BRANCH  76  80
ATOM     80  S   UNL A   1      41.318  25.662  36.633  1.00  0.00     0.124 S 
ATOM     81  O   UNL A   1      42.350  24.656  36.852  1.00  0.00    -0.237 OA
ATOM     82  O   UNL A   1      40.515  26.032  37.792  1.00  0.00    -0.237 OA
ATOM     83  O   UNL A   1      40.560  25.505  35.391  1.00  0.00    -0.744 OA
ENDBRANCH  76  80
ENDBRANCH  49  73
BRANCH  61  84
ATOM     84  C   UNL A   1      42.758  34.214  31.118  1.00  0.00     0.023 A 
ATOM     85  C   UNL A   1      43.387  33.494  30.074  1.00  0.00     0.031 A 
ATOM     86  C   UNL A   1      43.410  35.366  31.593  1.00  0.00     0.131 A 
ATOM     87  C   UNL A   1      44.625  33.934  29.558  1.00  0.00     0.055 A 
ATOM     88  C   UNL A   1      44.622  35.809  31.065  1.00  0.00     0.041 A 
ATOM     89  F   UNL A   1      42.856  36.109  32.565  1.00  0.00    -0.206 F 
ATOM     90  C   UNL A   1      45.239  35.090  30.049  1.00  0.00     0.022 A 
BRANCH  87  91
ATOM     91  S   UNL A   1      45.479  32.997  28.247  1.00  0.00     0.124 S 
ATOM     92  O   UNL A   1      44.460  32.845  27.217  1.00  0.00    -0.237 OA
ATOM     93  O   UNL A   1      46.600  33.872  27.918  1.00  0.00    -0.237 OA
ATOM     94  O   UNL A   1      45.860  31.750  28.914  1.00  0.00    -0.744 OA
ENDBRANCH  87  91
ENDBRANCH  61  84
ENDBRANCH  35  36
ENDBRANCH  28  30
ENDBRANCH  27  28
ENDBRANCH  26  27
ENDBRANCH  25  26
ENDBRANCH  24  25
ENDBRANCH   1  24
TORSDOF 23
ENDMDL
MODEL 2
REMARK VINA RESULT:     -10.1      1.727      2.337
REMARK SMILES CC[C@@](C)(NC(=O)c1cc(C)c(Br)s1)C(=O)OCCOCCOCCOC(=O)c1ccc(-c2c3nc(c(-c4cc(S(=O)(=O)[O-])ccc4F)c4ccc([nH]4)c(-c4cc(S(=O)(=O)[O-])ccc4F)c4nc(c(-c5cc(S(=O)(=O)[O-])ccc5F)c5ccc2[nH]5)C=C4)C=C3)cc1
REMARK SMILES IDX 22 1 21 2 20 3 19 4 18 5 17 6 15 7 16 8 3 9 4 10 2 11 1 12
REMARK SMILES IDX 5 13 6 14 7 16 8 17 9 18 14 19 10 20 12 21 11 22 13 23 23 24
REMARK SMILES IDX 24 25 25 26 26 27 27 28 28 29 29 30 30 31 91 32 31 33 90 34
REMARK SMILES IDX 32 35 33 36 34 37 84 38 35 39 89 40 83 41 85 42 36 43 88 44
REMARK SMILES IDX 82 45 81 46 37 48 69 49 49 50 68 51 50 52 53 53 67 54 86 55
REMARK SMILES IDX 51 56 52 57 66 59 87 60 54 61 38 62 39 63 47 64 40 65 46 66
REMARK SMILES IDX 48 67 45 68 41 69 42 70 43 71 44 72 70 73 71 74 79 75 72 76
REMARK SMILES IDX 78 77 80 78 77 79 73 80 74 81 75 82 76 83 55 84 56 85 64 86
REMARK SMILES IDX 57 87 63 88 65 89 62 90 58 91 59 92 60 93 61 94
REMARK H PARENT 5 15 85 47 53 58
REMARK Flexibility Score: inf
ROOT
ATOM      1  C   UNL A   1      37.963  22.719  25.813  1.00  0.00     0.188 C 
ENDROOT
BRANCH   1   2
ATOM      2  C   UNL A   1      37.041  21.814  24.979  1.00  0.00     0.188 C 
BRANCH   2   3
ATOM      3  O   UNL A   1      35.945  21.303  25.732  1.00  0.00    -0.376 OA
BRANCH   3   4
ATOM      4  C   UNL A   1      34.649  21.806  25.399  1.00  0.00     0.202 C 
BRANCH   4   5
ATOM      5  C   UNL A   1      33.717  20.966  24.495  1.00  0.00     0.261 C 
BRANCH   5   6
ATOM      6  O   UNL A   1      33.144  21.755  23.460  1.00  0.00    -0.462 OA
BRANCH   6   7
ATOM      7  C   UNL A   1      33.717  22.931  23.133  1.00  0.00     0.331 C 
ATOM      8  O   UNL A   1      34.852  23.041  22.687  1.00  0.00    -0.249 OA
BRANCH   7   9
ATOM      9  C   UNL A   1      32.700  24.096  23.285  1.00  0.00     0.135 C 
ATOM     10  C   UNL A   1      31.277  23.524  23.302  1.00  0.00     0.047 C 
BRANCH   9  11
ATOM     11  C   UNL A   1      32.932  24.794  24.700  1.00  0.00     0.037 C 
ATOM     12  C   UNL A   1      34.289  25.446  24.978  1.00  0.00     0.007 C 
ENDBRANCH   9  11
BRANCH   9  13
ATOM     13  N   UNL A   1      32.772  25.188  22.237  1.00  0.00    -0.336 N 
ATOM     14  C   UNL A   1      32.639  26.577  22.243  1.00  0.00     0.262 C 
ATOM     15  H   UNL A   1      32.961  24.833  21.339  1.00  0.00     0.165 HD
ATOM     16  O   UNL A   1      33.584  27.184  21.725  1.00  0.00    -0.268 OA
BRANCH  14  17
ATOM     17  C   UNL A   1      31.398  27.277  22.598  1.00  0.00     0.093 A 
ATOM     18  C   UNL A   1      30.123  26.856  22.956  1.00  0.00     0.030 A 
ATOM     19  S   UNL A   1      31.505  28.948  22.997  1.00  0.00    -0.123 S 
ATOM     20  C   UNL A   1      29.193  27.958  23.187  1.00  0.00    -0.025 A 
ATOM     21  C   UNL A   1      29.846  29.158  23.042  1.00  0.00     0.074 A 
ATOM     22  C   UNL A   1      27.750  27.833  23.529  1.00  0.00     0.046 C 
ATOM     23  Br  UNL A   1      29.044  30.857  23.054  1.00  0.00    -0.039 Br
ENDBRANCH  14  17
ENDBRANCH   9  13
ENDBRANCH   7   9
ENDBRANCH   6   7
ENDBRANCH   5   6
ENDBRANCH   4   5
ENDBRANCH   3   4
ENDBRANCH   2   3
ENDBRANCH   1   2
BRANCH   1  24
ATOM     24  O   UNL A   1      39.215  22.106  26.091  1.00  0.00    -0.376 OA
BRANCH  24  25
ATOM     25  C   UNL A   1      40.053  22.654  27.121  1.00  0.00     0.202 C 
BRANCH  25  26
ATOM     26  C   UNL A   1      41.251  23.489  26.606  1.00  0.00     0.261 C 
BRANCH  26  27
ATOM     27  O   UNL A   1      40.831  24.767  26.174  1.00  0.00    -0.460 OA
BRANCH  27  28
ATOM     28  C   UNL A   1      41.302  25.721  26.982  1.00  0.00     0.338 C 
ATOM     29  O   UNL A   1      42.483  25.924  27.294  1.00  0.00    -0.246 OA
BRANCH  28  30
ATOM     30  C   UNL A   1      40.212  26.604  27.353  1.00  0.00     0.060 A 
ATOM     31  C   UNL A   1      40.363  27.901  26.874  1.00  0.00     0.016 A 
ATOM     32  C   UNL A   1      39.482  26.257  28.494  1.00  0.00     0.016 A 
ATOM     33  C   UNL A   1      40.243  28.875  27.809  1.00  0.00     0.010 A 
ATOM     34  C   UNL A   1      39.357  27.235  29.429  1.00  0.00     0.010 A 
ATOM     35  C   UNL A   1      39.882  28.481  29.103  1.00  0.00    -0.014 A 
BRANCH  35  36
ATOM     36  C   UNL A   1      40.038  29.471  30.123  1.00  0.00     0.031 A 
ATOM     37  C   UNL A   1      38.806  30.254  30.247  1.00  0.00     0.074 A 
ATOM     38  C   UNL A   1      41.177  29.597  30.816  1.00  0.00     0.049 A 
ATOM     39  N   UNL A   1      38.592  31.438  29.788  1.00  0.00    -0.248 NA
ATOM     40  C   UNL A   1      37.591  29.515  30.629  1.00  0.00     0.031 C 
ATOM     41  C   UNL A   1      42.323  28.688  30.881  1.00  0.00     0.029 A 
ATOM     42  N   UNL A   1      41.491  30.550  31.719  1.00  0.00    -0.354 N 
ATOM     43  C   UNL A   1      37.266  31.687  30.094  1.00  0.00     0.074 A 
ATOM     44  C   UNL A   1      36.656  30.405  30.306  1.00  0.00     0.031 C 
ATOM     45  C   UNL A   1      43.068  29.006  31.966  1.00  0.00     0.029 A 
ATOM     46  C   UNL A   1      42.516  30.202  32.583  1.00  0.00     0.049 A 
ATOM     47  H   UNL A   1      41.030  31.420  31.760  1.00  0.00     0.167 HD
ATOM     48  C   UNL A   1      36.883  32.924  30.495  1.00  0.00     0.034 A 
ATOM     49  C   UNL A   1      42.772  30.800  33.776  1.00  0.00     0.034 A 
ATOM     50  C   UNL A   1      37.848  33.922  30.078  1.00  0.00     0.049 A 
ATOM     51  C   UNL A   1      42.118  32.143  33.730  1.00  0.00     0.074 A 
ATOM     52  C   UNL A   1      38.363  34.292  28.848  1.00  0.00     0.029 A 
ATOM     53  N   UNL A   1      38.741  34.401  31.014  1.00  0.00    -0.354 N 
ATOM     54  N   UNL A   1      42.489  33.092  32.909  1.00  0.00    -0.248 NA
ATOM     55  C   UNL A   1      40.745  32.256  34.206  1.00  0.00     0.031 C 
ATOM     56  C   UNL A   1      39.748  34.544  29.082  1.00  0.00     0.029 A 
ATOM     57  C   UNL A   1      39.996  34.398  30.450  1.00  0.00     0.049 A 
ATOM     58  H   UNL A   1      38.519  34.695  31.927  1.00  0.00     0.167 HD
ATOM     59  C   UNL A   1      41.310  33.655  32.438  1.00  0.00     0.074 A 
ATOM     60  C   UNL A   1      40.272  33.165  33.345  1.00  0.00     0.031 C 
ATOM     61  C   UNL A   1      41.235  34.215  31.192  1.00  0.00     0.034 A 
BRANCH  48  62
ATOM     62  C   UNL A   1      35.873  33.146  31.596  1.00  0.00     0.023 A 
ATOM     63  C   UNL A   1      34.801  33.998  31.299  1.00  0.00     0.031 A 
ATOM     64  C   UNL A   1      36.026  32.805  32.965  1.00  0.00     0.131 A 
ATOM     65  C   UNL A   1      34.014  34.544  32.324  1.00  0.00     0.055 A 
ATOM     66  C   UNL A   1      35.198  33.298  33.972  1.00  0.00     0.041 A 
ATOM     67  F   UNL A   1      37.028  32.057  33.436  1.00  0.00    -0.206 F 
ATOM     68  C   UNL A   1      34.203  34.201  33.660  1.00  0.00     0.022 A 
BRANCH  65  69
ATOM     69  S   UNL A   1      32.846  35.851  31.888  1.00  0.00     0.124 S 
ATOM     70  O   UNL A   1      31.630  35.385  32.544  1.00  0.00    -0.237 OA
ATOM     71  O   UNL A   1      33.486  37.026  32.470  1.00  0.00    -0.237 OA
ATOM     72  O   UNL A   1      32.826  35.809  30.428  1.00  0.00    -0.744 OA
ENDBRANCH  65  69
ENDBRANCH  48  62
BRANCH  49  73
ATOM     73  C   UNL A   1      43.176  30.109  35.032  1.00  0.00     0.023 A 
ATOM     74  C   UNL A   1      42.553  28.927  35.478  1.00  0.00     0.031 A 
ATOM     75  C   UNL A   1      44.355  30.496  35.713  1.00  0.00     0.131 A 
ATOM     76  C   UNL A   1      43.101  28.196  36.559  1.00  0.00     0.055 A 
ATOM     77  C   UNL A   1      44.884  29.778  36.787  1.00  0.00     0.041 A 
ATOM     78  F   UNL A   1      45.088  31.543  35.304  1.00  0.00    -0.206 F 
ATOM     79  C   UNL A   1      44.262  28.617  37.211  1.00  0.00     0.022 A 
BRANCH  76  80
ATOM     80  S   UNL A   1      42.352  26.619  37.078  1.00  0.00     0.124 S 
ATOM     81  O   UNL A   1      40.950  26.981  37.244  1.00  0.00    -0.237 OA
ATOM     82  O   UNL A   1      42.668  25.740  35.958  1.00  0.00    -0.237 OA
ATOM     83  O   UNL A   1      43.056  26.299  38.321  1.00  0.00    -0.744 OA
ENDBRANCH  76  80
ENDBRANCH  49  73
BRANCH  61  84
ATOM     84  C   UNL A   1      42.531  34.476  30.440  1.00  0.00     0.023 A 
ATOM     85  C   UNL A   1      43.329  35.638  30.572  1.00  0.00     0.031 A 
ATOM     86  C   UNL A   1      43.034  33.433  29.642  1.00  0.00     0.131 A 
ATOM     87  C   UNL A   1      44.571  35.721  29.907  1.00  0.00     0.055 A 
ATOM     88  C   UNL A   1      44.272  33.510  29.006  1.00  0.00     0.041 A 
ATOM     89  F   UNL A   1      42.339  32.292  29.496  1.00  0.00    -0.206 F 
ATOM     90  C   UNL A   1      45.045  34.658  29.131  1.00  0.00     0.022 A 
BRANCH  87  91
ATOM     91  S   UNL A   1      45.596  37.225  30.021  1.00  0.00     0.124 S 
ATOM     92  O   UNL A   1      44.994  38.124  29.044  1.00  0.00    -0.237 OA
ATOM     93  O   UNL A   1      45.441  37.603  31.422  1.00  0.00    -0.237 OA
ATOM     94  O   UNL A   1      46.935  36.751  29.666  1.00  0.00    -0.744 OA
ENDBRANCH  87  91
ENDBRANCH  61  84
ENDBRANCH  35  36
ENDBRANCH  28  30
ENDBRANCH  27  28
ENDBRANCH  26  27
ENDBRANCH  25  26
ENDBRANCH  24  25
ENDBRANCH   1  24
TORSDOF 23
ENDMDL
MODEL 3
REMARK VINA RESULT:      -9.4      3.875      8.597
REMARK SMILES CC[C@@](C)(NC(=O)c1cc(C)c(Br)s1)C(=O)OCCOCCOCCOC(=O)c1ccc(-c2c3nc(c(-c4cc(S(=O)(=O)[O-])ccc4F)c4ccc([nH]4)c(-c4cc(S(=O)(=O)[O-])ccc4F)c4nc(c(-c5cc(S(=O)(=O)[O-])ccc5F)c5ccc2[nH]5)C=C4)C=C3)cc1
REMARK SMILES IDX 22 1 21 2 20 3 19 4 18 5 17 6 15 7 16 8 3 9 4 10 2 11 1 12
REMARK SMILES IDX 5 13 6 14 7 16 8 17 9 18 14 19 10 20 12 21 11 22 13 23 23 24
REMARK SMILES IDX 24 25 25 26 26 27 27 28 28 29 29 30 30 31 91 32 31 33 90 34
REMARK SMILES IDX 32 35 33 36 34 37 84 38 35 39 89 40 83 41 85 42 36 43 88 44
REMARK SMILES IDX 82 45 81 46 37 48 69 49 49 50 68 51 50 52 53 53 67 54 86 55
REMARK SMILES IDX 51 56 52 57 66 59 87 60 54 61 38 62 39 63 47 64 40 65 46 66
REMARK SMILES IDX 48 67 45 68 41 69 42 70 43 71 44 72 70 73 71 74 79 75 72 76
REMARK SMILES IDX 78 77 80 78 77 79 73 80 74 81 75 82 76 83 55 84 56 85 64 86
REMARK SMILES IDX 57 87 63 88 65 89 62 90 58 91 59 92 60 93 61 94
REMARK H PARENT 5 15 85 47 53 58
REMARK Flexibility Score: inf
ROOT
ATOM      1  C   UNL A   1      32.548  29.976  25.654  1.00  0.00     0.188 C 
ENDROOT
BRANCH   1   2
ATOM      2  C   UNL A   1      31.222  30.563  25.142  1.00  0.00     0.188 C 
BRANCH   2   3
ATOM      3  O   UNL A   1      30.453  29.622  24.400  1.00  0.00    -0.376 OA
BRANCH   3   4
ATOM      4  C   UNL A   1      31.123  28.948  23.331  1.00  0.00     0.202 C 
BRANCH   4   5
ATOM      5  C   UNL A   1      30.376  27.851  22.538  1.00  0.00     0.261 C 
BRANCH   5   6
ATOM      6  O   UNL A   1      30.538  26.572  23.138  1.00  0.00    -0.462 OA
BRANCH   6   7
ATOM      7  C   UNL A   1      31.550  25.777  22.734  1.00  0.00     0.331 C 
ATOM      8  O   UNL A   1      31.821  25.554  21.561  1.00  0.00    -0.249 OA
BRANCH   7   9
ATOM      9  C   UNL A   1      32.384  25.291  23.953  1.00  0.00     0.135 C 
ATOM     10  C   UNL A   1      33.789  25.900  23.877  1.00  0.00     0.047 C 
BRANCH   9  11
ATOM     11  C   UNL A   1      31.711  25.851  25.286  1.00  0.00     0.037 C 
ATOM     12  C   UNL A   1      30.512  25.098  25.869  1.00  0.00     0.007 C 
ENDBRANCH   9  11
BRANCH   9  13
ATOM     13  N   UNL A   1      32.512  23.791  24.120  1.00  0.00    -0.336 N 
ATOM     14  C   UNL A   1      33.085  22.945  25.069  1.00  0.00     0.262 C 
ATOM     15  H   UNL A   1      32.087  23.294  23.383  1.00  0.00     0.165 HD
ATOM     16  O   UNL A   1      32.321  22.080  25.512  1.00  0.00    -0.268 OA
BRANCH  14  17
ATOM     17  C   UNL A   1      34.524  22.899  25.358  1.00  0.00     0.093 A 
ATOM     18  C   UNL A   1      35.440  23.824  25.842  1.00  0.00     0.030 A 
ATOM     19  S   UNL A   1      35.273  21.352  25.463  1.00  0.00    -0.123 S 
ATOM     20  C   UNL A   1      36.802  23.303  25.927  1.00  0.00    -0.025 A 
ATOM     21  C   UNL A   1      36.820  21.982  25.550  1.00  0.00     0.074 A 
ATOM     22  C   UNL A   1      38.009  24.062  26.353  1.00  0.00     0.046 C 
ATOM     23  Br  UNL A   1      38.355  20.925  25.311  1.00  0.00    -0.039 Br
ENDBRANCH  14  17
ENDBRANCH   9  13
ENDBRANCH   7   9
ENDBRANCH   6   7
ENDBRANCH   5   6
ENDBRANCH   4   5
ENDBRANCH   3   4
ENDBRANCH   2   3
ENDBRANCH   1   2
BRANCH   1  24
ATOM     24  O   UNL A   1      32.666  30.057  27.068  1.00  0.00    -0.376 OA
BRANCH  24  25
ATOM     25  C   UNL A   1      33.963  30.252  27.654  1.00  0.00     0.202 C 
BRANCH  25  26
ATOM     26  C   UNL A   1      34.374  31.733  27.840  1.00  0.00     0.261 C 
BRANCH  26  27
ATOM     27  O   UNL A   1      35.777  31.884  27.761  1.00  0.00    -0.460 OA
BRANCH  27  28
ATOM     28  C   UNL A   1      36.386  30.697  27.796  1.00  0.00     0.338 C 
ATOM     29  O   UNL A   1      36.453  29.860  26.885  1.00  0.00    -0.246 OA
BRANCH  28  30
ATOM     30  C   UNL A   1      37.101  30.572  29.052  1.00  0.00     0.060 A 
ATOM     31  C   UNL A   1      38.273  31.321  29.099  1.00  0.00     0.016 A 
ATOM     32  C   UNL A   1      36.870  29.410  29.795  1.00  0.00     0.016 A 
ATOM     33  C   UNL A   1      39.380  30.631  29.465  1.00  0.00     0.010 A 
ATOM     34  C   UNL A   1      37.980  28.721  30.167  1.00  0.00     0.010 A 
ATOM     35  C   UNL A   1      39.207  29.295  29.850  1.00  0.00    -0.014 A 
BRANCH  35  36
ATOM     36  C   UNL A   1      40.400  28.516  29.954  1.00  0.00     0.031 A 
ATOM     37  C   UNL A   1      40.856  28.490  31.346  1.00  0.00     0.074 A 
ATOM     38  C   UNL A   1      40.956  27.929  28.886  1.00  0.00     0.049 A 
ATOM     39  N   UNL A   1      41.819  29.174  31.858  1.00  0.00    -0.248 NA
ATOM     40  C   UNL A   1      39.936  27.895  32.330  1.00  0.00     0.031 C 
ATOM     41  C   UNL A   1      40.401  27.739  27.544  1.00  0.00     0.029 A 
ATOM     42  N   UNL A   1      42.130  27.264  28.828  1.00  0.00    -0.354 N 
ATOM     43  C   UNL A   1      41.787  28.853  33.204  1.00  0.00     0.074 A 
ATOM     44  C   UNL A   1      40.471  28.344  33.463  1.00  0.00     0.031 C 
ATOM     45  C   UNL A   1      41.123  26.788  26.906  1.00  0.00     0.029 A 
ATOM     46  C   UNL A   1      42.247  26.405  27.748  1.00  0.00     0.049 A 
ATOM     47  H   UNL A   1      42.843  27.381  29.497  1.00  0.00     0.167 HD
ATOM     48  C   UNL A   1      42.945  28.700  33.892  1.00  0.00     0.034 A 
ATOM     49  C   UNL A   1      43.134  25.380  27.655  1.00  0.00     0.034 A 
ATOM     50  C   UNL A   1      44.038  29.369  33.216  1.00  0.00     0.049 A 
ATOM     51  C   UNL A   1      44.226  25.670  28.633  1.00  0.00     0.074 A 
ATOM     52  C   UNL A   1      44.251  30.676  32.814  1.00  0.00     0.029 A 
ATOM     53  N   UNL A   1      44.918  28.606  32.477  1.00  0.00    -0.354 N 
ATOM     54  N   UNL A   1      45.036  26.690  28.519  1.00  0.00    -0.248 NA
ATOM     55  C   UNL A   1      44.090  25.152  29.990  1.00  0.00     0.031 C 
ATOM     56  C   UNL A   1      44.887  30.578  31.541  1.00  0.00     0.029 A 
ATOM     57  C   UNL A   1      45.108  29.226  31.264  1.00  0.00     0.049 A 
ATOM     58  H   UNL A   1      45.338  27.764  32.768  1.00  0.00     0.167 HD
ATOM     59  C   UNL A   1      45.169  27.202  29.804  1.00  0.00     0.074 A 
ATOM     60  C   UNL A   1      44.642  26.157  30.680  1.00  0.00     0.031 C 
ATOM     61  C   UNL A   1      45.408  28.532  30.020  1.00  0.00     0.034 A 
BRANCH  48  62
ATOM     62  C   UNL A   1      43.139  27.615  34.925  1.00  0.00     0.023 A 
ATOM     63  C   UNL A   1      43.825  26.467  34.504  1.00  0.00     0.031 A 
ATOM     64  C   UNL A   1      42.482  27.514  36.179  1.00  0.00     0.131 A 
ATOM     65  C   UNL A   1      43.758  25.280  35.249  1.00  0.00     0.055 A 
ATOM     66  C   UNL A   1      42.477  26.350  36.947  1.00  0.00     0.041 A 
ATOM     67  F   UNL A   1      41.731  28.487  36.704  1.00  0.00    -0.206 F 
ATOM     68  C   UNL A   1      43.090  25.211  36.469  1.00  0.00     0.022 A 
BRANCH  65  69
ATOM     69  S   UNL A   1      44.421  23.775  34.502  1.00  0.00     0.124 S 
ATOM     70  O   UNL A   1      43.205  23.000  34.280  1.00  0.00    -0.237 OA
ATOM     71  O   UNL A   1      45.077  24.302  33.310  1.00  0.00    -0.237 OA
ATOM     72  O   UNL A   1      45.317  23.256  35.532  1.00  0.00    -0.744 OA
ENDBRANCH  65  69
ENDBRANCH  48  62
BRANCH  49  73
ATOM     73  C   UNL A   1      42.855  24.032  27.087  1.00  0.00     0.023 A 
ATOM     74  C   UNL A   1      43.765  23.363  26.245  1.00  0.00     0.031 A 
ATOM     75  C   UNL A   1      41.753  23.274  27.553  1.00  0.00     0.131 A 
ATOM     76  C   UNL A   1      43.552  22.008  25.896  1.00  0.00     0.055 A 
ATOM     77  C   UNL A   1      41.541  21.941  27.196  1.00  0.00     0.041 A 
ATOM     78  F   UNL A   1      40.885  23.776  28.444  1.00  0.00    -0.206 F 
ATOM     79  C   UNL A   1      42.446  21.298  26.370  1.00  0.00     0.022 A 
BRANCH  76  80
ATOM     80  S   UNL A   1      44.774  21.114  24.885  1.00  0.00     0.124 S 
ATOM     81  O   UNL A   1      44.473  21.592  23.541  1.00  0.00    -0.237 OA
ATOM     82  O   UNL A   1      46.039  21.553  25.463  1.00  0.00    -0.237 OA
ATOM     83  O   UNL A   1      44.451  19.707  25.124  1.00  0.00    -0.744 OA
ENDBRANCH  76  80
ENDBRANCH  49  73
BRANCH  61  84
ATOM     84  C   UNL A   1      45.818  29.393  28.835  1.00  0.00     0.023 A 
ATOM     85  C   UNL A   1      45.036  30.429  28.271  1.00  0.00     0.031 A 
ATOM     86  C   UNL A   1      47.123  29.223  28.337  1.00  0.00     0.131 A 
ATOM     87  C   UNL A   1      45.568  31.236  27.243  1.00  0.00     0.055 A 
ATOM     88  C   UNL A   1      47.652  30.039  27.337  1.00  0.00     0.041 A 
ATOM     89  F   UNL A   1      47.928  28.275  28.846  1.00  0.00    -0.206 F 
ATOM     90  C   UNL A   1      46.874  31.046  26.781  1.00  0.00     0.022 A 
BRANCH  87  91
ATOM     91  S   UNL A   1      44.564  32.546  26.466  1.00  0.00     0.124 S 
ATOM     92  O   UNL A   1      44.010  33.271  27.602  1.00  0.00    -0.237 OA
ATOM     93  O   UNL A   1      45.551  33.264  25.665  1.00  0.00    -0.237 OA
ATOM     94  O   UNL A   1      43.578  31.797  25.683  1.00  0.00    -0.744 OA
ENDBRANCH  87  91
ENDBRANCH  61  84
ENDBRANCH  35  36
ENDBRANCH  28  30
ENDBRANCH  27  28
ENDBRANCH  26  27
ENDBRANCH  25  26
ENDBRANCH  24  25
ENDBRANCH   1  24
TORSDOF 23
ENDMDL
