MODEL 1
REMARK VINA RESULT:     -10.6      0.000      0.000
REMARK SMILES Cc1ccc(C(c2ccccc2)(c2ccccc2)n2cnc(C[C@H]([NH3+])C(=O)OCCOCCOCCOC(=O)c3ccc(-c4c5nc(c(-c6cc(S(=O)(=O)[O-])ccc6F)c6ccc([nH]6)c(-c6cc(S(=O)(=O)[O-])ccc6F)c6nc(c(-c7cc(S(=O)(=O)[O-])ccc7F)c7ccc4[nH]7)C=C6)C=C5)cc3)c2)cc1
REMARK SMILES IDX 32 1 31 2 30 3 29 4 28 5 26 6 27 7 24 8 23 9 22 10 19 11
REMARK SMILES IDX 20 12 103 13 21 14 6 15 5 16 1 17 2 18 3 19 105 20 4 21
REMARK SMILES IDX 104 22 7 23 8 24 12 25 9 26 11 27 10 28 13 29 14 30 18 31
REMARK SMILES IDX 15 32 17 33 16 34 25 35 33 39 34 40 35 41 36 42 37 43 38 44
REMARK SMILES IDX 39 45 40 46 41 47 102 48 42 49 101 50 43 51 44 52 45 53
REMARK SMILES IDX 95 54 46 55 100 56 94 57 96 58 47 59 99 60 93 61 92 62 48 64
REMARK SMILES IDX 80 65 60 66 79 67 61 68 64 69 78 70 97 71 62 72 63 73 77 75
REMARK SMILES IDX 98 76 65 77 49 78 50 79 58 80 51 81 57 82 59 83 56 84 52 85
REMARK SMILES IDX 53 86 54 87 55 88 81 89 82 90 90 91 83 92 89 93 91 94 88 95
REMARK SMILES IDX 84 96 85 97 86 98 87 99 66 100 67 101 75 102 68 103 74 104
REMARK SMILES IDX 76 105 73 106 69 107 70 108 71 109 72 110
REMARK H PARENT 25 36 25 37 25 38 96 63 64 74
REMARK Flexibility Score: inf
ROOT
ATOM      1  C   UNL A   1      34.174  31.454  27.880  1.00  0.00     0.188 C 
ENDROOT
BRANCH   1   2
ATOM      2  O   UNL A   1      33.268  30.466  27.461  1.00  0.00    -0.376 OA
BRANCH   2   3
ATOM      3  C   UNL A   1      33.727  29.558  26.528  1.00  0.00     0.202 C 
BRANCH   3   4
ATOM      4  C   UNL A   1      33.045  28.201  26.559  1.00  0.00     0.261 C 
BRANCH   4   5
ATOM      5  O   UNL A   1      32.281  27.515  25.128  1.00  0.00    -0.459 OA
BRANCH   5   6
ATOM      6  C   UNL A   1      31.653  27.366  23.855  1.00  0.00     0.365 C 
ATOM      7  O   UNL A   1      30.414  27.454  23.933  1.00  0.00    -0.245 OA
BRANCH   6   8
ATOM      8  C   UNL A   1      32.198  27.022  22.225  1.00  0.00     0.297 C 
BRANCH   8   9
ATOM      9  C   UNL A   1      32.260  25.844  21.147  1.00  0.00     0.135 C 
BRANCH   9  10
ATOM     10  C   UNL A   1      32.377  24.495  21.780  1.00  0.00     0.065 A 
ATOM     11  N   UNL A   1      32.761  22.959  23.325  1.00  0.00    -0.319 N 
ATOM     12  C   UNL A   1      33.598  22.847  22.246  1.00  0.00     0.201 A 
ATOM     13  C   UNL A   1      31.876  23.975  22.967  1.00  0.00     0.112 A 
ATOM     14  N   UNL A   1      33.328  23.681  21.287  1.00  0.00    -0.241 NA
BRANCH  11  15
ATOM     15  C   UNL A   1      33.051  22.339  24.692  1.00  0.00     0.121 C 
BRANCH  15  16
ATOM     16  C   UNL A   1      32.835  20.737  24.568  1.00  0.00    -0.013 A 
ATOM     17  C   UNL A   1      32.986  15.468  24.589  1.00  0.00     0.044 C 
ATOM     18  C   UNL A   1      32.951  16.954  24.536  1.00  0.00    -0.051 A 
ATOM     19  C   UNL A   1      32.844  17.805  26.098  1.00  0.00     0.004 A 
ATOM     20  C   UNL A   1      32.964  17.943  23.072  1.00  0.00     0.004 A 
ATOM     21  C   UNL A   1      32.741  19.819  26.105  1.00  0.00     0.007 A 
ATOM     22  C   UNL A   1      32.890  19.744  23.090  1.00  0.00     0.007 A 
ENDBRANCH  15  16
BRANCH  15  23
ATOM     23  C   UNL A   1      34.600  22.681  25.000  1.00  0.00    -0.013 A 
ATOM     24  C   UNL A   1      35.017  23.606  25.993  1.00  0.00     0.007 A 
ATOM     25  C   UNL A   1      35.613  22.309  24.099  1.00  0.00     0.007 A 
ATOM     26  C   UNL A   1      36.345  24.060  26.108  1.00  0.00     0.000 A 
ATOM     27  C   UNL A   1      36.923  22.813  24.160  1.00  0.00     0.000 A 
ATOM     28  C   UNL A   1      37.300  23.670  25.180  1.00  0.00     0.000 A 
ENDBRANCH  15  23
BRANCH  15  29
ATOM     29  C   UNL A   1      32.008  23.030  25.672  1.00  0.00    -0.013 A 
ATOM     30  C   UNL A   1      30.745  22.441  25.907  1.00  0.00     0.007 A 
ATOM     31  C   UNL A   1      32.118  24.371  26.097  1.00  0.00     0.007 A 
ATOM     32  C   UNL A   1      29.711  23.089  26.593  1.00  0.00     0.000 A 
ATOM     33  C   UNL A   1      31.056  25.058  26.709  1.00  0.00     0.000 A 
ATOM     34  C   UNL A   1      29.861  24.410  26.979  1.00  0.00     0.000 A 
ENDBRANCH  15  29
ENDBRANCH  11  15
ENDBRANCH   9  10
ENDBRANCH   8   9
BRANCH   8  35
ATOM     35  N   UNL A   1      33.682  27.506  22.197  1.00  0.00    -0.346 N 
ATOM     36  H   UNL A   1      33.955  27.816  23.129  1.00  0.00     0.345 HD
ATOM     37  H   UNL A   1      33.775  28.279  21.539  1.00  0.00     0.345 HD
ATOM     38  H   UNL A   1      34.284  26.736  21.906  1.00  0.00     0.345 HD
ENDBRANCH   8  35
ENDBRANCH   6   8
ENDBRANCH   5   6
ENDBRANCH   4   5
ENDBRANCH   3   4
ENDBRANCH   2   3
ENDBRANCH   1   2
BRANCH   1  39
ATOM     39  C   UNL A   1      33.830  32.906  27.943  1.00  0.00     0.188 C 
BRANCH  39  40
ATOM     40  O   UNL A   1      34.695  33.743  28.692  1.00  0.00    -0.376 OA
BRANCH  40  41
ATOM     41  C   UNL A   1      34.292  34.222  29.934  1.00  0.00     0.202 C 
BRANCH  41  42
ATOM     42  C   UNL A   1      35.095  33.517  31.005  1.00  0.00     0.261 C 
BRANCH  42  43
ATOM     43  O   UNL A   1      36.513  33.906  30.821  1.00  0.00    -0.460 OA
BRANCH  43  44
ATOM     44  C   UNL A   1      37.318  34.258  31.880  1.00  0.00     0.338 C 
ATOM     45  O   UNL A   1      36.989  35.070  32.733  1.00  0.00    -0.246 OA
BRANCH  44  46
ATOM     46  C   UNL A   1      38.675  33.551  31.881  1.00  0.00     0.060 A 
ATOM     47  C   UNL A   1      39.770  34.056  32.567  1.00  0.00     0.016 A 
ATOM     48  C   UNL A   1      38.970  32.478  31.040  1.00  0.00     0.016 A 
ATOM     49  C   UNL A   1      41.073  33.579  32.237  1.00  0.00     0.010 A 
ATOM     50  C   UNL A   1      40.306  32.269  30.555  1.00  0.00     0.010 A 
ATOM     51  C   UNL A   1      41.397  33.042  30.992  1.00  0.00    -0.014 A 
BRANCH  51  52
ATOM     52  C   UNL A   1      42.802  33.259  30.051  1.00  0.00     0.031 A 
ATOM     53  C   UNL A   1      43.607  32.045  30.140  1.00  0.00     0.074 A 
ATOM     54  C   UNL A   1      43.472  34.317  29.261  1.00  0.00     0.049 A 
ATOM     55  N   UNL A   1      44.882  32.055  29.998  1.00  0.00    -0.248 NA
ATOM     56  C   UNL A   1      43.103  30.806  30.753  1.00  0.00     0.031 C 
ATOM     57  C   UNL A   1      43.844  34.152  27.782  1.00  0.00     0.029 A 
ATOM     58  N   UNL A   1      43.361  35.753  29.204  1.00  0.00    -0.354 N 
ATOM     59  C   UNL A   1      45.221  30.742  29.996  1.00  0.00     0.074 A 
ATOM     60  C   UNL A   1      44.239  30.116  30.833  1.00  0.00     0.031 C 
ATOM     61  C   UNL A   1      43.832  35.338  27.101  1.00  0.00     0.029 A 
ATOM     62  C   UNL A   1      43.564  36.445  28.019  1.00  0.00     0.049 A 
ATOM     63  H   UNL A   1      43.137  36.253  30.022  1.00  0.00     0.167 HD
ATOM     64  C   UNL A   1      45.928  30.290  28.934  1.00  0.00     0.034 A 
ATOM     65  C   UNL A   1      44.069  37.718  28.093  1.00  0.00     0.034 A 
ATOM     66  C   UNL A   1      46.215  31.386  27.949  1.00  0.00     0.049 A 
ATOM     67  C   UNL A   1      45.562  37.403  28.077  1.00  0.00     0.074 A 
ATOM     68  C   UNL A   1      45.884  31.595  26.619  1.00  0.00     0.029 A 
ATOM     69  N   UNL A   1      46.686  32.639  28.372  1.00  0.00    -0.354 N 
ATOM     70  N   UNL A   1      45.936  36.183  27.784  1.00  0.00    -0.248 NA
ATOM     71  C   UNL A   1      46.719  38.253  28.272  1.00  0.00     0.031 C 
ATOM     72  C   UNL A   1      46.341  32.900  26.228  1.00  0.00     0.029 A 
ATOM     73  C   UNL A   1      46.912  33.522  27.324  1.00  0.00     0.049 A 
ATOM     74  H   UNL A   1      46.840  32.869  29.317  1.00  0.00     0.167 HD
ATOM     75  C   UNL A   1      47.246  35.987  27.760  1.00  0.00     0.074 A 
ATOM     76  C   UNL A   1      47.717  37.355  28.073  1.00  0.00     0.031 C 
ATOM     77  C   UNL A   1      47.732  34.715  27.545  1.00  0.00     0.034 A 
BRANCH  64  78
ATOM     78  C   UNL A   1      46.102  28.815  28.636  1.00  0.00     0.023 A 
ATOM     79  C   UNL A   1      45.714  28.402  27.358  1.00  0.00     0.031 A 
ATOM     80  C   UNL A   1      46.624  27.783  29.458  1.00  0.00     0.131 A 
ATOM     81  C   UNL A   1      45.795  27.062  26.956  1.00  0.00     0.055 A 
ATOM     82  C   UNL A   1      46.702  26.441  29.061  1.00  0.00     0.041 A 
ATOM     83  F   UNL A   1      47.115  27.986  30.683  1.00  0.00    -0.206 F 
ATOM     84  C   UNL A   1      46.282  26.071  27.799  1.00  0.00     0.022 A 
BRANCH  81  85
ATOM     85  S   UNL A   1      45.247  26.663  25.287  1.00  0.00     0.124 S 
ATOM     86  O   UNL A   1      43.888  26.186  25.526  1.00  0.00    -0.237 OA
ATOM     87  O   UNL A   1      45.373  27.950  24.610  1.00  0.00    -0.237 OA
ATOM     88  O   UNL A   1      46.198  25.641  24.857  1.00  0.00    -0.744 OA
ENDBRANCH  81  85
ENDBRANCH  64  78
BRANCH  65  89
ATOM     89  C   UNL A   1      43.222  38.708  28.931  1.00  0.00     0.023 A 
ATOM     90  C   UNL A   1      43.804  39.308  30.109  1.00  0.00     0.031 A 
ATOM     91  C   UNL A   1      42.042  39.330  28.485  1.00  0.00     0.131 A 
ATOM     92  C   UNL A   1      43.316  40.524  30.677  1.00  0.00     0.055 A 
ATOM     93  C   UNL A   1      41.592  40.565  29.018  1.00  0.00     0.041 A 
ATOM     94  F   UNL A   1      41.344  38.822  27.460  1.00  0.00    -0.206 F 
ATOM     95  C   UNL A   1      42.271  41.202  30.058  1.00  0.00     0.022 A 
BRANCH  92  96
ATOM     96  S   UNL A   1      44.148  41.404  32.086  1.00  0.00     0.124 S 
ATOM     97  O   UNL A   1      45.485  40.824  32.079  1.00  0.00    -0.237 OA
ATOM     98  O   UNL A   1      44.092  42.816  31.723  1.00  0.00    -0.237 OA
ATOM     99  O   UNL A   1      43.338  41.033  33.250  1.00  0.00    -0.744 OA
ENDBRANCH  92  96
ENDBRANCH  65  89
BRANCH  77 100
ATOM    100  C   UNL A   1      49.171  34.464  27.799  1.00  0.00     0.023 A 
ATOM    101  C   UNL A   1      50.220  34.790  26.396  1.00  0.00     0.031 A 
ATOM    102  C   UNL A   1      49.702  34.691  29.489  1.00  0.00     0.131 A 
ATOM    103  C   UNL A   1      51.797  35.507  26.545  1.00  0.00     0.055 A 
ATOM    104  C   UNL A   1      51.301  35.414  29.778  1.00  0.00     0.041 A 
ATOM    105  F   UNL A   1      48.988  34.371  30.572  1.00  0.00    -0.206 F 
ATOM    106  C   UNL A   1      52.419  35.886  28.173  1.00  0.00     0.022 A 
BRANCH 103 107
ATOM    107  S   UNL A   1      52.782  35.896  25.127  1.00  0.00     0.124 S 
ATOM    108  O   UNL A   1      52.363  37.259  24.811  1.00  0.00    -0.237 OA
ATOM    109  O   UNL A   1      54.143  35.777  25.643  1.00  0.00    -0.237 OA
ATOM    110  O   UNL A   1      52.380  34.865  24.178  1.00  0.00    -0.744 OA
ENDBRANCH 103 107
ENDBRANCH  77 100
ENDBRANCH  51  52
ENDBRANCH  44  46
ENDBRANCH  43  44
ENDBRANCH  42  43
ENDBRANCH  41  42
ENDBRANCH  40  41
ENDBRANCH  39  40
ENDBRANCH   1  39
TORSDOF 27
ENDMDL
MODEL 2
REMARK VINA RESULT:     -10.4      6.519     15.285
REMARK SMILES Cc1ccc(C(c2ccccc2)(c2ccccc2)n2cnc(C[C@H]([NH3+])C(=O)OCCOCCOCCOC(=O)c3ccc(-c4c5nc(c(-c6cc(S(=O)(=O)[O-])ccc6F)c6ccc([nH]6)c(-c6cc(S(=O)(=O)[O-])ccc6F)c6nc(c(-c7cc(S(=O)(=O)[O-])ccc7F)c7ccc4[nH]7)C=C6)C=C5)cc3)c2)cc1
REMARK SMILES IDX 32 1 31 2 30 3 29 4 28 5 26 6 27 7 24 8 23 9 22 10 19 11
REMARK SMILES IDX 20 12 103 13 21 14 6 15 5 16 1 17 2 18 3 19 105 20 4 21
REMARK SMILES IDX 104 22 7 23 8 24 12 25 9 26 11 27 10 28 13 29 14 30 18 31
REMARK SMILES IDX 15 32 17 33 16 34 25 35 33 39 34 40 35 41 36 42 37 43 38 44
REMARK SMILES IDX 39 45 40 46 41 47 102 48 42 49 101 50 43 51 44 52 45 53
REMARK SMILES IDX 95 54 46 55 100 56 94 57 96 58 47 59 99 60 93 61 92 62 48 64
REMARK SMILES IDX 80 65 60 66 79 67 61 68 64 69 78 70 97 71 62 72 63 73 77 75
REMARK SMILES IDX 98 76 65 77 49 78 50 79 58 80 51 81 57 82 59 83 56 84 52 85
REMARK SMILES IDX 53 86 54 87 55 88 81 89 82 90 90 91 83 92 89 93 91 94 88 95
REMARK SMILES IDX 84 96 85 97 86 98 87 99 66 100 67 101 75 102 68 103 74 104
REMARK SMILES IDX 76 105 73 106 69 107 70 108 71 109 72 110
REMARK H PARENT 25 36 25 37 25 38 96 63 64 74
REMARK Flexibility Score: inf
ROOT
ATOM      1  C   UNL A   1      45.790  38.645  37.980  1.00  0.00     0.188 C 
ENDROOT
BRANCH   1   2
ATOM      2  O   UNL A   1      45.988  39.802  37.208  1.00  0.00    -0.376 OA
BRANCH   2   3
ATOM      3  C   UNL A   1      45.580  40.997  37.766  1.00  0.00     0.202 C 
BRANCH   3   4
ATOM      4  C   UNL A   1      44.315  41.588  37.169  1.00  0.00     0.261 C 
BRANCH   4   5
ATOM      5  O   UNL A   1      44.367  42.929  36.028  1.00  0.00    -0.459 OA
BRANCH   5   6
ATOM      6  C   UNL A   1      44.728  43.786  34.945  1.00  0.00     0.365 C 
ATOM      7  O   UNL A   1      45.841  44.316  35.121  1.00  0.00    -0.245 OA
BRANCH   6   8
ATOM      8  C   UNL A   1      43.958  44.325  33.466  1.00  0.00     0.297 C 
BRANCH   8   9
ATOM      9  C   UNL A   1      42.703  44.021  32.523  1.00  0.00     0.135 C 
BRANCH   9  10
ATOM     10  C   UNL A   1      42.663  42.599  32.064  1.00  0.00     0.065 A 
ATOM     11  N   UNL A   1      43.372  40.656  31.278  1.00  0.00    -0.319 N 
ATOM     12  C   UNL A   1      42.441  41.250  30.466  1.00  0.00     0.201 A 
ATOM     13  C   UNL A   1      43.435  41.491  32.392  1.00  0.00     0.112 A 
ATOM     14  N   UNL A   1      41.944  42.346  30.956  1.00  0.00    -0.241 NA
BRANCH  11  15
ATOM     15  C   UNL A   1      44.329  39.560  30.810  1.00  0.00     0.121 C 
BRANCH  15  16
ATOM     16  C   UNL A   1      45.837  40.150  30.889  1.00  0.00    -0.013 A 
ATOM     17  C   UNL A   1      50.719  42.011  30.190  1.00  0.00     0.044 C 
ATOM     18  C   UNL A   1      49.359  41.445  30.404  1.00  0.00    -0.051 A 
ATOM     19  C   UNL A   1      47.988  42.426  29.826  1.00  0.00     0.004 A 
ATOM     20  C   UNL A   1      48.984  39.919  31.209  1.00  0.00     0.004 A 
ATOM     21  C   UNL A   1      46.113  41.748  30.124  1.00  0.00     0.007 A 
ATOM     22  C   UNL A   1      47.304  39.313  31.455  1.00  0.00     0.007 A 
ENDBRANCH  15  16
BRANCH  15  23
ATOM     23  C   UNL A   1      44.138  38.347  31.860  1.00  0.00    -0.013 A 
ATOM     24  C   UNL A   1      44.211  36.975  31.498  1.00  0.00     0.007 A 
ATOM     25  C   UNL A   1      43.592  38.575  33.135  1.00  0.00     0.007 A 
ATOM     26  C   UNL A   1      43.832  35.932  32.364  1.00  0.00     0.000 A 
ATOM     27  C   UNL A   1      43.142  37.545  33.978  1.00  0.00     0.000 A 
ATOM     28  C   UNL A   1      43.284  36.219  33.606  1.00  0.00     0.000 A 
ENDBRANCH  15  23
BRANCH  15  29
ATOM     29  C   UNL A   1      43.868  39.234  29.325  1.00  0.00    -0.013 A 
ATOM     30  C   UNL A   1      44.703  39.549  28.229  1.00  0.00     0.007 A 
ATOM     31  C   UNL A   1      42.533  38.933  28.978  1.00  0.00     0.007 A 
ATOM     32  C   UNL A   1      44.281  39.476  26.896  1.00  0.00     0.000 A 
ATOM     33  C   UNL A   1      42.079  38.941  27.649  1.00  0.00     0.000 A 
ATOM     34  C   UNL A   1      42.959  39.189  26.606  1.00  0.00     0.000 A 
ENDBRANCH  15  29
ENDBRANCH  11  15
ENDBRANCH   9  10
ENDBRANCH   8   9
BRANCH   8  35
ATOM     35  N   UNL A   1      45.106  44.337  32.408  1.00  0.00    -0.346 N 
ATOM     36  H   UNL A   1      44.973  45.123  31.772  1.00  0.00     0.345 HD
ATOM     37  H   UNL A   1      45.091  43.465  31.879  1.00  0.00     0.345 HD
ATOM     38  H   UNL A   1      46.004  44.432  32.882  1.00  0.00     0.345 HD
ENDBRANCH   8  35
ENDBRANCH   6   8
ENDBRANCH   5   6
ENDBRANCH   4   5
ENDBRANCH   3   4
ENDBRANCH   2   3
ENDBRANCH   1   2
BRANCH   1  39
ATOM     39  C   UNL A   1      44.601  38.444  38.862  1.00  0.00     0.188 C 
BRANCH  39  40
ATOM     40  O   UNL A   1      43.741  37.361  38.550  1.00  0.00    -0.376 OA
BRANCH  40  41
ATOM     41  C   UNL A   1      44.242  36.244  37.892  1.00  0.00     0.202 C 
BRANCH  41  42
ATOM     42  C   UNL A   1      43.081  35.354  37.502  1.00  0.00     0.261 C 
BRANCH  42  43
ATOM     43  O   UNL A   1      42.008  36.234  36.981  1.00  0.00    -0.460 OA
BRANCH  43  44
ATOM     44  C   UNL A   1      40.702  36.121  37.401  1.00  0.00     0.338 C 
ATOM     45  O   UNL A   1      40.339  36.371  38.541  1.00  0.00    -0.246 OA
BRANCH  44  46
ATOM     46  C   UNL A   1      39.747  35.634  36.309  1.00  0.00     0.060 A 
ATOM     47  C   UNL A   1      38.745  34.709  36.564  1.00  0.00     0.016 A 
ATOM     48  C   UNL A   1      39.936  35.918  34.957  1.00  0.00     0.016 A 
ATOM     49  C   UNL A   1      38.144  34.021  35.468  1.00  0.00     0.010 A 
ATOM     50  C   UNL A   1      39.513  34.990  33.945  1.00  0.00     0.010 A 
ATOM     51  C   UNL A   1      38.785  33.825  34.246  1.00  0.00    -0.014 A 
BRANCH  51  52
ATOM     52  C   UNL A   1      38.800  32.448  33.240  1.00  0.00     0.031 A 
ATOM     53  C   UNL A   1      40.082  31.770  33.407  1.00  0.00     0.074 A 
ATOM     54  C   UNL A   1      37.955  31.802  32.209  1.00  0.00     0.049 A 
ATOM     55  N   UNL A   1      40.605  31.053  32.481  1.00  0.00    -0.248 NA
ATOM     56  C   UNL A   1      41.038  32.137  34.463  1.00  0.00     0.031 C 
ATOM     57  C   UNL A   1      37.463  30.353  32.316  1.00  0.00     0.029 A 
ATOM     58  N   UNL A   1      36.865  32.245  31.379  1.00  0.00    -0.354 N 
ATOM     59  C   UNL A   1      41.686  30.490  33.074  1.00  0.00     0.074 A 
ATOM     60  C   UNL A   1      42.104  31.455  34.049  1.00  0.00     0.031 C 
ATOM     61  C   UNL A   1      36.263  30.157  31.690  1.00  0.00     0.029 A 
ATOM     62  C   UNL A   1      35.846  31.381  31.005  1.00  0.00     0.049 A 
ATOM     63  H   UNL A   1      36.842  33.180  31.070  1.00  0.00     0.167 HD
ATOM     64  C   UNL A   1      41.775  29.140  33.040  1.00  0.00     0.034 A 
ATOM     65  C   UNL A   1      35.231  31.592  29.796  1.00  0.00     0.034 A 
ATOM     66  C   UNL A   1      40.618  28.525  32.305  1.00  0.00     0.049 A 
ATOM     67  C   UNL A   1      36.152  30.776  28.894  1.00  0.00     0.074 A 
ATOM     68  C   UNL A   1      39.609  27.646  32.666  1.00  0.00     0.029 A 
ATOM     69  N   UNL A   1      40.187  29.034  31.070  1.00  0.00    -0.354 N 
ATOM     70  N   UNL A   1      37.031  29.985  29.457  1.00  0.00    -0.248 NA
ATOM     71  C   UNL A   1      36.209  30.650  27.452  1.00  0.00     0.031 C 
ATOM     72  C   UNL A   1      38.702  27.504  31.560  1.00  0.00     0.029 A 
ATOM     73  C   UNL A   1      39.118  28.330  30.530  1.00  0.00     0.049 A 
ATOM     74  H   UNL A   1      40.601  29.812  30.632  1.00  0.00     0.167 HD
ATOM     75  C   UNL A   1      37.778  29.285  28.615  1.00  0.00     0.074 A 
ATOM     76  C   UNL A   1      37.207  29.738  27.327  1.00  0.00     0.031 C 
ATOM     77  C   UNL A   1      38.788  28.489  29.112  1.00  0.00     0.034 A 
BRANCH  64  78
ATOM     78  C   UNL A   1      42.735  28.361  33.915  1.00  0.00     0.023 A 
ATOM     79  C   UNL A   1      42.148  27.463  34.813  1.00  0.00     0.031 A 
ATOM     80  C   UNL A   1      44.153  28.390  33.948  1.00  0.00     0.131 A 
ATOM     81  C   UNL A   1      42.915  26.697  35.701  1.00  0.00     0.055 A 
ATOM     82  C   UNL A   1      44.922  27.628  34.839  1.00  0.00     0.041 A 
ATOM     83  F   UNL A   1      44.901  29.124  33.121  1.00  0.00    -0.206 F 
ATOM     84  C   UNL A   1      44.301  26.774  35.728  1.00  0.00     0.022 A 
BRANCH  81  85
ATOM     85  S   UNL A   1      42.032  25.591  36.815  1.00  0.00     0.124 S 
ATOM     86  O   UNL A   1      40.727  25.497  36.169  1.00  0.00    -0.237 OA
ATOM     87  O   UNL A   1      42.864  24.393  36.776  1.00  0.00    -0.237 OA
ATOM     88  O   UNL A   1      42.045  26.314  38.085  1.00  0.00    -0.744 OA
ENDBRANCH  81  85
ENDBRANCH  64  78
BRANCH  65  89
ATOM     89  C   UNL A   1      34.579  32.988  29.631  1.00  0.00     0.023 A 
ATOM     90  C   UNL A   1      34.002  33.634  30.785  1.00  0.00     0.031 A 
ATOM     91  C   UNL A   1      34.772  33.835  28.525  1.00  0.00     0.131 A 
ATOM     92  C   UNL A   1      33.794  35.046  30.855  1.00  0.00     0.055 A 
ATOM     93  C   UNL A   1      34.615  35.242  28.616  1.00  0.00     0.041 A 
ATOM     94  F   UNL A   1      35.211  33.349  27.356  1.00  0.00    -0.206 F 
ATOM     95  C   UNL A   1      34.204  35.855  29.801  1.00  0.00     0.022 A 
BRANCH  92  96
ATOM     96  S   UNL A   1      33.212  35.922  32.388  1.00  0.00     0.124 S 
ATOM     97  O   UNL A   1      34.376  35.842  33.261  1.00  0.00    -0.237 OA
ATOM     98  O   UNL A   1      32.877  37.268  31.937  1.00  0.00    -0.237 OA
ATOM     99  O   UNL A   1      32.071  35.116  32.832  1.00  0.00    -0.744 OA
ENDBRANCH  92  96
ENDBRANCH  65  89
BRANCH  77 100
ATOM    100  C   UNL A   1      39.782  27.942  28.158  1.00  0.00     0.023 A 
ATOM    101  C   UNL A   1      41.084  29.084  27.737  1.00  0.00     0.031 A 
ATOM    102  C   UNL A   1      40.018  26.173  28.228  1.00  0.00     0.131 A 
ATOM    103  C   UNL A   1      42.734  28.588  27.512  1.00  0.00     0.055 A 
ATOM    104  C   UNL A   1      41.663  25.536  28.009  1.00  0.00     0.041 A 
ATOM    105  F   UNL A   1      39.054  25.275  28.444  1.00  0.00    -0.206 F 
ATOM    106  C   UNL A   1      43.140  26.857  27.655  1.00  0.00     0.022 A 
BRANCH 103 107
ATOM    107  S   UNL A   1      44.021  29.755  27.177  1.00  0.00     0.124 S 
ATOM    108  O   UNL A   1      44.185  30.429  28.462  1.00  0.00    -0.237 OA
ATOM    109  O   UNL A   1      45.136  28.897  26.787  1.00  0.00    -0.237 OA
ATOM    110  O   UNL A   1      43.443  30.555  26.104  1.00  0.00    -0.744 OA
ENDBRANCH 103 107
ENDBRANCH  77 100
ENDBRANCH  51  52
ENDBRANCH  44  46
ENDBRANCH  43  44
ENDBRANCH  42  43
ENDBRANCH  41  42
ENDBRANCH  40  41
ENDBRANCH  39  40
ENDBRANCH   1  39
TORSDOF 27
ENDMDL
MODEL 3
REMARK VINA RESULT:     -10.2      4.106      8.453
REMARK SMILES Cc1ccc(C(c2ccccc2)(c2ccccc2)n2cnc(C[C@H]([NH3+])C(=O)OCCOCCOCCOC(=O)c3ccc(-c4c5nc(c(-c6cc(S(=O)(=O)[O-])ccc6F)c6ccc([nH]6)c(-c6cc(S(=O)(=O)[O-])ccc6F)c6nc(c(-c7cc(S(=O)(=O)[O-])ccc7F)c7ccc4[nH]7)C=C6)C=C5)cc3)c2)cc1
REMARK SMILES IDX 32 1 31 2 30 3 29 4 28 5 26 6 27 7 24 8 23 9 22 10 19 11
REMARK SMILES IDX 20 12 103 13 21 14 6 15 5 16 1 17 2 18 3 19 105 20 4 21
REMARK SMILES IDX 104 22 7 23 8 24 12 25 9 26 11 27 10 28 13 29 14 30 18 31
REMARK SMILES IDX 15 32 17 33 16 34 25 35 33 39 34 40 35 41 36 42 37 43 38 44
REMARK SMILES IDX 39 45 40 46 41 47 102 48 42 49 101 50 43 51 44 52 45 53
REMARK SMILES IDX 95 54 46 55 100 56 94 57 96 58 47 59 99 60 93 61 92 62 48 64
REMARK SMILES IDX 80 65 60 66 79 67 61 68 64 69 78 70 97 71 62 72 63 73 77 75
REMARK SMILES IDX 98 76 65 77 49 78 50 79 58 80 51 81 57 82 59 83 56 84 52 85
REMARK SMILES IDX 53 86 54 87 55 88 81 89 82 90 90 91 83 92 89 93 91 94 88 95
REMARK SMILES IDX 84 96 85 97 86 98 87 99 66 100 67 101 75 102 68 103 74 104
REMARK SMILES IDX 76 105 73 106 69 107 70 108 71 109 72 110
REMARK H PARENT 25 36 25 37 25 38 96 63 64 74
REMARK Flexibility Score: inf
ROOT
ATOM      1  C   UNL A   1      39.709  31.054  33.358  1.00  0.00     0.188 C 
ENDROOT
BRANCH   1   2
ATOM      2  O   UNL A   1      38.419  30.729  32.905  1.00  0.00    -0.376 OA
BRANCH   2   3
ATOM      3  C   UNL A   1      37.381  31.509  33.375  1.00  0.00     0.202 C 
BRANCH   3   4
ATOM      4  C   UNL A   1      36.510  32.138  32.303  1.00  0.00     0.261 C 
BRANCH   4   5
ATOM      5  O   UNL A   1      35.914  31.209  30.930  1.00  0.00    -0.459 OA
BRANCH   5   6
ATOM      6  C   UNL A   1      35.846  30.384  29.767  1.00  0.00     0.365 C 
ATOM      7  O   UNL A   1      36.262  29.232  29.989  1.00  0.00    -0.245 OA
BRANCH   6   8
ATOM      8  C   UNL A   1      35.386  30.618  28.092  1.00  0.00     0.297 C 
BRANCH   8   9
ATOM      9  C   UNL A   1      34.201  30.315  27.064  1.00  0.00     0.135 C 
BRANCH   9  10
ATOM     10  C   UNL A   1      33.736  28.896  27.129  1.00  0.00     0.065 A 
ATOM     11  N   UNL A   1      33.023  26.917  26.443  1.00  0.00    -0.319 N 
ATOM     12  C   UNL A   1      32.120  27.556  27.253  1.00  0.00     0.201 A 
ATOM     13  C   UNL A   1      34.140  27.750  26.454  1.00  0.00     0.112 A 
ATOM     14  N   UNL A   1      32.558  28.677  27.740  1.00  0.00    -0.241 NA
BRANCH  11  15
ATOM     15  C   UNL A   1      32.655  25.771  25.500  1.00  0.00     0.121 C 
BRANCH  15  16
ATOM     16  C   UNL A   1      33.939  24.788  25.389  1.00  0.00    -0.013 A 
ATOM     17  C   UNL A   1      37.547  21.056  24.470  1.00  0.00     0.044 C 
ATOM     18  C   UNL A   1      36.524  22.093  24.774  1.00  0.00    -0.051 A 
ATOM     19  C   UNL A   1      35.984  23.104  23.409  1.00  0.00     0.004 A 
ATOM     20  C   UNL A   1      35.832  22.437  26.362  1.00  0.00     0.004 A 
ATOM     21  C   UNL A   1      34.637  24.564  23.752  1.00  0.00     0.007 A 
ATOM     22  C   UNL A   1      34.614  23.734  26.656  1.00  0.00     0.007 A 
ENDBRANCH  15  16
BRANCH  15  23
ATOM     23  C   UNL A   1      31.417  25.011  26.210  1.00  0.00    -0.013 A 
ATOM     24  C   UNL A   1      31.418  23.624  26.515  1.00  0.00     0.007 A 
ATOM     25  C   UNL A   1      30.151  25.617  26.292  1.00  0.00     0.007 A 
ATOM     26  C   UNL A   1      30.266  22.930  26.929  1.00  0.00     0.000 A 
ATOM     27  C   UNL A   1      28.982  24.916  26.632  1.00  0.00     0.000 A 
ATOM     28  C   UNL A   1      29.040  23.576  26.978  1.00  0.00     0.000 A 
ENDBRANCH  15  23
BRANCH  15  29
ATOM     29  C   UNL A   1      32.299  26.485  24.126  1.00  0.00    -0.013 A 
ATOM     30  C   UNL A   1      32.479  27.878  23.974  1.00  0.00     0.007 A 
ATOM     31  C   UNL A   1      31.511  25.882  23.122  1.00  0.00     0.007 A 
ATOM     32  C   UNL A   1      32.004  28.598  22.871  1.00  0.00     0.000 A 
ATOM     33  C   UNL A   1      30.958  26.612  22.058  1.00  0.00     0.000 A 
ATOM     34  C   UNL A   1      31.224  27.966  21.919  1.00  0.00     0.000 A 
ENDBRANCH  15  29
ENDBRANCH  11  15
ENDBRANCH   9  10
ENDBRANCH   8   9
BRANCH   8  35
ATOM     35  N   UNL A   1      36.608  30.095  27.274  1.00  0.00    -0.346 N 
ATOM     36  H   UNL A   1      36.661  29.080  27.355  1.00  0.00     0.345 HD
ATOM     37  H   UNL A   1      37.465  30.511  27.638  1.00  0.00     0.345 HD
ATOM     38  H   UNL A   1      36.495  30.351  26.293  1.00  0.00     0.345 HD
ENDBRANCH   8  35
ENDBRANCH   6   8
ENDBRANCH   5   6
ENDBRANCH   4   5
ENDBRANCH   3   4
ENDBRANCH   2   3
ENDBRANCH   1   2
BRANCH   1  39
ATOM     39  C   UNL A   1      40.280  32.433  33.281  1.00  0.00     0.188 C 
BRANCH  39  40
ATOM     40  O   UNL A   1      41.653  32.582  33.604  1.00  0.00    -0.376 OA
BRANCH  40  41
ATOM     41  C   UNL A   1      42.462  33.406  32.830  1.00  0.00     0.202 C 
BRANCH  41  42
ATOM     42  C   UNL A   1      41.959  33.371  31.403  1.00  0.00     0.261 C 
BRANCH  42  43
ATOM     43  O   UNL A   1      42.215  34.706  30.813  1.00  0.00    -0.460 OA
BRANCH  43  44
ATOM     44  C   UNL A   1      42.233  34.914  29.453  1.00  0.00     0.338 C 
ATOM     45  O   UNL A   1      41.247  35.247  28.811  1.00  0.00    -0.246 OA
BRANCH  44  46
ATOM     46  C   UNL A   1      43.601  34.670  28.813  1.00  0.00     0.060 A 
ATOM     47  C   UNL A   1      43.740  34.307  27.482  1.00  0.00     0.016 A 
ATOM     48  C   UNL A   1      44.780  34.592  29.555  1.00  0.00     0.016 A 
ATOM     49  C   UNL A   1      44.972  33.737  27.044  1.00  0.00     0.010 A 
ATOM     50  C   UNL A   1      45.863  33.750  29.128  1.00  0.00     0.010 A 
ATOM     51  C   UNL A   1      45.849  33.069  27.897  1.00  0.00    -0.014 A 
BRANCH  51  52
ATOM     52  C   UNL A   1      46.751  31.647  27.627  1.00  0.00     0.031 A 
ATOM     53  C   UNL A   1      48.114  32.027  27.271  1.00  0.00     0.074 A 
ATOM     54  C   UNL A   1      46.543  30.182  27.563  1.00  0.00     0.049 A 
ATOM     55  N   UNL A   1      48.864  31.286  26.540  1.00  0.00    -0.248 NA
ATOM     56  C   UNL A   1      48.605  33.408  27.390  1.00  0.00     0.031 C 
ATOM     57  C   UNL A   1      47.319  29.186  28.435  1.00  0.00     0.029 A 
ATOM     58  N   UNL A   1      45.389  29.334  27.399  1.00  0.00    -0.354 N 
ATOM     59  C   UNL A   1      50.069  31.907  26.573  1.00  0.00     0.074 A 
ATOM     60  C   UNL A   1      49.753  33.297  26.723  1.00  0.00     0.031 C 
ATOM     61  C   UNL A   1      46.599  28.056  28.712  1.00  0.00     0.029 A 
ATOM     62  C   UNL A   1      45.321  28.086  28.001  1.00  0.00     0.049 A 
ATOM     63  H   UNL A   1      44.634  29.647  26.850  1.00  0.00     0.167 HD
ATOM     64  C   UNL A   1      51.130  31.170  26.977  1.00  0.00     0.034 A 
ATOM     65  C   UNL A   1      44.599  27.104  27.370  1.00  0.00     0.034 A 
ATOM     66  C   UNL A   1      50.737  29.757  27.299  1.00  0.00     0.049 A 
ATOM     67  C   UNL A   1      45.685  26.526  26.468  1.00  0.00     0.074 A 
ATOM     68  C   UNL A   1      50.785  28.984  28.448  1.00  0.00     0.029 A 
ATOM     69  N   UNL A   1      49.908  29.019  26.439  1.00  0.00    -0.354 N 
ATOM     70  N   UNL A   1      46.924  26.896  26.674  1.00  0.00    -0.248 NA
ATOM     71  C   UNL A   1      45.621  25.545  25.405  1.00  0.00     0.031 C 
ATOM     72  C   UNL A   1      50.150  27.722  28.184  1.00  0.00     0.029 A 
ATOM     73  C   UNL A   1      49.664  27.727  26.887  1.00  0.00     0.049 A 
ATOM     74  H   UNL A   1      49.537  29.381  25.602  1.00  0.00     0.167 HD
ATOM     75  C   UNL A   1      47.819  26.334  25.875  1.00  0.00     0.074 A 
ATOM     76  C   UNL A   1      46.933  25.458  25.073  1.00  0.00     0.031 C 
ATOM     77  C   UNL A   1      49.138  26.724  25.959  1.00  0.00     0.034 A 
BRANCH  64  78
ATOM     78  C   UNL A   1      52.456  31.791  27.366  1.00  0.00     0.023 A 
ATOM     79  C   UNL A   1      53.185  32.372  26.324  1.00  0.00     0.031 A 
ATOM     80  C   UNL A   1      53.065  31.892  28.644  1.00  0.00     0.131 A 
ATOM     81  C   UNL A   1      54.440  32.959  26.536  1.00  0.00     0.055 A 
ATOM     82  C   UNL A   1      54.323  32.475  28.858  1.00  0.00     0.041 A 
ATOM     83  F   UNL A   1      52.497  31.467  29.774  1.00  0.00    -0.206 F 
ATOM     84  C   UNL A   1      55.022  33.012  27.795  1.00  0.00     0.022 A 
BRANCH  81  85
ATOM     85  S   UNL A   1      55.280  33.656  25.103  1.00  0.00     0.124 S 
ATOM     86  O   UNL A   1      54.192  34.363  24.434  1.00  0.00    -0.237 OA
ATOM     87  O   UNL A   1      56.306  34.485  25.727  1.00  0.00    -0.237 OA
ATOM     88  O   UNL A   1      55.779  32.476  24.400  1.00  0.00    -0.744 OA
ENDBRANCH  81  85
ENDBRANCH  64  78
BRANCH  65  89
ATOM     89  C   UNL A   1      43.109  27.450  27.118  1.00  0.00     0.023 A 
ATOM     90  C   UNL A   1      42.250  27.720  28.247  1.00  0.00     0.031 A 
ATOM     91  C   UNL A   1      42.577  27.838  25.875  1.00  0.00     0.131 A 
ATOM     92  C   UNL A   1      41.036  28.463  28.131  1.00  0.00     0.055 A 
ATOM     93  C   UNL A   1      41.399  28.622  25.771  1.00  0.00     0.041 A 
ATOM     94  F   UNL A   1      43.224  27.562  24.735  1.00  0.00    -0.206 F 
ATOM     95  C   UNL A   1      40.673  29.002  26.901  1.00  0.00     0.022 A 
BRANCH  92  96
ATOM     96  S   UNL A   1      40.001  28.969  29.589  1.00  0.00     0.124 S 
ATOM     97  O   UNL A   1      39.251  30.105  29.069  1.00  0.00    -0.237 OA
ATOM     98  O   UNL A   1      39.195  27.792  29.894  1.00  0.00    -0.237 OA
ATOM     99  O   UNL A   1      40.993  29.320  30.610  1.00  0.00    -0.744 OA
ENDBRANCH  92  96
ENDBRANCH  65  89
BRANCH  77 100
ATOM    100  C   UNL A   1      50.064  26.301  24.882  1.00  0.00     0.023 A 
ATOM    101  C   UNL A   1      49.849  27.191  23.353  1.00  0.00     0.031 A 
ATOM    102  C   UNL A   1      51.641  25.670  25.432  1.00  0.00     0.131 A 
ATOM    103  C   UNL A   1      51.182  27.659  22.341  1.00  0.00     0.055 A 
ATOM    104  C   UNL A   1      53.087  26.076  24.479  1.00  0.00     0.041 A 
ATOM    105  F   UNL A   1      51.835  24.917  26.518  1.00  0.00    -0.206 F 
ATOM    106  C   UNL A   1      52.834  27.186  22.820  1.00  0.00     0.022 A 
BRANCH 103 107
ATOM    107  S   UNL A   1      50.946  28.616  20.871  1.00  0.00     0.124 S 
ATOM    108  O   UNL A   1      50.383  29.860  21.386  1.00  0.00    -0.237 OA
ATOM    109  O   UNL A   1      52.303  28.728  20.343  1.00  0.00    -0.237 OA
ATOM    110  O   UNL A   1      50.042  27.775  20.096  1.00  0.00    -0.744 OA
ENDBRANCH 103 107
ENDBRANCH  77 100
ENDBRANCH  51  52
ENDBRANCH  44  46
ENDBRANCH  43  44
ENDBRANCH  42  43
ENDBRANCH  41  42
ENDBRANCH  40  41
ENDBRANCH  39  40
ENDBRANCH   1  39
TORSDOF 27
ENDMDL
