MODEL 1
REMARK VINA RESULT:     -13.4      0.000      0.000
REMARK SMILES Cc1cccc(-c2c(C(=O)OCCOCCOCCOC(=O)c3ccc(-c4c5nc(c(-c6cc(S(=O)(=O)[O-])ccc6F)c6ccc([nH]6)c(-c6cc(S(=O)(=O)[O-])ccc6F)c6nc(c(-c7cc(S(=O)(=O)[O-])ccc7F)c7ccc4[nH]7)C=C6)C=C5)cc3)nnn2Cc2cc(F)cc(F)c2)c1
REMARK SMILES IDX 16 1 15 2 14 3 13 4 12 5 11 6 9 7 10 8 8 9 7 10 88 11 86 12
REMARK SMILES IDX 87 13 6 14 1 15 2 16 3 17 98 18 4 19 5 20 89 21 90 22 91 23
REMARK SMILES IDX 97 24 92 25 95 26 93 27 94 28 96 29 17 30 18 31 19 32 20 33
REMARK SMILES IDX 21 34 22 35 23 36 24 37 85 38 25 39 84 40 26 41 27 42 28 43
REMARK SMILES IDX 78 44 29 45 83 46 77 47 79 48 30 49 82 50 76 51 75 52 31 54
REMARK SMILES IDX 63 55 43 56 62 57 44 58 47 59 61 60 80 61 45 62 46 63 60 65
REMARK SMILES IDX 81 66 48 67 32 68 33 69 41 70 34 71 40 72 42 73 39 74 35 75
REMARK SMILES IDX 36 76 37 77 38 78 64 79 65 80 73 81 66 82 72 83 74 84 71 85
REMARK SMILES IDX 67 86 68 87 69 88 70 89 49 90 50 91 58 92 51 93 57 94 59 95
REMARK SMILES IDX 56 96 52 97 53 98 54 99 55 100
REMARK H PARENT 79 53 47 64
REMARK Flexibility Score: inf
ROOT
ATOM      1  C   UNL A   1      33.170  33.211  27.580  1.00  0.00     0.188 C 
ENDROOT
BRANCH   1   2
ATOM      2  C   UNL A   1      31.965  32.596  27.066  1.00  0.00     0.188 C 
BRANCH   2   3
ATOM      3  O   UNL A   1      32.024  31.214  26.875  1.00  0.00    -0.376 OA
BRANCH   3   4
ATOM      4  C   UNL A   1      33.121  30.404  27.289  1.00  0.00     0.202 C 
BRANCH   4   5
ATOM      5  C   UNL A   1      33.725  28.843  26.937  1.00  0.00     0.261 C 
BRANCH   5   6
ATOM      6  O   UNL A   1      33.011  27.115  26.822  1.00  0.00    -0.458 OA
BRANCH   6   7
ATOM      7  C   UNL A   1      31.617  26.186  26.485  1.00  0.00     0.361 C 
ATOM      8  O   UNL A   1      30.448  26.586  26.403  1.00  0.00    -0.244 OA
BRANCH   7   9
ATOM      9  C   UNL A   1      31.741  24.785  26.390  1.00  0.00     0.198 A 
ATOM     10  C   UNL A   1      32.319  24.285  25.264  1.00  0.00     0.104 A 
ATOM     11  N   UNL A   1      32.655  23.029  25.666  1.00  0.00    -0.239 N 
ATOM     12  N   UNL A   1      31.984  23.967  27.465  1.00  0.00    -0.122 NA
ATOM     13  N   UNL A   1      32.501  22.849  26.993  1.00  0.00    -0.066 NA
BRANCH  10  14
ATOM     14  C   UNL A   1      32.573  25.089  24.042  1.00  0.00     0.003 A 
ATOM     15  C   UNL A   1      29.558  27.954  22.856  1.00  0.00     0.044 C 
ATOM     16  C   UNL A   1      31.009  27.555  23.040  1.00  0.00    -0.050 A 
ATOM     17  C   UNL A   1      32.352  28.702  23.045  1.00  0.00     0.003 A 
ATOM     18  C   UNL A   1      31.134  25.869  23.507  1.00  0.00     0.013 A 
ATOM     19  C   UNL A   1      33.989  28.104  23.581  1.00  0.00     0.001 A 
ATOM     20  C   UNL A   1      34.106  26.059  24.064  1.00  0.00     0.010 A 
ENDBRANCH  10  14
BRANCH  11  21
ATOM     21  C   UNL A   1      33.191  21.959  24.876  1.00  0.00     0.182 C 
BRANCH  21  22
ATOM     22  C   UNL A   1      34.666  21.804  25.115  1.00  0.00    -0.021 A 
ATOM     23  C   UNL A   1      35.217  20.535  24.962  1.00  0.00     0.045 A 
ATOM     24  C   UNL A   1      35.526  22.901  25.345  1.00  0.00     0.045 A 
ATOM     25  C   UNL A   1      36.597  20.390  24.934  1.00  0.00     0.126 A 
ATOM     26  C   UNL A   1      36.896  22.744  25.206  1.00  0.00     0.126 A 
ATOM     27  F   UNL A   1      37.109  19.163  24.786  1.00  0.00    -0.207 F 
ATOM     28  C   UNL A   1      37.443  21.488  25.009  1.00  0.00     0.078 A 
ATOM     29  F   UNL A   1      37.684  23.825  25.196  1.00  0.00    -0.207 F 
ENDBRANCH  21  22
ENDBRANCH  11  21
ENDBRANCH   7   9
ENDBRANCH   6   7
ENDBRANCH   5   6
ENDBRANCH   4   5
ENDBRANCH   3   4
ENDBRANCH   2   3
ENDBRANCH   1   2
BRANCH   1  30
ATOM     30  O   UNL A   1      32.860  34.030  28.688  1.00  0.00    -0.376 OA
BRANCH  30  31
ATOM     31  C   UNL A   1      33.975  34.738  29.130  1.00  0.00     0.202 C 
BRANCH  31  32
ATOM     32  C   UNL A   1      34.146  34.427  30.630  1.00  0.00     0.261 C 
BRANCH  32  33
ATOM     33  O   UNL A   1      34.344  32.951  30.801  1.00  0.00    -0.460 OA
BRANCH  33  34
ATOM     34  C   UNL A   1      35.592  32.312  30.884  1.00  0.00     0.338 C 
ATOM     35  O   UNL A   1      36.293  32.316  31.880  1.00  0.00    -0.246 OA
BRANCH  34  36
ATOM     36  C   UNL A   1      35.996  31.568  29.563  1.00  0.00     0.060 A 
ATOM     37  C   UNL A   1      36.108  30.132  29.417  1.00  0.00     0.016 A 
ATOM     38  C   UNL A   1      36.989  32.228  28.963  1.00  0.00     0.016 A 
ATOM     39  C   UNL A   1      37.397  29.374  29.257  1.00  0.00     0.010 A 
ATOM     40  C   UNL A   1      38.180  31.539  29.146  1.00  0.00     0.010 A 
ATOM     41  C   UNL A   1      38.614  30.020  29.443  1.00  0.00    -0.014 A 
BRANCH  41  42
ATOM     42  C   UNL A   1      40.449  29.399  29.367  1.00  0.00     0.031 A 
ATOM     43  C   UNL A   1      40.768  27.569  28.694  1.00  0.00     0.074 A 
ATOM     44  C   UNL A   1      41.531  30.197  29.647  1.00  0.00     0.049 A 
ATOM     45  N   UNL A   1      41.966  26.708  28.928  1.00  0.00    -0.248 NA
ATOM     46  C   UNL A   1      39.263  26.402  27.828  1.00  0.00     0.031 C 
ATOM     47  C   UNL A   1      42.989  30.083  29.406  1.00  0.00     0.029 A 
ATOM     48  N   UNL A   1      41.493  31.495  30.147  1.00  0.00    -0.354 N 
ATOM     49  C   UNL A   1      41.838  24.946  28.432  1.00  0.00     0.074 A 
ATOM     50  C   UNL A   1      40.007  24.682  27.749  1.00  0.00     0.031 C 
ATOM     51  C   UNL A   1      43.636  31.047  30.116  1.00  0.00     0.029 A 
ATOM     52  C   UNL A   1      42.633  31.754  30.893  1.00  0.00     0.049 A 
ATOM     53  H   UNL A   1      40.764  32.138  29.993  1.00  0.00     0.167 HD
ATOM     54  C   UNL A   1      43.076  24.442  28.204  1.00  0.00     0.034 A 
ATOM     55  C   UNL A   1      42.395  31.760  32.229  1.00  0.00     0.034 A 
ATOM     56  C   UNL A   1      44.033  25.412  28.819  1.00  0.00     0.049 A 
ATOM     57  C   UNL A   1      42.912  30.373  32.712  1.00  0.00     0.074 A 
ATOM     58  C   UNL A   1      44.782  26.472  28.314  1.00  0.00     0.029 A 
ATOM     59  N   UNL A   1      43.851  25.748  30.169  1.00  0.00    -0.354 N 
ATOM     60  N   UNL A   1      43.083  29.297  31.959  1.00  0.00    -0.248 NA
ATOM     61  C   UNL A   1      43.432  30.171  34.052  1.00  0.00     0.031 C 
ATOM     62  C   UNL A   1      45.026  27.416  29.385  1.00  0.00     0.029 A 
ATOM     63  C   UNL A   1      44.451  26.943  30.559  1.00  0.00     0.049 A 
ATOM     64  H   UNL A   1      43.340  25.184  30.793  1.00  0.00     0.167 HD
ATOM     65  C   UNL A   1      43.864  28.362  32.591  1.00  0.00     0.074 A 
ATOM     66  C   UNL A   1      43.903  28.915  33.958  1.00  0.00     0.031 C 
ATOM     67  C   UNL A   1      44.492  27.261  32.004  1.00  0.00     0.034 A 
BRANCH  54  68
ATOM     68  C   UNL A   1      43.370  23.450  27.123  1.00  0.00     0.023 A 
ATOM     69  C   UNL A   1      42.637  22.261  27.160  1.00  0.00     0.031 A 
ATOM     70  C   UNL A   1      44.347  23.529  26.107  1.00  0.00     0.131 A 
ATOM     71  C   UNL A   1      42.880  21.220  26.252  1.00  0.00     0.055 A 
ATOM     72  C   UNL A   1      44.609  22.483  25.209  1.00  0.00     0.041 A 
ATOM     73  F   UNL A   1      45.091  24.618  25.908  1.00  0.00    -0.206 F 
ATOM     74  C   UNL A   1      43.864  21.318  25.272  1.00  0.00     0.022 A 
BRANCH  71  75
ATOM     75  S   UNL A   1      41.851  19.746  26.390  1.00  0.00     0.124 S 
ATOM     76  O   UNL A   1      42.348  18.932  25.284  1.00  0.00    -0.237 OA
ATOM     77  O   UNL A   1      42.170  19.275  27.734  1.00  0.00    -0.237 OA
ATOM     78  O   UNL A   1      40.496  20.264  26.222  1.00  0.00    -0.744 OA
ENDBRANCH  71  75
ENDBRANCH  54  68
BRANCH  55  79
ATOM     79  C   UNL A   1      41.047  32.511  32.470  1.00  0.00     0.023 A 
ATOM     80  C   UNL A   1      40.015  31.887  33.288  1.00  0.00     0.031 A 
ATOM     81  C   UNL A   1      40.942  33.897  32.336  1.00  0.00     0.131 A 
ATOM     82  C   UNL A   1      39.101  32.649  34.068  1.00  0.00     0.055 A 
ATOM     83  C   UNL A   1      39.952  34.634  33.026  1.00  0.00     0.041 A 
ATOM     84  F   UNL A   1      41.880  34.591  31.678  1.00  0.00    -0.206 F 
ATOM     85  C   UNL A   1      39.104  34.035  33.964  1.00  0.00     0.022 A 
BRANCH  82  86
ATOM     86  S   UNL A   1      38.130  31.883  35.458  1.00  0.00     0.124 S 
ATOM     87  O   UNL A   1      36.782  32.387  35.234  1.00  0.00    -0.237 OA
ATOM     88  O   UNL A   1      38.292  30.446  35.252  1.00  0.00    -0.237 OA
ATOM     89  O   UNL A   1      38.801  32.398  36.652  1.00  0.00    -0.744 OA
ENDBRANCH  82  86
ENDBRANCH  55  79
BRANCH  67  90
ATOM     90  C   UNL A   1      45.288  26.260  32.843  1.00  0.00     0.023 A 
ATOM     91  C   UNL A   1      44.672  25.533  33.851  1.00  0.00     0.031 A 
ATOM     92  C   UNL A   1      46.670  25.976  32.672  1.00  0.00     0.131 A 
ATOM     93  C   UNL A   1      45.275  24.385  34.370  1.00  0.00     0.055 A 
ATOM     94  C   UNL A   1      47.322  24.922  33.301  1.00  0.00     0.041 A 
ATOM     95  F   UNL A   1      47.493  26.670  31.880  1.00  0.00    -0.206 F 
ATOM     96  C   UNL A   1      46.603  24.069  34.104  1.00  0.00     0.022 A 
BRANCH  93  97
ATOM     97  S   UNL A   1      44.220  23.242  35.274  1.00  0.00     0.124 S 
ATOM     98  O   UNL A   1      42.896  23.547  34.741  1.00  0.00    -0.237 OA
ATOM     99  O   UNL A   1      44.777  21.951  34.878  1.00  0.00    -0.237 OA
ATOM    100  O   UNL A   1      44.436  23.614  36.669  1.00  0.00    -0.744 OA
ENDBRANCH  93  97
ENDBRANCH  67  90
ENDBRANCH  41  42
ENDBRANCH  34  36
ENDBRANCH  33  34
ENDBRANCH  32  33
ENDBRANCH  31  32
ENDBRANCH  30  31
ENDBRANCH   1  30
TORSDOF 23
ENDMDL
MODEL 2
REMARK VINA RESULT:     -13.0      2.713      3.858
REMARK SMILES Cc1cccc(-c2c(C(=O)OCCOCCOCCOC(=O)c3ccc(-c4c5nc(c(-c6cc(S(=O)(=O)[O-])ccc6F)c6ccc([nH]6)c(-c6cc(S(=O)(=O)[O-])ccc6F)c6nc(c(-c7cc(S(=O)(=O)[O-])ccc7F)c7ccc4[nH]7)C=C6)C=C5)cc3)nnn2Cc2cc(F)cc(F)c2)c1
REMARK SMILES IDX 16 1 15 2 14 3 13 4 12 5 11 6 9 7 10 8 8 9 7 10 88 11 86 12
REMARK SMILES IDX 87 13 6 14 1 15 2 16 3 17 98 18 4 19 5 20 89 21 90 22 91 23
REMARK SMILES IDX 97 24 92 25 95 26 93 27 94 28 96 29 17 30 18 31 19 32 20 33
REMARK SMILES IDX 21 34 22 35 23 36 24 37 85 38 25 39 84 40 26 41 27 42 28 43
REMARK SMILES IDX 78 44 29 45 83 46 77 47 79 48 30 49 82 50 76 51 75 52 31 54
REMARK SMILES IDX 63 55 43 56 62 57 44 58 47 59 61 60 80 61 45 62 46 63 60 65
REMARK SMILES IDX 81 66 48 67 32 68 33 69 41 70 34 71 40 72 42 73 39 74 35 75
REMARK SMILES IDX 36 76 37 77 38 78 64 79 65 80 73 81 66 82 72 83 74 84 71 85
REMARK SMILES IDX 67 86 68 87 69 88 70 89 49 90 50 91 58 92 51 93 57 94 59 95
REMARK SMILES IDX 56 96 52 97 53 98 54 99 55 100
REMARK H PARENT 79 53 47 64
REMARK Flexibility Score: inf
ROOT
ATOM      1  C   UNL A   1      34.674  33.898  27.992  1.00  0.00     0.188 C 
ENDROOT
BRANCH   1   2
ATOM      2  C   UNL A   1      33.884  32.693  28.135  1.00  0.00     0.188 C 
BRANCH   2   3
ATOM      3  O   UNL A   1      34.588  31.551  28.524  1.00  0.00    -0.376 OA
BRANCH   3   4
ATOM      4  C   UNL A   1      34.951  30.502  27.630  1.00  0.00     0.202 C 
BRANCH   4   5
ATOM      5  C   UNL A   1      34.186  29.151  26.911  1.00  0.00     0.261 C 
BRANCH   5   6
ATOM      6  O   UNL A   1      32.922  28.883  25.555  1.00  0.00    -0.458 OA
BRANCH   6   7
ATOM      7  C   UNL A   1      32.330  27.797  24.375  1.00  0.00     0.361 C 
ATOM      8  O   UNL A   1      31.151  27.485  24.165  1.00  0.00    -0.244 OA
BRANCH   7   9
ATOM      9  C   UNL A   1      33.254  27.066  23.600  1.00  0.00     0.198 A 
ATOM     10  C   UNL A   1      33.735  25.909  24.130  1.00  0.00     0.104 A 
ATOM     11  N   UNL A   1      34.221  25.286  23.022  1.00  0.00    -0.239 N 
ATOM     12  N   UNL A   1      33.208  26.992  22.230  1.00  0.00    -0.122 NA
ATOM     13  N   UNL A   1      33.866  25.904  21.879  1.00  0.00    -0.066 NA
BRANCH  10  14
ATOM     14  C   UNL A   1      33.559  25.519  25.552  1.00  0.00     0.003 A 
ATOM     15  C   UNL A   1      30.320  22.821  26.516  1.00  0.00     0.044 C 
ATOM     16  C   UNL A   1      31.748  23.297  26.697  1.00  0.00    -0.050 A 
ATOM     17  C   UNL A   1      33.014  22.342  27.476  1.00  0.00     0.003 A 
ATOM     18  C   UNL A   1      32.025  24.782  25.805  1.00  0.00     0.013 A 
ATOM     19  C   UNL A   1      34.736  22.926  27.341  1.00  0.00     0.001 A 
ATOM     20  C   UNL A   1      35.010  24.747  26.322  1.00  0.00     0.010 A 
ENDBRANCH  10  14
BRANCH  11  21
ATOM     21  C   UNL A   1      34.973  24.066  22.950  1.00  0.00     0.182 C 
BRANCH  21  22
ATOM     22  C   UNL A   1      34.073  22.873  23.114  1.00  0.00    -0.021 A 
ATOM     23  C   UNL A   1      34.494  21.858  23.968  1.00  0.00     0.045 A 
ATOM     24  C   UNL A   1      32.776  22.807  22.559  1.00  0.00     0.045 A 
ATOM     25  C   UNL A   1      33.600  20.863  24.338  1.00  0.00     0.126 A 
ATOM     26  C   UNL A   1      31.873  21.865  23.027  1.00  0.00     0.126 A 
ATOM     27  F   UNL A   1      34.021  19.895  25.159  1.00  0.00    -0.207 F 
ATOM     28  C   UNL A   1      32.279  20.881  23.911  1.00  0.00     0.078 A 
ATOM     29  F   UNL A   1      30.586  21.954  22.670  1.00  0.00    -0.207 F 
ENDBRANCH  21  22
ENDBRANCH  11  21
ENDBRANCH   7   9
ENDBRANCH   6   7
ENDBRANCH   5   6
ENDBRANCH   4   5
ENDBRANCH   3   4
ENDBRANCH   2   3
ENDBRANCH   1   2
BRANCH   1  30
ATOM     30  O   UNL A   1      34.688  34.613  29.211  1.00  0.00    -0.376 OA
BRANCH  30  31
ATOM     31  C   UNL A   1      33.399  34.840  29.685  1.00  0.00     0.202 C 
BRANCH  31  32
ATOM     32  C   UNL A   1      33.535  35.470  31.086  1.00  0.00     0.261 C 
BRANCH  32  33
ATOM     33  O   UNL A   1      33.514  34.379  32.113  1.00  0.00    -0.460 OA
BRANCH  33  34
ATOM     34  C   UNL A   1      34.485  33.370  32.235  1.00  0.00     0.338 C 
ATOM     35  O   UNL A   1      34.407  32.283  31.692  1.00  0.00    -0.246 OA
BRANCH  34  36
ATOM     36  C   UNL A   1      35.700  33.788  33.134  1.00  0.00     0.060 A 
ATOM     37  C   UNL A   1      36.799  34.632  32.710  1.00  0.00     0.016 A 
ATOM     38  C   UNL A   1      36.102  32.741  33.860  1.00  0.00     0.016 A 
ATOM     39  C   UNL A   1      38.206  34.163  32.464  1.00  0.00     0.010 A 
ATOM     40  C   UNL A   1      37.283  32.238  33.331  1.00  0.00     0.010 A 
ATOM     41  C   UNL A   1      38.497  32.804  32.442  1.00  0.00    -0.014 A 
BRANCH  41  42
ATOM     42  C   UNL A   1      40.138  31.822  32.127  1.00  0.00     0.031 A 
ATOM     43  C   UNL A   1      40.088  30.358  30.800  1.00  0.00     0.074 A 
ATOM     44  C   UNL A   1      41.344  32.162  32.689  1.00  0.00     0.049 A 
ATOM     45  N   UNL A   1      41.029  29.203  30.681  1.00  0.00    -0.248 NA
ATOM     46  C   UNL A   1      38.442  30.012  29.557  1.00  0.00     0.031 C 
ATOM     47  C   UNL A   1      42.752  31.788  32.417  1.00  0.00     0.029 A 
ATOM     48  N   UNL A   1      41.560  33.145  33.650  1.00  0.00    -0.354 N 
ATOM     49  C   UNL A   1      40.545  27.845  29.546  1.00  0.00     0.074 A 
ATOM     50  C   UNL A   1      38.774  28.320  28.820  1.00  0.00     0.031 C 
ATOM     51  C   UNL A   1      43.536  32.224  33.442  1.00  0.00     0.029 A 
ATOM     52  C   UNL A   1      42.655  32.815  34.435  1.00  0.00     0.049 A 
ATOM     53  H   UNL A   1      41.016  33.958  33.758  1.00  0.00     0.167 HD
ATOM     54  C   UNL A   1      41.649  27.173  29.138  1.00  0.00     0.034 A 
ATOM     55  C   UNL A   1      42.302  32.381  35.671  1.00  0.00     0.034 A 
ATOM     56  C   UNL A   1      42.742  27.573  30.076  1.00  0.00     0.049 A 
ATOM     57  C   UNL A   1      42.438  30.832  35.582  1.00  0.00     0.074 A 
ATOM     58  C   UNL A   1      43.759  28.523  30.015  1.00  0.00     0.029 A 
ATOM     59  N   UNL A   1      42.519  27.414  31.452  1.00  0.00    -0.354 N 
ATOM     60  N   UNL A   1      42.426  30.109  34.472  1.00  0.00    -0.248 NA
ATOM     61  C   UNL A   1      42.771  30.022  36.739  1.00  0.00     0.031 C 
ATOM     62  C   UNL A   1      44.113  28.906  31.366  1.00  0.00     0.029 A 
ATOM     63  C   UNL A   1      43.339  28.188  32.270  1.00  0.00     0.049 A 
ATOM     64  H   UNL A   1      41.835  26.804  31.813  1.00  0.00     0.167 HD
ATOM     65  C   UNL A   1      42.908  28.844  34.693  1.00  0.00     0.074 A 
ATOM     66  C   UNL A   1      42.947  28.817  36.167  1.00  0.00     0.031 C 
ATOM     67  C   UNL A   1      43.317  27.923  33.726  1.00  0.00     0.034 A 
BRANCH  54  68
ATOM     68  C   UNL A   1      41.806  26.617  27.758  1.00  0.00     0.023 A 
ATOM     69  C   UNL A   1      42.226  25.287  27.672  1.00  0.00     0.031 A 
ATOM     70  C   UNL A   1      41.652  27.285  26.523  1.00  0.00     0.131 A 
ATOM     71  C   UNL A   1      42.489  24.678  26.436  1.00  0.00     0.055 A 
ATOM     72  C   UNL A   1      41.933  26.687  25.286  1.00  0.00     0.041 A 
ATOM     73  F   UNL A   1      41.207  28.539  26.436  1.00  0.00    -0.206 F 
ATOM     74  C   UNL A   1      42.347  25.367  25.236  1.00  0.00     0.022 A 
BRANCH  71  75
ATOM     75  S   UNL A   1      43.003  22.950  26.459  1.00  0.00     0.124 S 
ATOM     76  O   UNL A   1      42.549  22.522  27.779  1.00  0.00    -0.237 OA
ATOM     77  O   UNL A   1      42.281  22.401  25.316  1.00  0.00    -0.237 OA
ATOM     78  O   UNL A   1      44.452  23.029  26.294  1.00  0.00    -0.744 OA
ENDBRANCH  71  75
ENDBRANCH  54  68
BRANCH  55  79
ATOM     79  C   UNL A   1      41.147  33.296  36.187  1.00  0.00     0.023 A 
ATOM     80  C   UNL A   1      39.835  32.718  36.446  1.00  0.00     0.031 A 
ATOM     81  C   UNL A   1      41.399  34.508  36.832  1.00  0.00     0.131 A 
ATOM     82  C   UNL A   1      38.963  33.231  37.447  1.00  0.00     0.055 A 
ATOM     83  C   UNL A   1      40.473  35.071  37.739  1.00  0.00     0.041 A 
ATOM     84  F   UNL A   1      42.601  35.093  36.737  1.00  0.00    -0.206 F 
ATOM     85  C   UNL A   1      39.312  34.393  38.125  1.00  0.00     0.022 A 
BRANCH  82  86
ATOM     86  S   UNL A   1      37.540  32.231  38.108  1.00  0.00     0.124 S 
ATOM     87  O   UNL A   1      37.623  30.995  37.341  1.00  0.00    -0.237 OA
ATOM     88  O   UNL A   1      37.839  32.093  39.531  1.00  0.00    -0.237 OA
ATOM     89  O   UNL A   1      36.381  33.073  37.816  1.00  0.00    -0.744 OA
ENDBRANCH  82  86
ENDBRANCH  55  79
BRANCH  67  90
ATOM     90  C   UNL A   1      43.781  26.517  34.113  1.00  0.00     0.023 A 
ATOM     91  C   UNL A   1      45.068  26.091  33.821  1.00  0.00     0.031 A 
ATOM     92  C   UNL A   1      42.983  25.557  34.792  1.00  0.00     0.131 A 
ATOM     93  C   UNL A   1      45.614  24.981  34.468  1.00  0.00     0.055 A 
ATOM     94  C   UNL A   1      43.485  24.371  35.314  1.00  0.00     0.041 A 
ATOM     95  F   UNL A   1      41.674  25.690  35.024  1.00  0.00    -0.206 F 
ATOM     96  C   UNL A   1      44.832  24.109  35.217  1.00  0.00     0.022 A 
BRANCH  93  97
ATOM     97  S   UNL A   1      47.404  24.804  34.425  1.00  0.00     0.124 S 
ATOM     98  O   UNL A   1      47.582  23.363  34.569  1.00  0.00    -0.237 OA
ATOM     99  O   UNL A   1      47.722  25.350  33.108  1.00  0.00    -0.237 OA
ATOM    100  O   UNL A   1      47.851  25.609  35.558  1.00  0.00    -0.744 OA
ENDBRANCH  93  97
ENDBRANCH  67  90
ENDBRANCH  41  42
ENDBRANCH  34  36
ENDBRANCH  33  34
ENDBRANCH  32  33
ENDBRANCH  31  32
ENDBRANCH  30  31
ENDBRANCH   1  30
TORSDOF 23
ENDMDL
MODEL 3
REMARK VINA RESULT:     -12.5      2.369      3.351
REMARK SMILES Cc1cccc(-c2c(C(=O)OCCOCCOCCOC(=O)c3ccc(-c4c5nc(c(-c6cc(S(=O)(=O)[O-])ccc6F)c6ccc([nH]6)c(-c6cc(S(=O)(=O)[O-])ccc6F)c6nc(c(-c7cc(S(=O)(=O)[O-])ccc7F)c7ccc4[nH]7)C=C6)C=C5)cc3)nnn2Cc2cc(F)cc(F)c2)c1
REMARK SMILES IDX 16 1 15 2 14 3 13 4 12 5 11 6 9 7 10 8 8 9 7 10 88 11 86 12
REMARK SMILES IDX 87 13 6 14 1 15 2 16 3 17 98 18 4 19 5 20 89 21 90 22 91 23
REMARK SMILES IDX 97 24 92 25 95 26 93 27 94 28 96 29 17 30 18 31 19 32 20 33
REMARK SMILES IDX 21 34 22 35 23 36 24 37 85 38 25 39 84 40 26 41 27 42 28 43
REMARK SMILES IDX 78 44 29 45 83 46 77 47 79 48 30 49 82 50 76 51 75 52 31 54
REMARK SMILES IDX 63 55 43 56 62 57 44 58 47 59 61 60 80 61 45 62 46 63 60 65
REMARK SMILES IDX 81 66 48 67 32 68 33 69 41 70 34 71 40 72 42 73 39 74 35 75
REMARK SMILES IDX 36 76 37 77 38 78 64 79 65 80 73 81 66 82 72 83 74 84 71 85
REMARK SMILES IDX 67 86 68 87 69 88 70 89 49 90 50 91 58 92 51 93 57 94 59 95
REMARK SMILES IDX 56 96 52 97 53 98 54 99 55 100
REMARK H PARENT 79 53 47 64
REMARK Flexibility Score: inf
ROOT
ATOM      1  C   UNL A   1      32.886  29.822  25.430  1.00  0.00     0.188 C 
ENDROOT
BRANCH   1   2
ATOM      2  C   UNL A   1      33.444  28.806  24.562  1.00  0.00     0.188 C 
BRANCH   2   3
ATOM      3  O   UNL A   1      33.372  29.073  23.193  1.00  0.00    -0.376 OA
BRANCH   3   4
ATOM      4  C   UNL A   1      33.527  28.079  22.183  1.00  0.00     0.202 C 
BRANCH   4   5
ATOM      5  C   UNL A   1      33.572  26.370  22.108  1.00  0.00     0.261 C 
BRANCH   5   6
ATOM      6  O   UNL A   1      33.697  24.970  23.345  1.00  0.00    -0.458 OA
BRANCH   6   7
ATOM      7  C   UNL A   1      33.999  24.551  24.973  1.00  0.00     0.361 C 
ATOM      8  O   UNL A   1      34.366  25.301  25.888  1.00  0.00    -0.244 OA
BRANCH   7   9
ATOM      9  C   UNL A   1      33.945  23.192  25.347  1.00  0.00     0.198 A 
ATOM     10  C   UNL A   1      32.717  22.610  25.408  1.00  0.00     0.104 A 
ATOM     11  N   UNL A   1      33.041  21.289  25.369  1.00  0.00    -0.239 N 
ATOM     12  N   UNL A   1      34.904  22.270  25.006  1.00  0.00    -0.122 NA
ATOM     13  N   UNL A   1      34.340  21.080  25.081  1.00  0.00    -0.066 NA
BRANCH  10  14
ATOM     14  C   UNL A   1      31.442  23.372  25.372  1.00  0.00     0.003 A 
ATOM     15  C   UNL A   1      31.352  27.239  27.305  1.00  0.00     0.044 C 
ATOM     16  C   UNL A   1      30.975  26.319  26.160  1.00  0.00    -0.050 A 
ATOM     17  C   UNL A   1      30.371  26.886  24.599  1.00  0.00     0.003 A 
ATOM     18  C   UNL A   1      31.467  24.671  26.501  1.00  0.00     0.013 A 
ATOM     19  C   UNL A   1      30.257  25.682  23.235  1.00  0.00     0.001 A 
ATOM     20  C   UNL A   1      30.792  23.703  23.710  1.00  0.00     0.010 A 
ENDBRANCH  10  14
BRANCH  11  21
ATOM     21  C   UNL A   1      32.172  20.159  25.528  1.00  0.00     0.182 C 
BRANCH  21  22
ATOM     22  C   UNL A   1      32.554  19.054  24.584  1.00  0.00    -0.021 A 
ATOM     23  C   UNL A   1      32.181  19.185  23.250  1.00  0.00     0.045 A 
ATOM     24  C   UNL A   1      33.386  17.976  24.960  1.00  0.00     0.045 A 
ATOM     25  C   UNL A   1      32.716  18.321  22.305  1.00  0.00     0.126 A 
ATOM     26  C   UNL A   1      33.988  17.197  23.984  1.00  0.00     0.126 A 
ATOM     27  F   UNL A   1      32.346  18.462  21.026  1.00  0.00    -0.207 F 
ATOM     28  C   UNL A   1      33.651  17.356  22.651  1.00  0.00     0.078 A 
ATOM     29  F   UNL A   1      34.949  16.333  24.332  1.00  0.00    -0.207 F 
ENDBRANCH  21  22
ENDBRANCH  11  21
ENDBRANCH   7   9
ENDBRANCH   6   7
ENDBRANCH   5   6
ENDBRANCH   4   5
ENDBRANCH   3   4
ENDBRANCH   2   3
ENDBRANCH   1   2
BRANCH   1  30
ATOM     30  O   UNL A   1      33.815  30.158  26.440  1.00  0.00    -0.376 OA
BRANCH  30  31
ATOM     31  C   UNL A   1      34.290  29.025  27.095  1.00  0.00     0.202 C 
BRANCH  31  32
ATOM     32  C   UNL A   1      35.775  29.278  27.422  1.00  0.00     0.261 C 
BRANCH  32  33
ATOM     33  O   UNL A   1      35.869  29.985  28.740  1.00  0.00    -0.460 OA
BRANCH  33  34
ATOM     34  C   UNL A   1      36.433  31.257  28.931  1.00  0.00     0.338 C 
ATOM     35  O   UNL A   1      36.265  32.196  28.173  1.00  0.00    -0.246 OA
BRANCH  34  36
ATOM     36  C   UNL A   1      37.295  31.362  30.237  1.00  0.00     0.060 A 
ATOM     37  C   UNL A   1      38.507  32.143  30.374  1.00  0.00     0.016 A 
ATOM     38  C   UNL A   1      37.387  30.160  30.811  1.00  0.00     0.016 A 
ATOM     39  C   UNL A   1      39.895  31.576  30.494  1.00  0.00     0.010 A 
ATOM     40  C   UNL A   1      38.654  29.637  30.591  1.00  0.00     0.010 A 
ATOM     41  C   UNL A   1      40.118  30.222  30.276  1.00  0.00    -0.014 A 
BRANCH  41  42
ATOM     42  C   UNL A   1      41.727  29.141  30.297  1.00  0.00     0.031 A 
ATOM     43  C   UNL A   1      41.707  27.451  29.273  1.00  0.00     0.074 A 
ATOM     44  C   UNL A   1      42.901  29.541  30.887  1.00  0.00     0.049 A 
ATOM     45  N   UNL A   1      42.594  26.263  29.457  1.00  0.00    -0.248 NA
ATOM     46  C   UNL A   1      40.148  26.928  27.980  1.00  0.00     0.031 C 
ATOM     47  C   UNL A   1      44.305  29.073  30.815  1.00  0.00     0.029 A 
ATOM     48  N   UNL A   1      43.090  30.683  31.660  1.00  0.00    -0.354 N 
ATOM     49  C   UNL A   1      42.132  24.729  28.563  1.00  0.00     0.074 A 
ATOM     50  C   UNL A   1      40.451  25.115  27.608  1.00  0.00     0.031 C 
ATOM     51  C   UNL A   1      45.027  29.671  31.803  1.00  0.00     0.029 A 
ATOM     52  C   UNL A   1      44.102  30.473  32.585  1.00  0.00     0.049 A 
ATOM     53  H   UNL A   1      42.581  31.520  31.563  1.00  0.00     0.167 HD
ATOM     54  C   UNL A   1      43.230  23.953  28.387  1.00  0.00     0.034 A 
ATOM     55  C   UNL A   1      43.631  30.298  33.846  1.00  0.00     0.034 A 
ATOM     56  C   UNL A   1      44.264  24.488  29.324  1.00  0.00     0.049 A 
ATOM     57  C   UNL A   1      43.694  28.758  34.064  1.00  0.00     0.074 A 
ATOM     58  C   UNL A   1      45.330  25.372  29.172  1.00  0.00     0.029 A 
ATOM     59  N   UNL A   1      43.926  24.605  30.680  1.00  0.00    -0.354 N 
ATOM     60  N   UNL A   1      43.733  27.835  33.115  1.00  0.00    -0.248 NA
ATOM     61  C   UNL A   1      43.893  28.176  35.378  1.00  0.00     0.031 C 
ATOM     62  C   UNL A   1      45.596  25.996  30.452  1.00  0.00     0.029 A 
ATOM     63  C   UNL A   1      44.717  25.494  31.404  1.00  0.00     0.049 A 
ATOM     64  H   UNL A   1      43.186  24.100  31.089  1.00  0.00     0.167 HD
ATOM     65  C   UNL A   1      44.131  26.620  33.612  1.00  0.00     0.074 A 
ATOM     66  C   UNL A   1      44.053  26.877  35.063  1.00  0.00     0.031 C 
ATOM     67  C   UNL A   1      44.568  25.516  32.877  1.00  0.00     0.034 A 
BRANCH  54  68
ATOM     68  C   UNL A   1      43.466  23.135  27.157  1.00  0.00     0.023 A 
ATOM     69  C   UNL A   1      42.972  21.828  27.179  1.00  0.00     0.031 A 
ATOM     70  C   UNL A   1      44.189  23.490  25.997  1.00  0.00     0.131 A 
ATOM     71  C   UNL A   1      43.202  20.937  26.120  1.00  0.00     0.055 A 
ATOM     72  C   UNL A   1      44.440  22.597  24.944  1.00  0.00     0.041 A 
ATOM     73  F   UNL A   1      44.678  24.715  25.802  1.00  0.00    -0.206 F 
ATOM     74  C   UNL A   1      43.935  21.309  24.997  1.00  0.00     0.022 A 
BRANCH  71  75
ATOM     75  S   UNL A   1      42.492  19.286  26.260  1.00  0.00     0.124 S 
ATOM     76  O   UNL A   1      43.578  18.451  25.755  1.00  0.00    -0.237 OA
ATOM     77  O   UNL A   1      42.214  19.193  27.689  1.00  0.00    -0.237 OA
ATOM     78  O   UNL A   1      41.311  19.354  25.403  1.00  0.00    -0.744 OA
ENDBRANCH  71  75
ENDBRANCH  54  68
BRANCH  55  79
ATOM     79  C   UNL A   1      42.487  31.336  34.076  1.00  0.00     0.023 A 
ATOM     80  C   UNL A   1      41.102  30.884  34.096  1.00  0.00     0.031 A 
ATOM     81  C   UNL A   1      42.720  32.563  34.699  1.00  0.00     0.131 A 
ATOM     82  C   UNL A   1      40.103  31.530  34.877  1.00  0.00     0.055 A 
ATOM     83  C   UNL A   1      41.691  33.258  35.375  1.00  0.00     0.041 A 
ATOM     84  F   UNL A   1      43.966  33.042  34.817  1.00  0.00    -0.206 F 
ATOM     85  C   UNL A   1      40.419  32.702  35.554  1.00  0.00     0.022 A 
BRANCH  82  86
ATOM     86  S   UNL A   1      38.493  30.693  35.289  1.00  0.00     0.124 S 
ATOM     87  O   UNL A   1      38.746  30.127  36.608  1.00  0.00    -0.237 OA
ATOM     88  O   UNL A   1      37.516  31.778  35.262  1.00  0.00    -0.237 OA
ATOM     89  O   UNL A   1      38.342  29.719  34.208  1.00  0.00    -0.744 OA
ENDBRANCH  82  86
ENDBRANCH  55  79
BRANCH  67  90
ATOM     90  C   UNL A   1      44.927  24.196  33.562  1.00  0.00     0.023 A 
ATOM     91  C   UNL A   1      46.253  23.834  33.748  1.00  0.00     0.031 A 
ATOM     92  C   UNL A   1      43.984  23.261  34.068  1.00  0.00     0.131 A 
ATOM     93  C   UNL A   1      46.597  22.840  34.668  1.00  0.00     0.055 A 
ATOM     94  C   UNL A   1      44.330  22.176  34.865  1.00  0.00     0.041 A 
ATOM     95  F   UNL A   1      42.667  23.324  33.855  1.00  0.00    -0.206 F 
ATOM     96  C   UNL A   1      45.643  22.001  35.233  1.00  0.00     0.022 A 
BRANCH  93  97
ATOM     97  S   UNL A   1      48.309  22.787  35.215  1.00  0.00     0.124 S 
ATOM     98  O   UNL A   1      48.271  23.566  36.448  1.00  0.00    -0.237 OA
ATOM     99  O   UNL A   1      48.521  21.352  35.383  1.00  0.00    -0.237 OA
ATOM    100  O   UNL A   1      49.038  23.400  34.108  1.00  0.00    -0.744 OA
ENDBRANCH  93  97
ENDBRANCH  67  90
ENDBRANCH  41  42
ENDBRANCH  34  36
ENDBRANCH  33  34
ENDBRANCH  32  33
ENDBRANCH  31  32
ENDBRANCH  30  31
ENDBRANCH   1  30
TORSDOF 23
ENDMDL
