MODEL 1
REMARK VINA RESULT:     -12.7      0.000      0.000
REMARK SMILES O=C(OCCOCCOCCOC(=O)[C@H]1CC2(CC[NH+](C(=O)c3cc4ccccc4[nH]3)CC2)CN1C(=O)C1CC1)c1ccc(-c2c3nc(c(-c4cc(S(=O)(=O)[O-])ccc4F)c4ccc([nH]4)c(-c4cc(S(=O)(=O)[O-])ccc4F)c4nc(c(-c5cc(S(=O)(=O)[O-])ccc5F)c5ccc2[nH]5)C=C4)C=C3)cc1
REMARK SMILES IDX 7 1 6 2 5 3 4 4 3 5 2 6 1 7 41 8 42 9 103 10 43 11 102 12
REMARK SMILES IDX 44 13 45 14 46 15 96 16 47 17 101 18 95 19 97 20 48 21
REMARK SMILES IDX 100 22 94 23 93 24 49 26 81 27 61 28 80 29 62 30 65 31 79 32
REMARK SMILES IDX 98 33 63 34 64 35 78 37 99 38 66 39 50 40 51 41 59 42 52 43
REMARK SMILES IDX 58 44 60 45 57 46 53 47 54 48 55 49 56 50 82 51 83 52 91 53
REMARK SMILES IDX 84 54 90 55 92 56 89 57 85 58 86 59 87 60 88 61 67 62 68 63
REMARK SMILES IDX 76 64 69 65 75 66 77 67 74 68 70 69 71 70 72 71 73 72 8 73
REMARK SMILES IDX 9 74 10 75 11 76 12 77 13 78 14 79 15 80 16 81 35 82 17 83
REMARK SMILES IDX 34 84 18 85 33 86 19 87 32 88 20 89 36 91 37 92 38 93 39 94
REMARK SMILES IDX 40 95 21 96 22 97 23 98 24 99 31 100 25 101 30 102 26 104
REMARK SMILES IDX 29 105 27 106 28 107
REMARK H PARENT 97 25 65 36 20 90 31 103
REMARK Flexibility Score: inf
ROOT
ATOM      1  C   UNL A   1      41.172  20.755  26.858  1.00  0.00     0.188 C 
ENDROOT
BRANCH   1   2
ATOM      2  O   UNL A   1      42.318  21.425  26.325  1.00  0.00    -0.376 OA
BRANCH   2   3
ATOM      3  C   UNL A   1      42.944  22.325  27.220  1.00  0.00     0.202 C 
BRANCH   3   4
ATOM      4  C   UNL A   1      43.118  23.754  26.704  1.00  0.00     0.261 C 
BRANCH   4   5
ATOM      5  O   UNL A   1      41.914  24.407  26.280  1.00  0.00    -0.460 OA
BRANCH   5   6
ATOM      6  C   UNL A   1      41.669  25.704  25.970  1.00  0.00     0.338 C 
ATOM      7  O   UNL A   1      41.823  26.033  24.791  1.00  0.00    -0.246 OA
BRANCH   6   8
ATOM      8  C   UNL A   1      41.308  26.785  26.951  1.00  0.00     0.060 A 
ATOM      9  C   UNL A   1      41.762  28.106  26.949  1.00  0.00     0.016 A 
ATOM     10  C   UNL A   1      40.440  26.406  27.997  1.00  0.00     0.016 A 
ATOM     11  C   UNL A   1      41.298  29.037  27.899  1.00  0.00     0.010 A 
ATOM     12  C   UNL A   1      39.981  27.325  28.953  1.00  0.00     0.010 A 
ATOM     13  C   UNL A   1      40.395  28.658  28.901  1.00  0.00    -0.014 A 
BRANCH  13  14
ATOM     14  C   UNL A   1      40.156  29.549  30.068  1.00  0.00     0.031 A 
ATOM     15  C   UNL A   1      41.030  29.311  31.256  1.00  0.00     0.074 A 
ATOM     16  C   UNL A   1      39.208  30.506  30.108  1.00  0.00     0.049 A 
ATOM     17  N   UNL A   1      41.071  29.939  32.397  1.00  0.00    -0.248 NA
ATOM     18  C   UNL A   1      41.997  28.209  31.125  1.00  0.00     0.031 C 
ATOM     19  C   UNL A   1      38.327  30.841  29.005  1.00  0.00     0.029 A 
ATOM     20  N   UNL A   1      38.812  31.366  31.105  1.00  0.00    -0.354 N 
ATOM     21  C   UNL A   1      42.102  29.338  33.103  1.00  0.00     0.074 A 
ATOM     22  C   UNL A   1      42.620  28.265  32.285  1.00  0.00     0.031 C 
ATOM     23  C   UNL A   1      37.485  31.824  29.368  1.00  0.00     0.029 A 
ATOM     24  C   UNL A   1      37.729  32.153  30.767  1.00  0.00     0.049 A 
ATOM     25  H   UNL A   1      39.260  31.417  31.979  1.00  0.00     0.167 HD
ATOM     26  C   UNL A   1      42.574  29.648  34.332  1.00  0.00     0.034 A 
ATOM     27  C   UNL A   1      36.997  33.009  31.513  1.00  0.00     0.034 A 
ATOM     28  C   UNL A   1      41.927  30.596  35.194  1.00  0.00     0.049 A 
ATOM     29  C   UNL A   1      37.410  33.208  32.953  1.00  0.00     0.074 A 
ATOM     30  C   UNL A   1      42.219  30.913  36.505  1.00  0.00     0.029 A 
ATOM     31  N   UNL A   1      40.801  31.333  34.841  1.00  0.00    -0.354 N 
ATOM     32  N   UNL A   1      38.413  32.657  33.600  1.00  0.00    -0.248 NA
ATOM     33  C   UNL A   1      36.611  34.136  33.763  1.00  0.00     0.031 C 
ATOM     34  C   UNL A   1      41.219  31.773  36.971  1.00  0.00     0.029 A 
ATOM     35  C   UNL A   1      40.362  32.075  35.921  1.00  0.00     0.049 A 
ATOM     36  H   UNL A   1      40.378  31.328  33.951  1.00  0.00     0.167 HD
ATOM     37  C   UNL A   1      38.394  33.206  34.879  1.00  0.00     0.074 A 
ATOM     38  C   UNL A   1      37.270  34.122  34.915  1.00  0.00     0.031 C 
ATOM     39  C   UNL A   1      39.239  32.988  35.918  1.00  0.00     0.034 A 
BRANCH  26  40
ATOM     40  C   UNL A   1      43.749  28.826  34.792  1.00  0.00     0.023 A 
ATOM     41  C   UNL A   1      43.549  27.591  35.443  1.00  0.00     0.031 A 
ATOM     42  C   UNL A   1      45.040  29.377  34.796  1.00  0.00     0.131 A 
ATOM     43  C   UNL A   1      44.589  27.028  36.194  1.00  0.00     0.055 A 
ATOM     44  C   UNL A   1      46.099  28.751  35.457  1.00  0.00     0.041 A 
ATOM     45  F   UNL A   1      45.276  30.571  34.230  1.00  0.00    -0.206 F 
ATOM     46  C   UNL A   1      45.869  27.586  36.186  1.00  0.00     0.022 A 
BRANCH  43  47
ATOM     47  S   UNL A   1      44.178  25.716  37.382  1.00  0.00     0.124 S 
ATOM     48  O   UNL A   1      43.079  26.328  38.128  1.00  0.00    -0.237 OA
ATOM     49  O   UNL A   1      43.815  24.602  36.514  1.00  0.00    -0.237 OA
ATOM     50  O   UNL A   1      45.413  25.541  38.142  1.00  0.00    -0.744 OA
ENDBRANCH  43  47
ENDBRANCH  26  40
BRANCH  27  51
ATOM     51  C   UNL A   1      35.780  33.683  30.954  1.00  0.00     0.023 A 
ATOM     52  C   UNL A   1      35.017  34.588  31.712  1.00  0.00     0.031 A 
ATOM     53  C   UNL A   1      35.336  33.394  29.648  1.00  0.00     0.131 A 
ATOM     54  C   UNL A   1      33.841  35.145  31.173  1.00  0.00     0.055 A 
ATOM     55  C   UNL A   1      34.189  33.979  29.103  1.00  0.00     0.041 A 
ATOM     56  F   UNL A   1      36.024  32.543  28.869  1.00  0.00    -0.206 F 
ATOM     57  C   UNL A   1      33.428  34.853  29.871  1.00  0.00     0.022 A 
BRANCH  54  58
ATOM     58  S   UNL A   1      32.820  36.227  32.217  1.00  0.00     0.124 S 
ATOM     59  O   UNL A   1      32.530  37.330  31.308  1.00  0.00    -0.237 OA
ATOM     60  O   UNL A   1      31.700  35.354  32.549  1.00  0.00    -0.237 OA
ATOM     61  O   UNL A   1      33.702  36.554  33.335  1.00  0.00    -0.744 OA
ENDBRANCH  54  58
ENDBRANCH  27  51
BRANCH  39  62
ATOM     62  C   UNL A   1      39.040  33.812  37.163  1.00  0.00     0.023 A 
ATOM     63  C   UNL A   1      38.448  33.289  38.323  1.00  0.00     0.031 A 
ATOM     64  C   UNL A   1      39.540  35.126  37.202  1.00  0.00     0.131 A 
ATOM     65  C   UNL A   1      38.357  34.087  39.473  1.00  0.00     0.055 A 
ATOM     66  C   UNL A   1      39.498  35.893  38.364  1.00  0.00     0.041 A 
ATOM     67  F   UNL A   1      40.112  35.671  36.115  1.00  0.00    -0.206 F 
ATOM     68  C   UNL A   1      38.901  35.375  39.508  1.00  0.00     0.022 A 
BRANCH  65  69
ATOM     69  S   UNL A   1      37.482  33.437  40.922  1.00  0.00     0.124 S 
ATOM     70  O   UNL A   1      38.519  32.637  41.567  1.00  0.00    -0.237 OA
ATOM     71  O   UNL A   1      37.087  34.654  41.623  1.00  0.00    -0.237 OA
ATOM     72  O   UNL A   1      36.381  32.672  40.342  1.00  0.00    -0.744 OA
ENDBRANCH  65  69
ENDBRANCH  39  62
ENDBRANCH  13  14
ENDBRANCH   6   8
ENDBRANCH   5   6
ENDBRANCH   4   5
ENDBRANCH   3   4
ENDBRANCH   2   3
ENDBRANCH   1   2
BRANCH   1  73
ATOM     73  C   UNL A   1      39.961  21.691  26.834  1.00  0.00     0.188 C 
BRANCH  73  74
ATOM     74  O   UNL A   1      39.062  21.439  25.746  1.00  0.00    -0.376 OA
BRANCH  74  75
ATOM     75  C   UNL A   1      37.913  22.286  25.687  1.00  0.00     0.202 C 
BRANCH  75  76
ATOM     76  C   UNL A   1      36.639  21.579  25.200  1.00  0.00     0.261 C 
BRANCH  76  77
ATOM     77  O   UNL A   1      35.474  22.406  25.347  1.00  0.00    -0.462 OA
BRANCH  77  78
ATOM     78  C   UNL A   1      34.526  21.994  26.216  1.00  0.00     0.328 C 
ATOM     79  O   UNL A   1      34.758  21.243  27.157  1.00  0.00    -0.250 OA
BRANCH  78  80
ATOM     80  C   UNL A   1      33.157  22.631  25.878  1.00  0.00     0.195 C 
ATOM     81  C   UNL A   1      33.486  24.138  25.715  1.00  0.00     0.046 C 
ATOM     82  N   UNL A   1      32.517  22.361  24.594  1.00  0.00    -0.328 N 
ATOM     83  C   UNL A   1      32.439  24.757  24.777  1.00  0.00     0.001 C 
ATOM     84  C   UNL A   1      31.882  23.550  24.035  1.00  0.00     0.128 C 
ATOM     85  C   UNL A   1      33.074  25.721  23.751  1.00  0.00     0.071 C 
ATOM     86  C   UNL A   1      31.359  25.520  25.567  1.00  0.00     0.071 C 
ATOM     87  C   UNL A   1      33.649  26.952  24.429  1.00  0.00     0.271 C 
ATOM     88  C   UNL A   1      31.907  26.811  26.184  1.00  0.00     0.271 C 
ATOM     89  N   UNL A   1      32.605  27.634  25.195  1.00  0.00    -0.266 N 
ATOM     90  H   UNL A   1      33.478  27.823  25.608  1.00  0.00     0.357 HD
BRANCH  82  91
ATOM     91  C   UNL A   1      32.446  21.216  23.836  1.00  0.00     0.226 C 
ATOM     92  O   UNL A   1      32.165  21.358  22.645  1.00  0.00    -0.275 OA
BRANCH  91  93
ATOM     93  C   UNL A   1      32.548  19.817  24.324  1.00  0.00     0.079 C 
ATOM     94  C   UNL A   1      32.694  18.477  23.692  1.00  0.00     0.014 C 
ATOM     95  C   UNL A   1      33.853  19.068  24.419  1.00  0.00     0.014 C 
ENDBRANCH  91  93
ENDBRANCH  82  91
BRANCH  89  96
ATOM     96  C   UNL A   1      32.408  29.013  25.214  1.00  0.00     0.360 C 
ATOM     97  O   UNL A   1      33.171  29.774  25.814  1.00  0.00    -0.224 OA
BRANCH  96  98
ATOM     98  C   UNL A   1      31.293  29.530  24.461  1.00  0.00     0.145 A 
ATOM     99  C   UNL A   1      30.689  28.973  23.350  1.00  0.00     0.046 A 
ATOM    100  N   UNL A   1      30.657  30.727  24.704  1.00  0.00    -0.347 N 
ATOM    101  C   UNL A   1      29.599  29.800  22.977  1.00  0.00     0.000 A 
ATOM    102  C   UNL A   1      29.591  30.890  23.847  1.00  0.00     0.046 A 
ATOM    103  H   UNL A   1      30.928  31.377  25.393  1.00  0.00     0.167 HD
ATOM    104  C   UNL A   1      28.611  29.718  21.979  1.00  0.00     0.010 A 
ATOM    105  C   UNL A   1      28.635  31.909  23.770  1.00  0.00     0.026 A 
ATOM    106  C   UNL A   1      27.645  30.725  21.888  1.00  0.00     0.001 A 
ATOM    107  C   UNL A   1      27.659  31.803  22.773  1.00  0.00     0.002 A 
ENDBRANCH  96  98
ENDBRANCH  89  96
ENDBRANCH  78  80
ENDBRANCH  77  78
ENDBRANCH  76  77
ENDBRANCH  75  76
ENDBRANCH  74  75
ENDBRANCH  73  74
ENDBRANCH   1  73
TORSDOF 24
ENDMDL
MODEL 2
REMARK VINA RESULT:     -12.2      3.483      9.603
REMARK SMILES O=C(OCCOCCOCCOC(=O)[C@H]1CC2(CC[NH+](C(=O)c3cc4ccccc4[nH]3)CC2)CN1C(=O)C1CC1)c1ccc(-c2c3nc(c(-c4cc(S(=O)(=O)[O-])ccc4F)c4ccc([nH]4)c(-c4cc(S(=O)(=O)[O-])ccc4F)c4nc(c(-c5cc(S(=O)(=O)[O-])ccc5F)c5ccc2[nH]5)C=C4)C=C3)cc1
REMARK SMILES IDX 7 1 6 2 5 3 4 4 3 5 2 6 1 7 41 8 42 9 103 10 43 11 102 12
REMARK SMILES IDX 44 13 45 14 46 15 96 16 47 17 101 18 95 19 97 20 48 21
REMARK SMILES IDX 100 22 94 23 93 24 49 26 81 27 61 28 80 29 62 30 65 31 79 32
REMARK SMILES IDX 98 33 63 34 64 35 78 37 99 38 66 39 50 40 51 41 59 42 52 43
REMARK SMILES IDX 58 44 60 45 57 46 53 47 54 48 55 49 56 50 82 51 83 52 91 53
REMARK SMILES IDX 84 54 90 55 92 56 89 57 85 58 86 59 87 60 88 61 67 62 68 63
REMARK SMILES IDX 76 64 69 65 75 66 77 67 74 68 70 69 71 70 72 71 73 72 8 73
REMARK SMILES IDX 9 74 10 75 11 76 12 77 13 78 14 79 15 80 16 81 35 82 17 83
REMARK SMILES IDX 34 84 18 85 33 86 19 87 32 88 20 89 36 91 37 92 38 93 39 94
REMARK SMILES IDX 40 95 21 96 22 97 23 98 24 99 31 100 25 101 30 102 26 104
REMARK SMILES IDX 29 105 27 106 28 107
REMARK H PARENT 97 25 65 36 20 90 31 103
REMARK Flexibility Score: inf
ROOT
ATOM      1  C   UNL A   1      31.446  27.783  26.717  1.00  0.00     0.188 C 
ENDROOT
BRANCH   1   2
ATOM      2  O   UNL A   1      32.154  28.740  27.509  1.00  0.00    -0.376 OA
BRANCH   2   3
ATOM      3  C   UNL A   1      32.325  30.004  26.894  1.00  0.00     0.202 C 
BRANCH   3   4
ATOM      4  C   UNL A   1      33.292  30.955  27.600  1.00  0.00     0.261 C 
BRANCH   4   5
ATOM      5  O   UNL A   1      34.677  30.784  27.271  1.00  0.00    -0.460 OA
BRANCH   5   6
ATOM      6  C   UNL A   1      35.551  29.800  27.592  1.00  0.00     0.338 C 
ATOM      7  O   UNL A   1      35.261  28.656  27.232  1.00  0.00    -0.246 OA
BRANCH   6   8
ATOM      8  C   UNL A   1      36.796  29.971  28.419  1.00  0.00     0.060 A 
ATOM      9  C   UNL A   1      37.669  31.062  28.406  1.00  0.00     0.016 A 
ATOM     10  C   UNL A   1      37.124  28.896  29.272  1.00  0.00     0.016 A 
ATOM     11  C   UNL A   1      38.775  31.120  29.277  1.00  0.00     0.010 A 
ATOM     12  C   UNL A   1      38.230  28.942  30.135  1.00  0.00     0.010 A 
ATOM     13  C   UNL A   1      39.057  30.067  30.157  1.00  0.00    -0.014 A 
BRANCH  13  14
ATOM     14  C   UNL A   1      40.378  29.996  30.837  1.00  0.00     0.031 A 
ATOM     15  C   UNL A   1      40.495  30.768  32.112  1.00  0.00     0.074 A 
ATOM     16  C   UNL A   1      41.438  29.313  30.362  1.00  0.00     0.049 A 
ATOM     17  N   UNL A   1      41.504  30.875  32.929  1.00  0.00    -0.248 NA
ATOM     18  C   UNL A   1      39.294  31.518  32.513  1.00  0.00     0.031 C 
ATOM     19  C   UNL A   1      41.427  28.508  29.155  1.00  0.00     0.029 A 
ATOM     20  N   UNL A   1      42.730  29.188  30.817  1.00  0.00    -0.354 N 
ATOM     21  C   UNL A   1      41.042  31.666  33.970  1.00  0.00     0.074 A 
ATOM     22  C   UNL A   1      39.688  32.055  33.651  1.00  0.00     0.031 C 
ATOM     23  C   UNL A   1      42.643  27.973  28.946  1.00  0.00     0.029 A 
ATOM     24  C   UNL A   1      43.548  28.450  29.984  1.00  0.00     0.049 A 
ATOM     25  H   UNL A   1      43.043  29.588  31.660  1.00  0.00     0.167 HD
ATOM     26  C   UNL A   1      41.693  32.044  35.093  1.00  0.00     0.034 A 
ATOM     27  C   UNL A   1      44.878  28.222  30.034  1.00  0.00     0.034 A 
ATOM     28  C   UNL A   1      43.092  31.796  35.299  1.00  0.00     0.049 A 
ATOM     29  C   UNL A   1      45.645  28.814  31.195  1.00  0.00     0.074 A 
ATOM     30  C   UNL A   1      43.906  32.231  36.325  1.00  0.00     0.029 A 
ATOM     31  N   UNL A   1      43.901  31.095  34.410  1.00  0.00    -0.354 N 
ATOM     32  N   UNL A   1      45.187  29.535  32.195  1.00  0.00    -0.248 NA
ATOM     33  C   UNL A   1      47.091  28.567  31.246  1.00  0.00     0.031 C 
ATOM     34  C   UNL A   1      45.221  31.869  36.012  1.00  0.00     0.029 A 
ATOM     35  C   UNL A   1      45.213  31.118  34.843  1.00  0.00     0.049 A 
ATOM     36  H   UNL A   1      43.585  30.647  33.591  1.00  0.00     0.167 HD
ATOM     37  C   UNL A   1      46.280  29.789  33.018  1.00  0.00     0.074 A 
ATOM     38  C   UNL A   1      47.423  29.155  32.389  1.00  0.00     0.031 C 
ATOM     39  C   UNL A   1      46.329  30.464  34.194  1.00  0.00     0.034 A 
BRANCH  26  40
ATOM     40  C   UNL A   1      40.882  32.870  36.056  1.00  0.00     0.023 A 
ATOM     41  C   UNL A   1      39.994  32.251  36.960  1.00  0.00     0.031 A 
ATOM     42  C   UNL A   1      40.819  34.265  35.913  1.00  0.00     0.131 A 
ATOM     43  C   UNL A   1      38.984  33.010  37.568  1.00  0.00     0.055 A 
ATOM     44  C   UNL A   1      39.880  35.028  36.609  1.00  0.00     0.041 A 
ATOM     45  F   UNL A   1      41.612  34.900  35.036  1.00  0.00    -0.206 F 
ATOM     46  C   UNL A   1      38.936  34.398  37.418  1.00  0.00     0.022 A 
BRANCH  43  47
ATOM     47  S   UNL A   1      37.593  32.130  38.336  1.00  0.00     0.124 S 
ATOM     48  O   UNL A   1      38.066  31.973  39.710  1.00  0.00    -0.237 OA
ATOM     49  O   UNL A   1      36.485  33.059  38.146  1.00  0.00    -0.237 OA
ATOM     50  O   UNL A   1      37.507  30.889  37.569  1.00  0.00    -0.744 OA
ENDBRANCH  43  47
ENDBRANCH  26  40
BRANCH  27  51
ATOM     51  C   UNL A   1      45.580  27.468  28.945  1.00  0.00     0.023 A 
ATOM     52  C   UNL A   1      46.064  28.107  27.791  1.00  0.00     0.031 A 
ATOM     53  C   UNL A   1      45.740  26.070  29.028  1.00  0.00     0.131 A 
ATOM     54  C   UNL A   1      46.655  27.351  26.760  1.00  0.00     0.055 A 
ATOM     55  C   UNL A   1      46.361  25.329  28.019  1.00  0.00     0.041 A 
ATOM     56  F   UNL A   1      45.306  25.400  30.108  1.00  0.00    -0.206 F 
ATOM     57  C   UNL A   1      46.814  25.968  26.870  1.00  0.00     0.022 A 
BRANCH  54  58
ATOM     58  S   UNL A   1      47.173  28.194  25.235  1.00  0.00     0.124 S 
ATOM     59  O   UNL A   1      46.812  27.215  24.216  1.00  0.00    -0.237 OA
ATOM     60  O   UNL A   1      46.366  29.409  25.275  1.00  0.00    -0.237 OA
ATOM     61  O   UNL A   1      48.607  28.398  25.427  1.00  0.00    -0.744 OA
ENDBRANCH  54  58
ENDBRANCH  27  51
BRANCH  39  62
ATOM     62  C   UNL A   1      47.643  30.489  34.930  1.00  0.00     0.023 A 
ATOM     63  C   UNL A   1      48.010  29.490  35.845  1.00  0.00     0.031 A 
ATOM     64  C   UNL A   1      48.576  31.498  34.630  1.00  0.00     0.131 A 
ATOM     65  C   UNL A   1      49.278  29.533  36.443  1.00  0.00     0.055 A 
ATOM     66  C   UNL A   1      49.855  31.502  35.184  1.00  0.00     0.041 A 
ATOM     67  F   UNL A   1      48.269  32.476  33.762  1.00  0.00    -0.206 F 
ATOM     68  C   UNL A   1      50.211  30.517  36.098  1.00  0.00     0.022 A 
BRANCH  65  69
ATOM     69  S   UNL A   1      49.689  28.305  37.712  1.00  0.00     0.124 S 
ATOM     70  O   UNL A   1      48.660  28.554  38.716  1.00  0.00    -0.237 OA
ATOM     71  O   UNL A   1      49.575  27.047  36.980  1.00  0.00    -0.237 OA
ATOM     72  O   UNL A   1      51.047  28.667  38.113  1.00  0.00    -0.744 OA
ENDBRANCH  65  69
ENDBRANCH  39  62
ENDBRANCH  13  14
ENDBRANCH   6   8
ENDBRANCH   5   6
ENDBRANCH   4   5
ENDBRANCH   3   4
ENDBRANCH   2   3
ENDBRANCH   1   2
BRANCH   1  73
ATOM     73  C   UNL A   1      31.769  27.990  25.235  1.00  0.00     0.188 C 
BRANCH  73  74
ATOM     74  O   UNL A   1      32.695  27.030  24.709  1.00  0.00    -0.376 OA
BRANCH  74  75
ATOM     75  C   UNL A   1      32.566  26.748  23.315  1.00  0.00     0.202 C 
BRANCH  75  76
ATOM     76  C   UNL A   1      33.645  25.802  22.766  1.00  0.00     0.261 C 
BRANCH  76  77
ATOM     77  O   UNL A   1      33.764  24.607  23.553  1.00  0.00    -0.462 OA
BRANCH  77  78
ATOM     78  C   UNL A   1      33.460  23.436  22.953  1.00  0.00     0.328 C 
ATOM     79  O   UNL A   1      32.817  23.361  21.912  1.00  0.00    -0.250 OA
BRANCH  78  80
ATOM     80  C   UNL A   1      34.068  22.245  23.734  1.00  0.00     0.195 C 
ATOM     81  C   UNL A   1      35.342  22.846  24.382  1.00  0.00     0.046 C 
ATOM     82  N   UNL A   1      33.393  21.721  24.918  1.00  0.00    -0.328 N 
ATOM     83  C   UNL A   1      35.661  22.037  25.648  1.00  0.00     0.001 C 
ATOM     84  C   UNL A   1      34.333  21.369  25.976  1.00  0.00     0.128 C 
ATOM     85  C   UNL A   1      36.067  22.944  26.831  1.00  0.00     0.071 C 
ATOM     86  C   UNL A   1      36.792  21.022  25.395  1.00  0.00     0.071 C 
ATOM     87  C   UNL A   1      37.390  23.640  26.567  1.00  0.00     0.271 C 
ATOM     88  C   UNL A   1      38.149  21.709  25.214  1.00  0.00     0.271 C 
ATOM     89  N   UNL A   1      38.433  22.648  26.300  1.00  0.00    -0.266 N 
ATOM     90  H   UNL A   1      38.667  23.488  25.842  1.00  0.00     0.357 HD
BRANCH  82  91
ATOM     91  C   UNL A   1      32.059  21.541  25.199  1.00  0.00     0.226 C 
ATOM     92  O   UNL A   1      31.557  20.476  24.835  1.00  0.00    -0.275 OA
BRANCH  91  93
ATOM     93  C   UNL A   1      31.129  22.540  25.784  1.00  0.00     0.079 C 
ATOM     94  C   UNL A   1      31.268  23.755  26.632  1.00  0.00     0.014 C 
ATOM     95  C   UNL A   1      30.910  23.910  25.193  1.00  0.00     0.014 C 
ENDBRANCH  91  93
ENDBRANCH  82  91
BRANCH  89  96
ATOM     96  C   UNL A   1      39.723  22.692  26.825  1.00  0.00     0.360 C 
ATOM     97  O   UNL A   1      40.177  21.779  27.517  1.00  0.00    -0.224 OA
BRANCH  96  98
ATOM     98  C   UNL A   1      40.532  23.837  26.491  1.00  0.00     0.145 A 
ATOM     99  C   UNL A   1      41.888  23.868  26.229  1.00  0.00     0.046 A 
ATOM    100  N   UNL A   1      40.081  25.136  26.423  1.00  0.00    -0.347 N 
ATOM    101  C   UNL A   1      42.244  25.200  25.893  1.00  0.00     0.000 A 
ATOM    102  C   UNL A   1      41.093  25.977  26.012  1.00  0.00     0.046 A 
ATOM    103  H   UNL A   1      39.165  25.424  26.639  1.00  0.00     0.167 HD
ATOM    104  C   UNL A   1      43.444  25.816  25.494  1.00  0.00     0.010 A 
ATOM    105  C   UNL A   1      41.079  27.350  25.745  1.00  0.00     0.026 A 
ATOM    106  C   UNL A   1      43.450  27.187  25.220  1.00  0.00     0.001 A 
ATOM    107  C   UNL A   1      42.283  27.940  25.343  1.00  0.00     0.002 A 
ENDBRANCH  96  98
ENDBRANCH  89  96
ENDBRANCH  78  80
ENDBRANCH  77  78
ENDBRANCH  76  77
ENDBRANCH  75  76
ENDBRANCH  74  75
ENDBRANCH  73  74
ENDBRANCH   1  73
TORSDOF 24
ENDMDL
MODEL 3
REMARK VINA RESULT:     -11.9      2.722      8.843
REMARK SMILES O=C(OCCOCCOCCOC(=O)[C@H]1CC2(CC[NH+](C(=O)c3cc4ccccc4[nH]3)CC2)CN1C(=O)C1CC1)c1ccc(-c2c3nc(c(-c4cc(S(=O)(=O)[O-])ccc4F)c4ccc([nH]4)c(-c4cc(S(=O)(=O)[O-])ccc4F)c4nc(c(-c5cc(S(=O)(=O)[O-])ccc5F)c5ccc2[nH]5)C=C4)C=C3)cc1
REMARK SMILES IDX 7 1 6 2 5 3 4 4 3 5 2 6 1 7 41 8 42 9 103 10 43 11 102 12
REMARK SMILES IDX 44 13 45 14 46 15 96 16 47 17 101 18 95 19 97 20 48 21
REMARK SMILES IDX 100 22 94 23 93 24 49 26 81 27 61 28 80 29 62 30 65 31 79 32
REMARK SMILES IDX 98 33 63 34 64 35 78 37 99 38 66 39 50 40 51 41 59 42 52 43
REMARK SMILES IDX 58 44 60 45 57 46 53 47 54 48 55 49 56 50 82 51 83 52 91 53
REMARK SMILES IDX 84 54 90 55 92 56 89 57 85 58 86 59 87 60 88 61 67 62 68 63
REMARK SMILES IDX 76 64 69 65 75 66 77 67 74 68 70 69 71 70 72 71 73 72 8 73
REMARK SMILES IDX 9 74 10 75 11 76 12 77 13 78 14 79 15 80 16 81 35 82 17 83
REMARK SMILES IDX 34 84 18 85 33 86 19 87 32 88 20 89 36 91 37 92 38 93 39 94
REMARK SMILES IDX 40 95 21 96 22 97 23 98 24 99 31 100 25 101 30 102 26 104
REMARK SMILES IDX 29 105 27 106 28 107
REMARK H PARENT 97 25 65 36 20 90 31 103
REMARK Flexibility Score: inf
ROOT
ATOM      1  C   UNL A   1      32.237  29.303  26.583  1.00  0.00     0.188 C 
ENDROOT
BRANCH   1   2
ATOM      2  O   UNL A   1      32.461  30.581  27.186  1.00  0.00    -0.376 OA
BRANCH   2   3
ATOM      3  C   UNL A   1      31.608  31.611  26.721  1.00  0.00     0.202 C 
BRANCH   3   4
ATOM      4  C   UNL A   1      31.965  33.022  27.189  1.00  0.00     0.261 C 
BRANCH   4   5
ATOM      5  O   UNL A   1      33.266  33.169  27.771  1.00  0.00    -0.460 OA
BRANCH   5   6
ATOM      6  C   UNL A   1      33.650  33.638  28.983  1.00  0.00     0.338 C 
ATOM      7  O   UNL A   1      32.977  34.553  29.465  1.00  0.00    -0.246 OA
BRANCH   6   8
ATOM      8  C   UNL A   1      34.867  33.196  29.747  1.00  0.00     0.060 A 
ATOM      9  C   UNL A   1      35.001  32.038  30.517  1.00  0.00     0.016 A 
ATOM     10  C   UNL A   1      35.977  34.066  29.697  1.00  0.00     0.016 A 
ATOM     11  C   UNL A   1      36.223  31.714  31.138  1.00  0.00     0.010 A 
ATOM     12  C   UNL A   1      37.195  33.756  30.323  1.00  0.00     0.010 A 
ATOM     13  C   UNL A   1      37.333  32.563  31.037  1.00  0.00    -0.014 A 
BRANCH  13  14
ATOM     14  C   UNL A   1      38.502  32.376  31.937  1.00  0.00     0.031 A 
ATOM     15  C   UNL A   1      39.721  31.785  31.305  1.00  0.00     0.074 A 
ATOM     16  C   UNL A   1      38.503  32.680  33.250  1.00  0.00     0.049 A 
ATOM     17  N   UNL A   1      40.887  31.530  31.827  1.00  0.00    -0.248 NA
ATOM     18  C   UNL A   1      39.596  31.443  29.880  1.00  0.00     0.031 C 
ATOM     19  C   UNL A   1      37.389  33.283  33.957  1.00  0.00     0.029 A 
ATOM     20  N   UNL A   1      39.454  32.521  34.230  1.00  0.00    -0.354 N 
ATOM     21  C   UNL A   1      41.652  31.041  30.779  1.00  0.00     0.074 A 
ATOM     22  C   UNL A   1      40.802  30.984  29.612  1.00  0.00     0.031 C 
ATOM     23  C   UNL A   1      37.698  33.443  35.255  1.00  0.00     0.029 A 
ATOM     24  C   UNL A   1      39.028  32.892  35.490  1.00  0.00     0.049 A 
ATOM     25  H   UNL A   1      40.357  32.173  34.050  1.00  0.00     0.167 HD
ATOM     26  C   UNL A   1      42.951  30.664  30.789  1.00  0.00     0.034 A 
ATOM     27  C   UNL A   1      39.626  32.765  36.694  1.00  0.00     0.034 A 
ATOM     28  C   UNL A   1      43.718  30.559  31.997  1.00  0.00     0.049 A 
ATOM     29  C   UNL A   1      41.010  32.158  36.725  1.00  0.00     0.074 A 
ATOM     30  C   UNL A   1      44.998  30.071  32.170  1.00  0.00     0.029 A 
ATOM     31  N   UNL A   1      43.238  30.890  33.261  1.00  0.00    -0.354 N 
ATOM     32  N   UNL A   1      41.738  31.731  35.717  1.00  0.00    -0.248 NA
ATOM     33  C   UNL A   1      41.657  32.018  38.035  1.00  0.00     0.031 C 
ATOM     34  C   UNL A   1      45.257  30.025  33.544  1.00  0.00     0.029 A 
ATOM     35  C   UNL A   1      44.181  30.581  34.223  1.00  0.00     0.049 A 
ATOM     36  H   UNL A   1      42.355  31.288  33.442  1.00  0.00     0.167 HD
ATOM     37  C   UNL A   1      42.947  31.314  36.267  1.00  0.00     0.074 A 
ATOM     38  C   UNL A   1      42.843  31.529  37.697  1.00  0.00     0.031 C 
ATOM     39  C   UNL A   1      44.047  30.819  35.644  1.00  0.00     0.034 A 
BRANCH  26  40
ATOM     40  C   UNL A   1      43.500  30.224  29.457  1.00  0.00     0.023 A 
ATOM     41  C   UNL A   1      43.832  28.873  29.230  1.00  0.00     0.031 A 
ATOM     42  C   UNL A   1      43.907  31.177  28.511  1.00  0.00     0.131 A 
ATOM     43  C   UNL A   1      44.678  28.538  28.163  1.00  0.00     0.055 A 
ATOM     44  C   UNL A   1      44.659  30.817  27.390  1.00  0.00     0.041 A 
ATOM     45  F   UNL A   1      43.655  32.481  28.699  1.00  0.00    -0.206 F 
ATOM     46  C   UNL A   1      45.073  29.497  27.228  1.00  0.00     0.022 A 
BRANCH  43  47
ATOM     47  S   UNL A   1      45.460  26.898  28.170  1.00  0.00     0.124 S 
ATOM     48  O   UNL A   1      46.879  27.248  28.194  1.00  0.00    -0.237 OA
ATOM     49  O   UNL A   1      44.931  26.298  29.388  1.00  0.00    -0.237 OA
ATOM     50  O   UNL A   1      44.998  26.293  26.923  1.00  0.00    -0.744 OA
ENDBRANCH  43  47
ENDBRANCH  26  40
BRANCH  27  51
ATOM     51  C   UNL A   1      38.917  33.147  37.959  1.00  0.00     0.023 A 
ATOM     52  C   UNL A   1      37.868  32.376  38.486  1.00  0.00     0.031 A 
ATOM     53  C   UNL A   1      39.260  34.331  38.644  1.00  0.00     0.131 A 
ATOM     54  C   UNL A   1      37.182  32.808  39.638  1.00  0.00     0.055 A 
ATOM     55  C   UNL A   1      38.602  34.737  39.808  1.00  0.00     0.041 A 
ATOM     56  F   UNL A   1      40.258  35.109  38.196  1.00  0.00    -0.206 F 
ATOM     57  C   UNL A   1      37.549  33.979  40.307  1.00  0.00     0.022 A 
BRANCH  54  58
ATOM     58  S   UNL A   1      35.761  31.843  40.231  1.00  0.00     0.124 S 
ATOM     59  O   UNL A   1      35.778  30.701  39.325  1.00  0.00    -0.237 OA
ATOM     60  O   UNL A   1      36.137  31.574  41.615  1.00  0.00    -0.237 OA
ATOM     61  O   UNL A   1      34.633  32.757  40.064  1.00  0.00    -0.744 OA
ENDBRANCH  54  58
ENDBRANCH  27  51
BRANCH  39  62
ATOM     62  C   UNL A   1      45.265  30.550  36.488  1.00  0.00     0.023 A 
ATOM     63  C   UNL A   1      45.517  29.296  37.064  1.00  0.00     0.031 A 
ATOM     64  C   UNL A   1      46.230  31.562  36.638  1.00  0.00     0.131 A 
ATOM     65  C   UNL A   1      46.707  29.090  37.779  1.00  0.00     0.055 A 
ATOM     66  C   UNL A   1      47.434  31.335  37.300  1.00  0.00     0.041 A 
ATOM     67  F   UNL A   1      46.030  32.780  36.107  1.00  0.00    -0.206 F 
ATOM     68  C   UNL A   1      47.676  30.094  37.878  1.00  0.00     0.022 A 
BRANCH  65  69
ATOM     69  S   UNL A   1      46.960  27.503  38.616  1.00  0.00     0.124 S 
ATOM     70  O   UNL A   1      45.681  27.310  39.291  1.00  0.00    -0.237 OA
ATOM     71  O   UNL A   1      47.237  26.601  37.503  1.00  0.00    -0.237 OA
ATOM     72  O   UNL A   1      48.095  27.760  39.501  1.00  0.00    -0.744 OA
ENDBRANCH  65  69
ENDBRANCH  39  62
ENDBRANCH  13  14
ENDBRANCH   6   8
ENDBRANCH   5   6
ENDBRANCH   4   5
ENDBRANCH   3   4
ENDBRANCH   2   3
ENDBRANCH   1   2
BRANCH   1  73
ATOM     73  C   UNL A   1      32.008  29.469  25.078  1.00  0.00     0.188 C 
BRANCH  73  74
ATOM     74  O   UNL A   1      33.032  28.872  24.272  1.00  0.00    -0.376 OA
BRANCH  74  75
ATOM     75  C   UNL A   1      32.921  29.098  22.866  1.00  0.00     0.202 C 
BRANCH  75  76
ATOM     76  C   UNL A   1      33.674  28.072  22.006  1.00  0.00     0.261 C 
BRANCH  76  77
ATOM     77  O   UNL A   1      33.775  26.795  22.657  1.00  0.00    -0.462 OA
BRANCH  77  78
ATOM     78  C   UNL A   1      33.305  25.719  21.989  1.00  0.00     0.328 C 
ATOM     79  O   UNL A   1      33.101  25.715  20.780  1.00  0.00    -0.250 OA
BRANCH  78  80
ATOM     80  C   UNL A   1      33.114  24.519  22.947  1.00  0.00     0.195 C 
ATOM     81  C   UNL A   1      34.561  24.163  23.379  1.00  0.00     0.046 C 
ATOM     82  N   UNL A   1      32.491  24.712  24.253  1.00  0.00    -0.328 N 
ATOM     83  C   UNL A   1      34.496  23.485  24.755  1.00  0.00     0.001 C 
ATOM     84  C   UNL A   1      33.143  23.927  25.295  1.00  0.00     0.128 C 
ATOM     85  C   UNL A   1      35.601  23.993  25.707  1.00  0.00     0.071 C 
ATOM     86  C   UNL A   1      34.616  21.954  24.633  1.00  0.00     0.071 C 
ATOM     87  C   UNL A   1      36.981  23.581  25.224  1.00  0.00     0.271 C 
ATOM     88  C   UNL A   1      36.029  21.521  24.231  1.00  0.00     0.271 C 
ATOM     89  N   UNL A   1      37.049  22.125  25.089  1.00  0.00    -0.266 N 
ATOM     90  H   UNL A   1      37.687  22.534  24.460  1.00  0.00     0.357 HD
BRANCH  82  91
ATOM     91  C   UNL A   1      31.444  25.509  24.652  1.00  0.00     0.226 C 
ATOM     92  O   UNL A   1      31.494  25.953  25.800  1.00  0.00    -0.275 OA
BRANCH  91  93
ATOM     93  C   UNL A   1      30.201  25.794  23.892  1.00  0.00     0.079 C 
ATOM     94  C   UNL A   1      28.918  26.496  24.173  1.00  0.00     0.014 C 
ATOM     95  C   UNL A   1      29.908  27.129  23.255  1.00  0.00     0.014 C 
ENDBRANCH  91  93
ENDBRANCH  82  91
BRANCH  89  96
ATOM     96  C   UNL A   1      38.120  21.339  25.510  1.00  0.00     0.360 C 
ATOM     97  O   UNL A   1      38.232  20.157  25.181  1.00  0.00    -0.224 OA
BRANCH  96  98
ATOM     98  C   UNL A   1      39.130  21.978  26.317  1.00  0.00     0.145 A 
ATOM     99  C   UNL A   1      40.290  21.422  26.820  1.00  0.00     0.046 A 
ATOM    100  N   UNL A   1      39.076  23.276  26.774  1.00  0.00    -0.347 N 
ATOM    101  C   UNL A   1      41.004  22.436  27.509  1.00  0.00     0.000 A 
ATOM    102  C   UNL A   1      40.229  23.593  27.459  1.00  0.00     0.046 A 
ATOM    103  H   UNL A   1      38.320  23.890  26.633  1.00  0.00     0.167 HD
ATOM    104  C   UNL A   1      42.246  22.474  28.169  1.00  0.00     0.010 A 
ATOM    105  C   UNL A   1      40.638  24.800  28.038  1.00  0.00     0.026 A 
ATOM    106  C   UNL A   1      42.674  23.672  28.750  1.00  0.00     0.001 A 
ATOM    107  C   UNL A   1      41.880  24.816  28.683  1.00  0.00     0.002 A 
ENDBRANCH  96  98
ENDBRANCH  89  96
ENDBRANCH  78  80
ENDBRANCH  77  78
ENDBRANCH  76  77
ENDBRANCH  75  76
ENDBRANCH  74  75
ENDBRANCH  73  74
ENDBRANCH   1  73
TORSDOF 24
ENDMDL
