MODEL 1
REMARK VINA RESULT:      -9.4      0.000      0.000
REMARK SMILES Cn1cccc1C[NH2+]Cc1ccc(C(=O)OCCOCCOCCOC(=O)c2ccc(-c3c4nc(c(-c5cc(S(=O)(=O)[O-])ccc5F)c5ccc([nH]5)c(-c5cc(S(=O)(=O)[O-])ccc5F)c5nc(c(-c6cc(S(=O)(=O)[O-])ccc6F)c6ccc3[nH]6)C=C5)C=C4)cc2)cc1
REMARK SMILES IDX 20 1 19 2 18 3 17 4 16 5 14 6 15 7 13 8 10 9 11 10 92 11
REMARK SMILES IDX 12 12 91 13 9 14 8 15 7 18 6 19 1 20 2 21 3 22 4 23 5 24
REMARK SMILES IDX 21 25 22 26 23 27 24 28 25 29 26 30 27 31 28 32 29 33 90 34
REMARK SMILES IDX 30 35 89 36 31 37 32 38 33 39 83 40 34 41 88 42 82 43 84 44
REMARK SMILES IDX 35 45 87 46 81 47 80 48 36 50 68 51 48 52 67 53 49 54 52 55
REMARK SMILES IDX 66 56 85 57 50 58 51 59 65 61 86 62 53 63 37 64 38 65 46 66
REMARK SMILES IDX 39 67 45 68 47 69 44 70 40 71 41 72 42 73 43 74 69 75 70 76
REMARK SMILES IDX 78 77 71 78 77 79 79 80 76 81 72 82 73 83 74 84 75 85 54 86
REMARK SMILES IDX 55 87 63 88 56 89 62 90 64 91 61 92 57 93 58 94 59 95 60 96
REMARK H PARENT 8 16 8 17 84 49 52 60
REMARK Flexibility Score: inf
ROOT
ATOM      1  C   UNL A   1      38.001  23.756  26.115  1.00  0.00     0.188 C 
ENDROOT
BRANCH   1   2
ATOM      2  O   UNL A   1      36.594  23.599  26.157  1.00  0.00    -0.376 OA
BRANCH   2   3
ATOM      3  C   UNL A   1      35.931  22.727  25.257  1.00  0.00     0.202 C 
BRANCH   3   4
ATOM      4  C   UNL A   1      35.589  21.264  25.587  1.00  0.00     0.261 C 
BRANCH   4   5
ATOM      5  O   UNL A   1      34.764  20.589  24.635  1.00  0.00    -0.460 OA
BRANCH   5   6
ATOM      6  C   UNL A   1      33.511  20.293  25.059  1.00  0.00     0.338 C 
ATOM      7  O   UNL A   1      33.182  19.344  25.756  1.00  0.00    -0.246 OA
BRANCH   6   8
ATOM      8  C   UNL A   1      32.581  21.380  24.683  1.00  0.00     0.060 A 
ATOM      9  C   UNL A   1      30.969  23.539  23.909  1.00  0.00     0.006 A 
ATOM     10  C   UNL A   1      31.713  22.831  22.953  1.00  0.00     0.010 A 
ATOM     11  C   UNL A   1      30.919  23.043  25.222  1.00  0.00     0.010 A 
ATOM     12  C   UNL A   1      32.517  21.759  23.339  1.00  0.00     0.016 A 
ATOM     13  C   UNL A   1      31.751  21.998  25.621  1.00  0.00     0.016 A 
BRANCH   9  14
ATOM     14  C   UNL A   1      30.289  24.831  23.496  1.00  0.00     0.297 C 
BRANCH  14  15
ATOM     15  N   UNL A   1      30.793  26.039  24.155  1.00  0.00    -0.338 N 
ATOM     16  H   UNL A   1      30.115  26.787  24.014  1.00  0.00     0.346 HD
ATOM     17  H   UNL A   1      30.923  25.807  25.140  1.00  0.00     0.346 HD
BRANCH  15  18
ATOM     18  C   UNL A   1      32.087  26.491  23.652  1.00  0.00     0.316 C 
BRANCH  18  19
ATOM     19  C   UNL A   1      32.759  27.301  24.721  1.00  0.00     0.072 A 
ATOM     20  C   UNL A   1      34.042  28.952  23.262  1.00  0.00     0.149 C 
ATOM     21  N   UNL A   1      33.614  28.364  24.511  1.00  0.00    -0.350 N 
ATOM     22  C   UNL A   1      34.058  28.839  25.725  1.00  0.00     0.085 A 
ATOM     23  C   UNL A   1      33.481  28.089  26.720  1.00  0.00     0.020 A 
ATOM     24  C   UNL A   1      32.665  27.126  26.093  1.00  0.00     0.029 A 
ENDBRANCH  18  19
ENDBRANCH  15  18
ENDBRANCH  14  15
ENDBRANCH   9  14
ENDBRANCH   6   8
ENDBRANCH   5   6
ENDBRANCH   4   5
ENDBRANCH   3   4
ENDBRANCH   2   3
ENDBRANCH   1   2
BRANCH   1  25
ATOM     25  C   UNL A   1      38.915  22.557  26.432  1.00  0.00     0.188 C 
BRANCH  25  26
ATOM     26  O   UNL A   1      39.121  21.629  25.393  1.00  0.00    -0.376 OA
BRANCH  26  27
ATOM     27  C   UNL A   1      38.965  20.243  25.649  1.00  0.00     0.202 C 
BRANCH  27  28
ATOM     28  C   UNL A   1      40.065  19.263  26.117  1.00  0.00     0.261 C 
BRANCH  28  29
ATOM     29  O   UNL A   1      41.315  19.234  25.425  1.00  0.00    -0.460 OA
BRANCH  29  30
ATOM     30  C   UNL A   1      42.411  19.540  26.162  1.00  0.00     0.338 C 
ATOM     31  O   UNL A   1      43.346  18.798  26.427  1.00  0.00    -0.246 OA
BRANCH  30  32
ATOM     32  C   UNL A   1      42.403  20.989  26.443  1.00  0.00     0.060 A 
ATOM     33  C   UNL A   1      42.473  21.890  25.371  1.00  0.00     0.016 A 
ATOM     34  C   UNL A   1      42.346  21.455  27.757  1.00  0.00     0.016 A 
ATOM     35  C   UNL A   1      42.500  23.264  25.614  1.00  0.00     0.010 A 
ATOM     36  C   UNL A   1      42.397  22.833  27.997  1.00  0.00     0.010 A 
ATOM     37  C   UNL A   1      42.498  23.744  26.929  1.00  0.00    -0.014 A 
BRANCH  37  38
ATOM     38  C   UNL A   1      42.773  25.179  27.199  1.00  0.00     0.031 A 
ATOM     39  C   UNL A   1      44.116  25.738  26.811  1.00  0.00     0.074 A 
ATOM     40  C   UNL A   1      41.848  25.977  27.762  1.00  0.00     0.049 A 
ATOM     41  N   UNL A   1      44.612  26.930  27.015  1.00  0.00    -0.248 NA
ATOM     42  C   UNL A   1      45.021  24.818  26.105  1.00  0.00     0.031 C 
ATOM     43  C   UNL A   1      40.494  25.568  28.132  1.00  0.00     0.029 A 
ATOM     44  N   UNL A   1      41.914  27.298  28.131  1.00  0.00    -0.354 N 
ATOM     45  C   UNL A   1      45.892  26.904  26.468  1.00  0.00     0.074 A 
ATOM     46  C   UNL A   1      46.104  25.565  25.962  1.00  0.00     0.031 C 
ATOM     47  C   UNL A   1      39.860  26.616  28.687  1.00  0.00     0.029 A 
ATOM     48  C   UNL A   1      40.775  27.755  28.756  1.00  0.00     0.049 A 
ATOM     49  H   UNL A   1      42.700  27.866  27.965  1.00  0.00     0.167 HD
ATOM     50  C   UNL A   1      46.802  27.907  26.392  1.00  0.00     0.034 A 
ATOM     51  C   UNL A   1      40.517  28.943  29.344  1.00  0.00     0.034 A 
ATOM     52  C   UNL A   1      46.580  29.233  26.916  1.00  0.00     0.049 A 
ATOM     53  C   UNL A   1      41.586  30.012  29.341  1.00  0.00     0.074 A 
ATOM     54  C   UNL A   1      47.428  30.326  26.880  1.00  0.00     0.029 A 
ATOM     55  N   UNL A   1      45.437  29.643  27.591  1.00  0.00    -0.354 N 
ATOM     56  N   UNL A   1      42.789  29.981  28.815  1.00  0.00    -0.248 NA
ATOM     57  C   UNL A   1      41.257  31.280  30.008  1.00  0.00     0.031 C 
ATOM     58  C   UNL A   1      46.837  31.366  27.603  1.00  0.00     0.029 A 
ATOM     59  C   UNL A   1      45.576  30.958  28.011  1.00  0.00     0.049 A 
ATOM     60  H   UNL A   1      44.643  29.082  27.748  1.00  0.00     0.167 HD
ATOM     61  C   UNL A   1      43.345  31.236  29.060  1.00  0.00     0.074 A 
ATOM     62  C   UNL A   1      42.341  32.003  29.765  1.00  0.00     0.031 C 
ATOM     63  C   UNL A   1      44.572  31.713  28.726  1.00  0.00     0.034 A 
BRANCH  50  64
ATOM     64  C   UNL A   1      48.138  27.584  25.768  1.00  0.00     0.023 A 
ATOM     65  C   UNL A   1      48.365  27.718  24.387  1.00  0.00     0.031 A 
ATOM     66  C   UNL A   1      49.194  27.105  26.564  1.00  0.00     0.131 A 
ATOM     67  C   UNL A   1      49.588  27.305  23.835  1.00  0.00     0.055 A 
ATOM     68  C   UNL A   1      50.439  26.780  26.020  1.00  0.00     0.041 A 
ATOM     69  F   UNL A   1      49.031  26.931  27.885  1.00  0.00    -0.206 F 
ATOM     70  C   UNL A   1      50.636  26.864  24.646  1.00  0.00     0.022 A 
BRANCH  67  71
ATOM     71  S   UNL A   1      49.734  27.207  22.030  1.00  0.00     0.124 S 
ATOM     72  O   UNL A   1      48.674  26.258  21.699  1.00  0.00    -0.237 OA
ATOM     73  O   UNL A   1      49.507  28.588  21.619  1.00  0.00    -0.237 OA
ATOM     74  O   UNL A   1      51.092  26.708  21.823  1.00  0.00    -0.744 OA
ENDBRANCH  67  71
ENDBRANCH  50  64
BRANCH  51  75
ATOM     75  C   UNL A   1      39.212  29.180  30.030  1.00  0.00     0.023 A 
ATOM     76  C   UNL A   1      38.222  29.989  29.450  1.00  0.00     0.031 A 
ATOM     77  C   UNL A   1      38.964  28.655  31.311  1.00  0.00     0.131 A 
ATOM     78  C   UNL A   1      37.053  30.288  30.168  1.00  0.00     0.055 A 
ATOM     79  C   UNL A   1      37.774  28.905  31.995  1.00  0.00     0.041 A 
ATOM     80  F   UNL A   1      39.880  27.884  31.919  1.00  0.00    -0.206 F 
ATOM     81  C   UNL A   1      36.814  29.739  31.429  1.00  0.00     0.022 A 
BRANCH  78  82
ATOM     82  S   UNL A   1      35.887  31.489  29.467  1.00  0.00     0.124 S 
ATOM     83  O   UNL A   1      35.147  30.665  28.520  1.00  0.00    -0.237 OA
ATOM     84  O   UNL A   1      35.153  31.925  30.651  1.00  0.00    -0.237 OA
ATOM     85  O   UNL A   1      36.758  32.499  28.869  1.00  0.00    -0.744 OA
ENDBRANCH  78  82
ENDBRANCH  51  75
BRANCH  63  86
ATOM     86  C   UNL A   1      44.877  33.152  29.075  1.00  0.00     0.023 A 
ATOM     87  C   UNL A   1      45.511  33.510  30.278  1.00  0.00     0.031 A 
ATOM     88  C   UNL A   1      44.522  34.185  28.187  1.00  0.00     0.131 A 
ATOM     89  C   UNL A   1      45.717  34.864  30.586  1.00  0.00     0.055 A 
ATOM     90  C   UNL A   1      44.793  35.525  28.467  1.00  0.00     0.041 A 
ATOM     91  F   UNL A   1      43.909  33.908  27.025  1.00  0.00    -0.206 F 
ATOM     92  C   UNL A   1      45.381  35.872  29.679  1.00  0.00     0.022 A 
BRANCH  89  93
ATOM     93  S   UNL A   1      46.338  35.300  32.234  1.00  0.00     0.124 S 
ATOM     94  O   UNL A   1      47.058  36.541  31.968  1.00  0.00    -0.237 OA
ATOM     95  O   UNL A   1      45.107  35.431  33.007  1.00  0.00    -0.237 OA
ATOM     96  O   UNL A   1      47.180  34.161  32.596  1.00  0.00    -0.744 OA
ENDBRANCH  89  93
ENDBRANCH  63  86
ENDBRANCH  37  38
ENDBRANCH  30  32
ENDBRANCH  29  30
ENDBRANCH  28  29
ENDBRANCH  27  28
ENDBRANCH  26  27
ENDBRANCH  25  26
ENDBRANCH   1  25
TORSDOF 24
ENDMDL
MODEL 2
REMARK VINA RESULT:      -9.2      2.201      7.827
REMARK SMILES Cn1cccc1C[NH2+]Cc1ccc(C(=O)OCCOCCOCCOC(=O)c2ccc(-c3c4nc(c(-c5cc(S(=O)(=O)[O-])ccc5F)c5ccc([nH]5)c(-c5cc(S(=O)(=O)[O-])ccc5F)c5nc(c(-c6cc(S(=O)(=O)[O-])ccc6F)c6ccc3[nH]6)C=C5)C=C4)cc2)cc1
REMARK SMILES IDX 20 1 19 2 18 3 17 4 16 5 14 6 15 7 13 8 10 9 11 10 92 11
REMARK SMILES IDX 12 12 91 13 9 14 8 15 7 18 6 19 1 20 2 21 3 22 4 23 5 24
REMARK SMILES IDX 21 25 22 26 23 27 24 28 25 29 26 30 27 31 28 32 29 33 90 34
REMARK SMILES IDX 30 35 89 36 31 37 32 38 33 39 83 40 34 41 88 42 82 43 84 44
REMARK SMILES IDX 35 45 87 46 81 47 80 48 36 50 68 51 48 52 67 53 49 54 52 55
REMARK SMILES IDX 66 56 85 57 50 58 51 59 65 61 86 62 53 63 37 64 38 65 46 66
REMARK SMILES IDX 39 67 45 68 47 69 44 70 40 71 41 72 42 73 43 74 69 75 70 76
REMARK SMILES IDX 78 77 71 78 77 79 79 80 76 81 72 82 73 83 74 84 75 85 54 86
REMARK SMILES IDX 55 87 63 88 56 89 62 90 64 91 61 92 57 93 58 94 59 95 60 96
REMARK H PARENT 8 16 8 17 84 49 52 60
REMARK Flexibility Score: inf
ROOT
ATOM      1  C   UNL A   1      38.528  24.079  26.434  1.00  0.00     0.188 C 
ENDROOT
BRANCH   1   2
ATOM      2  O   UNL A   1      37.140  24.061  26.157  1.00  0.00    -0.376 OA
BRANCH   2   3
ATOM      3  C   UNL A   1      36.550  22.976  25.460  1.00  0.00     0.202 C 
BRANCH   3   4
ATOM      4  C   UNL A   1      35.302  22.225  25.955  1.00  0.00     0.261 C 
BRANCH   4   5
ATOM      5  O   UNL A   1      34.768  21.249  25.058  1.00  0.00    -0.460 OA
BRANCH   5   6
ATOM      6  C   UNL A   1      33.546  20.764  25.390  1.00  0.00     0.338 C 
ATOM      7  O   UNL A   1      33.262  19.598  25.622  1.00  0.00    -0.246 OA
BRANCH   6   8
ATOM      8  C   UNL A   1      32.596  21.882  25.588  1.00  0.00     0.060 A 
ATOM      9  C   UNL A   1      30.897  24.097  25.834  1.00  0.00     0.006 A 
ATOM     10  C   UNL A   1      31.012  23.426  24.608  1.00  0.00     0.010 A 
ATOM     11  C   UNL A   1      31.516  23.540  26.965  1.00  0.00     0.010 A 
ATOM     12  C   UNL A   1      31.860  22.325  24.484  1.00  0.00     0.016 A 
ATOM     13  C   UNL A   1      32.395  22.465  26.840  1.00  0.00     0.016 A 
BRANCH   9  14
ATOM     14  C   UNL A   1      30.150  25.417  25.878  1.00  0.00     0.297 C 
BRANCH  14  15
ATOM     15  N   UNL A   1      30.940  26.594  25.506  1.00  0.00    -0.338 N 
ATOM     16  H   UNL A   1      30.801  27.311  26.218  1.00  0.00     0.346 HD
ATOM     17  H   UNL A   1      31.912  26.290  25.440  1.00  0.00     0.346 HD
BRANCH  15  18
ATOM     18  C   UNL A   1      30.585  27.159  24.208  1.00  0.00     0.316 C 
BRANCH  18  19
ATOM     19  C   UNL A   1      31.833  27.669  23.550  1.00  0.00     0.072 A 
ATOM     20  C   UNL A   1      32.533  25.571  22.282  1.00  0.00     0.149 C 
ATOM     21  N   UNL A   1      32.663  26.942  22.721  1.00  0.00    -0.350 N 
ATOM     22  C   UNL A   1      33.723  27.730  22.332  1.00  0.00     0.085 A 
ATOM     23  C   UNL A   1      33.572  28.970  22.900  1.00  0.00     0.020 A 
ATOM     24  C   UNL A   1      32.387  28.935  23.663  1.00  0.00     0.029 A 
ENDBRANCH  18  19
ENDBRANCH  15  18
ENDBRANCH  14  15
ENDBRANCH   9  14
ENDBRANCH   6   8
ENDBRANCH   5   6
ENDBRANCH   4   5
ENDBRANCH   3   4
ENDBRANCH   2   3
ENDBRANCH   1   2
BRANCH   1  25
ATOM     25  C   UNL A   1      39.250  22.773  26.819  1.00  0.00     0.188 C 
BRANCH  25  26
ATOM     26  O   UNL A   1      39.665  21.947  25.758  1.00  0.00    -0.376 OA
BRANCH  26  27
ATOM     27  C   UNL A   1      39.238  20.595  25.712  1.00  0.00     0.202 C 
BRANCH  27  28
ATOM     28  C   UNL A   1      40.099  19.346  26.011  1.00  0.00     0.261 C 
BRANCH  28  29
ATOM     29  O   UNL A   1      41.333  19.165  25.312  1.00  0.00    -0.460 OA
BRANCH  29  30
ATOM     30  C   UNL A   1      42.458  19.232  26.066  1.00  0.00     0.338 C 
ATOM     31  O   UNL A   1      43.216  18.310  26.332  1.00  0.00    -0.246 OA
BRANCH  30  32
ATOM     32  C   UNL A   1      42.746  20.648  26.363  1.00  0.00     0.060 A 
ATOM     33  C   UNL A   1      43.094  21.507  25.312  1.00  0.00     0.016 A 
ATOM     34  C   UNL A   1      42.690  21.121  27.675  1.00  0.00     0.016 A 
ATOM     35  C   UNL A   1      43.401  22.844  25.573  1.00  0.00     0.010 A 
ATOM     36  C   UNL A   1      43.021  22.455  27.937  1.00  0.00     0.010 A 
ATOM     37  C   UNL A   1      43.402  23.317  26.891  1.00  0.00    -0.014 A 
BRANCH  37  38
ATOM     38  C   UNL A   1      43.962  24.659  27.199  1.00  0.00     0.031 A 
ATOM     39  C   UNL A   1      43.035  25.717  27.735  1.00  0.00     0.074 A 
ATOM     40  C   UNL A   1      45.267  24.933  27.022  1.00  0.00     0.049 A 
ATOM     41  N   UNL A   1      43.272  26.975  28.002  1.00  0.00    -0.248 NA
ATOM     42  C   UNL A   1      41.651  25.294  27.996  1.00  0.00     0.031 C 
ATOM     43  C   UNL A   1      46.274  23.979  26.562  1.00  0.00     0.029 A 
ATOM     44  N   UNL A   1      45.966  26.102  27.200  1.00  0.00    -0.354 N 
ATOM     45  C   UNL A   1      42.065  27.499  28.456  1.00  0.00     0.074 A 
ATOM     46  C   UNL A   1      41.093  26.428  28.389  1.00  0.00     0.031 C 
ATOM     47  C   UNL A   1      47.461  24.605  26.481  1.00  0.00     0.029 A 
ATOM     48  C   UNL A   1      47.291  26.013  26.838  1.00  0.00     0.049 A 
ATOM     49  H   UNL A   1      45.559  26.925  27.552  1.00  0.00     0.167 HD
ATOM     50  C   UNL A   1      41.797  28.754  28.894  1.00  0.00     0.034 A 
ATOM     51  C   UNL A   1      48.246  26.966  26.772  1.00  0.00     0.034 A 
ATOM     52  C   UNL A   1      42.774  29.814  28.939  1.00  0.00     0.049 A 
ATOM     53  C   UNL A   1      47.896  28.384  27.163  1.00  0.00     0.074 A 
ATOM     54  C   UNL A   1      42.612  31.117  29.377  1.00  0.00     0.029 A 
ATOM     55  N   UNL A   1      44.092  29.703  28.513  1.00  0.00    -0.354 N 
ATOM     56  N   UNL A   1      46.755  28.867  27.598  1.00  0.00    -0.248 NA
ATOM     57  C   UNL A   1      48.968  29.384  27.057  1.00  0.00     0.031 C 
ATOM     58  C   UNL A   1      43.801  31.813  29.137  1.00  0.00     0.029 A 
ATOM     59  C   UNL A   1      44.740  30.923  28.639  1.00  0.00     0.049 A 
ATOM     60  H   UNL A   1      44.507  28.877  28.172  1.00  0.00     0.167 HD
ATOM     61  C   UNL A   1      46.984  30.219  27.851  1.00  0.00     0.074 A 
ATOM     62  C   UNL A   1      48.374  30.469  27.533  1.00  0.00     0.031 C 
ATOM     63  C   UNL A   1      46.126  31.166  28.309  1.00  0.00     0.034 A 
BRANCH  50  64
ATOM     64  C   UNL A   1      40.375  29.057  29.301  1.00  0.00     0.023 A 
ATOM     65  C   UNL A   1      39.962  29.016  30.644  1.00  0.00     0.031 A 
ATOM     66  C   UNL A   1      39.408  29.360  28.325  1.00  0.00     0.131 A 
ATOM     67  C   UNL A   1      38.608  29.199  30.967  1.00  0.00     0.055 A 
ATOM     68  C   UNL A   1      38.079  29.628  28.663  1.00  0.00     0.041 A 
ATOM     69  F   UNL A   1      39.735  29.387  27.023  1.00  0.00    -0.206 F 
ATOM     70  C   UNL A   1      37.669  29.533  29.988  1.00  0.00     0.022 A 
BRANCH  67  71
ATOM     71  S   UNL A   1      38.066  28.842  32.661  1.00  0.00     0.124 S 
ATOM     72  O   UNL A   1      36.705  29.375  32.653  1.00  0.00    -0.237 OA
ATOM     73  O   UNL A   1      38.183  27.390  32.730  1.00  0.00    -0.237 OA
ATOM     74  O   UNL A   1      39.013  29.587  33.487  1.00  0.00    -0.744 OA
ENDBRANCH  67  71
ENDBRANCH  50  64
BRANCH  51  75
ATOM     75  C   UNL A   1      49.613  26.635  26.273  1.00  0.00     0.023 A 
ATOM     76  C   UNL A   1      50.056  27.081  25.017  1.00  0.00     0.031 A 
ATOM     77  C   UNL A   1      50.474  25.809  27.017  1.00  0.00     0.131 A 
ATOM     78  C   UNL A   1      51.302  26.660  24.523  1.00  0.00     0.055 A 
ATOM     79  C   UNL A   1      51.737  25.443  26.549  1.00  0.00     0.041 A 
ATOM     80  F   UNL A   1      50.099  25.344  28.220  1.00  0.00    -0.206 F 
ATOM     81  C   UNL A   1      52.153  25.858  25.287  1.00  0.00     0.022 A 
BRANCH  78  82
ATOM     82  S   UNL A   1      51.755  27.097  22.822  1.00  0.00     0.124 S 
ATOM     83  O   UNL A   1      50.486  26.924  22.125  1.00  0.00    -0.237 OA
ATOM     84  O   UNL A   1      52.220  28.471  22.976  1.00  0.00    -0.237 OA
ATOM     85  O   UNL A   1      52.791  26.124  22.485  1.00  0.00    -0.744 OA
ENDBRANCH  78  82
ENDBRANCH  51  75
BRANCH  63  86
ATOM     86  C   UNL A   1      46.682  32.553  28.544  1.00  0.00     0.023 A 
ATOM     87  C   UNL A   1      46.707  33.528  27.531  1.00  0.00     0.031 A 
ATOM     88  C   UNL A   1      47.198  32.902  29.806  1.00  0.00     0.131 A 
ATOM     89  C   UNL A   1      47.290  34.781  27.780  1.00  0.00     0.055 A 
ATOM     90  C   UNL A   1      47.712  34.173  30.067  1.00  0.00     0.041 A 
ATOM     91  F   UNL A   1      47.206  32.013  30.812  1.00  0.00    -0.206 F 
ATOM     92  C   UNL A   1      47.773  35.117  29.047  1.00  0.00     0.022 A 
BRANCH  89  93
ATOM     93  S   UNL A   1      47.502  35.935  26.396  1.00  0.00     0.124 S 
ATOM     94  O   UNL A   1      47.915  35.041  25.318  1.00  0.00    -0.237 OA
ATOM     95  O   UNL A   1      46.169  36.516  26.266  1.00  0.00    -0.237 OA
ATOM     96  O   UNL A   1      48.536  36.853  26.869  1.00  0.00    -0.744 OA
ENDBRANCH  89  93
ENDBRANCH  63  86
ENDBRANCH  37  38
ENDBRANCH  30  32
ENDBRANCH  29  30
ENDBRANCH  28  29
ENDBRANCH  27  28
ENDBRANCH  26  27
ENDBRANCH  25  26
ENDBRANCH   1  25
TORSDOF 24
ENDMDL
MODEL 3
REMARK VINA RESULT:      -9.2      1.548      7.538
REMARK SMILES Cn1cccc1C[NH2+]Cc1ccc(C(=O)OCCOCCOCCOC(=O)c2ccc(-c3c4nc(c(-c5cc(S(=O)(=O)[O-])ccc5F)c5ccc([nH]5)c(-c5cc(S(=O)(=O)[O-])ccc5F)c5nc(c(-c6cc(S(=O)(=O)[O-])ccc6F)c6ccc3[nH]6)C=C5)C=C4)cc2)cc1
REMARK SMILES IDX 20 1 19 2 18 3 17 4 16 5 14 6 15 7 13 8 10 9 11 10 92 11
REMARK SMILES IDX 12 12 91 13 9 14 8 15 7 18 6 19 1 20 2 21 3 22 4 23 5 24
REMARK SMILES IDX 21 25 22 26 23 27 24 28 25 29 26 30 27 31 28 32 29 33 90 34
REMARK SMILES IDX 30 35 89 36 31 37 32 38 33 39 83 40 34 41 88 42 82 43 84 44
REMARK SMILES IDX 35 45 87 46 81 47 80 48 36 50 68 51 48 52 67 53 49 54 52 55
REMARK SMILES IDX 66 56 85 57 50 58 51 59 65 61 86 62 53 63 37 64 38 65 46 66
REMARK SMILES IDX 39 67 45 68 47 69 44 70 40 71 41 72 42 73 43 74 69 75 70 76
REMARK SMILES IDX 78 77 71 78 77 79 79 80 76 81 72 82 73 83 74 84 75 85 54 86
REMARK SMILES IDX 55 87 63 88 56 89 62 90 64 91 61 92 57 93 58 94 59 95 60 96
REMARK H PARENT 8 16 8 17 84 49 52 60
REMARK Flexibility Score: inf
ROOT
ATOM      1  C   UNL A   1      37.472  23.721  26.162  1.00  0.00     0.188 C 
ENDROOT
BRANCH   1   2
ATOM      2  O   UNL A   1      36.472  23.223  25.292  1.00  0.00    -0.376 OA
BRANCH   2   3
ATOM      3  C   UNL A   1      35.297  22.615  25.804  1.00  0.00     0.202 C 
BRANCH   3   4
ATOM      4  C   UNL A   1      35.076  21.093  25.846  1.00  0.00     0.261 C 
BRANCH   4   5
ATOM      5  O   UNL A   1      33.775  20.665  26.253  1.00  0.00    -0.460 OA
BRANCH   5   6
ATOM      6  C   UNL A   1      32.925  20.353  25.244  1.00  0.00     0.338 C 
ATOM      7  O   UNL A   1      32.718  19.241  24.782  1.00  0.00    -0.246 OA
BRANCH   6   8
ATOM      8  C   UNL A   1      32.142  21.547  24.856  1.00  0.00     0.060 A 
ATOM      9  C   UNL A   1      30.818  23.882  24.048  1.00  0.00     0.006 A 
ATOM     10  C   UNL A   1      31.403  23.034  23.096  1.00  0.00     0.010 A 
ATOM     11  C   UNL A   1      30.765  23.456  25.385  1.00  0.00     0.010 A 
ATOM     12  C   UNL A   1      32.064  21.874  23.498  1.00  0.00     0.016 A 
ATOM     13  C   UNL A   1      31.458  22.319  25.798  1.00  0.00     0.016 A 
BRANCH   9  14
ATOM     14  C   UNL A   1      30.309  25.241  23.603  1.00  0.00     0.297 C 
BRANCH  14  15
ATOM     15  N   UNL A   1      30.517  26.329  24.562  1.00  0.00    -0.338 N 
ATOM     16  H   UNL A   1      29.806  27.042  24.396  1.00  0.00     0.346 HD
ATOM     17  H   UNL A   1      30.452  25.919  25.494  1.00  0.00     0.346 HD
BRANCH  15  18
ATOM     18  C   UNL A   1      31.830  26.960  24.467  1.00  0.00     0.316 C 
BRANCH  18  19
ATOM     19  C   UNL A   1      31.879  28.111  25.427  1.00  0.00     0.072 A 
ATOM     20  C   UNL A   1      30.637  29.865  24.055  1.00  0.00     0.149 C 
ATOM     21  N   UNL A   1      31.353  29.368  25.208  1.00  0.00    -0.350 N 
ATOM     22  C   UNL A   1      31.615  30.168  26.298  1.00  0.00     0.085 A 
ATOM     23  C   UNL A   1      32.300  29.424  27.226  1.00  0.00     0.020 A 
ATOM     24  C   UNL A   1      32.465  28.134  26.683  1.00  0.00     0.029 A 
ENDBRANCH  18  19
ENDBRANCH  15  18
ENDBRANCH  14  15
ENDBRANCH   9  14
ENDBRANCH   6   8
ENDBRANCH   5   6
ENDBRANCH   4   5
ENDBRANCH   3   4
ENDBRANCH   2   3
ENDBRANCH   1   2
BRANCH   1  25
ATOM     25  C   UNL A   1      38.823  22.989  26.275  1.00  0.00     0.188 C 
BRANCH  25  26
ATOM     26  O   UNL A   1      39.054  21.947  25.358  1.00  0.00    -0.376 OA
BRANCH  26  27
ATOM     27  C   UNL A   1      38.736  20.613  25.717  1.00  0.00     0.202 C 
BRANCH  27  28
ATOM     28  C   UNL A   1      39.738  19.467  25.989  1.00  0.00     0.261 C 
BRANCH  28  29
ATOM     29  O   UNL A   1      41.008  19.481  25.333  1.00  0.00    -0.460 OA
BRANCH  29  30
ATOM     30  C   UNL A   1      42.094  19.575  26.140  1.00  0.00     0.338 C 
ATOM     31  O   UNL A   1      42.890  18.685  26.402  1.00  0.00    -0.246 OA
BRANCH  30  32
ATOM     32  C   UNL A   1      42.286  20.990  26.511  1.00  0.00     0.060 A 
ATOM     33  C   UNL A   1      42.433  21.946  25.496  1.00  0.00     0.016 A 
ATOM     34  C   UNL A   1      42.341  21.370  27.853  1.00  0.00     0.016 A 
ATOM     35  C   UNL A   1      42.648  23.286  25.822  1.00  0.00     0.010 A 
ATOM     36  C   UNL A   1      42.581  22.710  28.176  1.00  0.00     0.010 A 
ATOM     37  C   UNL A   1      42.760  23.671  27.164  1.00  0.00    -0.014 A 
BRANCH  37  38
ATOM     38  C   UNL A   1      43.230  25.037  27.509  1.00  0.00     0.031 A 
ATOM     39  C   UNL A   1      42.239  26.013  28.086  1.00  0.00     0.074 A 
ATOM     40  C   UNL A   1      44.511  25.405  27.330  1.00  0.00     0.049 A 
ATOM     41  N   UNL A   1      42.392  27.275  28.390  1.00  0.00    -0.248 NA
ATOM     42  C   UNL A   1      40.889  25.488  28.345  1.00  0.00     0.031 C 
ATOM     43  C   UNL A   1      45.576  24.537  26.831  1.00  0.00     0.029 A 
ATOM     44  N   UNL A   1      45.131  26.613  27.538  1.00  0.00    -0.354 N 
ATOM     45  C   UNL A   1      41.157  27.700  28.871  1.00  0.00     0.074 A 
ATOM     46  C   UNL A   1      40.259  26.568  28.778  1.00  0.00     0.031 C 
ATOM     47  C   UNL A   1      46.717  25.245  26.760  1.00  0.00     0.029 A 
ATOM     48  C   UNL A   1      46.455  26.626  27.163  1.00  0.00     0.049 A 
ATOM     49  H   UNL A   1      44.672  27.396  27.920  1.00  0.00     0.167 HD
ATOM     50  C   UNL A   1      40.808  28.920  29.350  1.00  0.00     0.034 A 
ATOM     51  C   UNL A   1      47.341  27.644  27.119  1.00  0.00     0.034 A 
ATOM     52  C   UNL A   1      41.712  30.043  29.420  1.00  0.00     0.049 A 
ATOM     53  C   UNL A   1      46.900  29.022  27.557  1.00  0.00     0.074 A 
ATOM     54  C   UNL A   1      41.466  31.317  29.900  1.00  0.00     0.029 A 
ATOM     55  N   UNL A   1      43.030  30.035  28.980  1.00  0.00    -0.354 N 
ATOM     56  N   UNL A   1      45.733  29.413  28.017  1.00  0.00    -0.248 NA
ATOM     57  C   UNL A   1      47.900  30.097  27.474  1.00  0.00     0.031 C 
ATOM     58  C   UNL A   1      42.602  32.100  29.673  1.00  0.00     0.029 A 
ATOM     59  C   UNL A   1      43.594  31.292  29.139  1.00  0.00     0.049 A 
ATOM     60  H   UNL A   1      43.496  29.251  28.610  1.00  0.00     0.167 HD
ATOM     61  C   UNL A   1      45.873  30.769  28.309  1.00  0.00     0.074 A 
ATOM     62  C   UNL A   1      47.238  31.123  27.988  1.00  0.00     0.031 C 
ATOM     63  C   UNL A   1      44.956  31.640  28.804  1.00  0.00     0.034 A 
BRANCH  50  64
ATOM     64  C   UNL A   1      39.373  29.112  29.779  1.00  0.00     0.023 A 
ATOM     65  C   UNL A   1      38.419  29.707  28.935  1.00  0.00     0.031 A 
ATOM     66  C   UNL A   1      38.961  28.722  31.066  1.00  0.00     0.131 A 
ATOM     67  C   UNL A   1      37.124  29.963  29.414  1.00  0.00     0.055 A 
ATOM     68  C   UNL A   1      37.647  28.900  31.504  1.00  0.00     0.041 A 
ATOM     69  F   UNL A   1      39.832  28.172  31.927  1.00  0.00    -0.206 F 
ATOM     70  C   UNL A   1      36.724  29.538  30.682  1.00  0.00     0.022 A 
BRANCH  67  71
ATOM     71  S   UNL A   1      36.020  30.997  28.413  1.00  0.00     0.124 S 
ATOM     72  O   UNL A   1      34.934  31.266  29.353  1.00  0.00    -0.237 OA
ATOM     73  O   UNL A   1      36.871  32.133  28.077  1.00  0.00    -0.237 OA
ATOM     74  O   UNL A   1      35.662  30.131  27.292  1.00  0.00    -0.744 OA
ENDBRANCH  67  71
ENDBRANCH  50  64
BRANCH  51  75
ATOM     75  C   UNL A   1      48.723  27.424  26.597  1.00  0.00     0.023 A 
ATOM     76  C   UNL A   1      49.039  27.665  25.251  1.00  0.00     0.031 A 
ATOM     77  C   UNL A   1      49.733  26.903  27.426  1.00  0.00     0.131 A 
ATOM     78  C   UNL A   1      50.315  27.340  24.761  1.00  0.00     0.055 A 
ATOM     79  C   UNL A   1      51.018  26.639  26.949  1.00  0.00     0.041 A 
ATOM     80  F   UNL A   1      49.484  26.643  28.719  1.00  0.00    -0.206 F 
ATOM     81  C   UNL A   1      51.312  26.845  25.605  1.00  0.00     0.022 A 
BRANCH  78  82
ATOM     82  S   UNL A   1      50.624  27.483  22.980  1.00  0.00     0.124 S 
ATOM     83  O   UNL A   1      50.662  28.930  22.801  1.00  0.00    -0.237 OA
ATOM     84  O   UNL A   1      51.897  26.784  22.836  1.00  0.00    -0.237 OA
ATOM     85  O   UNL A   1      49.474  26.810  22.380  1.00  0.00    -0.744 OA
ENDBRANCH  78  82
ENDBRANCH  51  75
BRANCH  63  86
ATOM     86  C   UNL A   1      45.418  33.054  29.078  1.00  0.00     0.023 A 
ATOM     87  C   UNL A   1      45.274  34.083  28.132  1.00  0.00     0.031 A 
ATOM     88  C   UNL A   1      46.018  33.374  30.311  1.00  0.00     0.131 A 
ATOM     89  C   UNL A   1      45.774  35.365  28.408  1.00  0.00     0.055 A 
ATOM     90  C   UNL A   1      46.451  34.668  30.607  1.00  0.00     0.041 A 
ATOM     91  F   UNL A   1      46.190  32.434  31.254  1.00  0.00    -0.206 F 
ATOM     92  C   UNL A   1      46.343  35.669  29.647  1.00  0.00     0.022 A 
BRANCH  89  93
ATOM     93  S   UNL A   1      45.766  36.609  27.087  1.00  0.00     0.124 S 
ATOM     94  O   UNL A   1      46.618  37.653  27.649  1.00  0.00    -0.237 OA
ATOM     95  O   UNL A   1      46.324  35.870  25.959  1.00  0.00    -0.237 OA
ATOM     96  O   UNL A   1      44.354  36.964  26.958  1.00  0.00    -0.744 OA
ENDBRANCH  89  93
ENDBRANCH  63  86
ENDBRANCH  37  38
ENDBRANCH  30  32
ENDBRANCH  29  30
ENDBRANCH  28  29
ENDBRANCH  27  28
ENDBRANCH  26  27
ENDBRANCH  25  26
ENDBRANCH   1  25
TORSDOF 24
ENDMDL
