MODEL 1
REMARK VINA RESULT:     -10.9      0.000      0.000
REMARK SMILES Cc1cc(C[N@H+]2CC[C@](C)(C(=O)OCCOCCOCCOC(=O)c3ccc(-c4c5nc(c(-c6cc(S(=O)(=O)[O-])ccc6F)c6ccc([nH]6)c(-c6cc(S(=O)(=O)[O-])ccc6F)c6nc(c(-c7cc(S(=O)(=O)[O-])ccc7F)c7ccc4[nH]7)C=C6)C=C5)cc3)C2)c2ccccc2n1
REMARK SMILES IDX 18 1 17 2 16 3 15 4 14 5 13 6 11 7 12 8 9 9 6 10 7 11 88 12
REMARK SMILES IDX 8 14 10 15 5 16 4 17 1 18 2 19 3 20 95 21 94 22 89 23 93 24
REMARK SMILES IDX 90 25 92 26 91 27 19 28 20 29 21 30 22 31 23 32 24 33 25 34
REMARK SMILES IDX 26 35 87 36 27 37 86 38 28 39 29 40 30 41 80 42 31 43 85 44
REMARK SMILES IDX 79 45 81 46 32 47 84 48 78 49 77 50 33 52 65 53 45 54 64 55
REMARK SMILES IDX 46 56 49 57 63 58 82 59 47 60 48 61 62 63 83 64 50 65 34 66
REMARK SMILES IDX 35 67 43 68 36 69 42 70 44 71 41 72 37 73 38 74 39 75 40 76
REMARK SMILES IDX 66 77 67 78 75 79 68 80 74 81 76 82 73 83 69 84 70 85 71 86
REMARK SMILES IDX 72 87 51 88 52 89 60 90 53 91 59 92 61 93 58 94 54 95 55 96
REMARK SMILES IDX 56 97 57 98
REMARK H PARENT 6 13 81 51 49 62
REMARK Flexibility Score: inf
ROOT
ATOM      1  C   UNL A   1      32.730  30.026  25.687  1.00  0.00     0.188 C 
ENDROOT
BRANCH   1   2
ATOM      2  C   UNL A   1      33.831  29.267  26.445  1.00  0.00     0.188 C 
BRANCH   2   3
ATOM      3  O   UNL A   1      33.512  28.075  27.155  1.00  0.00    -0.376 OA
BRANCH   3   4
ATOM      4  C   UNL A   1      33.023  26.944  26.455  1.00  0.00     0.202 C 
BRANCH   4   5
ATOM      5  C   UNL A   1      34.006  26.077  25.654  1.00  0.00     0.261 C 
BRANCH   5   6
ATOM      6  O   UNL A   1      34.046  26.298  24.231  1.00  0.00    -0.463 OA
BRANCH   6   7
ATOM      7  C   UNL A   1      32.842  26.371  23.603  1.00  0.00     0.317 C 
ATOM      8  O   UNL A   1      32.257  27.426  23.379  1.00  0.00    -0.251 OA
BRANCH   7   9
ATOM      9  C   UNL A   1      32.228  25.018  23.245  1.00  0.00     0.119 C 
ATOM     10  N   UNL A   1      32.995  22.776  23.781  1.00  0.00    -0.330 N 
ATOM     11  C   UNL A   1      32.892  22.872  22.326  1.00  0.00     0.263 C 
ATOM     12  C   UNL A   1      32.218  23.913  24.312  1.00  0.00     0.281 C 
ATOM     13  H   UNL A   1      33.961  22.860  24.097  1.00  0.00     0.348 HD
ATOM     14  C   UNL A   1      33.011  24.372  22.090  1.00  0.00     0.086 C 
ATOM     15  C   UNL A   1      30.768  25.306  22.842  1.00  0.00     0.030 C 
BRANCH  10  16
ATOM     16  C   UNL A   1      32.688  21.433  24.332  1.00  0.00     0.299 C 
BRANCH  16  17
ATOM     17  C   UNL A   1      33.889  20.592  24.754  1.00  0.00     0.017 A 
ATOM     18  C   UNL A   1      37.645  21.010  25.045  1.00  0.00     0.067 C 
ATOM     19  C   UNL A   1      36.278  20.408  24.905  1.00  0.00     0.038 A 
ATOM     20  C   UNL A   1      35.144  21.205  24.865  1.00  0.00     0.033 A 
ATOM     21  N   UNL A   1      36.225  19.067  24.735  1.00  0.00    -0.253 NA
ATOM     22  C   UNL A   1      35.021  18.475  24.655  1.00  0.00     0.071 A 
ATOM     23  C   UNL A   1      33.813  19.178  24.811  1.00  0.00     0.009 A 
ATOM     24  C   UNL A   1      34.951  17.129  24.315  1.00  0.00     0.029 A 
ATOM     25  C   UNL A   1      32.596  18.450  24.866  1.00  0.00     0.011 A 
ATOM     26  C   UNL A   1      33.734  16.450  24.207  1.00  0.00     0.002 A 
ATOM     27  C   UNL A   1      32.555  17.101  24.535  1.00  0.00     0.001 A 
ENDBRANCH  16  17
ENDBRANCH  10  16
ENDBRANCH   7   9
ENDBRANCH   6   7
ENDBRANCH   5   6
ENDBRANCH   4   5
ENDBRANCH   3   4
ENDBRANCH   2   3
ENDBRANCH   1   2
BRANCH   1  28
ATOM     28  O   UNL A   1      31.709  30.556  26.508  1.00  0.00    -0.376 OA
BRANCH  28  29
ATOM     29  C   UNL A   1      31.170  31.806  26.121  1.00  0.00     0.202 C 
BRANCH  29  30
ATOM     30  C   UNL A   1      31.585  33.015  26.974  1.00  0.00     0.261 C 
BRANCH  30  31
ATOM     31  O   UNL A   1      32.962  33.424  26.866  1.00  0.00    -0.460 OA
BRANCH  31  32
ATOM     32  C   UNL A   1      33.522  34.017  27.948  1.00  0.00     0.338 C 
ATOM     33  O   UNL A   1      33.053  34.945  28.586  1.00  0.00    -0.246 OA
BRANCH  32  34
ATOM     34  C   UNL A   1      34.690  33.199  28.363  1.00  0.00     0.060 A 
ATOM     35  C   UNL A   1      34.485  31.875  28.780  1.00  0.00     0.016 A 
ATOM     36  C   UNL A   1      35.982  33.724  28.320  1.00  0.00     0.016 A 
ATOM     37  C   UNL A   1      35.569  31.085  29.181  1.00  0.00     0.010 A 
ATOM     38  C   UNL A   1      37.064  32.939  28.743  1.00  0.00     0.010 A 
ATOM     39  C   UNL A   1      36.862  31.623  29.203  1.00  0.00    -0.014 A 
BRANCH  39  40
ATOM     40  C   UNL A   1      37.970  30.894  29.882  1.00  0.00     0.031 A 
ATOM     41  C   UNL A   1      38.275  31.240  31.318  1.00  0.00     0.074 A 
ATOM     42  C   UNL A   1      38.682  29.933  29.262  1.00  0.00     0.049 A 
ATOM     43  N   UNL A   1      39.242  30.818  32.091  1.00  0.00    -0.248 NA
ATOM     44  C   UNL A   1      37.360  32.195  31.964  1.00  0.00     0.031 C 
ATOM     45  C   UNL A   1      38.456  29.455  27.900  1.00  0.00     0.029 A 
ATOM     46  N   UNL A   1      39.754  29.191  29.702  1.00  0.00    -0.354 N 
ATOM     47  C   UNL A   1      39.049  31.449  33.317  1.00  0.00     0.074 A 
ATOM     48  C   UNL A   1      37.899  32.316  33.168  1.00  0.00     0.031 C 
ATOM     49  C   UNL A   1      39.372  28.513  27.609  1.00  0.00     0.029 A 
ATOM     50  C   UNL A   1      40.280  28.350  28.745  1.00  0.00     0.049 A 
ATOM     51  H   UNL A   1      40.113  29.254  30.616  1.00  0.00     0.167 HD
ATOM     52  C   UNL A   1      39.754  31.309  34.466  1.00  0.00     0.034 A 
ATOM     53  C   UNL A   1      41.382  27.570  28.772  1.00  0.00     0.034 A 
ATOM     54  C   UNL A   1      40.910  30.459  34.606  1.00  0.00     0.049 A 
ATOM     55  C   UNL A   1      42.227  27.527  30.032  1.00  0.00     0.074 A 
ATOM     56  C   UNL A   1      41.708  30.270  35.722  1.00  0.00     0.029 A 
ATOM     57  N   UNL A   1      41.438  29.661  33.602  1.00  0.00    -0.354 N 
ATOM     58  N   UNL A   1      42.038  28.139  31.179  1.00  0.00    -0.248 NA
ATOM     59  C   UNL A   1      43.429  26.681  30.000  1.00  0.00     0.031 C 
ATOM     60  C   UNL A   1      42.754  29.409  35.374  1.00  0.00     0.029 A 
ATOM     61  C   UNL A   1      42.562  28.995  34.067  1.00  0.00     0.049 A 
ATOM     62  H   UNL A   1      41.069  29.579  32.693  1.00  0.00     0.167 HD
ATOM     63  C   UNL A   1      43.073  27.711  32.013  1.00  0.00     0.074 A 
ATOM     64  C   UNL A   1      43.867  26.778  31.245  1.00  0.00     0.031 C 
ATOM     65  C   UNL A   1      43.342  28.056  33.298  1.00  0.00     0.034 A 
BRANCH  52  66
ATOM     66  C   UNL A   1      39.311  32.122  35.656  1.00  0.00     0.023 A 
ATOM     67  C   UNL A   1      39.749  33.444  35.846  1.00  0.00     0.031 A 
ATOM     68  C   UNL A   1      38.434  31.574  36.608  1.00  0.00     0.131 A 
ATOM     69  C   UNL A   1      39.350  34.157  36.985  1.00  0.00     0.055 A 
ATOM     70  C   UNL A   1      37.981  32.314  37.702  1.00  0.00     0.041 A 
ATOM     71  F   UNL A   1      38.002  30.308  36.491  1.00  0.00    -0.206 F 
ATOM     72  C   UNL A   1      38.446  33.610  37.901  1.00  0.00     0.022 A 
BRANCH  69  73
ATOM     73  S   UNL A   1      40.114  35.767  37.314  1.00  0.00     0.124 S 
ATOM     74  O   UNL A   1      39.549  36.100  38.619  1.00  0.00    -0.237 OA
ATOM     75  O   UNL A   1      41.539  35.451  37.297  1.00  0.00    -0.237 OA
ATOM     76  O   UNL A   1      39.646  36.601  36.209  1.00  0.00    -0.744 OA
ENDBRANCH  69  73
ENDBRANCH  52  66
BRANCH  53  77
ATOM     77  C   UNL A   1      41.816  26.799  27.565  1.00  0.00     0.023 A 
ATOM     78  C   UNL A   1      41.611  25.412  27.476  1.00  0.00     0.031 A 
ATOM     79  C   UNL A   1      42.559  27.416  26.543  1.00  0.00     0.131 A 
ATOM     80  C   UNL A   1      42.211  24.678  26.439  1.00  0.00     0.055 A 
ATOM     81  C   UNL A   1      43.089  26.693  25.472  1.00  0.00     0.041 A 
ATOM     82  F   UNL A   1      42.800  28.737  26.579  1.00  0.00    -0.206 F 
ATOM     83  C   UNL A   1      42.935  25.311  25.427  1.00  0.00     0.022 A 
BRANCH  80  84
ATOM     84  S   UNL A   1      42.165  22.865  26.520  1.00  0.00     0.124 S 
ATOM     85  O   UNL A   1      40.809  22.625  26.999  1.00  0.00    -0.237 OA
ATOM     86  O   UNL A   1      42.431  22.493  25.135  1.00  0.00    -0.237 OA
ATOM     87  O   UNL A   1      43.229  22.539  27.468  1.00  0.00    -0.744 OA
ENDBRANCH  80  84
ENDBRANCH  53  77
BRANCH  65  88
ATOM     88  C   UNL A   1      44.504  27.365  33.977  1.00  0.00     0.023 A 
ATOM     89  C   UNL A   1      44.342  26.175  34.708  1.00  0.00     0.031 A 
ATOM     90  C   UNL A   1      45.795  27.918  33.899  1.00  0.00     0.131 A 
ATOM     91  C   UNL A   1      45.436  25.612  35.383  1.00  0.00     0.055 A 
ATOM     92  C   UNL A   1      46.894  27.317  34.515  1.00  0.00     0.041 A 
ATOM     93  F   UNL A   1      46.013  29.054  33.216  1.00  0.00    -0.206 F 
ATOM     94  C   UNL A   1      46.714  26.165  35.276  1.00  0.00     0.022 A 
BRANCH  91  95
ATOM     95  S   UNL A   1      45.149  24.203  36.488  1.00  0.00     0.124 S 
ATOM     96  O   UNL A   1      46.488  23.949  37.012  1.00  0.00    -0.237 OA
ATOM     97  O   UNL A   1      44.186  24.744  37.441  1.00  0.00    -0.237 OA
ATOM     98  O   UNL A   1      44.625  23.169  35.598  1.00  0.00    -0.744 OA
ENDBRANCH  91  95
ENDBRANCH  65  88
ENDBRANCH  39  40
ENDBRANCH  32  34
ENDBRANCH  31  32
ENDBRANCH  30  31
ENDBRANCH  29  30
ENDBRANCH  28  29
ENDBRANCH   1  28
TORSDOF 22
ENDMDL
MODEL 2
REMARK VINA RESULT:     -10.6      2.227      9.413
REMARK SMILES Cc1cc(C[N@H+]2CC[C@](C)(C(=O)OCCOCCOCCOC(=O)c3ccc(-c4c5nc(c(-c6cc(S(=O)(=O)[O-])ccc6F)c6ccc([nH]6)c(-c6cc(S(=O)(=O)[O-])ccc6F)c6nc(c(-c7cc(S(=O)(=O)[O-])ccc7F)c7ccc4[nH]7)C=C6)C=C5)cc3)C2)c2ccccc2n1
REMARK SMILES IDX 18 1 17 2 16 3 15 4 14 5 13 6 11 7 12 8 9 9 6 10 7 11 88 12
REMARK SMILES IDX 8 14 10 15 5 16 4 17 1 18 2 19 3 20 95 21 94 22 89 23 93 24
REMARK SMILES IDX 90 25 92 26 91 27 19 28 20 29 21 30 22 31 23 32 24 33 25 34
REMARK SMILES IDX 26 35 87 36 27 37 86 38 28 39 29 40 30 41 80 42 31 43 85 44
REMARK SMILES IDX 79 45 81 46 32 47 84 48 78 49 77 50 33 52 65 53 45 54 64 55
REMARK SMILES IDX 46 56 49 57 63 58 82 59 47 60 48 61 62 63 83 64 50 65 34 66
REMARK SMILES IDX 35 67 43 68 36 69 42 70 44 71 41 72 37 73 38 74 39 75 40 76
REMARK SMILES IDX 66 77 67 78 75 79 68 80 74 81 76 82 73 83 69 84 70 85 71 86
REMARK SMILES IDX 72 87 51 88 52 89 60 90 53 91 59 92 61 93 58 94 54 95 55 96
REMARK SMILES IDX 56 97 57 98
REMARK H PARENT 6 13 81 51 49 62
REMARK Flexibility Score: inf
ROOT
ATOM      1  C   UNL A   1      41.304  20.108  26.457  1.00  0.00     0.188 C 
ENDROOT
BRANCH   1   2
ATOM      2  C   UNL A   1      39.837  20.437  26.141  1.00  0.00     0.188 C 
BRANCH   2   3
ATOM      3  O   UNL A   1      39.297  21.703  26.507  1.00  0.00    -0.376 OA
BRANCH   3   4
ATOM      4  C   UNL A   1      38.496  22.424  25.586  1.00  0.00     0.202 C 
BRANCH   4   5
ATOM      5  C   UNL A   1      37.120  22.939  26.035  1.00  0.00     0.261 C 
BRANCH   5   6
ATOM      6  O   UNL A   1      36.016  22.681  25.146  1.00  0.00    -0.463 OA
BRANCH   6   7
ATOM      7  C   UNL A   1      35.431  21.459  25.258  1.00  0.00     0.317 C 
ATOM      8  O   UNL A   1      36.045  20.400  25.165  1.00  0.00    -0.251 OA
BRANCH   7   9
ATOM      9  C   UNL A   1      33.915  21.495  25.448  1.00  0.00     0.119 C 
ATOM     10  N   UNL A   1      32.412  23.399  25.569  1.00  0.00    -0.330 N 
ATOM     11  C   UNL A   1      32.248  22.629  26.800  1.00  0.00     0.263 C 
ATOM     12  C   UNL A   1      33.096  22.498  24.622  1.00  0.00     0.281 C 
ATOM     13  H   UNL A   1      32.991  24.226  25.715  1.00  0.00     0.348 HD
ATOM     14  C   UNL A   1      33.574  21.884  26.896  1.00  0.00     0.086 C 
ATOM     15  C   UNL A   1      33.410  20.076  25.116  1.00  0.00     0.030 C 
BRANCH  10  16
ATOM     16  C   UNL A   1      31.174  24.065  25.092  1.00  0.00     0.299 C 
BRANCH  16  17
ATOM     17  C   UNL A   1      31.367  25.191  24.081  1.00  0.00     0.017 A 
ATOM     18  C   UNL A   1      32.521  25.572  20.491  1.00  0.00     0.067 C 
ATOM     19  C   UNL A   1      32.189  25.856  21.925  1.00  0.00     0.038 A 
ATOM     20  C   UNL A   1      31.680  24.868  22.754  1.00  0.00     0.033 A 
ATOM     21  N   UNL A   1      32.493  27.094  22.380  1.00  0.00    -0.253 NA
ATOM     22  C   UNL A   1      32.170  27.413  23.645  1.00  0.00     0.071 A 
ATOM     23  C   UNL A   1      31.464  26.543  24.495  1.00  0.00     0.009 A 
ATOM     24  C   UNL A   1      32.622  28.616  24.175  1.00  0.00     0.029 A 
ATOM     25  C   UNL A   1      31.030  27.019  25.759  1.00  0.00     0.011 A 
ATOM     26  C   UNL A   1      32.329  29.010  25.485  1.00  0.00     0.002 A 
ATOM     27  C   UNL A   1      31.486  28.232  26.262  1.00  0.00     0.001 A 
ENDBRANCH  16  17
ENDBRANCH  10  16
ENDBRANCH   7   9
ENDBRANCH   6   7
ENDBRANCH   5   6
ENDBRANCH   4   5
ENDBRANCH   3   4
ENDBRANCH   2   3
ENDBRANCH   1   2
BRANCH   1  28
ATOM     28  O   UNL A   1      42.040  19.594  25.366  1.00  0.00    -0.376 OA
BRANCH  28  29
ATOM     29  C   UNL A   1      43.449  19.586  25.499  1.00  0.00     0.202 C 
BRANCH  29  30
ATOM     30  C   UNL A   1      44.145  20.953  25.409  1.00  0.00     0.261 C 
BRANCH  30  31
ATOM     31  O   UNL A   1      43.327  22.053  24.969  1.00  0.00    -0.460 OA
BRANCH  31  32
ATOM     32  C   UNL A   1      43.940  23.243  24.766  1.00  0.00     0.338 C 
ATOM     33  O   UNL A   1      44.730  23.505  23.874  1.00  0.00    -0.246 OA
BRANCH  32  34
ATOM     34  C   UNL A   1      43.314  24.240  25.672  1.00  0.00     0.060 A 
ATOM     35  C   UNL A   1      43.753  25.572  25.631  1.00  0.00     0.016 A 
ATOM     36  C   UNL A   1      42.286  23.871  26.540  1.00  0.00     0.016 A 
ATOM     37  C   UNL A   1      43.183  26.530  26.478  1.00  0.00     0.010 A 
ATOM     38  C   UNL A   1      41.731  24.827  27.403  1.00  0.00     0.010 A 
ATOM     39  C   UNL A   1      42.194  26.156  27.398  1.00  0.00    -0.014 A 
BRANCH  39  40
ATOM     40  C   UNL A   1      41.783  27.092  28.483  1.00  0.00     0.031 A 
ATOM     41  C   UNL A   1      42.594  27.110  29.754  1.00  0.00     0.074 A 
ATOM     42  C   UNL A   1      40.732  27.924  28.351  1.00  0.00     0.049 A 
ATOM     43  N   UNL A   1      42.385  27.761  30.869  1.00  0.00    -0.248 NA
ATOM     44  C   UNL A   1      43.808  26.277  29.761  1.00  0.00     0.031 C 
ATOM     45  C   UNL A   1      39.898  28.056  27.157  1.00  0.00     0.029 A 
ATOM     46  N   UNL A   1      40.179  28.815  29.243  1.00  0.00    -0.354 N 
ATOM     47  C   UNL A   1      43.441  27.423  31.709  1.00  0.00     0.074 A 
ATOM     48  C   UNL A   1      44.265  26.475  30.988  1.00  0.00     0.031 C 
ATOM     49  C   UNL A   1      38.930  28.959  27.398  1.00  0.00     0.029 A 
ATOM     50  C   UNL A   1      39.043  29.439  28.775  1.00  0.00     0.049 A 
ATOM     51  H   UNL A   1      40.559  28.989  30.134  1.00  0.00     0.167 HD
ATOM     52  C   UNL A   1      43.712  27.871  32.959  1.00  0.00     0.034 A 
ATOM     53  C   UNL A   1      38.180  30.272  29.397  1.00  0.00     0.034 A 
ATOM     54  C   UNL A   1      42.880  28.801  33.682  1.00  0.00     0.049 A 
ATOM     55  C   UNL A   1      38.438  30.660  30.840  1.00  0.00     0.074 A 
ATOM     56  C   UNL A   1      43.055  29.294  34.963  1.00  0.00     0.029 A 
ATOM     57  N   UNL A   1      41.716  29.374  33.192  1.00  0.00    -0.354 N 
ATOM     58  N   UNL A   1      39.436  30.323  31.625  1.00  0.00    -0.248 NA
ATOM     59  C   UNL A   1      37.455  31.550  31.477  1.00  0.00     0.031 C 
ATOM     60  C   UNL A   1      41.964  30.114  35.271  1.00  0.00     0.029 A 
ATOM     61  C   UNL A   1      41.152  30.199  34.153  1.00  0.00     0.049 A 
ATOM     62  H   UNL A   1      41.344  29.218  32.293  1.00  0.00     0.167 HD
ATOM     63  C   UNL A   1      39.219  30.998  32.828  1.00  0.00     0.074 A 
ATOM     64  C   UNL A   1      38.011  31.773  32.658  1.00  0.00     0.031 C 
ATOM     65  C   UNL A   1      39.952  30.979  33.971  1.00  0.00     0.034 A 
BRANCH  52  66
ATOM     66  C   UNL A   1      44.945  27.332  33.639  1.00  0.00     0.023 A 
ATOM     67  C   UNL A   1      44.924  26.115  34.341  1.00  0.00     0.031 A 
ATOM     68  C   UNL A   1      46.159  28.038  33.578  1.00  0.00     0.131 A 
ATOM     69  C   UNL A   1      46.078  25.664  34.996  1.00  0.00     0.055 A 
ATOM     70  C   UNL A   1      47.325  27.548  34.170  1.00  0.00     0.041 A 
ATOM     71  F   UNL A   1      46.233  29.218  32.942  1.00  0.00    -0.206 F 
ATOM     72  C   UNL A   1      47.287  26.358  34.891  1.00  0.00     0.022 A 
BRANCH  69  73
ATOM     73  S   UNL A   1      45.953  24.216  36.078  1.00  0.00     0.124 S 
ATOM     74  O   UNL A   1      44.800  23.522  35.510  1.00  0.00    -0.237 OA
ATOM     75  O   UNL A   1      47.245  23.566  35.888  1.00  0.00    -0.237 OA
ATOM     76  O   UNL A   1      45.733  24.794  37.402  1.00  0.00    -0.744 OA
ENDBRANCH  69  73
ENDBRANCH  52  66
BRANCH  53  77
ATOM     77  C   UNL A   1      36.947  30.766  28.708  1.00  0.00     0.023 A 
ATOM     78  C   UNL A   1      36.590  32.124  28.740  1.00  0.00     0.031 A 
ATOM     79  C   UNL A   1      36.039  29.866  28.121  1.00  0.00     0.131 A 
ATOM     80  C   UNL A   1      35.329  32.532  28.274  1.00  0.00     0.055 A 
ATOM     81  C   UNL A   1      34.818  30.287  27.588  1.00  0.00     0.041 A 
ATOM     82  F   UNL A   1      36.317  28.553  28.072  1.00  0.00    -0.206 F 
ATOM     83  C   UNL A   1      34.447  31.624  27.684  1.00  0.00     0.022 A 
BRANCH  80  84
ATOM     84  S   UNL A   1      34.794  34.235  28.597  1.00  0.00     0.124 S 
ATOM     85  O   UNL A   1      34.778  34.800  27.252  1.00  0.00    -0.237 OA
ATOM     86  O   UNL A   1      33.492  34.030  29.221  1.00  0.00    -0.237 OA
ATOM     87  O   UNL A   1      35.834  34.758  29.480  1.00  0.00    -0.744 OA
ENDBRANCH  80  84
ENDBRANCH  53  77
BRANCH  65  88
ATOM     88  C   UNL A   1      39.506  31.881  35.100  1.00  0.00     0.023 A 
ATOM     89  C   UNL A   1      40.015  33.182  35.263  1.00  0.00     0.031 A 
ATOM     90  C   UNL A   1      38.562  31.422  36.037  1.00  0.00     0.131 A 
ATOM     91  C   UNL A   1      39.626  33.953  36.370  1.00  0.00     0.055 A 
ATOM     92  C   UNL A   1      38.128  32.219  37.098  1.00  0.00     0.041 A 
ATOM     93  F   UNL A   1      38.042  30.188  35.935  1.00  0.00    -0.206 F 
ATOM     94  C   UNL A   1      38.672  33.486  37.278  1.00  0.00     0.022 A 
BRANCH  91  95
ATOM     95  S   UNL A   1      40.460  35.536  36.667  1.00  0.00     0.124 S 
ATOM     96  O   UNL A   1      39.646  36.461  35.885  1.00  0.00    -0.237 OA
ATOM     97  O   UNL A   1      40.362  35.673  38.117  1.00  0.00    -0.237 OA
ATOM     98  O   UNL A   1      41.811  35.314  36.156  1.00  0.00    -0.744 OA
ENDBRANCH  91  95
ENDBRANCH  65  88
ENDBRANCH  39  40
ENDBRANCH  32  34
ENDBRANCH  31  32
ENDBRANCH  30  31
ENDBRANCH  29  30
ENDBRANCH  28  29
ENDBRANCH   1  28
TORSDOF 22
ENDMDL
MODEL 3
REMARK VINA RESULT:     -10.5      1.045      2.228
REMARK SMILES Cc1cc(C[N@H+]2CC[C@](C)(C(=O)OCCOCCOCCOC(=O)c3ccc(-c4c5nc(c(-c6cc(S(=O)(=O)[O-])ccc6F)c6ccc([nH]6)c(-c6cc(S(=O)(=O)[O-])ccc6F)c6nc(c(-c7cc(S(=O)(=O)[O-])ccc7F)c7ccc4[nH]7)C=C6)C=C5)cc3)C2)c2ccccc2n1
REMARK SMILES IDX 18 1 17 2 16 3 15 4 14 5 13 6 11 7 12 8 9 9 6 10 7 11 88 12
REMARK SMILES IDX 8 14 10 15 5 16 4 17 1 18 2 19 3 20 95 21 94 22 89 23 93 24
REMARK SMILES IDX 90 25 92 26 91 27 19 28 20 29 21 30 22 31 23 32 24 33 25 34
REMARK SMILES IDX 26 35 87 36 27 37 86 38 28 39 29 40 30 41 80 42 31 43 85 44
REMARK SMILES IDX 79 45 81 46 32 47 84 48 78 49 77 50 33 52 65 53 45 54 64 55
REMARK SMILES IDX 46 56 49 57 63 58 82 59 47 60 48 61 62 63 83 64 50 65 34 66
REMARK SMILES IDX 35 67 43 68 36 69 42 70 44 71 41 72 37 73 38 74 39 75 40 76
REMARK SMILES IDX 66 77 67 78 75 79 68 80 74 81 76 82 73 83 69 84 70 85 71 86
REMARK SMILES IDX 72 87 51 88 52 89 60 90 53 91 59 92 61 93 58 94 54 95 55 96
REMARK SMILES IDX 56 97 57 98
REMARK H PARENT 6 13 81 51 49 62
REMARK Flexibility Score: inf
ROOT
ATOM      1  C   UNL A   1      32.514  29.816  25.717  1.00  0.00     0.188 C 
ENDROOT
BRANCH   1   2
ATOM      2  C   UNL A   1      32.985  28.461  26.266  1.00  0.00     0.188 C 
BRANCH   2   3
ATOM      3  O   UNL A   1      32.160  27.310  26.123  1.00  0.00    -0.376 OA
BRANCH   3   4
ATOM      4  C   UNL A   1      31.013  27.360  25.291  1.00  0.00     0.202 C 
BRANCH   4   5
ATOM      5  C   UNL A   1      30.111  26.122  25.185  1.00  0.00     0.261 C 
BRANCH   5   6
ATOM      6  O   UNL A   1      30.103  25.438  23.917  1.00  0.00    -0.463 OA
BRANCH   6   7
ATOM      7  C   UNL A   1      31.127  25.733  23.072  1.00  0.00     0.317 C 
ATOM      8  O   UNL A   1      31.042  26.549  22.160  1.00  0.00    -0.251 OA
BRANCH   7   9
ATOM      9  C   UNL A   1      32.397  24.915  23.304  1.00  0.00     0.119 C 
ATOM     10  N   UNL A   1      33.656  24.550  25.349  1.00  0.00    -0.330 N 
ATOM     11  C   UNL A   1      34.568  25.133  24.367  1.00  0.00     0.263 C 
ATOM     12  C   UNL A   1      32.497  24.062  24.577  1.00  0.00     0.281 C 
ATOM     13  H   UNL A   1      33.334  25.244  26.024  1.00  0.00     0.348 HD
ATOM     14  C   UNL A   1      33.613  25.848  23.421  1.00  0.00     0.086 C 
ATOM     15  C   UNL A   1      32.527  23.975  22.087  1.00  0.00     0.030 C 
BRANCH  10  16
ATOM     16  C   UNL A   1      34.293  23.593  26.288  1.00  0.00     0.299 C 
BRANCH  16  17
ATOM     17  C   UNL A   1      35.256  22.586  25.667  1.00  0.00     0.017 A 
ATOM     18  C   UNL A   1      35.196  18.961  24.562  1.00  0.00     0.067 C 
ATOM     19  C   UNL A   1      35.664  20.310  25.022  1.00  0.00     0.038 A 
ATOM     20  C   UNL A   1      34.765  21.339  25.258  1.00  0.00     0.033 A 
ATOM     21  N   UNL A   1      36.988  20.435  25.273  1.00  0.00    -0.253 NA
ATOM     22  C   UNL A   1      37.463  21.637  25.641  1.00  0.00     0.071 A 
ATOM     23  C   UNL A   1      36.658  22.789  25.706  1.00  0.00     0.009 A 
ATOM     24  C   UNL A   1      38.784  21.742  26.061  1.00  0.00     0.029 A 
ATOM     25  C   UNL A   1      37.272  24.044  25.952  1.00  0.00     0.011 A 
ATOM     26  C   UNL A   1      39.344  22.959  26.463  1.00  0.00     0.002 A 
ATOM     27  C   UNL A   1      38.599  24.123  26.358  1.00  0.00     0.001 A 
ENDBRANCH  16  17
ENDBRANCH  10  16
ENDBRANCH   7   9
ENDBRANCH   6   7
ENDBRANCH   5   6
ENDBRANCH   4   5
ENDBRANCH   3   4
ENDBRANCH   2   3
ENDBRANCH   1   2
BRANCH   1  28
ATOM     28  O   UNL A   1      31.555  30.475  26.519  1.00  0.00    -0.376 OA
BRANCH  28  29
ATOM     29  C   UNL A   1      31.034  31.690  26.014  1.00  0.00     0.202 C 
BRANCH  29  30
ATOM     30  C   UNL A   1      31.636  32.978  26.597  1.00  0.00     0.261 C 
BRANCH  30  31
ATOM     31  O   UNL A   1      32.551  32.810  27.695  1.00  0.00    -0.460 OA
BRANCH  31  32
ATOM     32  C   UNL A   1      33.585  33.680  27.784  1.00  0.00     0.338 C 
ATOM     33  O   UNL A   1      33.514  34.895  27.706  1.00  0.00    -0.246 OA
BRANCH  32  34
ATOM     34  C   UNL A   1      34.785  32.921  28.219  1.00  0.00     0.060 A 
ATOM     35  C   UNL A   1      34.663  31.553  28.506  1.00  0.00     0.016 A 
ATOM     36  C   UNL A   1      36.028  33.546  28.323  1.00  0.00     0.016 A 
ATOM     37  C   UNL A   1      35.778  30.816  28.923  1.00  0.00     0.010 A 
ATOM     38  C   UNL A   1      37.139  32.812  28.761  1.00  0.00     0.010 A 
ATOM     39  C   UNL A   1      37.017  31.449  29.092  1.00  0.00    -0.014 A 
BRANCH  39  40
ATOM     40  C   UNL A   1      38.130  30.749  29.793  1.00  0.00     0.031 A 
ATOM     41  C   UNL A   1      38.406  31.111  31.230  1.00  0.00     0.074 A 
ATOM     42  C   UNL A   1      38.873  29.801  29.190  1.00  0.00     0.049 A 
ATOM     43  N   UNL A   1      39.370  30.716  32.021  1.00  0.00    -0.248 NA
ATOM     44  C   UNL A   1      37.459  32.049  31.857  1.00  0.00     0.031 C 
ATOM     45  C   UNL A   1      38.678  29.309  27.827  1.00  0.00     0.029 A 
ATOM     46  N   UNL A   1      39.955  29.086  29.650  1.00  0.00    -0.354 N 
ATOM     47  C   UNL A   1      39.145  31.350  33.239  1.00  0.00     0.074 A 
ATOM     48  C   UNL A   1      37.978  32.190  33.067  1.00  0.00     0.031 C 
ATOM     49  C   UNL A   1      39.620  28.387  27.557  1.00  0.00     0.029 A 
ATOM     50  C   UNL A   1      40.513  28.252  28.706  1.00  0.00     0.049 A 
ATOM     51  H   UNL A   1      40.299  29.163  30.569  1.00  0.00     0.167 HD
ATOM     52  C   UNL A   1      39.835  31.233  34.400  1.00  0.00     0.034 A 
ATOM     53  C   UNL A   1      41.633  27.496  28.755  1.00  0.00     0.034 A 
ATOM     54  C   UNL A   1      41.008  30.411  34.563  1.00  0.00     0.049 A 
ATOM     55  C   UNL A   1      42.459  27.481  30.028  1.00  0.00     0.074 A 
ATOM     56  C   UNL A   1      41.793  30.248  35.692  1.00  0.00     0.029 A 
ATOM     57  N   UNL A   1      41.569  29.619  33.572  1.00  0.00    -0.354 N 
ATOM     58  N   UNL A   1      42.239  28.095  31.168  1.00  0.00    -0.248 NA
ATOM     59  C   UNL A   1      43.680  26.662  30.019  1.00  0.00     0.031 C 
ATOM     60  C   UNL A   1      42.864  29.408  35.365  1.00  0.00     0.029 A 
ATOM     61  C   UNL A   1      42.701  28.982  34.057  1.00  0.00     0.049 A 
ATOM     62  H   UNL A   1      41.216  29.523  32.658  1.00  0.00     0.167 HD
ATOM     63  C   UNL A   1      43.271  27.696  32.020  1.00  0.00     0.074 A 
ATOM     64  C   UNL A   1      44.098  26.777  31.270  1.00  0.00     0.031 C 
ATOM     65  C   UNL A   1      43.513  28.056  33.307  1.00  0.00     0.034 A 
BRANCH  52  66
ATOM     66  C   UNL A   1      39.356  32.044  35.577  1.00  0.00     0.023 A 
ATOM     67  C   UNL A   1      39.758  33.378  35.763  1.00  0.00     0.031 A 
ATOM     68  C   UNL A   1      38.481  31.481  36.522  1.00  0.00     0.131 A 
ATOM     69  C   UNL A   1      39.326  34.089  36.892  1.00  0.00     0.055 A 
ATOM     70  C   UNL A   1      37.995  32.217  37.604  1.00  0.00     0.041 A 
ATOM     71  F   UNL A   1      38.082  30.203  36.409  1.00  0.00    -0.206 F 
ATOM     72  C   UNL A   1      38.424  33.526  37.799  1.00  0.00     0.022 A 
BRANCH  69  73
ATOM     73  S   UNL A   1      40.045  35.720  37.218  1.00  0.00     0.124 S 
ATOM     74  O   UNL A   1      39.678  36.451  36.007  1.00  0.00    -0.237 OA
ATOM     75  O   UNL A   1      39.363  36.128  38.441  1.00  0.00    -0.237 OA
ATOM     76  O   UNL A   1      41.473  35.444  37.361  1.00  0.00    -0.744 OA
ENDBRANCH  69  73
ENDBRANCH  52  66
BRANCH  53  77
ATOM     77  C   UNL A   1      42.102  26.728  27.560  1.00  0.00     0.023 A 
ATOM     78  C   UNL A   1      42.147  25.324  27.570  1.00  0.00     0.031 A 
ATOM     79  C   UNL A   1      42.636  27.391  26.440  1.00  0.00     0.131 A 
ATOM     80  C   UNL A   1      42.786  24.633  26.527  1.00  0.00     0.055 A 
ATOM     81  C   UNL A   1      43.202  26.696  25.369  1.00  0.00     0.041 A 
ATOM     82  F   UNL A   1      42.635  28.732  26.378  1.00  0.00    -0.206 F 
ATOM     83  C   UNL A   1      43.300  25.309  25.418  1.00  0.00     0.022 A 
BRANCH  80  84
ATOM     84  S   UNL A   1      43.078  22.852  26.717  1.00  0.00     0.124 S 
ATOM     85  O   UNL A   1      42.512  22.327  25.479  1.00  0.00    -0.237 OA
ATOM     86  O   UNL A   1      44.531  22.795  26.832  1.00  0.00    -0.237 OA
ATOM     87  O   UNL A   1      42.342  22.513  27.933  1.00  0.00    -0.744 OA
ENDBRANCH  80  84
ENDBRANCH  53  77
BRANCH  65  88
ATOM     88  C   UNL A   1      44.680  27.396  34.007  1.00  0.00     0.023 A 
ATOM     89  C   UNL A   1      44.520  26.250  34.807  1.00  0.00     0.031 A 
ATOM     90  C   UNL A   1      45.974  27.933  33.880  1.00  0.00     0.131 A 
ATOM     91  C   UNL A   1      45.621  25.718  35.497  1.00  0.00     0.055 A 
ATOM     92  C   UNL A   1      47.077  27.360  34.514  1.00  0.00     0.041 A 
ATOM     93  F   UNL A   1      46.189  29.027  33.131  1.00  0.00    -0.206 F 
ATOM     94  C   UNL A   1      46.901  26.255  35.341  1.00  0.00     0.022 A 
BRANCH  91  95
ATOM     95  S   UNL A   1      45.340  24.376  36.685  1.00  0.00     0.124 S 
ATOM     96  O   UNL A   1      44.362  23.549  35.985  1.00  0.00    -0.237 OA
ATOM     97  O   UNL A   1      46.674  23.801  36.826  1.00  0.00    -0.237 OA
ATOM     98  O   UNL A   1      44.835  25.065  37.870  1.00  0.00    -0.744 OA
ENDBRANCH  91  95
ENDBRANCH  65  88
ENDBRANCH  39  40
ENDBRANCH  32  34
ENDBRANCH  31  32
ENDBRANCH  30  31
ENDBRANCH  29  30
ENDBRANCH  28  29
ENDBRANCH   1  28
TORSDOF 22
ENDMDL
