MODEL 1
REMARK VINA RESULT:      -9.5      0.000      0.000
REMARK SMILES O=C(/C=C/C(=O)c1ccc(F)c(Br)c1)OCCOCCOCCOC(=O)c1ccc(-c2c3nc(c(-c4cc(S(=O)(=O)[O-])ccc4F)c4ccc([nH]4)c(-c4cc(S(=O)(=O)[O-])ccc4F)c4nc(c(-c5cc(S(=O)(=O)[O-])ccc5F)c5ccc2[nH]5)C=C4)C=C3)cc1
REMARK SMILES IDX 20 1 19 2 18 3 17 4 16 5 15 6 2 7 1 8 3 9 4 10 5 11 6 12
REMARK SMILES IDX 7 13 8 14 14 15 9 16 12 17 10 18 13 19 11 20 21 21 22 22
REMARK SMILES IDX 23 23 24 24 25 25 26 26 27 27 28 28 89 29 29 30 88 31 30 32
REMARK SMILES IDX 31 33 32 34 82 35 33 36 87 37 81 38 83 39 34 40 86 41 80 42
REMARK SMILES IDX 79 43 35 45 67 46 47 47 66 48 48 49 51 50 65 51 84 52 49 53
REMARK SMILES IDX 50 54 64 56 85 57 52 58 36 59 37 60 45 61 38 62 44 63 46 64
REMARK SMILES IDX 43 65 39 66 40 67 41 68 42 69 68 70 69 71 77 72 70 73 76 74
REMARK SMILES IDX 78 75 75 76 71 77 72 78 73 79 74 80 53 81 54 82 62 83 55 84
REMARK SMILES IDX 61 85 63 86 60 87 56 88 57 89 58 90 59 91
REMARK H PARENT 83 44 51 55
REMARK Flexibility Score: inf
ROOT
ATOM      1  C   UNL A   1      34.068  28.734  26.737  1.00  0.00     0.188 C 
ENDROOT
BRANCH   1   2
ATOM      2  C   UNL A   1      33.642  27.429  26.046  1.00  0.00     0.188 C 
BRANCH   2   3
ATOM      3  O   UNL A   1      32.402  26.966  26.529  1.00  0.00    -0.376 OA
BRANCH   3   4
ATOM      4  C   UNL A   1      32.106  25.590  26.501  1.00  0.00     0.202 C 
BRANCH   4   5
ATOM      5  C   UNL A   1      32.448  24.846  25.206  1.00  0.00     0.261 C 
BRANCH   5   6
ATOM      6  O   UNL A   1      31.655  25.127  24.025  1.00  0.00    -0.460 OA
BRANCH   6   7
ATOM      7  C   UNL A   1      31.820  26.208  23.225  1.00  0.00     0.330 C 
ATOM      8  O   UNL A   1      32.816  26.380  22.538  1.00  0.00    -0.247 OA
BRANCH   7   9
ATOM      9  C   UNL A   1      30.873  27.301  23.462  1.00  0.00     0.097 C 
ATOM     10  C   UNL A   1      30.187  27.813  22.435  1.00  0.00     0.060 C 
BRANCH  10  11
ATOM     11  C   UNL A   1      28.971  28.626  22.664  1.00  0.00     0.186 C 
ATOM     12  O   UNL A   1      28.092  28.156  23.381  1.00  0.00    -0.289 OA
BRANCH  11  13
ATOM     13  C   UNL A   1      28.808  29.973  22.080  1.00  0.00     0.023 A 
ATOM     14  C   UNL A   1      28.117  30.164  20.877  1.00  0.00     0.015 A 
ATOM     15  C   UNL A   1      29.225  31.074  22.846  1.00  0.00     0.031 A 
ATOM     16  C   UNL A   1      27.757  31.452  20.495  1.00  0.00     0.041 A 
ATOM     17  C   UNL A   1      28.861  32.357  22.456  1.00  0.00     0.054 A 
ATOM     18  C   UNL A   1      28.085  32.528  21.315  1.00  0.00     0.137 A 
ATOM     19  Br  UNL A   1      29.383  33.831  23.514  1.00  0.00    -0.048 Br
ATOM     20  F   UNL A   1      27.587  33.726  21.003  1.00  0.00    -0.206 F 
ENDBRANCH  11  13
ENDBRANCH  10  11
ENDBRANCH   7   9
ENDBRANCH   6   7
ENDBRANCH   5   6
ENDBRANCH   4   5
ENDBRANCH   3   4
ENDBRANCH   2   3
ENDBRANCH   1   2
BRANCH   1  21
ATOM     21  O   UNL A   1      33.083  29.540  27.375  1.00  0.00    -0.376 OA
BRANCH  21  22
ATOM     22  C   UNL A   1      32.341  30.486  26.613  1.00  0.00     0.202 C 
BRANCH  22  23
ATOM     23  C   UNL A   1      32.324  31.962  27.039  1.00  0.00     0.261 C 
BRANCH  23  24
ATOM     24  O   UNL A   1      33.596  32.546  27.378  1.00  0.00    -0.460 OA
BRANCH  24  25
ATOM     25  C   UNL A   1      33.529  33.554  28.284  1.00  0.00     0.338 C 
ATOM     26  O   UNL A   1      32.623  34.360  28.411  1.00  0.00    -0.246 OA
BRANCH  25  27
ATOM     27  C   UNL A   1      34.678  33.521  29.212  1.00  0.00     0.060 A 
ATOM     28  C   UNL A   1      35.905  34.038  28.775  1.00  0.00     0.016 A 
ATOM     29  C   UNL A   1      34.598  32.825  30.419  1.00  0.00     0.016 A 
ATOM     30  C   UNL A   1      37.070  33.813  29.517  1.00  0.00     0.010 A 
ATOM     31  C   UNL A   1      35.768  32.596  31.156  1.00  0.00     0.010 A 
ATOM     32  C   UNL A   1      37.018  33.050  30.689  1.00  0.00    -0.014 A 
BRANCH  32  33
ATOM     33  C   UNL A   1      38.259  32.554  31.346  1.00  0.00     0.031 A 
ATOM     34  C   UNL A   1      38.945  31.338  30.787  1.00  0.00     0.074 A 
ATOM     35  C   UNL A   1      38.782  33.144  32.434  1.00  0.00     0.049 A 
ATOM     36  N   UNL A   1      39.907  30.617  31.300  1.00  0.00    -0.248 NA
ATOM     37  C   UNL A   1      38.492  30.895  29.462  1.00  0.00     0.031 C 
ATOM     38  C   UNL A   1      38.334  34.404  33.017  1.00  0.00     0.029 A 
ATOM     39  N   UNL A   1      39.790  32.720  33.273  1.00  0.00    -0.354 N 
ATOM     40  C   UNL A   1      40.199  29.647  30.350  1.00  0.00     0.074 A 
ATOM     41  C   UNL A   1      39.261  29.836  29.260  1.00  0.00     0.031 C 
ATOM     42  C   UNL A   1      38.999  34.598  34.169  1.00  0.00     0.029 A 
ATOM     43  C   UNL A   1      39.844  33.444  34.439  1.00  0.00     0.049 A 
ATOM     44  H   UNL A   1      40.402  31.979  33.059  1.00  0.00     0.167 HD
ATOM     45  C   UNL A   1      41.179  28.707  30.368  1.00  0.00     0.034 A 
ATOM     46  C   UNL A   1      40.427  33.170  35.622  1.00  0.00     0.034 A 
ATOM     47  C   UNL A   1      42.088  28.508  31.471  1.00  0.00     0.049 A 
ATOM     48  C   UNL A   1      41.313  31.969  35.752  1.00  0.00     0.074 A 
ATOM     49  C   UNL A   1      43.144  27.617  31.574  1.00  0.00     0.029 A 
ATOM     50  N   UNL A   1      42.029  29.186  32.683  1.00  0.00    -0.354 N 
ATOM     51  N   UNL A   1      41.591  31.051  34.859  1.00  0.00    -0.248 NA
ATOM     52  C   UNL A   1      42.002  31.796  37.037  1.00  0.00     0.031 C 
ATOM     53  C   UNL A   1      43.673  27.706  32.870  1.00  0.00     0.029 A 
ATOM     54  C   UNL A   1      42.996  28.703  33.554  1.00  0.00     0.049 A 
ATOM     55  H   UNL A   1      41.393  29.908  32.893  1.00  0.00     0.167 HD
ATOM     56  C   UNL A   1      42.540  30.227  35.450  1.00  0.00     0.074 A 
ATOM     57  C   UNL A   1      42.755  30.733  36.792  1.00  0.00     0.031 C 
ATOM     58  C   UNL A   1      43.207  29.180  34.901  1.00  0.00     0.034 A 
BRANCH  45  59
ATOM     59  C   UNL A   1      41.267  27.799  29.167  1.00  0.00     0.023 A 
ATOM     60  C   UNL A   1      42.274  27.960  28.197  1.00  0.00     0.031 A 
ATOM     61  C   UNL A   1      40.290  26.813  28.946  1.00  0.00     0.131 A 
ATOM     62  C   UNL A   1      42.223  27.218  27.007  1.00  0.00     0.055 A 
ATOM     63  C   UNL A   1      40.296  26.017  27.800  1.00  0.00     0.041 A 
ATOM     64  F   UNL A   1      39.296  26.628  29.828  1.00  0.00    -0.206 F 
ATOM     65  C   UNL A   1      41.253  26.233  26.812  1.00  0.00     0.022 A 
BRANCH  62  66
ATOM     66  S   UNL A   1      43.328  27.690  25.647  1.00  0.00     0.124 S 
ATOM     67  O   UNL A   1      43.930  28.916  26.166  1.00  0.00    -0.237 OA
ATOM     68  O   UNL A   1      44.213  26.536  25.545  1.00  0.00    -0.237 OA
ATOM     69  O   UNL A   1      42.418  27.882  24.519  1.00  0.00    -0.744 OA
ENDBRANCH  62  66
ENDBRANCH  45  59
BRANCH  46  70
ATOM     70  C   UNL A   1      40.076  33.971  36.824  1.00  0.00     0.023 A 
ATOM     71  C   UNL A   1      40.884  35.012  37.296  1.00  0.00     0.031 A 
ATOM     72  C   UNL A   1      38.904  33.656  37.537  1.00  0.00     0.131 A 
ATOM     73  C   UNL A   1      40.502  35.712  38.453  1.00  0.00     0.055 A 
ATOM     74  C   UNL A   1      38.513  34.376  38.667  1.00  0.00     0.041 A 
ATOM     75  F   UNL A   1      38.120  32.646  37.133  1.00  0.00    -0.206 F 
ATOM     76  C   UNL A   1      39.315  35.414  39.130  1.00  0.00     0.022 A 
BRANCH  73  77
ATOM     77  S   UNL A   1      41.594  37.015  39.084  1.00  0.00     0.124 S 
ATOM     78  O   UNL A   1      42.235  36.347  40.211  1.00  0.00    -0.237 OA
ATOM     79  O   UNL A   1      42.445  37.287  37.930  1.00  0.00    -0.237 OA
ATOM     80  O   UNL A   1      40.672  38.093  39.436  1.00  0.00    -0.744 OA
ENDBRANCH  73  77
ENDBRANCH  46  70
BRANCH  58  81
ATOM     81  C   UNL A   1      44.306  28.567  35.727  1.00  0.00     0.023 A 
ATOM     82  C   UNL A   1      44.091  27.454  36.558  1.00  0.00     0.031 A 
ATOM     83  C   UNL A   1      45.591  29.139  35.707  1.00  0.00     0.131 A 
ATOM     84  C   UNL A   1      45.132  26.980  37.371  1.00  0.00     0.055 A 
ATOM     85  C   UNL A   1      46.638  28.629  36.476  1.00  0.00     0.041 A 
ATOM     86  F   UNL A   1      45.849  30.212  34.942  1.00  0.00    -0.206 F 
ATOM     87  C   UNL A   1      46.407  27.549  37.322  1.00  0.00     0.022 A 
BRANCH  84  88
ATOM     88  S   UNL A   1      44.781  25.656  38.561  1.00  0.00     0.124 S 
ATOM     89  O   UNL A   1      43.793  24.860  37.841  1.00  0.00    -0.237 OA
ATOM     90  O   UNL A   1      46.091  25.038  38.740  1.00  0.00    -0.237 OA
ATOM     91  O   UNL A   1      44.271  26.370  39.730  1.00  0.00    -0.744 OA
ENDBRANCH  84  88
ENDBRANCH  58  81
ENDBRANCH  32  33
ENDBRANCH  25  27
ENDBRANCH  24  25
ENDBRANCH  23  24
ENDBRANCH  22  23
ENDBRANCH  21  22
ENDBRANCH   1  21
TORSDOF 22
ENDMDL
MODEL 2
REMARK VINA RESULT:      -9.3      5.290      8.879
REMARK SMILES O=C(/C=C/C(=O)c1ccc(F)c(Br)c1)OCCOCCOCCOC(=O)c1ccc(-c2c3nc(c(-c4cc(S(=O)(=O)[O-])ccc4F)c4ccc([nH]4)c(-c4cc(S(=O)(=O)[O-])ccc4F)c4nc(c(-c5cc(S(=O)(=O)[O-])ccc5F)c5ccc2[nH]5)C=C4)C=C3)cc1
REMARK SMILES IDX 20 1 19 2 18 3 17 4 16 5 15 6 2 7 1 8 3 9 4 10 5 11 6 12
REMARK SMILES IDX 7 13 8 14 14 15 9 16 12 17 10 18 13 19 11 20 21 21 22 22
REMARK SMILES IDX 23 23 24 24 25 25 26 26 27 27 28 28 89 29 29 30 88 31 30 32
REMARK SMILES IDX 31 33 32 34 82 35 33 36 87 37 81 38 83 39 34 40 86 41 80 42
REMARK SMILES IDX 79 43 35 45 67 46 47 47 66 48 48 49 51 50 65 51 84 52 49 53
REMARK SMILES IDX 50 54 64 56 85 57 52 58 36 59 37 60 45 61 38 62 44 63 46 64
REMARK SMILES IDX 43 65 39 66 40 67 41 68 42 69 68 70 69 71 77 72 70 73 76 74
REMARK SMILES IDX 78 75 75 76 71 77 72 78 73 79 74 80 53 81 54 82 62 83 55 84
REMARK SMILES IDX 61 85 63 86 60 87 56 88 57 89 58 90 59 91
REMARK H PARENT 83 44 51 55
REMARK Flexibility Score: inf
ROOT
ATOM      1  C   UNL A   1      34.992  34.570  31.547  1.00  0.00     0.188 C 
ENDROOT
BRANCH   1   2
ATOM      2  C   UNL A   1      34.880  34.381  33.068  1.00  0.00     0.188 C 
BRANCH   2   3
ATOM      3  O   UNL A   1      35.957  34.987  33.746  1.00  0.00    -0.376 OA
BRANCH   3   4
ATOM      4  C   UNL A   1      36.899  34.188  34.423  1.00  0.00     0.202 C 
BRANCH   4   5
ATOM      5  C   UNL A   1      36.761  32.672  34.242  1.00  0.00     0.261 C 
BRANCH   5   6
ATOM      6  O   UNL A   1      37.957  31.906  33.947  1.00  0.00    -0.460 OA
BRANCH   6   7
ATOM      7  C   UNL A   1      38.397  30.854  34.677  1.00  0.00     0.330 C 
ATOM      8  O   UNL A   1      38.148  30.720  35.866  1.00  0.00    -0.247 OA
BRANCH   7   9
ATOM      9  C   UNL A   1      39.437  30.048  34.032  1.00  0.00     0.097 C 
ATOM     10  C   UNL A   1      40.402  29.498  34.776  1.00  0.00     0.060 C 
BRANCH  10  11
ATOM     11  C   UNL A   1      41.230  28.390  34.249  1.00  0.00     0.186 C 
ATOM     12  O   UNL A   1      41.382  28.314  33.032  1.00  0.00    -0.289 OA
BRANCH  11  13
ATOM     13  C   UNL A   1      41.883  27.408  35.138  1.00  0.00     0.023 A 
ATOM     14  C   UNL A   1      41.536  26.052  35.102  1.00  0.00     0.015 A 
ATOM     15  C   UNL A   1      42.973  27.845  35.908  1.00  0.00     0.031 A 
ATOM     16  C   UNL A   1      42.343  25.124  35.753  1.00  0.00     0.041 A 
ATOM     17  C   UNL A   1      43.773  26.911  36.556  1.00  0.00     0.054 A 
ATOM     18  C   UNL A   1      43.481  25.558  36.427  1.00  0.00     0.137 A 
ATOM     19  Br  UNL A   1      45.266  27.499  37.550  1.00  0.00    -0.048 Br
ATOM     20  F   UNL A   1      44.316  24.632  36.901  1.00  0.00    -0.206 F 
ENDBRANCH  11  13
ENDBRANCH  10  11
ENDBRANCH   7   9
ENDBRANCH   6   7
ENDBRANCH   5   6
ENDBRANCH   4   5
ENDBRANCH   3   4
ENDBRANCH   2   3
ENDBRANCH   1   2
BRANCH   1  21
ATOM     21  O   UNL A   1      33.962  34.068  30.703  1.00  0.00    -0.376 OA
BRANCH  21  22
ATOM     22  C   UNL A   1      33.697  34.701  29.455  1.00  0.00     0.202 C 
BRANCH  22  23
ATOM     23  C   UNL A   1      33.429  33.843  28.209  1.00  0.00     0.261 C 
BRANCH  23  24
ATOM     24  O   UNL A   1      34.570  33.186  27.626  1.00  0.00    -0.460 OA
BRANCH  24  25
ATOM     25  C   UNL A   1      34.753  31.906  28.036  1.00  0.00     0.338 C 
ATOM     26  O   UNL A   1      34.062  30.943  27.750  1.00  0.00    -0.246 OA
BRANCH  25  27
ATOM     27  C   UNL A   1      35.992  31.767  28.830  1.00  0.00     0.060 A 
ATOM     28  C   UNL A   1      36.997  32.731  28.673  1.00  0.00     0.016 A 
ATOM     29  C   UNL A   1      36.236  30.611  29.573  1.00  0.00     0.016 A 
ATOM     30  C   UNL A   1      38.270  32.517  29.212  1.00  0.00     0.010 A 
ATOM     31  C   UNL A   1      37.514  30.396  30.105  1.00  0.00     0.010 A 
ATOM     32  C   UNL A   1      38.552  31.326  29.893  1.00  0.00    -0.014 A 
BRANCH  32  33
ATOM     33  C   UNL A   1      39.950  30.939  30.229  1.00  0.00     0.031 A 
ATOM     34  C   UNL A   1      40.550  29.727  29.572  1.00  0.00     0.074 A 
ATOM     35  C   UNL A   1      40.694  31.624  31.114  1.00  0.00     0.049 A 
ATOM     36  N   UNL A   1      41.657  29.091  29.852  1.00  0.00    -0.248 NA
ATOM     37  C   UNL A   1      39.804  29.176  28.432  1.00  0.00     0.031 C 
ATOM     38  C   UNL A   1      40.326  32.894  31.730  1.00  0.00     0.029 A 
ATOM     39  N   UNL A   1      41.908  31.308  31.682  1.00  0.00    -0.354 N 
ATOM     40  C   UNL A   1      41.761  28.078  28.907  1.00  0.00     0.074 A 
ATOM     41  C   UNL A   1      40.565  28.147  28.091  1.00  0.00     0.031 C 
ATOM     42  C   UNL A   1      41.249  33.197  32.659  1.00  0.00     0.029 A 
ATOM     43  C   UNL A   1      42.210  32.108  32.758  1.00  0.00     0.049 A 
ATOM     44  H   UNL A   1      42.494  30.588  31.354  1.00  0.00     0.167 HD
ATOM     45  C   UNL A   1      42.773  27.193  28.718  1.00  0.00     0.034 A 
ATOM     46  C   UNL A   1      43.093  31.942  33.761  1.00  0.00     0.034 A 
ATOM     47  C   UNL A   1      43.946  27.114  29.556  1.00  0.00     0.049 A 
ATOM     48  C   UNL A   1      44.062  30.799  33.716  1.00  0.00     0.074 A 
ATOM     49  C   UNL A   1      45.050  26.288  29.425  1.00  0.00     0.029 A 
ATOM     50  N   UNL A   1      44.153  27.865  30.706  1.00  0.00    -0.354 N 
ATOM     51  N   UNL A   1      44.162  29.842  32.827  1.00  0.00    -0.248 NA
ATOM     52  C   UNL A   1      45.066  30.746  34.785  1.00  0.00     0.031 C 
ATOM     53  C   UNL A   1      45.885  26.487  30.533  1.00  0.00     0.029 A 
ATOM     54  C   UNL A   1      45.341  27.490  31.319  1.00  0.00     0.049 A 
ATOM     55  H   UNL A   1      43.545  28.565  31.038  1.00  0.00     0.167 HD
ATOM     56  C   UNL A   1      45.284  29.108  33.192  1.00  0.00     0.074 A 
ATOM     57  C   UNL A   1      45.801  29.710  34.406  1.00  0.00     0.031 C 
ATOM     58  C   UNL A   1      45.857  28.064  32.541  1.00  0.00     0.034 A 
BRANCH  45  59
ATOM     59  C   UNL A   1      42.612  26.216  27.580  1.00  0.00     0.023 A 
ATOM     60  C   UNL A   1      42.038  24.946  27.778  1.00  0.00     0.031 A 
ATOM     61  C   UNL A   1      43.106  26.524  26.301  1.00  0.00     0.131 A 
ATOM     62  C   UNL A   1      42.064  23.999  26.744  1.00  0.00     0.055 A 
ATOM     63  C   UNL A   1      43.049  25.607  25.251  1.00  0.00     0.041 A 
ATOM     64  F   UNL A   1      43.680  27.713  26.059  1.00  0.00    -0.206 F 
ATOM     65  C   UNL A   1      42.547  24.328  25.475  1.00  0.00     0.022 A 
BRANCH  62  66
ATOM     66  S   UNL A   1      41.632  22.280  27.136  1.00  0.00     0.124 S 
ATOM     67  O   UNL A   1      42.458  22.028  28.314  1.00  0.00    -0.237 OA
ATOM     68  O   UNL A   1      40.195  22.362  27.366  1.00  0.00    -0.237 OA
ATOM     69  O   UNL A   1      42.032  21.546  25.937  1.00  0.00    -0.744 OA
ENDBRANCH  62  66
ENDBRANCH  45  59
BRANCH  46  70
ATOM     70  C   UNL A   1      43.008  32.800  34.972  1.00  0.00     0.023 A 
ATOM     71  C   UNL A   1      42.226  32.459  36.082  1.00  0.00     0.031 A 
ATOM     72  C   UNL A   1      43.713  34.017  34.998  1.00  0.00     0.131 A 
ATOM     73  C   UNL A   1      42.172  33.329  37.182  1.00  0.00     0.055 A 
ATOM     74  C   UNL A   1      43.683  34.863  36.108  1.00  0.00     0.041 A 
ATOM     75  F   UNL A   1      44.449  34.393  33.942  1.00  0.00    -0.206 F 
ATOM     76  C   UNL A   1      42.909  34.519  37.211  1.00  0.00     0.022 A 
BRANCH  73  77
ATOM     77  S   UNL A   1      41.104  32.901  38.584  1.00  0.00     0.124 S 
ATOM     78  O   UNL A   1      40.906  34.200  39.217  1.00  0.00    -0.237 OA
ATOM     79  O   UNL A   1      39.939  32.327  37.916  1.00  0.00    -0.237 OA
ATOM     80  O   UNL A   1      41.907  31.947  39.347  1.00  0.00    -0.744 OA
ENDBRANCH  73  77
ENDBRANCH  46  70
BRANCH  58  81
ATOM     81  C   UNL A   1      47.170  27.563  33.083  1.00  0.00     0.023 A 
ATOM     82  C   UNL A   1      47.245  26.679  34.173  1.00  0.00     0.031 A 
ATOM     83  C   UNL A   1      48.373  28.016  32.513  1.00  0.00     0.131 A 
ATOM     84  C   UNL A   1      48.498  26.316  34.690  1.00  0.00     0.055 A 
ATOM     85  C   UNL A   1      49.617  27.607  32.996  1.00  0.00     0.041 A 
ATOM     86  F   UNL A   1      48.360  28.871  31.478  1.00  0.00    -0.206 F 
ATOM     87  C   UNL A   1      49.684  26.760  34.098  1.00  0.00     0.022 A 
BRANCH  84  88
ATOM     88  S   UNL A   1      48.566  25.317  36.203  1.00  0.00     0.124 S 
ATOM     89  O   UNL A   1      48.582  26.344  37.240  1.00  0.00    -0.237 OA
ATOM     90  O   UNL A   1      47.345  24.523  36.110  1.00  0.00    -0.237 OA
ATOM     91  O   UNL A   1      49.808  24.560  36.060  1.00  0.00    -0.744 OA
ENDBRANCH  84  88
ENDBRANCH  58  81
ENDBRANCH  32  33
ENDBRANCH  25  27
ENDBRANCH  24  25
ENDBRANCH  23  24
ENDBRANCH  22  23
ENDBRANCH  21  22
ENDBRANCH   1  21
TORSDOF 22
ENDMDL
MODEL 3
REMARK VINA RESULT:      -9.3      3.442      5.533
REMARK SMILES O=C(/C=C/C(=O)c1ccc(F)c(Br)c1)OCCOCCOCCOC(=O)c1ccc(-c2c3nc(c(-c4cc(S(=O)(=O)[O-])ccc4F)c4ccc([nH]4)c(-c4cc(S(=O)(=O)[O-])ccc4F)c4nc(c(-c5cc(S(=O)(=O)[O-])ccc5F)c5ccc2[nH]5)C=C4)C=C3)cc1
REMARK SMILES IDX 20 1 19 2 18 3 17 4 16 5 15 6 2 7 1 8 3 9 4 10 5 11 6 12
REMARK SMILES IDX 7 13 8 14 14 15 9 16 12 17 10 18 13 19 11 20 21 21 22 22
REMARK SMILES IDX 23 23 24 24 25 25 26 26 27 27 28 28 89 29 29 30 88 31 30 32
REMARK SMILES IDX 31 33 32 34 82 35 33 36 87 37 81 38 83 39 34 40 86 41 80 42
REMARK SMILES IDX 79 43 35 45 67 46 47 47 66 48 48 49 51 50 65 51 84 52 49 53
REMARK SMILES IDX 50 54 64 56 85 57 52 58 36 59 37 60 45 61 38 62 44 63 46 64
REMARK SMILES IDX 43 65 39 66 40 67 41 68 42 69 68 70 69 71 77 72 70 73 76 74
REMARK SMILES IDX 78 75 75 76 71 77 72 78 73 79 74 80 53 81 54 82 62 83 55 84
REMARK SMILES IDX 61 85 63 86 60 87 56 88 57 89 58 90 59 91
REMARK H PARENT 83 44 51 55
REMARK Flexibility Score: inf
ROOT
ATOM      1  C   UNL A   1      34.219  28.633  26.748  1.00  0.00     0.188 C 
ENDROOT
BRANCH   1   2
ATOM      2  C   UNL A   1      33.478  27.409  26.186  1.00  0.00     0.188 C 
BRANCH   2   3
ATOM      3  O   UNL A   1      33.858  27.140  24.855  1.00  0.00    -0.376 OA
BRANCH   3   4
ATOM      4  C   UNL A   1      32.903  26.665  23.935  1.00  0.00     0.202 C 
BRANCH   4   5
ATOM      5  C   UNL A   1      32.050  25.477  24.392  1.00  0.00     0.261 C 
BRANCH   5   6
ATOM      6  O   UNL A   1      32.669  24.167  24.438  1.00  0.00    -0.460 OA
BRANCH   6   7
ATOM      7  C   UNL A   1      33.431  23.711  25.461  1.00  0.00     0.330 C 
ATOM      8  O   UNL A   1      33.041  23.681  26.618  1.00  0.00    -0.247 OA
BRANCH   7   9
ATOM      9  C   UNL A   1      34.851  23.539  25.142  1.00  0.00     0.097 C 
ATOM     10  C   UNL A   1      35.394  22.318  25.185  1.00  0.00     0.060 C 
BRANCH  10  11
ATOM     11  C   UNL A   1      36.684  22.036  24.517  1.00  0.00     0.186 C 
ATOM     12  O   UNL A   1      36.853  22.477  23.383  1.00  0.00    -0.289 OA
BRANCH  11  13
ATOM     13  C   UNL A   1      37.761  21.274  25.182  1.00  0.00     0.023 A 
ATOM     14  C   UNL A   1      37.924  19.901  24.956  1.00  0.00     0.015 A 
ATOM     15  C   UNL A   1      38.713  21.993  25.921  1.00  0.00     0.031 A 
ATOM     16  C   UNL A   1      39.090  19.275  25.384  1.00  0.00     0.041 A 
ATOM     17  C   UNL A   1      39.874  21.359  26.345  1.00  0.00     0.054 A 
ATOM     18  C   UNL A   1      40.075  20.021  26.024  1.00  0.00     0.137 A 
ATOM     19  Br  UNL A   1      41.174  22.342  27.297  1.00  0.00    -0.048 Br
ATOM     20  F   UNL A   1      41.244  19.428  26.275  1.00  0.00    -0.206 F 
ENDBRANCH  11  13
ENDBRANCH  10  11
ENDBRANCH   7   9
ENDBRANCH   6   7
ENDBRANCH   5   6
ENDBRANCH   4   5
ENDBRANCH   3   4
ENDBRANCH   2   3
ENDBRANCH   1   2
BRANCH   1  21
ATOM     21  O   UNL A   1      33.495  29.609  27.489  1.00  0.00    -0.376 OA
BRANCH  21  22
ATOM     22  C   UNL A   1      32.628  30.512  26.810  1.00  0.00     0.202 C 
BRANCH  22  23
ATOM     23  C   UNL A   1      32.471  31.950  27.327  1.00  0.00     0.261 C 
BRANCH  23  24
ATOM     24  O   UNL A   1      33.685  32.706  27.496  1.00  0.00    -0.460 OA
BRANCH  24  25
ATOM     25  C   UNL A   1      33.632  33.644  28.475  1.00  0.00     0.338 C 
ATOM     26  O   UNL A   1      32.746  34.463  28.652  1.00  0.00    -0.246 OA
BRANCH  25  27
ATOM     27  C   UNL A   1      34.767  33.509  29.412  1.00  0.00     0.060 A 
ATOM     28  C   UNL A   1      35.989  34.103  29.070  1.00  0.00     0.016 A 
ATOM     29  C   UNL A   1      34.682  32.659  30.515  1.00  0.00     0.016 A 
ATOM     30  C   UNL A   1      37.146  33.804  29.797  1.00  0.00     0.010 A 
ATOM     31  C   UNL A   1      35.844  32.356  31.237  1.00  0.00     0.010 A 
ATOM     32  C   UNL A   1      37.092  32.891  30.857  1.00  0.00    -0.014 A 
BRANCH  32  33
ATOM     33  C   UNL A   1      38.332  32.336  31.466  1.00  0.00     0.031 A 
ATOM     34  C   UNL A   1      38.975  31.128  30.841  1.00  0.00     0.074 A 
ATOM     35  C   UNL A   1      38.893  32.864  32.567  1.00  0.00     0.049 A 
ATOM     36  N   UNL A   1      39.927  30.361  31.302  1.00  0.00    -0.248 NA
ATOM     37  C   UNL A   1      38.483  30.755  29.507  1.00  0.00     0.031 C 
ATOM     38  C   UNL A   1      38.489  34.108  33.212  1.00  0.00     0.029 A 
ATOM     39  N   UNL A   1      39.905  32.378  33.365  1.00  0.00    -0.354 N 
ATOM     40  C   UNL A   1      40.175  29.426  30.304  1.00  0.00     0.074 A 
ATOM     41  C   UNL A   1      39.220  29.686  29.244  1.00  0.00     0.031 C 
ATOM     42  C   UNL A   1      39.182  34.235  34.357  1.00  0.00     0.029 A 
ATOM     43  C   UNL A   1      40.002  33.050  34.560  1.00  0.00     0.049 A 
ATOM     44  H   UNL A   1      40.493  31.632  33.107  1.00  0.00     0.167 HD
ATOM     45  C   UNL A   1      41.130  28.461  30.262  1.00  0.00     0.034 A 
ATOM     46  C   UNL A   1      40.601  32.709  35.718  1.00  0.00     0.034 A 
ATOM     47  C   UNL A   1      42.055  28.192  31.336  1.00  0.00     0.049 A 
ATOM     48  C   UNL A   1      41.458  31.481  35.777  1.00  0.00     0.074 A 
ATOM     49  C   UNL A   1      43.089  27.271  31.378  1.00  0.00     0.029 A 
ATOM     50  N   UNL A   1      42.038  28.818  32.576  1.00  0.00    -0.354 N 
ATOM     51  N   UNL A   1      41.693  30.597  34.839  1.00  0.00    -0.248 NA
ATOM     52  C   UNL A   1      42.167  31.236  37.038  1.00  0.00     0.031 C 
ATOM     53  C   UNL A   1      43.646  27.289  32.665  1.00  0.00     0.029 A 
ATOM     54  C   UNL A   1      43.009  28.272  33.405  1.00  0.00     0.049 A 
ATOM     55  H   UNL A   1      41.426  29.546  32.830  1.00  0.00     0.167 HD
ATOM     56  C   UNL A   1      42.632  29.724  35.374  1.00  0.00     0.074 A 
ATOM     57  C   UNL A   1      42.887  30.165  36.732  1.00  0.00     0.031 C 
ATOM     58  C   UNL A   1      43.260  28.686  34.767  1.00  0.00     0.034 A 
BRANCH  45  59
ATOM     59  C   UNL A   1      41.170  27.605  29.021  1.00  0.00     0.023 A 
ATOM     60  C   UNL A   1      42.186  27.753  28.058  1.00  0.00     0.031 A 
ATOM     61  C   UNL A   1      40.140  26.685  28.757  1.00  0.00     0.131 A 
ATOM     62  C   UNL A   1      42.096  27.069  26.837  1.00  0.00     0.055 A 
ATOM     63  C   UNL A   1      40.104  25.943  27.576  1.00  0.00     0.041 A 
ATOM     64  F   UNL A   1      39.135  26.516  29.630  1.00  0.00    -0.206 F 
ATOM     65  C   UNL A   1      41.073  26.149  26.598  1.00  0.00     0.022 A 
BRANCH  62  66
ATOM     66  S   UNL A   1      43.228  27.539  25.499  1.00  0.00     0.124 S 
ATOM     67  O   UNL A   1      44.136  28.455  26.186  1.00  0.00    -0.237 OA
ATOM     68  O   UNL A   1      43.794  26.257  25.099  1.00  0.00    -0.237 OA
ATOM     69  O   UNL A   1      42.350  28.170  24.514  1.00  0.00    -0.744 OA
ENDBRANCH  62  66
ENDBRANCH  45  59
BRANCH  46  70
ATOM     70  C   UNL A   1      40.295  33.466  36.960  1.00  0.00     0.023 A 
ATOM     71  C   UNL A   1      41.156  34.441  37.478  1.00  0.00     0.031 A 
ATOM     72  C   UNL A   1      39.112  33.176  37.663  1.00  0.00     0.131 A 
ATOM     73  C   UNL A   1      40.815  35.099  38.670  1.00  0.00     0.055 A 
ATOM     74  C   UNL A   1      38.761  33.857  38.830  1.00  0.00     0.041 A 
ATOM     75  F   UNL A   1      38.275  32.227  37.215  1.00  0.00    -0.206 F 
ATOM     76  C   UNL A   1      39.616  34.828  39.339  1.00  0.00     0.022 A 
BRANCH  73  77
ATOM     77  S   UNL A   1      41.974  36.313  39.359  1.00  0.00     0.124 S 
ATOM     78  O   UNL A   1      43.251  35.625  39.209  1.00  0.00    -0.237 OA
ATOM     79  O   UNL A   1      41.759  37.467  38.491  1.00  0.00    -0.237 OA
ATOM     80  O   UNL A   1      41.512  36.484  40.736  1.00  0.00    -0.744 OA
ENDBRANCH  73  77
ENDBRANCH  46  70
BRANCH  58  81
ATOM     81  C   UNL A   1      44.359  28.009  35.542  1.00  0.00     0.023 A 
ATOM     82  C   UNL A   1      45.664  28.527  35.606  1.00  0.00     0.031 A 
ATOM     83  C   UNL A   1      44.097  26.793  36.199  1.00  0.00     0.131 A 
ATOM     84  C   UNL A   1      46.668  27.806  36.270  1.00  0.00     0.055 A 
ATOM     85  C   UNL A   1      45.087  26.109  36.906  1.00  0.00     0.041 A 
ATOM     86  F   UNL A   1      42.872  26.245  36.160  1.00  0.00    -0.206 F 
ATOM     87  C   UNL A   1      46.384  26.610  36.935  1.00  0.00     0.022 A 
BRANCH  84  88
ATOM     88  S   UNL A   1      48.378  28.408  36.189  1.00  0.00     0.124 S 
ATOM     89  O   UNL A   1      48.442  28.948  34.835  1.00  0.00    -0.237 OA
ATOM     90  O   UNL A   1      48.418  29.388  37.270  1.00  0.00    -0.237 OA
ATOM     91  O   UNL A   1      49.177  27.206  36.416  1.00  0.00    -0.744 OA
ENDBRANCH  84  88
ENDBRANCH  58  81
ENDBRANCH  32  33
ENDBRANCH  25  27
ENDBRANCH  24  25
ENDBRANCH  23  24
ENDBRANCH  22  23
ENDBRANCH  21  22
ENDBRANCH   1  21
TORSDOF 22
ENDMDL
