MODEL 1
REMARK VINA RESULT:     -10.8      0.000      0.000
REMARK SMILES C[C@@H](NC(=O)N1CC[N@@H+]2CCCC[C@H]2C1)C(=O)OCCOCCOCCOC(=O)c1ccc(-c2c3nc(c(-c4cc(S(=O)(=O)[O-])ccc4F)c4ccc([nH]4)c(-c4cc(S(=O)(=O)[O-])ccc4F)c4nc(c(-c5cc(S(=O)(=O)[O-])ccc5F)c5ccc2[nH]5)C=C4)C=C3)cc1
REMARK SMILES IDX 23 1 22 2 21 3 20 4 19 5 18 6 16 7 17 8 2 9 1 10 3 11 4 12
REMARK SMILES IDX 5 14 6 15 7 16 15 17 8 18 14 19 9 20 13 21 10 22 12 24 11 25
REMARK SMILES IDX 24 26 25 27 26 28 27 29 28 30 29 31 30 32 31 33 92 34 32 35
REMARK SMILES IDX 91 36 33 37 34 38 35 39 85 40 36 41 90 42 84 43 86 44 37 45
REMARK SMILES IDX 89 46 83 47 82 48 38 50 70 51 50 52 69 53 51 54 54 55 68 56
REMARK SMILES IDX 87 57 52 58 53 59 67 61 88 62 55 63 39 64 40 65 48 66 41 67
REMARK SMILES IDX 47 68 49 69 46 70 42 71 43 72 44 73 45 74 71 75 72 76 80 77
REMARK SMILES IDX 73 78 79 79 81 80 78 81 74 82 75 83 76 84 77 85 56 86 57 87
REMARK SMILES IDX 65 88 58 89 64 90 66 91 63 92 59 93 60 94 61 95 62 96
REMARK H PARENT 3 13 9 23 86 49 54 60
REMARK Flexibility Score: inf
ROOT
ATOM      1  C   UNL A   1      32.651  30.084  25.830  1.00  0.00     0.188 C 
ENDROOT
BRANCH   1   2
ATOM      2  C   UNL A   1      31.880  29.004  25.040  1.00  0.00     0.188 C 
BRANCH   2   3
ATOM      3  O   UNL A   1      30.765  29.496  24.328  1.00  0.00    -0.376 OA
BRANCH   3   4
ATOM      4  C   UNL A   1      30.682  28.980  23.018  1.00  0.00     0.202 C 
BRANCH   4   5
ATOM      5  C   UNL A   1      31.482  27.699  22.777  1.00  0.00     0.261 C 
BRANCH   5   6
ATOM      6  O   UNL A   1      30.810  26.498  22.405  1.00  0.00    -0.462 OA
BRANCH   6   7
ATOM      7  C   UNL A   1      31.431  25.326  22.698  1.00  0.00     0.328 C 
ATOM      8  O   UNL A   1      32.520  24.988  22.253  1.00  0.00    -0.250 OA
BRANCH   7   9
ATOM      9  C   UNL A   1      30.542  24.446  23.562  1.00  0.00     0.190 C 
ATOM     10  C   UNL A   1      30.759  22.944  23.335  1.00  0.00     0.043 C 
BRANCH   9  11
ATOM     11  N   UNL A   1      30.529  24.824  24.986  1.00  0.00    -0.325 N 
ATOM     12  C   UNL A   1      31.279  24.323  26.003  1.00  0.00     0.318 C 
ATOM     13  H   UNL A   1      29.894  25.534  25.234  1.00  0.00     0.166 HD
ATOM     14  O   UNL A   1      30.700  23.985  27.035  1.00  0.00    -0.249 OA
BRANCH  12  15
ATOM     15  N   UNL A   1      32.642  24.230  25.861  1.00  0.00    -0.313 N 
ATOM     16  C   UNL A   1      33.500  25.423  25.849  1.00  0.00     0.183 C 
ATOM     17  C   UNL A   1      33.313  23.100  26.501  1.00  0.00     0.186 C 
ATOM     18  C   UNL A   1      34.949  25.162  25.329  1.00  0.00     0.284 C 
ATOM     19  C   UNL A   1      34.556  22.726  25.685  1.00  0.00     0.203 C 
ATOM     20  N   UNL A   1      35.551  23.820  25.580  1.00  0.00    -0.330 N 
ATOM     21  C   UNL A   1      35.265  21.474  26.196  1.00  0.00     0.067 C 
ATOM     22  C   UNL A   1      36.596  23.492  24.591  1.00  0.00     0.262 C 
ATOM     23  H   UNL A   1      35.988  23.892  26.498  1.00  0.00     0.348 HD
ATOM     24  C   UNL A   1      36.237  21.006  25.114  1.00  0.00     0.012 C 
ATOM     25  C   UNL A   1      37.236  22.107  24.765  1.00  0.00     0.062 C 
ENDBRANCH  12  15
ENDBRANCH   9  11
ENDBRANCH   7   9
ENDBRANCH   6   7
ENDBRANCH   5   6
ENDBRANCH   4   5
ENDBRANCH   3   4
ENDBRANCH   2   3
ENDBRANCH   1   2
BRANCH   1  26
ATOM     26  O   UNL A   1      32.015  30.813  26.874  1.00  0.00    -0.376 OA
BRANCH  26  27
ATOM     27  C   UNL A   1      31.388  32.063  26.609  1.00  0.00     0.202 C 
BRANCH  27  28
ATOM     28  C   UNL A   1      31.999  33.396  27.070  1.00  0.00     0.261 C 
BRANCH  28  29
ATOM     29  O   UNL A   1      32.482  33.409  28.420  1.00  0.00    -0.460 OA
BRANCH  29  30
ATOM     30  C   UNL A   1      33.529  34.237  28.660  1.00  0.00     0.338 C 
ATOM     31  O   UNL A   1      33.468  35.417  28.967  1.00  0.00    -0.246 OA
BRANCH  30  32
ATOM     32  C   UNL A   1      34.755  33.417  28.791  1.00  0.00     0.060 A 
ATOM     33  C   UNL A   1      34.596  32.062  29.134  1.00  0.00     0.016 A 
ATOM     34  C   UNL A   1      36.019  33.920  28.466  1.00  0.00     0.016 A 
ATOM     35  C   UNL A   1      35.694  31.208  29.156  1.00  0.00     0.010 A 
ATOM     36  C   UNL A   1      37.135  33.084  28.572  1.00  0.00     0.010 A 
ATOM     37  C   UNL A   1      36.976  31.740  28.962  1.00  0.00    -0.014 A 
BRANCH  37  38
ATOM     38  C   UNL A   1      38.099  31.029  29.622  1.00  0.00     0.031 A 
ATOM     39  C   UNL A   1      38.330  31.379  31.071  1.00  0.00     0.074 A 
ATOM     40  C   UNL A   1      38.833  30.084  29.012  1.00  0.00     0.049 A 
ATOM     41  N   UNL A   1      39.203  30.911  31.919  1.00  0.00    -0.248 NA
ATOM     42  C   UNL A   1      37.434  32.404  31.635  1.00  0.00     0.031 C 
ATOM     43  C   UNL A   1      38.655  29.615  27.641  1.00  0.00     0.029 A 
ATOM     44  N   UNL A   1      39.885  29.343  29.490  1.00  0.00    -0.354 N 
ATOM     45  C   UNL A   1      38.954  31.580  33.115  1.00  0.00     0.074 A 
ATOM     46  C   UNL A   1      37.879  32.510  32.872  1.00  0.00     0.031 C 
ATOM     47  C   UNL A   1      39.575  28.665  27.385  1.00  0.00     0.029 A 
ATOM     48  C   UNL A   1      40.424  28.482  28.563  1.00  0.00     0.049 A 
ATOM     49  H   UNL A   1      40.223  29.420  30.411  1.00  0.00     0.167 HD
ATOM     50  C   UNL A   1      39.564  31.432  34.313  1.00  0.00     0.034 A 
ATOM     51  C   UNL A   1      41.488  27.659  28.663  1.00  0.00     0.034 A 
ATOM     52  C   UNL A   1      40.674  30.542  34.522  1.00  0.00     0.049 A 
ATOM     53  C   UNL A   1      42.240  27.598  29.977  1.00  0.00     0.074 A 
ATOM     54  C   UNL A   1      41.398  30.324  35.679  1.00  0.00     0.029 A 
ATOM     55  N   UNL A   1      41.239  29.741  33.537  1.00  0.00    -0.354 N 
ATOM     56  N   UNL A   1      41.998  28.231  31.103  1.00  0.00    -0.248 NA
ATOM     57  C   UNL A   1      43.402  26.703  30.030  1.00  0.00     0.031 C 
ATOM     58  C   UNL A   1      42.451  29.457  35.372  1.00  0.00     0.029 A 
ATOM     59  C   UNL A   1      42.325  29.053  34.050  1.00  0.00     0.049 A 
ATOM     60  H   UNL A   1      40.915  29.674  32.610  1.00  0.00     0.167 HD
ATOM     61  C   UNL A   1      42.950  27.770  32.013  1.00  0.00     0.074 A 
ATOM     62  C   UNL A   1      43.765  26.808  31.300  1.00  0.00     0.031 C 
ATOM     63  C   UNL A   1      43.128  28.099  33.320  1.00  0.00     0.034 A 
BRANCH  50  64
ATOM     64  C   UNL A   1      39.089  32.328  35.431  1.00  0.00     0.023 A 
ATOM     65  C   UNL A   1      39.503  33.671  35.533  1.00  0.00     0.031 A 
ATOM     66  C   UNL A   1      38.298  31.803  36.467  1.00  0.00     0.131 A 
ATOM     67  C   UNL A   1      39.205  34.407  36.690  1.00  0.00     0.055 A 
ATOM     68  C   UNL A   1      37.924  32.573  37.570  1.00  0.00     0.041 A 
ATOM     69  F   UNL A   1      37.907  30.519  36.445  1.00  0.00    -0.206 F 
ATOM     70  C   UNL A   1      38.395  33.877  37.696  1.00  0.00     0.022 A 
BRANCH  67  71
ATOM     71  S   UNL A   1      40.052  35.991  36.950  1.00  0.00     0.124 S 
ATOM     72  O   UNL A   1      41.435  35.557  37.141  1.00  0.00    -0.237 OA
ATOM     73  O   UNL A   1      39.772  36.706  35.711  1.00  0.00    -0.237 OA
ATOM     74  O   UNL A   1      39.407  36.533  38.144  1.00  0.00    -0.744 OA
ENDBRANCH  67  71
ENDBRANCH  50  64
BRANCH  51  75
ATOM     75  C   UNL A   1      41.934  26.843  27.497  1.00  0.00     0.023 A 
ATOM     76  C   UNL A   1      41.688  25.461  27.438  1.00  0.00     0.031 A 
ATOM     77  C   UNL A   1      42.672  27.422  26.449  1.00  0.00     0.131 A 
ATOM     78  C   UNL A   1      42.210  24.699  26.379  1.00  0.00     0.055 A 
ATOM     79  C   UNL A   1      43.144  26.669  25.372  1.00  0.00     0.041 A 
ATOM     80  F   UNL A   1      42.944  28.737  26.456  1.00  0.00    -0.206 F 
ATOM     81  C   UNL A   1      42.924  25.296  25.338  1.00  0.00     0.022 A 
BRANCH  78  82
ATOM     82  S   UNL A   1      42.007  22.896  26.421  1.00  0.00     0.124 S 
ATOM     83  O   UNL A   1      40.578  22.764  26.674  1.00  0.00    -0.237 OA
ATOM     84  O   UNL A   1      42.462  22.508  25.090  1.00  0.00    -0.237 OA
ATOM     85  O   UNL A   1      42.878  22.481  27.519  1.00  0.00    -0.744 OA
ENDBRANCH  78  82
ENDBRANCH  51  75
BRANCH  63  86
ATOM     86  C   UNL A   1      44.200  27.357  34.082  1.00  0.00     0.023 A 
ATOM     87  C   UNL A   1      44.038  26.026  34.503  1.00  0.00     0.031 A 
ATOM     88  C   UNL A   1      45.412  28.003  34.394  1.00  0.00     0.131 A 
ATOM     89  C   UNL A   1      45.040  25.408  35.267  1.00  0.00     0.055 A 
ATOM     90  C   UNL A   1      46.434  27.359  35.090  1.00  0.00     0.041 A 
ATOM     91  F   UNL A   1      45.624  29.276  34.020  1.00  0.00    -0.206 F 
ATOM     92  C   UNL A   1      46.244  26.059  35.546  1.00  0.00     0.022 A 
BRANCH  89  93
ATOM     93  S   UNL A   1      44.700  23.781  35.995  1.00  0.00     0.124 S 
ATOM     94  O   UNL A   1      44.921  24.034  37.416  1.00  0.00    -0.237 OA
ATOM     95  O   UNL A   1      43.316  23.546  35.598  1.00  0.00    -0.237 OA
ATOM     96  O   UNL A   1      45.685  22.908  35.359  1.00  0.00    -0.744 OA
ENDBRANCH  89  93
ENDBRANCH  63  86
ENDBRANCH  37  38
ENDBRANCH  30  32
ENDBRANCH  29  30
ENDBRANCH  28  29
ENDBRANCH  27  28
ENDBRANCH  26  27
ENDBRANCH   1  26
TORSDOF 22
ENDMDL
MODEL 2
REMARK VINA RESULT:     -10.5      1.392      8.143
REMARK SMILES C[C@@H](NC(=O)N1CC[N@@H+]2CCCC[C@H]2C1)C(=O)OCCOCCOCCOC(=O)c1ccc(-c2c3nc(c(-c4cc(S(=O)(=O)[O-])ccc4F)c4ccc([nH]4)c(-c4cc(S(=O)(=O)[O-])ccc4F)c4nc(c(-c5cc(S(=O)(=O)[O-])ccc5F)c5ccc2[nH]5)C=C4)C=C3)cc1
REMARK SMILES IDX 23 1 22 2 21 3 20 4 19 5 18 6 16 7 17 8 2 9 1 10 3 11 4 12
REMARK SMILES IDX 5 14 6 15 7 16 15 17 8 18 14 19 9 20 13 21 10 22 12 24 11 25
REMARK SMILES IDX 24 26 25 27 26 28 27 29 28 30 29 31 30 32 31 33 92 34 32 35
REMARK SMILES IDX 91 36 33 37 34 38 35 39 85 40 36 41 90 42 84 43 86 44 37 45
REMARK SMILES IDX 89 46 83 47 82 48 38 50 70 51 50 52 69 53 51 54 54 55 68 56
REMARK SMILES IDX 87 57 52 58 53 59 67 61 88 62 55 63 39 64 40 65 48 66 41 67
REMARK SMILES IDX 47 68 49 69 46 70 42 71 43 72 44 73 45 74 71 75 72 76 80 77
REMARK SMILES IDX 73 78 79 79 81 80 78 81 74 82 75 83 76 84 77 85 56 86 57 87
REMARK SMILES IDX 65 88 58 89 64 90 66 91 63 92 59 93 60 94 61 95 62 96
REMARK H PARENT 3 13 9 23 86 49 54 60
REMARK Flexibility Score: inf
ROOT
ATOM      1  C   UNL A   1      32.797  27.964  23.389  1.00  0.00     0.188 C 
ENDROOT
BRANCH   1   2
ATOM      2  C   UNL A   1      33.794  26.949  23.991  1.00  0.00     0.188 C 
BRANCH   2   3
ATOM      3  O   UNL A   1      34.029  25.820  23.177  1.00  0.00    -0.376 OA
BRANCH   3   4
ATOM      4  C   UNL A   1      34.263  24.648  23.926  1.00  0.00     0.202 C 
BRANCH   4   5
ATOM      5  C   UNL A   1      35.205  23.639  23.267  1.00  0.00     0.261 C 
BRANCH   5   6
ATOM      6  O   UNL A   1      35.621  22.478  23.985  1.00  0.00    -0.462 OA
BRANCH   6   7
ATOM      7  C   UNL A   1      36.066  22.664  25.255  1.00  0.00     0.328 C 
ATOM      8  O   UNL A   1      37.008  23.383  25.562  1.00  0.00    -0.250 OA
BRANCH   7   9
ATOM      9  C   UNL A   1      35.307  21.774  26.227  1.00  0.00     0.190 C 
ATOM     10  C   UNL A   1      34.390  22.550  27.181  1.00  0.00     0.043 C 
BRANCH   9  11
ATOM     11  N   UNL A   1      34.644  20.622  25.590  1.00  0.00    -0.325 N 
ATOM     12  C   UNL A   1      33.315  20.383  25.445  1.00  0.00     0.318 C 
ATOM     13  H   UNL A   1      35.245  19.935  25.220  1.00  0.00     0.166 HD
ATOM     14  O   UNL A   1      32.888  19.275  25.772  1.00  0.00    -0.249 OA
BRANCH  12  15
ATOM     15  N   UNL A   1      32.500  21.359  24.926  1.00  0.00    -0.313 N 
ATOM     16  C   UNL A   1      32.133  21.382  23.503  1.00  0.00     0.183 C 
ATOM     17  C   UNL A   1      31.405  21.844  25.764  1.00  0.00     0.186 C 
ATOM     18  C   UNL A   1      31.512  22.732  23.025  1.00  0.00     0.284 C 
ATOM     19  C   UNL A   1      31.118  23.309  25.418  1.00  0.00     0.203 C 
ATOM     20  N   UNL A   1      30.713  23.520  24.008  1.00  0.00    -0.330 N 
ATOM     21  C   UNL A   1      30.072  23.955  26.324  1.00  0.00     0.067 C 
ATOM     22  C   UNL A   1      30.691  24.958  23.672  1.00  0.00     0.262 C 
ATOM     23  H   UNL A   1      29.763  23.158  23.930  1.00  0.00     0.348 HD
ATOM     24  C   UNL A   1      30.144  25.468  26.127  1.00  0.00     0.012 C 
ATOM     25  C   UNL A   1      29.916  25.839  24.663  1.00  0.00     0.062 C 
ENDBRANCH  12  15
ENDBRANCH   9  11
ENDBRANCH   7   9
ENDBRANCH   6   7
ENDBRANCH   5   6
ENDBRANCH   4   5
ENDBRANCH   3   4
ENDBRANCH   2   3
ENDBRANCH   1   2
BRANCH   1  26
ATOM     26  O   UNL A   1      32.721  29.293  23.892  1.00  0.00    -0.376 OA
BRANCH  26  27
ATOM     27  C   UNL A   1      32.727  29.539  25.294  1.00  0.00     0.202 C 
BRANCH  27  28
ATOM     28  C   UNL A   1      32.007  30.747  25.913  1.00  0.00     0.261 C 
BRANCH  28  29
ATOM     29  O   UNL A   1      32.351  31.029  27.276  1.00  0.00    -0.460 OA
BRANCH  29  30
ATOM     30  C   UNL A   1      33.097  32.145  27.473  1.00  0.00     0.338 C 
ATOM     31  O   UNL A   1      32.689  33.295  27.507  1.00  0.00    -0.246 OA
BRANCH  30  32
ATOM     32  C   UNL A   1      34.439  31.736  27.946  1.00  0.00     0.060 A 
ATOM     33  C   UNL A   1      34.642  30.370  28.220  1.00  0.00     0.016 A 
ATOM     34  C   UNL A   1      35.509  32.634  28.001  1.00  0.00     0.016 A 
ATOM     35  C   UNL A   1      35.909  29.900  28.551  1.00  0.00     0.010 A 
ATOM     36  C   UNL A   1      36.764  32.177  28.417  1.00  0.00     0.010 A 
ATOM     37  C   UNL A   1      36.951  30.818  28.737  1.00  0.00    -0.014 A 
BRANCH  37  38
ATOM     38  C   UNL A   1      38.021  30.428  29.687  1.00  0.00     0.031 A 
ATOM     39  C   UNL A   1      39.022  29.428  29.164  1.00  0.00     0.074 A 
ATOM     40  C   UNL A   1      38.152  30.963  30.912  1.00  0.00     0.049 A 
ATOM     41  N   UNL A   1      40.078  28.918  29.736  1.00  0.00    -0.248 NA
ATOM     42  C   UNL A   1      38.790  28.943  27.792  1.00  0.00     0.031 C 
ATOM     43  C   UNL A   1      37.288  31.986  31.494  1.00  0.00     0.029 A 
ATOM     44  N   UNL A   1      39.084  30.711  31.886  1.00  0.00    -0.354 N 
ATOM     45  C   UNL A   1      40.636  28.063  28.790  1.00  0.00     0.074 A 
ATOM     46  C   UNL A   1      39.784  28.092  27.627  1.00  0.00     0.031 C 
ATOM     47  C   UNL A   1      37.730  32.270  32.735  1.00  0.00     0.029 A 
ATOM     48  C   UNL A   1      38.888  31.429  33.042  1.00  0.00     0.049 A 
ATOM     49  H   UNL A   1      39.826  30.074  31.770  1.00  0.00     0.167 HD
ATOM     50  C   UNL A   1      41.763  27.319  28.878  1.00  0.00     0.034 A 
ATOM     51  C   UNL A   1      39.562  31.391  34.210  1.00  0.00     0.034 A 
ATOM     52  C   UNL A   1      42.569  27.257  30.067  1.00  0.00     0.049 A 
ATOM     53  C   UNL A   1      40.748  30.458  34.335  1.00  0.00     0.074 A 
ATOM     54  C   UNL A   1      43.715  26.519  30.293  1.00  0.00     0.029 A 
ATOM     55  N   UNL A   1      42.294  27.944  31.243  1.00  0.00    -0.354 N 
ATOM     56  N   UNL A   1      41.272  29.653  33.437  1.00  0.00    -0.248 NA
ATOM     57  C   UNL A   1      41.437  30.438  35.631  1.00  0.00     0.031 C 
ATOM     58  C   UNL A   1      44.084  26.693  31.632  1.00  0.00     0.029 A 
ATOM     59  C   UNL A   1      43.228  27.619  32.211  1.00  0.00     0.049 A 
ATOM     60  H   UNL A   1      41.543  28.568  31.370  1.00  0.00     0.167 HD
ATOM     61  C   UNL A   1      42.382  29.070  34.047  1.00  0.00     0.074 A 
ATOM     62  C   UNL A   1      42.449  29.617  35.386  1.00  0.00     0.031 C 
ATOM     63  C   UNL A   1      43.274  28.175  33.545  1.00  0.00     0.034 A 
BRANCH  50  64
ATOM     64  C   UNL A   1      42.102  26.458  27.685  1.00  0.00     0.023 A 
ATOM     65  C   UNL A   1      41.618  25.141  27.558  1.00  0.00     0.031 A 
ATOM     66  C   UNL A   1      43.007  26.922  26.716  1.00  0.00     0.131 A 
ATOM     67  C   UNL A   1      42.117  24.309  26.545  1.00  0.00     0.055 A 
ATOM     68  C   UNL A   1      43.424  26.118  25.654  1.00  0.00     0.041 A 
ATOM     69  F   UNL A   1      43.534  28.154  26.806  1.00  0.00    -0.206 F 
ATOM     70  C   UNL A   1      42.996  24.796  25.576  1.00  0.00     0.022 A 
BRANCH  67  71
ATOM     71  S   UNL A   1      41.756  22.531  26.629  1.00  0.00     0.124 S 
ATOM     72  O   UNL A   1      40.298  22.531  26.729  1.00  0.00    -0.237 OA
ATOM     73  O   UNL A   1      42.311  22.038  25.374  1.00  0.00    -0.237 OA
ATOM     74  O   UNL A   1      42.456  22.096  27.836  1.00  0.00    -0.744 OA
ENDBRANCH  67  71
ENDBRANCH  50  64
BRANCH  51  75
ATOM     75  C   UNL A   1      39.134  32.232  35.366  1.00  0.00     0.023 A 
ATOM     76  C   UNL A   1      39.598  33.549  35.520  1.00  0.00     0.031 A 
ATOM     77  C   UNL A   1      38.303  31.708  36.372  1.00  0.00     0.131 A 
ATOM     78  C   UNL A   1      39.264  34.281  36.672  1.00  0.00     0.055 A 
ATOM     79  C   UNL A   1      37.930  32.458  37.490  1.00  0.00     0.041 A 
ATOM     80  F   UNL A   1      37.835  30.453  36.281  1.00  0.00    -0.206 F 
ATOM     81  C   UNL A   1      38.421  33.750  37.650  1.00  0.00     0.022 A 
BRANCH  78  82
ATOM     82  S   UNL A   1      40.011  35.918  36.911  1.00  0.00     0.124 S 
ATOM     83  O   UNL A   1      41.404  35.574  37.162  1.00  0.00    -0.237 OA
ATOM     84  O   UNL A   1      39.729  36.569  35.636  1.00  0.00    -0.237 OA
ATOM     85  O   UNL A   1      39.283  36.459  38.057  1.00  0.00    -0.744 OA
ENDBRANCH  78  82
ENDBRANCH  51  75
BRANCH  63  86
ATOM     86  C   UNL A   1      44.441  27.790  34.424  1.00  0.00     0.023 A 
ATOM     87  C   UNL A   1      44.395  26.686  35.291  1.00  0.00     0.031 A 
ATOM     88  C   UNL A   1      45.624  28.553  34.390  1.00  0.00     0.131 A 
ATOM     89  C   UNL A   1      45.483  26.415  36.135  1.00  0.00     0.055 A 
ATOM     90  C   UNL A   1      46.730  28.236  35.178  1.00  0.00     0.041 A 
ATOM     91  F   UNL A   1      45.726  29.622  33.582  1.00  0.00    -0.206 F 
ATOM     92  C   UNL A   1      46.657  27.171  36.070  1.00  0.00     0.022 A 
BRANCH  89  93
ATOM     93  S   UNL A   1      45.301  25.135  37.407  1.00  0.00     0.124 S 
ATOM     94  O   UNL A   1      46.009  25.728  38.538  1.00  0.00    -0.237 OA
ATOM     95  O   UNL A   1      43.851  25.037  37.544  1.00  0.00    -0.237 OA
ATOM     96  O   UNL A   1      45.948  23.967  36.813  1.00  0.00    -0.744 OA
ENDBRANCH  89  93
ENDBRANCH  63  86
ENDBRANCH  37  38
ENDBRANCH  30  32
ENDBRANCH  29  30
ENDBRANCH  28  29
ENDBRANCH  27  28
ENDBRANCH  26  27
ENDBRANCH   1  26
TORSDOF 22
ENDMDL
MODEL 3
REMARK VINA RESULT:     -10.4      2.436      3.395
REMARK SMILES C[C@@H](NC(=O)N1CC[N@@H+]2CCCC[C@H]2C1)C(=O)OCCOCCOCCOC(=O)c1ccc(-c2c3nc(c(-c4cc(S(=O)(=O)[O-])ccc4F)c4ccc([nH]4)c(-c4cc(S(=O)(=O)[O-])ccc4F)c4nc(c(-c5cc(S(=O)(=O)[O-])ccc5F)c5ccc2[nH]5)C=C4)C=C3)cc1
REMARK SMILES IDX 23 1 22 2 21 3 20 4 19 5 18 6 16 7 17 8 2 9 1 10 3 11 4 12
REMARK SMILES IDX 5 14 6 15 7 16 15 17 8 18 14 19 9 20 13 21 10 22 12 24 11 25
REMARK SMILES IDX 24 26 25 27 26 28 27 29 28 30 29 31 30 32 31 33 92 34 32 35
REMARK SMILES IDX 91 36 33 37 34 38 35 39 85 40 36 41 90 42 84 43 86 44 37 45
REMARK SMILES IDX 89 46 83 47 82 48 38 50 70 51 50 52 69 53 51 54 54 55 68 56
REMARK SMILES IDX 87 57 52 58 53 59 67 61 88 62 55 63 39 64 40 65 48 66 41 67
REMARK SMILES IDX 47 68 49 69 46 70 42 71 43 72 44 73 45 74 71 75 72 76 80 77
REMARK SMILES IDX 73 78 79 79 81 80 78 81 74 82 75 83 76 84 77 85 56 86 57 87
REMARK SMILES IDX 65 88 58 89 64 90 66 91 63 92 59 93 60 94 61 95 62 96
REMARK H PARENT 3 13 9 23 86 49 54 60
REMARK Flexibility Score: inf
ROOT
ATOM      1  C   UNL A   1      32.149  29.289  24.634  1.00  0.00     0.188 C 
ENDROOT
BRANCH   1   2
ATOM      2  C   UNL A   1      33.152  28.118  24.739  1.00  0.00     0.188 C 
BRANCH   2   3
ATOM      3  O   UNL A   1      32.603  26.936  25.281  1.00  0.00    -0.376 OA
BRANCH   3   4
ATOM      4  C   UNL A   1      31.289  26.688  24.830  1.00  0.00     0.202 C 
BRANCH   4   5
ATOM      5  C   UNL A   1      30.534  25.608  25.606  1.00  0.00     0.261 C 
BRANCH   5   6
ATOM      6  O   UNL A   1      30.984  24.255  25.565  1.00  0.00    -0.462 OA
BRANCH   6   7
ATOM      7  C   UNL A   1      31.097  23.606  26.753  1.00  0.00     0.328 C 
ATOM      8  O   UNL A   1      30.151  23.194  27.412  1.00  0.00    -0.250 OA
BRANCH   7   9
ATOM      9  C   UNL A   1      32.548  23.562  27.206  1.00  0.00     0.190 C 
ATOM     10  C   UNL A   1      32.933  22.250  27.905  1.00  0.00     0.043 C 
BRANCH   9  11
ATOM     11  N   UNL A   1      33.511  23.973  26.170  1.00  0.00    -0.325 N 
ATOM     12  C   UNL A   1      34.383  23.202  25.468  1.00  0.00     0.318 C 
ATOM     13  H   UNL A   1      33.524  24.934  25.956  1.00  0.00     0.166 HD
ATOM     14  O   UNL A   1      35.555  23.570  25.401  1.00  0.00    -0.249 OA
BRANCH  12  15
ATOM     15  N   UNL A   1      33.934  22.063  24.845  1.00  0.00    -0.313 N 
ATOM     16  C   UNL A   1      32.951  22.116  23.754  1.00  0.00     0.183 C 
ATOM     17  C   UNL A   1      34.895  20.980  24.640  1.00  0.00     0.186 C 
ATOM     18  C   UNL A   1      32.299  20.739  23.414  1.00  0.00     0.284 C 
ATOM     19  C   UNL A   1      34.152  19.639  24.666  1.00  0.00     0.203 C 
ATOM     20  N   UNL A   1      33.120  19.509  23.610  1.00  0.00    -0.330 N 
ATOM     21  C   UNL A   1      35.080  18.429  24.588  1.00  0.00     0.067 C 
ATOM     22  C   UNL A   1      32.279  18.317  23.833  1.00  0.00     0.262 C 
ATOM     23  H   UNL A   1      33.627  19.385  22.734  1.00  0.00     0.348 HD
ATOM     24  C   UNL A   1      34.277  17.190  24.985  1.00  0.00     0.012 C 
ATOM     25  C   UNL A   1      33.059  17.017  24.081  1.00  0.00     0.062 C 
ENDBRANCH  12  15
ENDBRANCH   9  11
ENDBRANCH   7   9
ENDBRANCH   6   7
ENDBRANCH   5   6
ENDBRANCH   4   5
ENDBRANCH   3   4
ENDBRANCH   2   3
ENDBRANCH   1   2
BRANCH   1  26
ATOM     26  O   UNL A   1      31.821  30.068  25.778  1.00  0.00    -0.376 OA
BRANCH  26  27
ATOM     27  C   UNL A   1      32.770  30.260  26.822  1.00  0.00     0.202 C 
BRANCH  27  28
ATOM     28  C   UNL A   1      32.898  31.596  27.572  1.00  0.00     0.261 C 
BRANCH  28  29
ATOM     29  O   UNL A   1      34.231  32.116  27.666  1.00  0.00    -0.460 OA
BRANCH  29  30
ATOM     30  C   UNL A   1      34.762  32.144  28.914  1.00  0.00     0.338 C 
ATOM     31  O   UNL A   1      34.237  32.598  29.918  1.00  0.00    -0.246 OA
BRANCH  30  32
ATOM     32  C   UNL A   1      35.954  31.266  28.936  1.00  0.00     0.060 A 
ATOM     33  C   UNL A   1      35.806  29.983  29.495  1.00  0.00     0.016 A 
ATOM     34  C   UNL A   1      37.154  31.632  28.316  1.00  0.00     0.016 A 
ATOM     35  C   UNL A   1      36.850  29.066  29.439  1.00  0.00     0.010 A 
ATOM     36  C   UNL A   1      38.232  30.741  28.335  1.00  0.00     0.010 A 
ATOM     37  C   UNL A   1      38.093  29.476  28.939  1.00  0.00    -0.014 A 
BRANCH  37  38
ATOM     38  C   UNL A   1      39.289  28.784  29.478  1.00  0.00     0.031 A 
ATOM     39  C   UNL A   1      39.774  29.272  30.820  1.00  0.00     0.074 A 
ATOM     40  C   UNL A   1      39.880  27.746  28.864  1.00  0.00     0.049 A 
ATOM     41  N   UNL A   1      40.765  28.854  31.559  1.00  0.00    -0.248 NA
ATOM     42  C   UNL A   1      39.020  30.394  31.408  1.00  0.00     0.031 C 
ATOM     43  C   UNL A   1      39.456  27.145  27.602  1.00  0.00     0.029 A 
ATOM     44  N   UNL A   1      40.974  27.008  29.240  1.00  0.00    -0.354 N 
ATOM     45  C   UNL A   1      40.744  29.655  32.697  1.00  0.00     0.074 A 
ATOM     46  C   UNL A   1      39.672  30.607  32.534  1.00  0.00     0.031 C 
ATOM     47  C   UNL A   1      40.289  26.129  27.305  1.00  0.00     0.029 A 
ATOM     48  C   UNL A   1      41.320  26.029  28.339  1.00  0.00     0.049 A 
ATOM     49  H   UNL A   1      41.466  27.165  30.078  1.00  0.00     0.167 HD
ATOM     50  C   UNL A   1      41.545  29.604  33.786  1.00  0.00     0.034 A 
ATOM     51  C   UNL A   1      42.360  25.171  28.351  1.00  0.00     0.034 A 
ATOM     52  C   UNL A   1      42.646  28.687  33.906  1.00  0.00     0.049 A 
ATOM     53  C   UNL A   1      43.323  25.210  29.520  1.00  0.00     0.074 A 
ATOM     54  C   UNL A   1      43.549  28.557  34.943  1.00  0.00     0.029 A 
ATOM     55  N   UNL A   1      43.010  27.761  32.936  1.00  0.00    -0.354 N 
ATOM     56  N   UNL A   1      43.296  25.969  30.594  1.00  0.00    -0.248 NA
ATOM     57  C   UNL A   1      44.449  24.270  29.480  1.00  0.00     0.031 C 
ATOM     58  C   UNL A   1      44.508  27.611  34.564  1.00  0.00     0.029 A 
ATOM     59  C   UNL A   1      44.146  27.078  33.335  1.00  0.00     0.049 A 
ATOM     60  H   UNL A   1      42.531  27.613  32.089  1.00  0.00     0.167 HD
ATOM     61  C   UNL A   1      44.375  25.559  31.378  1.00  0.00     0.074 A 
ATOM     62  C   UNL A   1      45.026  24.489  30.652  1.00  0.00     0.031 C 
ATOM     63  C   UNL A   1      44.783  26.014  32.592  1.00  0.00     0.034 A 
BRANCH  50  64
ATOM     64  C   UNL A   1      41.295  30.634  34.861  1.00  0.00     0.023 A 
ATOM     65  C   UNL A   1      40.133  30.611  35.657  1.00  0.00     0.031 A 
ATOM     66  C   UNL A   1      42.179  31.716  35.019  1.00  0.00     0.131 A 
ATOM     67  C   UNL A   1      39.842  31.694  36.499  1.00  0.00     0.055 A 
ATOM     68  C   UNL A   1      41.929  32.742  35.931  1.00  0.00     0.041 A 
ATOM     69  F   UNL A   1      43.282  31.814  34.260  1.00  0.00    -0.206 F 
ATOM     70  C   UNL A   1      40.745  32.747  36.663  1.00  0.00     0.022 A 
BRANCH  67  71
ATOM     71  S   UNL A   1      38.181  31.805  37.224  1.00  0.00     0.124 S 
ATOM     72  O   UNL A   1      37.733  30.416  37.148  1.00  0.00    -0.237 OA
ATOM     73  O   UNL A   1      38.455  32.315  38.563  1.00  0.00    -0.237 OA
ATOM     74  O   UNL A   1      37.480  32.728  36.335  1.00  0.00    -0.744 OA
ENDBRANCH  67  71
ENDBRANCH  50  64
BRANCH  51  75
ATOM     75  C   UNL A   1      42.576  24.215  27.226  1.00  0.00     0.023 A 
ATOM     76  C   UNL A   1      41.991  22.938  27.231  1.00  0.00     0.031 A 
ATOM     77  C   UNL A   1      43.424  24.543  26.153  1.00  0.00     0.131 A 
ATOM     78  C   UNL A   1      42.295  22.021  26.211  1.00  0.00     0.055 A 
ATOM     79  C   UNL A   1      43.681  23.647  25.112  1.00  0.00     0.041 A 
ATOM     80  F   UNL A   1      44.015  25.746  26.098  1.00  0.00    -0.206 F 
ATOM     81  C   UNL A   1      43.125  22.373  25.144  1.00  0.00     0.022 A 
BRANCH  78  82
ATOM     82  S   UNL A   1      41.648  20.330  26.337  1.00  0.00     0.124 S 
ATOM     83  O   UNL A   1      40.221  20.543  26.133  1.00  0.00    -0.237 OA
ATOM     84  O   UNL A   1      42.358  19.652  25.259  1.00  0.00    -0.237 OA
ATOM     85  O   UNL A   1      42.032  19.919  27.687  1.00  0.00    -0.744 OA
ENDBRANCH  78  82
ENDBRANCH  51  75
BRANCH  63  86
ATOM     86  C   UNL A   1      45.946  25.304  33.244  1.00  0.00     0.023 A 
ATOM     87  C   UNL A   1      45.776  24.160  34.041  1.00  0.00     0.031 A 
ATOM     88  C   UNL A   1      47.255  25.790  33.060  1.00  0.00     0.131 A 
ATOM     89  C   UNL A   1      46.885  23.581  34.678  1.00  0.00     0.055 A 
ATOM     90  C   UNL A   1      48.361  25.167  33.635  1.00  0.00     0.041 A 
ATOM     91  F   UNL A   1      47.480  26.882  32.309  1.00  0.00    -0.206 F 
ATOM     92  C   UNL A   1      48.178  24.065  34.464  1.00  0.00     0.022 A 
BRANCH  89  93
ATOM     93  S   UNL A   1      46.602  22.258  35.886  1.00  0.00     0.124 S 
ATOM     94  O   UNL A   1      47.882  22.207  36.585  1.00  0.00    -0.237 OA
ATOM     95  O   UNL A   1      45.475  22.775  36.656  1.00  0.00    -0.237 OA
ATOM     96  O   UNL A   1      46.302  21.093  35.055  1.00  0.00    -0.744 OA
ENDBRANCH  89  93
ENDBRANCH  63  86
ENDBRANCH  37  38
ENDBRANCH  30  32
ENDBRANCH  29  30
ENDBRANCH  28  29
ENDBRANCH  27  28
ENDBRANCH  26  27
ENDBRANCH   1  26
TORSDOF 22
ENDMDL
