MODEL 1
REMARK VINA RESULT:      -9.8      0.000      0.000
REMARK SMILES CCC[NH2+][C@]1(C(=O)OCCOCCOCCOC(=O)c2ccc(-c3c4nc(c(-c5cc(S(=O)(=O)[O-])ccc5F)c5ccc([nH]5)c(-c5cc(S(=O)(=O)[O-])ccc5F)c5nc(c(-c6cc(S(=O)(=O)[O-])ccc6F)c6ccc3[nH]6)C=C5)C=C4)cc2)CC[C@@H](Sc2nnc(C)n2C)C1
REMARK SMILES IDX 12 1 11 2 10 3 9 4 8 5 6 6 7 7 5 8 83 9 94 10 84 11 85 12
REMARK SMILES IDX 4 13 3 16 2 17 1 18 86 19 87 20 88 21 92 22 89 23 90 24
REMARK SMILES IDX 93 25 91 26 13 27 14 28 15 29 16 30 17 31 18 32 19 33 20 34
REMARK SMILES IDX 21 35 82 36 22 37 81 38 23 39 24 40 25 41 75 42 26 43 80 44
REMARK SMILES IDX 74 45 76 46 27 47 79 48 73 49 72 50 28 52 60 53 40 54 59 55
REMARK SMILES IDX 41 56 44 57 58 58 77 59 42 60 43 61 57 63 78 64 45 65 29 66
REMARK SMILES IDX 30 67 38 68 31 69 37 70 39 71 36 72 32 73 33 74 34 75 35 76
REMARK SMILES IDX 61 77 62 78 70 79 63 80 69 81 71 82 68 83 64 84 65 85 66 86
REMARK SMILES IDX 67 87 46 88 47 89 55 90 48 91 54 92 56 93 53 94 49 95 50 96
REMARK SMILES IDX 51 97 52 98
REMARK H PARENT 4 14 4 15 76 51 44 62
REMARK Flexibility Score: inf
ROOT
ATOM      1  C   UNL A   1      30.773  28.461  24.428  1.00  0.00     0.188 C 
ENDROOT
BRANCH   1   2
ATOM      2  O   UNL A   1      31.355  28.285  23.148  1.00  0.00    -0.376 OA
BRANCH   2   3
ATOM      3  C   UNL A   1      32.779  28.227  23.140  1.00  0.00     0.202 C 
BRANCH   3   4
ATOM      4  C   UNL A   1      33.427  27.595  21.898  1.00  0.00     0.261 C 
BRANCH   4   5
ATOM      5  O   UNL A   1      34.073  26.324  22.142  1.00  0.00    -0.459 OA
BRANCH   5   6
ATOM      6  C   UNL A   1      33.345  25.200  21.964  1.00  0.00     0.368 C 
ATOM      7  O   UNL A   1      32.836  24.887  20.891  1.00  0.00    -0.245 OA
BRANCH   6   8
ATOM      8  C   UNL A   1      33.160  24.364  23.276  1.00  0.00     0.195 C 
ATOM      9  C   UNL A   1      31.752  23.972  23.743  1.00  0.00     0.082 C 
ATOM     10  C   UNL A   1      33.744  22.956  22.992  1.00  0.00     0.096 C 
ATOM     11  C   UNL A   1      31.950  22.770  24.654  1.00  0.00     0.022 C 
ATOM     12  C   UNL A   1      33.008  21.960  23.915  1.00  0.00     0.062 C 
BRANCH   8  13
ATOM     13  N   UNL A   1      33.917  25.031  24.376  1.00  0.00    -0.332 N 
ATOM     14  H   UNL A   1      34.056  26.010  24.129  1.00  0.00     0.347 HD
ATOM     15  H   UNL A   1      33.371  24.932  25.231  1.00  0.00     0.347 HD
BRANCH  13  16
ATOM     16  C   UNL A   1      35.237  24.412  24.613  1.00  0.00     0.261 C 
BRANCH  16  17
ATOM     17  C   UNL A   1      35.382  23.830  26.023  1.00  0.00     0.058 C 
ATOM     18  C   UNL A   1      36.195  22.544  26.078  1.00  0.00     0.010 C 
ENDBRANCH  16  17
ENDBRANCH  13  16
ENDBRANCH   8  13
BRANCH  12  19
ATOM     19  S   UNL A   1      32.433  20.485  22.988  1.00  0.00    -0.082 SA
BRANCH  19  20
ATOM     20  C   UNL A   1      32.423  19.164  24.108  1.00  0.00     0.191 A 
ATOM     21  N   UNL A   1      32.179  19.273  25.393  1.00  0.00    -0.123 NA
ATOM     22  N   UNL A   1      32.864  17.894  23.839  1.00  0.00    -0.309 N 
ATOM     23  N   UNL A   1      32.451  18.059  25.981  1.00  0.00    -0.135 NA
ATOM     24  C   UNL A   1      32.865  17.228  25.046  1.00  0.00     0.130 A 
ATOM     25  C   UNL A   1      33.255  17.337  22.573  1.00  0.00     0.154 C 
ATOM     26  C   UNL A   1      33.285  15.822  25.264  1.00  0.00     0.090 C 
ENDBRANCH  19  20
ENDBRANCH  12  19
ENDBRANCH   6   8
ENDBRANCH   5   6
ENDBRANCH   4   5
ENDBRANCH   3   4
ENDBRANCH   2   3
ENDBRANCH   1   2
BRANCH   1  27
ATOM     27  C   UNL A   1      31.532  27.732  25.541  1.00  0.00     0.188 C 
BRANCH  27  28
ATOM     28  O   UNL A   1      32.308  28.467  26.474  1.00  0.00    -0.376 OA
BRANCH  28  29
ATOM     29  C   UNL A   1      32.008  29.855  26.572  1.00  0.00     0.202 C 
BRANCH  29  30
ATOM     30  C   UNL A   1      33.153  30.807  26.955  1.00  0.00     0.261 C 
BRANCH  30  31
ATOM     31  O   UNL A   1      32.797  32.201  26.873  1.00  0.00    -0.460 OA
BRANCH  31  32
ATOM     32  C   UNL A   1      33.336  33.005  27.833  1.00  0.00     0.338 C 
ATOM     33  O   UNL A   1      32.779  33.924  28.414  1.00  0.00    -0.246 OA
BRANCH  32  34
ATOM     34  C   UNL A   1      34.632  32.436  28.267  1.00  0.00     0.060 A 
ATOM     35  C   UNL A   1      34.653  31.226  28.986  1.00  0.00     0.016 A 
ATOM     36  C   UNL A   1      35.820  33.098  27.972  1.00  0.00     0.016 A 
ATOM     37  C   UNL A   1      35.863  30.681  29.422  1.00  0.00     0.010 A 
ATOM     38  C   UNL A   1      37.025  32.573  28.443  1.00  0.00     0.010 A 
ATOM     39  C   UNL A   1      37.052  31.379  29.191  1.00  0.00    -0.014 A 
BRANCH  39  40
ATOM     40  C   UNL A   1      38.300  31.049  29.924  1.00  0.00     0.031 A 
ATOM     41  C   UNL A   1      39.217  30.038  29.295  1.00  0.00     0.074 A 
ATOM     42  C   UNL A   1      38.575  31.551  31.140  1.00  0.00     0.049 A 
ATOM     43  N   UNL A   1      40.196  29.356  29.826  1.00  0.00    -0.248 NA
ATOM     44  C   UNL A   1      38.971  29.743  27.874  1.00  0.00     0.031 C 
ATOM     45  C   UNL A   1      37.815  32.599  31.818  1.00  0.00     0.029 A 
ATOM     46  N   UNL A   1      39.559  31.213  32.037  1.00  0.00    -0.354 N 
ATOM     47  C   UNL A   1      40.665  28.526  28.811  1.00  0.00     0.074 A 
ATOM     48  C   UNL A   1      39.847  28.779  27.645  1.00  0.00     0.031 C 
ATOM     49  C   UNL A   1      38.341  32.793  33.042  1.00  0.00     0.029 A 
ATOM     50  C   UNL A   1      39.430  31.840  33.256  1.00  0.00     0.049 A 
ATOM     51  H   UNL A   1      40.286  30.583  31.828  1.00  0.00     0.167 HD
ATOM     52  C   UNL A   1      41.681  27.631  28.856  1.00  0.00     0.034 A 
ATOM     53  C   UNL A   1      40.081  31.624  34.421  1.00  0.00     0.034 A 
ATOM     54  C   UNL A   1      42.471  27.384  30.034  1.00  0.00     0.049 A 
ATOM     55  C   UNL A   1      41.135  30.538  34.486  1.00  0.00     0.074 A 
ATOM     56  C   UNL A   1      43.516  26.493  30.200  1.00  0.00     0.029 A 
ATOM     57  N   UNL A   1      42.296  28.023  31.255  1.00  0.00    -0.354 N 
ATOM     58  N   UNL A   1      41.547  29.725  33.540  1.00  0.00    -0.248 NA
ATOM     59  C   UNL A   1      41.809  30.336  35.777  1.00  0.00     0.031 C 
ATOM     60  C   UNL A   1      43.921  26.538  31.537  1.00  0.00     0.029 A 
ATOM     61  C   UNL A   1      43.197  27.528  32.183  1.00  0.00     0.049 A 
ATOM     62  H   UNL A   1      41.630  28.726  31.434  1.00  0.00     0.167 HD
ATOM     63  C   UNL A   1      42.564  28.959  34.109  1.00  0.00     0.074 A 
ATOM     64  C   UNL A   1      42.696  29.396  35.481  1.00  0.00     0.031 C 
ATOM     65  C   UNL A   1      43.330  27.991  33.544  1.00  0.00     0.034 A 
BRANCH  52  66
ATOM     66  C   UNL A   1      41.942  26.817  27.613  1.00  0.00     0.023 A 
ATOM     67  C   UNL A   1      41.554  25.469  27.517  1.00  0.00     0.031 A 
ATOM     68  C   UNL A   1      42.623  27.386  26.522  1.00  0.00     0.131 A 
ATOM     69  C   UNL A   1      41.915  24.718  26.389  1.00  0.00     0.055 A 
ATOM     70  C   UNL A   1      42.900  26.656  25.366  1.00  0.00     0.041 A 
ATOM     71  F   UNL A   1      43.043  28.659  26.569  1.00  0.00    -0.206 F 
ATOM     72  C   UNL A   1      42.560  25.308  25.300  1.00  0.00     0.022 A 
BRANCH  69  73
ATOM     73  S   UNL A   1      41.665  22.922  26.432  1.00  0.00     0.124 S 
ATOM     74  O   UNL A   1      40.207  22.828  26.449  1.00  0.00    -0.237 OA
ATOM     75  O   UNL A   1      42.320  22.483  25.205  1.00  0.00    -0.237 OA
ATOM     76  O   UNL A   1      42.323  22.515  27.672  1.00  0.00    -0.744 OA
ENDBRANCH  69  73
ENDBRANCH  52  66
BRANCH  53  77
ATOM     77  C   UNL A   1      39.729  32.403  35.646  1.00  0.00     0.023 A 
ATOM     78  C   UNL A   1      38.879  31.862  36.623  1.00  0.00     0.031 A 
ATOM     79  C   UNL A   1      40.174  33.725  35.824  1.00  0.00     0.131 A 
ATOM     80  C   UNL A   1      38.455  32.654  37.702  1.00  0.00     0.055 A 
ATOM     81  C   UNL A   1      39.801  34.488  36.933  1.00  0.00     0.041 A 
ATOM     82  F   UNL A   1      40.982  34.299  34.918  1.00  0.00    -0.206 F 
ATOM     83  C   UNL A   1      38.923  33.958  37.873  1.00  0.00     0.022 A 
BRANCH  80  84
ATOM     84  S   UNL A   1      37.191  31.990  38.822  1.00  0.00     0.124 S 
ATOM     85  O   UNL A   1      37.794  32.240  40.126  1.00  0.00    -0.237 OA
ATOM     86  O   UNL A   1      36.029  32.805  38.483  1.00  0.00    -0.237 OA
ATOM     87  O   UNL A   1      37.099  30.585  38.434  1.00  0.00    -0.744 OA
ENDBRANCH  80  84
ENDBRANCH  53  77
BRANCH  65  88
ATOM     88  C   UNL A   1      44.452  27.407  34.368  1.00  0.00     0.023 A 
ATOM     89  C   UNL A   1      45.719  28.008  34.458  1.00  0.00     0.031 A 
ATOM     90  C   UNL A   1      44.221  26.238  35.119  1.00  0.00     0.131 A 
ATOM     91  C   UNL A   1      46.715  27.421  35.256  1.00  0.00     0.055 A 
ATOM     92  C   UNL A   1      45.195  25.692  35.954  1.00  0.00     0.041 A 
ATOM     93  F   UNL A   1      43.030  25.619  35.068  1.00  0.00    -0.206 F 
ATOM     94  C   UNL A   1      46.454  26.280  36.020  1.00  0.00     0.022 A 
BRANCH  91  95
ATOM     95  S   UNL A   1      48.383  28.133  35.241  1.00  0.00     0.124 S 
ATOM     96  O   UNL A   1      48.865  27.811  36.580  1.00  0.00    -0.237 OA
ATOM     97  O   UNL A   1      49.022  27.412  34.144  1.00  0.00    -0.237 OA
ATOM     98  O   UNL A   1      48.148  29.554  34.991  1.00  0.00    -0.744 OA
ENDBRANCH  91  95
ENDBRANCH  65  88
ENDBRANCH  39  40
ENDBRANCH  32  34
ENDBRANCH  31  32
ENDBRANCH  30  31
ENDBRANCH  29  30
ENDBRANCH  28  29
ENDBRANCH  27  28
ENDBRANCH   1  27
TORSDOF 25
ENDMDL
MODEL 2
REMARK VINA RESULT:      -9.7      2.818      8.236
REMARK SMILES CCC[NH2+][C@]1(C(=O)OCCOCCOCCOC(=O)c2ccc(-c3c4nc(c(-c5cc(S(=O)(=O)[O-])ccc5F)c5ccc([nH]5)c(-c5cc(S(=O)(=O)[O-])ccc5F)c5nc(c(-c6cc(S(=O)(=O)[O-])ccc6F)c6ccc3[nH]6)C=C5)C=C4)cc2)CC[C@@H](Sc2nnc(C)n2C)C1
REMARK SMILES IDX 12 1 11 2 10 3 9 4 8 5 6 6 7 7 5 8 83 9 94 10 84 11 85 12
REMARK SMILES IDX 4 13 3 16 2 17 1 18 86 19 87 20 88 21 92 22 89 23 90 24
REMARK SMILES IDX 93 25 91 26 13 27 14 28 15 29 16 30 17 31 18 32 19 33 20 34
REMARK SMILES IDX 21 35 82 36 22 37 81 38 23 39 24 40 25 41 75 42 26 43 80 44
REMARK SMILES IDX 74 45 76 46 27 47 79 48 73 49 72 50 28 52 60 53 40 54 59 55
REMARK SMILES IDX 41 56 44 57 58 58 77 59 42 60 43 61 57 63 78 64 45 65 29 66
REMARK SMILES IDX 30 67 38 68 31 69 37 70 39 71 36 72 32 73 33 74 34 75 35 76
REMARK SMILES IDX 61 77 62 78 70 79 63 80 69 81 71 82 68 83 64 84 65 85 66 86
REMARK SMILES IDX 67 87 46 88 47 89 55 90 48 91 54 92 56 93 53 94 49 95 50 96
REMARK SMILES IDX 51 97 52 98
REMARK H PARENT 4 14 4 15 76 51 44 62
REMARK Flexibility Score: inf
ROOT
ATOM      1  C   UNL A   1      30.994  26.277  26.015  1.00  0.00     0.188 C 
ENDROOT
BRANCH   1   2
ATOM      2  O   UNL A   1      30.921  25.757  24.699  1.00  0.00    -0.376 OA
BRANCH   2   3
ATOM      3  C   UNL A   1      30.871  24.335  24.619  1.00  0.00     0.202 C 
BRANCH   3   4
ATOM      4  C   UNL A   1      30.807  23.580  25.955  1.00  0.00     0.261 C 
BRANCH   4   5
ATOM      5  O   UNL A   1      31.719  22.461  26.056  1.00  0.00    -0.459 OA
BRANCH   5   6
ATOM      6  C   UNL A   1      33.020  22.726  26.304  1.00  0.00     0.368 C 
ATOM      7  O   UNL A   1      33.408  23.350  27.288  1.00  0.00    -0.245 OA
BRANCH   6   8
ATOM      8  C   UNL A   1      33.985  22.213  25.181  1.00  0.00     0.195 C 
ATOM      9  C   UNL A   1      34.648  23.213  24.225  1.00  0.00     0.082 C 
ATOM     10  C   UNL A   1      35.243  21.657  25.894  1.00  0.00     0.096 C 
ATOM     11  C   UNL A   1      35.872  22.496  23.676  1.00  0.00     0.022 C 
ATOM     12  C   UNL A   1      36.425  21.790  24.908  1.00  0.00     0.062 C 
BRANCH   8  13
ATOM     13  N   UNL A   1      33.295  21.129  24.419  1.00  0.00    -0.332 N 
ATOM     14  H   UNL A   1      32.291  21.303  24.443  1.00  0.00     0.347 HD
ATOM     15  H   UNL A   1      33.658  21.142  23.466  1.00  0.00     0.347 HD
BRANCH  13  16
ATOM     16  C   UNL A   1      33.556  19.788  24.980  1.00  0.00     0.261 C 
BRANCH  16  17
ATOM     17  C   UNL A   1      33.336  18.661  23.966  1.00  0.00     0.058 C 
ATOM     18  C   UNL A   1      34.363  17.541  24.058  1.00  0.00     0.010 C 
ENDBRANCH  16  17
ENDBRANCH  13  16
ENDBRANCH   8  13
BRANCH  12  19
ATOM     19  S   UNL A   1      37.892  22.542  25.714  1.00  0.00    -0.082 SA
BRANCH  19  20
ATOM     20  C   UNL A   1      39.094  21.300  25.822  1.00  0.00     0.191 A 
ATOM     21  N   UNL A   1      38.965  20.088  25.337  1.00  0.00    -0.123 NA
ATOM     22  N   UNL A   1      40.226  21.358  26.594  1.00  0.00    -0.309 N 
ATOM     23  N   UNL A   1      40.028  19.336  25.782  1.00  0.00    -0.135 NA
ATOM     24  C   UNL A   1      40.788  20.101  26.540  1.00  0.00     0.130 A 
ATOM     25  C   UNL A   1      40.749  22.481  27.323  1.00  0.00     0.154 C 
ATOM     26  C   UNL A   1      42.024  19.669  27.238  1.00  0.00     0.090 C 
ENDBRANCH  19  20
ENDBRANCH  12  19
ENDBRANCH   6   8
ENDBRANCH   5   6
ENDBRANCH   4   5
ENDBRANCH   3   4
ENDBRANCH   2   3
ENDBRANCH   1   2
BRANCH   1  27
ATOM     27  C   UNL A   1      31.618  27.675  26.077  1.00  0.00     0.188 C 
BRANCH  27  28
ATOM     28  O   UNL A   1      31.185  28.690  25.186  1.00  0.00    -0.376 OA
BRANCH  28  29
ATOM     29  C   UNL A   1      31.530  30.022  25.550  1.00  0.00     0.202 C 
BRANCH  29  30
ATOM     30  C   UNL A   1      32.970  30.281  26.026  1.00  0.00     0.261 C 
BRANCH  30  31
ATOM     31  O   UNL A   1      33.061  30.643  27.418  1.00  0.00    -0.460 OA
BRANCH  31  32
ATOM     32  C   UNL A   1      33.876  31.698  27.701  1.00  0.00     0.338 C 
ATOM     33  O   UNL A   1      33.540  32.864  27.839  1.00  0.00    -0.246 OA
BRANCH  32  34
ATOM     34  C   UNL A   1      35.213  31.186  28.081  1.00  0.00     0.060 A 
ATOM     35  C   UNL A   1      35.394  29.806  28.287  1.00  0.00     0.016 A 
ATOM     36  C   UNL A   1      36.278  32.066  28.243  1.00  0.00     0.016 A 
ATOM     37  C   UNL A   1      36.642  29.303  28.664  1.00  0.00     0.010 A 
ATOM     38  C   UNL A   1      37.514  31.567  28.660  1.00  0.00     0.010 A 
ATOM     39  C   UNL A   1      37.696  30.191  28.898  1.00  0.00    -0.014 A 
BRANCH  39  40
ATOM     40  C   UNL A   1      38.915  29.771  29.634  1.00  0.00     0.031 A 
ATOM     41  C   UNL A   1      39.114  30.339  31.011  1.00  0.00     0.074 A 
ATOM     42  C   UNL A   1      39.858  28.991  29.078  1.00  0.00     0.049 A 
ATOM     43  N   UNL A   1      40.192  30.385  31.746  1.00  0.00    -0.248 NA
ATOM     44  C   UNL A   1      37.931  30.962  31.626  1.00  0.00     0.031 C 
ATOM     45  C   UNL A   1      39.747  28.309  27.790  1.00  0.00     0.029 A 
ATOM     46  N   UNL A   1      41.119  28.671  29.523  1.00  0.00    -0.354 N 
ATOM     47  C   UNL A   1      39.826  31.071  32.901  1.00  0.00     0.074 A 
ATOM     48  C   UNL A   1      38.434  31.437  32.754  1.00  0.00     0.031 C 
ATOM     49  C   UNL A   1      40.908  27.679  27.532  1.00  0.00     0.029 A 
ATOM     50  C   UNL A   1      41.863  27.968  28.602  1.00  0.00     0.049 A 
ATOM     51  H   UNL A   1      41.456  28.920  30.413  1.00  0.00     0.167 HD
ATOM     52  C   UNL A   1      40.588  31.372  33.980  1.00  0.00     0.034 A 
ATOM     53  C   UNL A   1      43.176  27.647  28.604  1.00  0.00     0.034 A 
ATOM     54  C   UNL A   1      41.978  31.012  34.097  1.00  0.00     0.049 A 
ATOM     55  C   UNL A   1      44.041  28.093  29.765  1.00  0.00     0.074 A 
ATOM     56  C   UNL A   1      42.852  31.275  35.138  1.00  0.00     0.029 A 
ATOM     57  N   UNL A   1      42.701  30.319  33.135  1.00  0.00    -0.354 N 
ATOM     58  N   UNL A   1      43.705  28.778  30.834  1.00  0.00    -0.248 NA
ATOM     59  C   UNL A   1      45.465  27.727  29.717  1.00  0.00     0.031 C 
ATOM     60  C   UNL A   1      44.118  30.810  34.772  1.00  0.00     0.029 A 
ATOM     61  C   UNL A   1      44.015  30.168  33.548  1.00  0.00     0.049 A 
ATOM     62  H   UNL A   1      42.334  29.984  32.285  1.00  0.00     0.167 HD
ATOM     63  C   UNL A   1      44.861  28.874  31.608  1.00  0.00     0.074 A 
ATOM     64  C   UNL A   1      45.906  28.188  30.880  1.00  0.00     0.031 C 
ATOM     65  C   UNL A   1      45.041  29.462  32.818  1.00  0.00     0.034 A 
BRANCH  52  66
ATOM     66  C   UNL A   1      39.944  32.181  35.079  1.00  0.00     0.023 A 
ATOM     67  C   UNL A   1      40.243  33.542  35.268  1.00  0.00     0.031 A 
ATOM     68  C   UNL A   1      39.046  31.573  35.975  1.00  0.00     0.131 A 
ATOM     69  C   UNL A   1      39.708  34.227  36.368  1.00  0.00     0.055 A 
ATOM     70  C   UNL A   1      38.449  32.286  37.015  1.00  0.00     0.041 A 
ATOM     71  F   UNL A   1      38.746  30.270  35.861  1.00  0.00    -0.206 F 
ATOM     72  C   UNL A   1      38.792  33.618  37.227  1.00  0.00     0.022 A 
BRANCH  69  73
ATOM     73  S   UNL A   1      40.349  35.881  36.749  1.00  0.00     0.124 S 
ATOM     74  O   UNL A   1      41.786  35.688  36.567  1.00  0.00    -0.237 OA
ATOM     75  O   UNL A   1      39.684  36.714  35.753  1.00  0.00    -0.237 OA
ATOM     76  O   UNL A   1      39.926  36.101  38.131  1.00  0.00    -0.744 OA
ENDBRANCH  69  73
ENDBRANCH  52  66
BRANCH  53  77
ATOM     77  C   UNL A   1      43.784  26.914  27.453  1.00  0.00     0.023 A 
ATOM     78  C   UNL A   1      43.855  25.511  27.450  1.00  0.00     0.031 A 
ATOM     79  C   UNL A   1      44.371  27.603  26.377  1.00  0.00     0.131 A 
ATOM     80  C   UNL A   1      44.546  24.846  26.424  1.00  0.00     0.055 A 
ATOM     81  C   UNL A   1      45.000  26.933  25.325  1.00  0.00     0.041 A 
ATOM     82  F   UNL A   1      44.341  28.944  26.330  1.00  0.00    -0.206 F 
ATOM     83  C   UNL A   1      45.104  25.546  25.353  1.00  0.00     0.022 A 
BRANCH  80  84
ATOM     84  S   UNL A   1      44.799  23.055  26.569  1.00  0.00     0.124 S 
ATOM     85  O   UNL A   1      46.235  22.943  26.343  1.00  0.00    -0.237 OA
ATOM     86  O   UNL A   1      44.339  22.795  27.928  1.00  0.00    -0.237 OA
ATOM     87  O   UNL A   1      43.954  22.506  25.511  1.00  0.00    -0.744 OA
ENDBRANCH  80  84
ENDBRANCH  53  77
BRANCH  65  88
ATOM     88  C   UNL A   1      46.385  29.305  33.488  1.00  0.00     0.023 A 
ATOM     89  C   UNL A   1      46.709  28.193  34.285  1.00  0.00     0.031 A 
ATOM     90  C   UNL A   1      47.379  30.281  33.279  1.00  0.00     0.131 A 
ATOM     91  C   UNL A   1      47.984  28.100  34.866  1.00  0.00     0.055 A 
ATOM     92  C   UNL A   1      48.661  30.155  33.813  1.00  0.00     0.041 A 
ATOM     93  F   UNL A   1      47.122  31.366  32.530  1.00  0.00    -0.206 F 
ATOM     94  C   UNL A   1      48.967  29.063  34.618  1.00  0.00     0.022 A 
BRANCH  91  95
ATOM     95  S   UNL A   1      48.330  26.733  36.007  1.00  0.00     0.124 S 
ATOM     96  O   UNL A   1      47.670  27.181  37.229  1.00  0.00    -0.237 OA
ATOM     97  O   UNL A   1      47.713  25.596  35.331  1.00  0.00    -0.237 OA
ATOM     98  O   UNL A   1      49.790  26.697  36.068  1.00  0.00    -0.744 OA
ENDBRANCH  91  95
ENDBRANCH  65  88
ENDBRANCH  39  40
ENDBRANCH  32  34
ENDBRANCH  31  32
ENDBRANCH  30  31
ENDBRANCH  29  30
ENDBRANCH  28  29
ENDBRANCH  27  28
ENDBRANCH   1  27
TORSDOF 25
ENDMDL
MODEL 3
REMARK VINA RESULT:      -9.7      2.522      9.159
REMARK SMILES CCC[NH2+][C@]1(C(=O)OCCOCCOCCOC(=O)c2ccc(-c3c4nc(c(-c5cc(S(=O)(=O)[O-])ccc5F)c5ccc([nH]5)c(-c5cc(S(=O)(=O)[O-])ccc5F)c5nc(c(-c6cc(S(=O)(=O)[O-])ccc6F)c6ccc3[nH]6)C=C5)C=C4)cc2)CC[C@@H](Sc2nnc(C)n2C)C1
REMARK SMILES IDX 12 1 11 2 10 3 9 4 8 5 6 6 7 7 5 8 83 9 94 10 84 11 85 12
REMARK SMILES IDX 4 13 3 16 2 17 1 18 86 19 87 20 88 21 92 22 89 23 90 24
REMARK SMILES IDX 93 25 91 26 13 27 14 28 15 29 16 30 17 31 18 32 19 33 20 34
REMARK SMILES IDX 21 35 82 36 22 37 81 38 23 39 24 40 25 41 75 42 26 43 80 44
REMARK SMILES IDX 74 45 76 46 27 47 79 48 73 49 72 50 28 52 60 53 40 54 59 55
REMARK SMILES IDX 41 56 44 57 58 58 77 59 42 60 43 61 57 63 78 64 45 65 29 66
REMARK SMILES IDX 30 67 38 68 31 69 37 70 39 71 36 72 32 73 33 74 34 75 35 76
REMARK SMILES IDX 61 77 62 78 70 79 63 80 69 81 71 82 68 83 64 84 65 85 66 86
REMARK SMILES IDX 67 87 46 88 47 89 55 90 48 91 54 92 56 93 53 94 49 95 50 96
REMARK SMILES IDX 51 97 52 98
REMARK H PARENT 4 14 4 15 76 51 44 62
REMARK Flexibility Score: inf
ROOT
ATOM      1  C   UNL A   1      40.201  21.998  26.925  1.00  0.00     0.188 C 
ENDROOT
BRANCH   1   2
ATOM      2  O   UNL A   1      39.119  21.478  26.172  1.00  0.00    -0.376 OA
BRANCH   2   3
ATOM      3  C   UNL A   1      38.173  22.448  25.733  1.00  0.00     0.202 C 
BRANCH   3   4
ATOM      4  C   UNL A   1      37.162  21.982  24.674  1.00  0.00     0.261 C 
BRANCH   4   5
ATOM      5  O   UNL A   1      35.817  22.476  24.871  1.00  0.00    -0.459 OA
BRANCH   5   6
ATOM      6  C   UNL A   1      35.148  22.940  23.792  1.00  0.00     0.368 C 
ATOM      7  O   UNL A   1      35.665  23.087  22.689  1.00  0.00    -0.245 OA
BRANCH   6   8
ATOM      8  C   UNL A   1      33.663  23.331  24.102  1.00  0.00     0.195 C 
ATOM      9  C   UNL A   1      33.359  24.579  24.942  1.00  0.00     0.082 C 
ATOM     10  C   UNL A   1      33.025  23.759  22.756  1.00  0.00     0.096 C 
ATOM     11  C   UNL A   1      31.929  24.963  24.590  1.00  0.00     0.022 C 
ATOM     12  C   UNL A   1      31.888  24.751  23.082  1.00  0.00     0.062 C 
BRANCH   8  13
ATOM     13  N   UNL A   1      32.961  22.136  24.656  1.00  0.00    -0.332 N 
ATOM     14  H   UNL A   1      33.499  21.779  25.445  1.00  0.00     0.347 HD
ATOM     15  H   UNL A   1      32.026  22.430  24.939  1.00  0.00     0.347 HD
BRANCH  13  16
ATOM     16  C   UNL A   1      32.809  21.055  23.661  1.00  0.00     0.261 C 
BRANCH  16  17
ATOM     17  C   UNL A   1      32.368  19.726  24.281  1.00  0.00     0.058 C 
ATOM     18  C   UNL A   1      32.760  18.504  23.461  1.00  0.00     0.010 C 
ENDBRANCH  16  17
ENDBRANCH  13  16
ENDBRANCH   8  13
BRANCH  12  19
ATOM     19  S   UNL A   1      31.980  26.249  22.026  1.00  0.00    -0.082 SA
BRANCH  19  20
ATOM     20  C   UNL A   1      32.483  27.552  23.052  1.00  0.00     0.191 A 
ATOM     21  N   UNL A   1      33.726  27.804  23.388  1.00  0.00    -0.123 NA
ATOM     22  N   UNL A   1      31.645  28.343  23.794  1.00  0.00    -0.309 N 
ATOM     23  N   UNL A   1      33.714  28.781  24.357  1.00  0.00    -0.135 NA
ATOM     24  C   UNL A   1      32.461  29.106  24.603  1.00  0.00     0.130 A 
ATOM     25  C   UNL A   1      30.209  28.394  23.764  1.00  0.00     0.154 C 
ATOM     26  C   UNL A   1      32.007  30.105  25.602  1.00  0.00     0.090 C 
ENDBRANCH  19  20
ENDBRANCH  12  19
ENDBRANCH   6   8
ENDBRANCH   5   6
ENDBRANCH   4   5
ENDBRANCH   3   4
ENDBRANCH   2   3
ENDBRANCH   1   2
BRANCH   1  27
ATOM     27  C   UNL A   1      41.441  21.099  26.902  1.00  0.00     0.188 C 
BRANCH  27  28
ATOM     28  O   UNL A   1      42.059  20.768  25.669  1.00  0.00    -0.376 OA
BRANCH  28  29
ATOM     29  C   UNL A   1      43.455  20.495  25.729  1.00  0.00     0.202 C 
BRANCH  29  30
ATOM     30  C   UNL A   1      44.413  21.549  25.148  1.00  0.00     0.261 C 
BRANCH  30  31
ATOM     31  O   UNL A   1      44.488  22.756  25.932  1.00  0.00    -0.460 OA
BRANCH  31  32
ATOM     32  C   UNL A   1      43.745  23.803  25.476  1.00  0.00     0.338 C 
ATOM     33  O   UNL A   1      43.146  23.866  24.413  1.00  0.00    -0.246 OA
BRANCH  32  34
ATOM     34  C   UNL A   1      43.548  24.772  26.578  1.00  0.00     0.060 A 
ATOM     35  C   UNL A   1      42.904  24.357  27.759  1.00  0.00     0.016 A 
ATOM     36  C   UNL A   1      43.989  26.084  26.442  1.00  0.00     0.016 A 
ATOM     37  C   UNL A   1      42.691  25.259  28.805  1.00  0.00     0.010 A 
ATOM     38  C   UNL A   1      43.738  26.994  27.471  1.00  0.00     0.010 A 
ATOM     39  C   UNL A   1      43.067  26.596  28.644  1.00  0.00    -0.014 A 
BRANCH  39  40
ATOM     40  C   UNL A   1      42.555  27.659  29.544  1.00  0.00     0.031 A 
ATOM     41  C   UNL A   1      43.291  27.876  30.837  1.00  0.00     0.074 A 
ATOM     42  C   UNL A   1      41.432  28.348  29.279  1.00  0.00     0.049 A 
ATOM     43  N   UNL A   1      42.914  28.506  31.916  1.00  0.00    -0.248 NA
ATOM     44  C   UNL A   1      44.630  27.271  30.923  1.00  0.00     0.031 C 
ATOM     45  C   UNL A   1      40.677  28.294  28.029  1.00  0.00     0.029 A 
ATOM     46  N   UNL A   1      40.711  29.208  30.072  1.00  0.00    -0.354 N 
ATOM     47  C   UNL A   1      43.957  28.348  32.824  1.00  0.00     0.074 A 
ATOM     48  C   UNL A   1      44.968  27.545  32.172  1.00  0.00     0.031 C 
ATOM     49  C   UNL A   1      39.578  29.061  28.153  1.00  0.00     0.029 A 
ATOM     50  C   UNL A   1      39.519  29.605  29.510  1.00  0.00     0.049 A 
ATOM     51  H   UNL A   1      41.018  29.511  30.957  1.00  0.00     0.167 HD
ATOM     52  C   UNL A   1      44.054  28.826  34.088  1.00  0.00     0.034 A 
ATOM     53  C   UNL A   1      38.481  30.279  30.051  1.00  0.00     0.034 A 
ATOM     54  C   UNL A   1      43.026  29.609  34.723  1.00  0.00     0.049 A 
ATOM     55  C   UNL A   1      38.556  30.705  31.503  1.00  0.00     0.074 A 
ATOM     56  C   UNL A   1      43.010  30.136  36.003  1.00  0.00     0.029 A 
ATOM     57  N   UNL A   1      41.824  29.972  34.128  1.00  0.00    -0.354 N 
ATOM     58  N   UNL A   1      39.522  30.517  32.373  1.00  0.00    -0.248 NA
ATOM     59  C   UNL A   1      37.398  31.429  32.049  1.00  0.00     0.031 C 
ATOM     60  C   UNL A   1      41.770  30.749  36.207  1.00  0.00     0.029 A 
ATOM     61  C   UNL A   1      41.051  30.693  35.023  1.00  0.00     0.049 A 
ATOM     62  H   UNL A   1      41.561  29.750  33.206  1.00  0.00     0.167 HD
ATOM     63  C   UNL A   1      39.110  31.149  33.546  1.00  0.00     0.074 A 
ATOM     64  C   UNL A   1      37.805  31.712  33.279  1.00  0.00     0.031 C 
ATOM     65  C   UNL A   1      39.759  31.267  34.733  1.00  0.00     0.034 A 
BRANCH  52  66
ATOM     66  C   UNL A   1      45.285  28.453  34.877  1.00  0.00     0.023 A 
ATOM     67  C   UNL A   1      45.331  27.296  35.674  1.00  0.00     0.031 A 
ATOM     68  C   UNL A   1      46.418  29.287  34.861  1.00  0.00     0.131 A 
ATOM     69  C   UNL A   1      46.453  27.047  36.478  1.00  0.00     0.055 A 
ATOM     70  C   UNL A   1      47.565  28.985  35.594  1.00  0.00     0.041 A 
ATOM     71  F   UNL A   1      46.421  30.420  34.141  1.00  0.00    -0.206 F 
ATOM     72  C   UNL A   1      47.582  27.866  36.422  1.00  0.00     0.022 A 
BRANCH  69  73
ATOM     73  S   UNL A   1      46.354  25.720  37.711  1.00  0.00     0.124 S 
ATOM     74  O   UNL A   1      47.722  25.207  37.701  1.00  0.00    -0.237 OA
ATOM     75  O   UNL A   1      45.948  26.437  38.914  1.00  0.00    -0.237 OA
ATOM     76  O   UNL A   1      45.351  24.813  37.156  1.00  0.00    -0.744 OA
ENDBRANCH  69  73
ENDBRANCH  52  66
BRANCH  53  77
ATOM     77  C   UNL A   1      37.249  30.554  29.252  1.00  0.00     0.023 A 
ATOM     78  C   UNL A   1      36.646  31.822  29.271  1.00  0.00     0.031 A 
ATOM     79  C   UNL A   1      36.612  29.536  28.519  1.00  0.00     0.131 A 
ATOM     80  C   UNL A   1      35.418  32.025  28.619  1.00  0.00     0.055 A 
ATOM     81  C   UNL A   1      35.424  29.761  27.819  1.00  0.00     0.041 A 
ATOM     82  F   UNL A   1      37.138  28.301  28.472  1.00  0.00    -0.206 F 
ATOM     83  C   UNL A   1      34.812  31.008  27.880  1.00  0.00     0.022 A 
BRANCH  80  84
ATOM     84  S   UNL A   1      34.569  33.612  28.847  1.00  0.00     0.124 S 
ATOM     85  O   UNL A   1      35.642  34.561  28.576  1.00  0.00    -0.237 OA
ATOM     86  O   UNL A   1      33.511  33.534  27.846  1.00  0.00    -0.237 OA
ATOM     87  O   UNL A   1      34.116  33.558  30.235  1.00  0.00    -0.744 OA
ENDBRANCH  80  84
ENDBRANCH  53  77
BRANCH  65  88
ATOM     88  C   UNL A   1      39.122  32.119  35.805  1.00  0.00     0.023 A 
ATOM     89  C   UNL A   1      38.390  31.573  36.873  1.00  0.00     0.031 A 
ATOM     90  C   UNL A   1      39.299  33.516  35.771  1.00  0.00     0.131 A 
ATOM     91  C   UNL A   1      37.837  32.422  37.846  1.00  0.00     0.055 A 
ATOM     92  C   UNL A   1      38.796  34.348  36.771  1.00  0.00     0.041 A 
ATOM     93  F   UNL A   1      39.987  34.093  34.772  1.00  0.00    -0.206 F 
ATOM     94  C   UNL A   1      38.053  33.802  37.812  1.00  0.00     0.022 A 
BRANCH  91  95
ATOM     95  S   UNL A   1      36.774  31.707  39.130  1.00  0.00     0.124 S 
ATOM     96  O   UNL A   1      36.704  30.307  38.724  1.00  0.00    -0.237 OA
ATOM     97  O   UNL A   1      37.528  31.979  40.349  1.00  0.00    -0.237 OA
ATOM     98  O   UNL A   1      35.524  32.454  38.997  1.00  0.00    -0.744 OA
ENDBRANCH  91  95
ENDBRANCH  65  88
ENDBRANCH  39  40
ENDBRANCH  32  34
ENDBRANCH  31  32
ENDBRANCH  30  31
ENDBRANCH  29  30
ENDBRANCH  28  29
ENDBRANCH  27  28
ENDBRANCH   1  27
TORSDOF 25
ENDMDL
