MODEL 1
REMARK VINA RESULT:     -10.7      0.000      0.000
REMARK SMILES O=C(OCCOCCOCCOC(=O)[C@H]1C[C@H]2CCCC[C@@H]2[N@@H+]1CC[C@@H]1CCCO1)c1ccc(-c2c3nc(c(-c4cc(S(=O)(=O)[O-])ccc4F)c4ccc([nH]4)c(-c4cc(S(=O)(=O)[O-])ccc4F)c4nc(c(-c5cc(S(=O)(=O)[O-])ccc5F)c5ccc2[nH]5)C=C4)C=C3)cc1
REMARK SMILES IDX 7 1 6 2 5 3 4 4 3 5 2 6 1 7 31 8 32 9 93 10 33 11 92 12
REMARK SMILES IDX 34 13 35 14 36 15 86 16 37 17 91 18 85 19 87 20 38 21 90 22
REMARK SMILES IDX 84 23 83 24 39 26 71 27 51 28 70 29 52 30 55 31 69 32 88 33
REMARK SMILES IDX 53 34 54 35 68 37 89 38 56 39 40 40 41 41 49 42 42 43 48 44
REMARK SMILES IDX 50 45 47 46 43 47 44 48 45 49 46 50 72 51 73 52 81 53 74 54
REMARK SMILES IDX 80 55 82 56 79 57 75 58 76 59 77 60 78 61 57 62 58 63 66 64
REMARK SMILES IDX 59 65 65 66 67 67 64 68 60 69 61 70 62 71 63 72 8 73 9 74
REMARK SMILES IDX 10 75 11 76 12 77 13 78 14 79 15 80 16 81 23 82 17 83 22 84
REMARK SMILES IDX 18 86 21 87 19 88 20 89 24 90 25 91 26 92 27 93 30 94 28 95
REMARK SMILES IDX 29 96
REMARK H PARENT 87 25 55 36 23 85
REMARK Flexibility Score: inf
ROOT
ATOM      1  C   UNL A   1      32.435  27.828  23.334  1.00  0.00     0.188 C 
ENDROOT
BRANCH   1   2
ATOM      2  O   UNL A   1      32.848  29.137  23.744  1.00  0.00    -0.376 OA
BRANCH   2   3
ATOM      3  C   UNL A   1      32.797  29.347  25.159  1.00  0.00     0.202 C 
BRANCH   3   4
ATOM      4  C   UNL A   1      31.789  30.407  25.629  1.00  0.00     0.261 C 
BRANCH   4   5
ATOM      5  O   UNL A   1      32.100  30.920  26.935  1.00  0.00    -0.460 OA
BRANCH   5   6
ATOM      6  C   UNL A   1      33.132  31.733  27.283  1.00  0.00     0.338 C 
ATOM      7  O   UNL A   1      33.005  32.946  27.116  1.00  0.00    -0.246 OA
BRANCH   6   8
ATOM      8  C   UNL A   1      34.408  31.236  27.882  1.00  0.00     0.060 A 
ATOM      9  C   UNL A   1      34.692  29.897  28.151  1.00  0.00     0.016 A 
ATOM     10  C   UNL A   1      35.411  32.186  28.142  1.00  0.00     0.016 A 
ATOM     11  C   UNL A   1      35.865  29.524  28.792  1.00  0.00     0.010 A 
ATOM     12  C   UNL A   1      36.629  31.809  28.721  1.00  0.00     0.010 A 
ATOM     13  C   UNL A   1      36.838  30.477  29.092  1.00  0.00    -0.014 A 
BRANCH  13  14
ATOM     14  C   UNL A   1      37.998  30.049  29.904  1.00  0.00     0.031 A 
ATOM     15  C   UNL A   1      39.043  29.194  29.258  1.00  0.00     0.074 A 
ATOM     16  C   UNL A   1      38.174  30.561  31.136  1.00  0.00     0.049 A 
ATOM     17  N   UNL A   1      40.144  28.708  29.764  1.00  0.00    -0.248 NA
ATOM     18  C   UNL A   1      38.822  28.846  27.846  1.00  0.00     0.031 C 
ATOM     19  C   UNL A   1      37.244  31.481  31.789  1.00  0.00     0.029 A 
ATOM     20  N   UNL A   1      39.193  30.425  32.040  1.00  0.00    -0.354 N 
ATOM     21  C   UNL A   1      40.744  27.991  28.735  1.00  0.00     0.074 A 
ATOM     22  C   UNL A   1      39.866  28.078  27.589  1.00  0.00     0.031 C 
ATOM     23  C   UNL A   1      37.757  31.868  32.967  1.00  0.00     0.029 A 
ATOM     24  C   UNL A   1      39.008  31.154  33.194  1.00  0.00     0.049 A 
ATOM     25  H   UNL A   1      39.983  29.860  31.880  1.00  0.00     0.167 HD
ATOM     26  C   UNL A   1      41.923  27.325  28.756  1.00  0.00     0.034 A 
ATOM     27  C   UNL A   1      39.751  31.203  34.318  1.00  0.00     0.034 A 
ATOM     28  C   UNL A   1      42.750  27.237  29.933  1.00  0.00     0.049 A 
ATOM     29  C   UNL A   1      40.999  30.355  34.356  1.00  0.00     0.074 A 
ATOM     30  C   UNL A   1      43.901  26.500  30.137  1.00  0.00     0.029 A 
ATOM     31  N   UNL A   1      42.498  27.918  31.121  1.00  0.00    -0.354 N 
ATOM     32  N   UNL A   1      41.512  29.601  33.408  1.00  0.00    -0.248 NA
ATOM     33  C   UNL A   1      41.759  30.349  35.610  1.00  0.00     0.031 C 
ATOM     34  C   UNL A   1      44.314  26.695  31.461  1.00  0.00     0.029 A 
ATOM     35  C   UNL A   1      43.462  27.609  32.065  1.00  0.00     0.049 A 
ATOM     36  H   UNL A   1      41.742  28.532  31.269  1.00  0.00     0.167 HD
ATOM     37  C   UNL A   1      42.663  29.041  33.950  1.00  0.00     0.074 A 
ATOM     38  C   UNL A   1      42.784  29.571  35.294  1.00  0.00     0.031 C 
ATOM     39  C   UNL A   1      43.539  28.159  33.399  1.00  0.00     0.034 A 
BRANCH  26  40
ATOM     40  C   UNL A   1      42.300  26.587  27.496  1.00  0.00     0.023 A 
ATOM     41  C   UNL A   1      42.187  25.187  27.400  1.00  0.00     0.031 A 
ATOM     42  C   UNL A   1      42.896  27.273  26.424  1.00  0.00     0.131 A 
ATOM     43  C   UNL A   1      42.748  24.513  26.305  1.00  0.00     0.055 A 
ATOM     44  C   UNL A   1      43.377  26.603  25.297  1.00  0.00     0.041 A 
ATOM     45  F   UNL A   1      43.060  28.605  26.472  1.00  0.00    -0.206 F 
ATOM     46  C   UNL A   1      43.322  25.213  25.241  1.00  0.00     0.022 A 
BRANCH  43  47
ATOM     47  S   UNL A   1      42.877  22.704  26.371  1.00  0.00     0.124 S 
ATOM     48  O   UNL A   1      44.264  22.523  26.794  1.00  0.00    -0.237 OA
ATOM     49  O   UNL A   1      41.859  22.349  27.357  1.00  0.00    -0.237 OA
ATOM     50  O   UNL A   1      42.589  22.287  25.001  1.00  0.00    -0.744 OA
ENDBRANCH  43  47
ENDBRANCH  26  40
BRANCH  27  51
ATOM     51  C   UNL A   1      39.307  31.998  35.505  1.00  0.00     0.023 A 
ATOM     52  C   UNL A   1      38.611  31.406  36.572  1.00  0.00     0.031 A 
ATOM     53  C   UNL A   1      39.521  33.390  35.561  1.00  0.00     0.131 A 
ATOM     54  C   UNL A   1      38.117  32.205  37.618  1.00  0.00     0.055 A 
ATOM     55  C   UNL A   1      39.087  34.168  36.636  1.00  0.00     0.041 A 
ATOM     56  F   UNL A   1      40.162  34.020  34.564  1.00  0.00    -0.206 F 
ATOM     57  C   UNL A   1      38.366  33.579  37.666  1.00  0.00     0.022 A 
BRANCH  54  58
ATOM     58  S   UNL A   1      37.044  31.442  38.870  1.00  0.00     0.124 S 
ATOM     59  O   UNL A   1      35.847  32.273  38.782  1.00  0.00    -0.237 OA
ATOM     60  O   UNL A   1      36.918  30.079  38.368  1.00  0.00    -0.237 OA
ATOM     61  O   UNL A   1      37.810  31.583  40.106  1.00  0.00    -0.744 OA
ENDBRANCH  54  58
ENDBRANCH  27  51
BRANCH  39  62
ATOM     62  C   UNL A   1      44.713  27.763  34.255  1.00  0.00     0.023 A 
ATOM     63  C   UNL A   1      44.649  26.661  35.123  1.00  0.00     0.031 A 
ATOM     64  C   UNL A   1      45.901  28.511  34.212  1.00  0.00     0.131 A 
ATOM     65  C   UNL A   1      45.734  26.373  35.962  1.00  0.00     0.055 A 
ATOM     66  C   UNL A   1      47.001  28.183  35.004  1.00  0.00     0.041 A 
ATOM     67  F   UNL A   1      46.011  29.573  33.398  1.00  0.00    -0.206 F 
ATOM     68  C   UNL A   1      46.916  27.117  35.895  1.00  0.00     0.022 A 
BRANCH  65  69
ATOM     69  S   UNL A   1      45.545  25.071  37.208  1.00  0.00     0.124 S 
ATOM     70  O   UNL A   1      46.149  23.923  36.541  1.00  0.00    -0.237 OA
ATOM     71  O   UNL A   1      46.287  25.612  38.342  1.00  0.00    -0.237 OA
ATOM     72  O   UNL A   1      44.098  24.988  37.399  1.00  0.00    -0.744 OA
ENDBRANCH  65  69
ENDBRANCH  39  62
ENDBRANCH  13  14
ENDBRANCH   6   8
ENDBRANCH   5   6
ENDBRANCH   4   5
ENDBRANCH   3   4
ENDBRANCH   2   3
ENDBRANCH   1   2
BRANCH   1  73
ATOM     73  C   UNL A   1      30.922  27.763  23.117  1.00  0.00     0.188 C 
BRANCH  73  74
ATOM     74  O   UNL A   1      30.330  26.464  23.146  1.00  0.00    -0.376 OA
BRANCH  74  75
ATOM     75  C   UNL A   1      29.538  26.121  24.279  1.00  0.00     0.202 C 
BRANCH  75  76
ATOM     76  C   UNL A   1      30.249  25.838  25.612  1.00  0.00     0.261 C 
BRANCH  76  77
ATOM     77  O   UNL A   1      30.752  24.504  25.762  1.00  0.00    -0.459 OA
BRANCH  77  78
ATOM     78  C   UNL A   1      32.045  24.357  25.343  1.00  0.00     0.365 C 
ATOM     79  O   UNL A   1      32.959  25.099  25.692  1.00  0.00    -0.245 OA
BRANCH  78  80
ATOM     80  C   UNL A   1      32.189  23.128  24.404  1.00  0.00     0.295 C 
ATOM     81  C   UNL A   1      33.196  23.445  23.285  1.00  0.00     0.087 C 
ATOM     82  N   UNL A   1      32.799  22.018  25.187  1.00  0.00    -0.320 N 
ATOM     83  C   UNL A   1      34.417  22.578  23.596  1.00  0.00     0.054 C 
ATOM     84  C   UNL A   1      34.230  22.257  25.066  1.00  0.00     0.188 C 
ATOM     85  H   UNL A   1      32.564  22.016  26.179  1.00  0.00     0.349 HD
ATOM     86  C   UNL A   1      35.778  23.211  23.342  1.00  0.00     0.010 C 
ATOM     87  C   UNL A   1      35.265  21.292  25.602  1.00  0.00     0.065 C 
ATOM     88  C   UNL A   1      36.911  22.366  23.942  1.00  0.00     0.001 C 
ATOM     89  C   UNL A   1      36.657  21.898  25.383  1.00  0.00     0.006 C 
BRANCH  82  90
ATOM     90  C   UNL A   1      32.212  20.693  25.020  1.00  0.00     0.265 C 
BRANCH  90  91
ATOM     91  C   UNL A   1      32.634  19.701  23.913  1.00  0.00     0.093 C 
BRANCH  91  92
ATOM     92  C   UNL A   1      33.375  18.393  24.263  1.00  0.00     0.123 C 
ATOM     93  C   UNL A   1      33.188  17.152  23.405  1.00  0.00     0.034 C 
ATOM     94  O   UNL A   1      33.113  18.036  25.624  1.00  0.00    -0.378 OA
ATOM     95  C   UNL A   1      33.182  16.006  24.390  1.00  0.00     0.031 C 
ATOM     96  C   UNL A   1      32.858  16.640  25.720  1.00  0.00     0.160 C 
ENDBRANCH  91  92
ENDBRANCH  90  91
ENDBRANCH  82  90
ENDBRANCH  78  80
ENDBRANCH  77  78
ENDBRANCH  76  77
ENDBRANCH  75  76
ENDBRANCH  74  75
ENDBRANCH  73  74
ENDBRANCH   1  73
TORSDOF 23
ENDMDL
MODEL 2
REMARK VINA RESULT:     -10.5      4.669      8.139
REMARK SMILES O=C(OCCOCCOCCOC(=O)[C@H]1C[C@H]2CCCC[C@@H]2[N@@H+]1CC[C@@H]1CCCO1)c1ccc(-c2c3nc(c(-c4cc(S(=O)(=O)[O-])ccc4F)c4ccc([nH]4)c(-c4cc(S(=O)(=O)[O-])ccc4F)c4nc(c(-c5cc(S(=O)(=O)[O-])ccc5F)c5ccc2[nH]5)C=C4)C=C3)cc1
REMARK SMILES IDX 7 1 6 2 5 3 4 4 3 5 2 6 1 7 31 8 32 9 93 10 33 11 92 12
REMARK SMILES IDX 34 13 35 14 36 15 86 16 37 17 91 18 85 19 87 20 38 21 90 22
REMARK SMILES IDX 84 23 83 24 39 26 71 27 51 28 70 29 52 30 55 31 69 32 88 33
REMARK SMILES IDX 53 34 54 35 68 37 89 38 56 39 40 40 41 41 49 42 42 43 48 44
REMARK SMILES IDX 50 45 47 46 43 47 44 48 45 49 46 50 72 51 73 52 81 53 74 54
REMARK SMILES IDX 80 55 82 56 79 57 75 58 76 59 77 60 78 61 57 62 58 63 66 64
REMARK SMILES IDX 59 65 65 66 67 67 64 68 60 69 61 70 62 71 63 72 8 73 9 74
REMARK SMILES IDX 10 75 11 76 12 77 13 78 14 79 15 80 16 81 23 82 17 83 22 84
REMARK SMILES IDX 18 86 21 87 19 88 20 89 24 90 25 91 26 92 27 93 30 94 28 95
REMARK SMILES IDX 29 96
REMARK H PARENT 87 25 55 36 23 85
REMARK Flexibility Score: inf
ROOT
ATOM      1  C   UNL A   1      34.355  21.215  26.309  1.00  0.00     0.188 C 
ENDROOT
BRANCH   1   2
ATOM      2  O   UNL A   1      35.426  21.753  25.524  1.00  0.00    -0.376 OA
BRANCH   2   3
ATOM      3  C   UNL A   1      36.511  20.842  25.319  1.00  0.00     0.202 C 
BRANCH   3   4
ATOM      4  C   UNL A   1      37.897  21.493  25.188  1.00  0.00     0.261 C 
BRANCH   4   5
ATOM      5  O   UNL A   1      38.959  20.606  25.576  1.00  0.00    -0.460 OA
BRANCH   5   6
ATOM      6  C   UNL A   1      40.015  20.879  26.385  1.00  0.00     0.338 C 
ATOM      7  O   UNL A   1      40.765  19.957  26.703  1.00  0.00    -0.246 OA
BRANCH   6   8
ATOM      8  C   UNL A   1      40.331  22.249  26.894  1.00  0.00     0.060 A 
ATOM      9  C   UNL A   1      39.742  23.426  26.430  1.00  0.00     0.016 A 
ATOM     10  C   UNL A   1      41.252  22.348  27.952  1.00  0.00     0.016 A 
ATOM     11  C   UNL A   1      40.156  24.668  26.889  1.00  0.00     0.010 A 
ATOM     12  C   UNL A   1      41.620  23.594  28.474  1.00  0.00     0.010 A 
ATOM     13  C   UNL A   1      41.104  24.764  27.907  1.00  0.00    -0.014 A 
BRANCH  13  14
ATOM     14  C   UNL A   1      41.613  26.108  28.254  1.00  0.00     0.031 A 
ATOM     15  C   UNL A   1      42.988  26.490  27.801  1.00  0.00     0.074 A 
ATOM     16  C   UNL A   1      40.786  27.009  28.818  1.00  0.00     0.049 A 
ATOM     17  N   UNL A   1      43.638  27.608  27.978  1.00  0.00    -0.248 NA
ATOM     18  C   UNL A   1      43.728  25.474  27.035  1.00  0.00     0.031 C 
ATOM     19  C   UNL A   1      39.400  26.735  29.195  1.00  0.00     0.029 A 
ATOM     20  N   UNL A   1      40.960  28.328  29.136  1.00  0.00    -0.354 N 
ATOM     21  C   UNL A   1      44.866  27.429  27.353  1.00  0.00     0.074 A 
ATOM     22  C   UNL A   1      44.882  26.084  26.823  1.00  0.00     0.031 C 
ATOM     23  C   UNL A   1      38.832  27.864  29.646  1.00  0.00     0.029 A 
ATOM     24  C   UNL A   1      39.838  28.918  29.676  1.00  0.00     0.049 A 
ATOM     25  H   UNL A   1      41.807  28.810  28.993  1.00  0.00     0.167 HD
ATOM     26  C   UNL A   1      45.883  28.317  27.235  1.00  0.00     0.034 A 
ATOM     27  C   UNL A   1      39.665  30.159  30.173  1.00  0.00     0.034 A 
ATOM     28  C   UNL A   1      45.836  29.638  27.810  1.00  0.00     0.049 A 
ATOM     29  C   UNL A   1      40.854  31.088  30.138  1.00  0.00     0.074 A 
ATOM     30  C   UNL A   1      46.831  30.594  27.877  1.00  0.00     0.029 A 
ATOM     31  N   UNL A   1      44.715  30.185  28.428  1.00  0.00    -0.354 N 
ATOM     32  N   UNL A   1      42.048  30.879  29.627  1.00  0.00    -0.248 NA
ATOM     33  C   UNL A   1      40.683  32.409  30.752  1.00  0.00     0.031 C 
ATOM     34  C   UNL A   1      46.329  31.697  28.579  1.00  0.00     0.029 A 
ATOM     35  C   UNL A   1      44.997  31.459  28.891  1.00  0.00     0.049 A 
ATOM     36  H   UNL A   1      43.846  29.732  28.522  1.00  0.00     0.167 HD
ATOM     37  C   UNL A   1      42.767  32.047  29.850  1.00  0.00     0.074 A 
ATOM     38  C   UNL A   1      41.860  32.967  30.510  1.00  0.00     0.031 C 
ATOM     39  C   UNL A   1      44.060  32.339  29.551  1.00  0.00     0.034 A 
BRANCH  26  40
ATOM     40  C   UNL A   1      47.129  27.824  26.543  1.00  0.00     0.023 A 
ATOM     41  C   UNL A   1      47.361  28.073  25.177  1.00  0.00     0.031 A 
ATOM     42  C   UNL A   1      48.032  26.989  27.222  1.00  0.00     0.131 A 
ATOM     43  C   UNL A   1      48.411  27.419  24.515  1.00  0.00     0.055 A 
ATOM     44  C   UNL A   1      49.126  26.407  26.575  1.00  0.00     0.041 A 
ATOM     45  F   UNL A   1      47.846  26.688  28.517  1.00  0.00    -0.206 F 
ATOM     46  C   UNL A   1      49.309  26.605  25.209  1.00  0.00     0.022 A 
BRANCH  43  47
ATOM     47  S   UNL A   1      48.482  27.503  22.703  1.00  0.00     0.124 S 
ATOM     48  O   UNL A   1      49.740  28.215  22.490  1.00  0.00    -0.237 OA
ATOM     49  O   UNL A   1      48.474  26.094  22.320  1.00  0.00    -0.237 OA
ATOM     50  O   UNL A   1      47.280  28.252  22.346  1.00  0.00    -0.744 OA
ENDBRANCH  43  47
ENDBRANCH  26  40
BRANCH  27  51
ATOM     51  C   UNL A   1      38.372  30.565  30.810  1.00  0.00     0.023 A 
ATOM     52  C   UNL A   1      37.386  31.266  30.097  1.00  0.00     0.031 A 
ATOM     53  C   UNL A   1      38.129  30.307  32.173  1.00  0.00     0.131 A 
ATOM     54  C   UNL A   1      36.232  31.723  30.757  1.00  0.00     0.055 A 
ATOM     55  C   UNL A   1      36.950  30.704  32.808  1.00  0.00     0.041 A 
ATOM     56  F   UNL A   1      39.039  29.658  32.917  1.00  0.00    -0.206 F 
ATOM     57  C   UNL A   1      36.000  31.431  32.103  1.00  0.00     0.022 A 
BRANCH  54  58
ATOM     58  S   UNL A   1      35.082  32.805  29.860  1.00  0.00     0.124 S 
ATOM     59  O   UNL A   1      35.975  33.849  29.370  1.00  0.00    -0.237 OA
ATOM     60  O   UNL A   1      34.538  31.899  28.855  1.00  0.00    -0.237 OA
ATOM     61  O   UNL A   1      34.138  33.228  30.893  1.00  0.00    -0.744 OA
ENDBRANCH  54  58
ENDBRANCH  27  51
BRANCH  39  62
ATOM     62  C   UNL A   1      44.531  33.724  29.908  1.00  0.00     0.023 A 
ATOM     63  C   UNL A   1      45.030  34.022  31.187  1.00  0.00     0.031 A 
ATOM     64  C   UNL A   1      44.461  34.759  28.962  1.00  0.00     0.131 A 
ATOM     65  C   UNL A   1      45.383  35.340  31.506  1.00  0.00     0.055 A 
ATOM     66  C   UNL A   1      44.872  36.056  29.264  1.00  0.00     0.041 A 
ATOM     67  F   UNL A   1      43.992  34.524  27.726  1.00  0.00    -0.206 F 
ATOM     68  C   UNL A   1      45.323  36.356  30.548  1.00  0.00     0.022 A 
BRANCH  65  69
ATOM     69  S   UNL A   1      45.832  35.728  33.219  1.00  0.00     0.124 S 
ATOM     70  O   UNL A   1      44.628  36.394  33.704  1.00  0.00    -0.237 OA
ATOM     71  O   UNL A   1      46.100  34.408  33.779  1.00  0.00    -0.237 OA
ATOM     72  O   UNL A   1      47.005  36.589  33.077  1.00  0.00    -0.744 OA
ENDBRANCH  65  69
ENDBRANCH  39  62
ENDBRANCH  13  14
ENDBRANCH   6   8
ENDBRANCH   5   6
ENDBRANCH   4   5
ENDBRANCH   3   4
ENDBRANCH   2   3
ENDBRANCH   1   2
BRANCH   1  73
ATOM     73  C   UNL A   1      33.543  22.325  26.980  1.00  0.00     0.188 C 
BRANCH  73  74
ATOM     74  O   UNL A   1      32.680  23.084  26.132  1.00  0.00    -0.376 OA
BRANCH  74  75
ATOM     75  C   UNL A   1      31.769  22.369  25.302  1.00  0.00     0.202 C 
BRANCH  75  76
ATOM     76  C   UNL A   1      31.701  22.729  23.809  1.00  0.00     0.261 C 
BRANCH  76  77
ATOM     77  O   UNL A   1      30.604  23.573  23.437  1.00  0.00    -0.459 OA
BRANCH  77  78
ATOM     78  C   UNL A   1      30.973  24.860  23.158  1.00  0.00     0.365 C 
ATOM     79  O   UNL A   1      31.900  25.151  22.408  1.00  0.00    -0.245 OA
BRANCH  78  80
ATOM     80  C   UNL A   1      30.053  25.873  23.893  1.00  0.00     0.295 C 
ATOM     81  C   UNL A   1      30.315  25.807  25.408  1.00  0.00     0.087 C 
ATOM     82  N   UNL A   1      30.455  27.245  23.478  1.00  0.00    -0.320 N 
ATOM     83  C   UNL A   1      31.008  27.128  25.746  1.00  0.00     0.054 C 
ATOM     84  C   UNL A   1      31.533  27.582  24.397  1.00  0.00     0.188 C 
ATOM     85  H   UNL A   1      30.820  27.315  22.528  1.00  0.00     0.349 HD
ATOM     86  C   UNL A   1      32.129  27.058  26.774  1.00  0.00     0.010 C 
ATOM     87  C   UNL A   1      32.172  28.952  24.437  1.00  0.00     0.065 C 
ATOM     88  C   UNL A   1      32.924  28.371  26.827  1.00  0.00     0.001 C 
ATOM     89  C   UNL A   1      33.322  28.926  25.451  1.00  0.00     0.006 C 
BRANCH  82  90
ATOM     90  C   UNL A   1      29.381  28.180  23.160  1.00  0.00     0.265 C 
BRANCH  90  91
ATOM     91  C   UNL A   1      29.542  29.375  22.195  1.00  0.00     0.093 C 
BRANCH  91  92
ATOM     92  C   UNL A   1      28.510  30.523  22.179  1.00  0.00     0.123 C 
ATOM     93  C   UNL A   1      28.136  31.201  20.870  1.00  0.00     0.034 C 
ATOM     94  O   UNL A   1      28.899  31.538  23.109  1.00  0.00    -0.378 OA
ATOM     95  C   UNL A   1      27.970  32.659  21.230  1.00  0.00     0.031 C 
ATOM     96  C   UNL A   1      28.720  32.825  22.530  1.00  0.00     0.160 C 
ENDBRANCH  91  92
ENDBRANCH  90  91
ENDBRANCH  82  90
ENDBRANCH  78  80
ENDBRANCH  77  78
ENDBRANCH  76  77
ENDBRANCH  75  76
ENDBRANCH  74  75
ENDBRANCH  73  74
ENDBRANCH   1  73
TORSDOF 23
ENDMDL
MODEL 3
REMARK VINA RESULT:     -10.5      4.803      8.464
REMARK SMILES O=C(OCCOCCOCCOC(=O)[C@H]1C[C@H]2CCCC[C@@H]2[N@@H+]1CC[C@@H]1CCCO1)c1ccc(-c2c3nc(c(-c4cc(S(=O)(=O)[O-])ccc4F)c4ccc([nH]4)c(-c4cc(S(=O)(=O)[O-])ccc4F)c4nc(c(-c5cc(S(=O)(=O)[O-])ccc5F)c5ccc2[nH]5)C=C4)C=C3)cc1
REMARK SMILES IDX 7 1 6 2 5 3 4 4 3 5 2 6 1 7 31 8 32 9 93 10 33 11 92 12
REMARK SMILES IDX 34 13 35 14 36 15 86 16 37 17 91 18 85 19 87 20 38 21 90 22
REMARK SMILES IDX 84 23 83 24 39 26 71 27 51 28 70 29 52 30 55 31 69 32 88 33
REMARK SMILES IDX 53 34 54 35 68 37 89 38 56 39 40 40 41 41 49 42 42 43 48 44
REMARK SMILES IDX 50 45 47 46 43 47 44 48 45 49 46 50 72 51 73 52 81 53 74 54
REMARK SMILES IDX 80 55 82 56 79 57 75 58 76 59 77 60 78 61 57 62 58 63 66 64
REMARK SMILES IDX 59 65 65 66 67 67 64 68 60 69 61 70 62 71 63 72 8 73 9 74
REMARK SMILES IDX 10 75 11 76 12 77 13 78 14 79 15 80 16 81 23 82 17 83 22 84
REMARK SMILES IDX 18 86 21 87 19 88 20 89 24 90 25 91 26 92 27 93 30 94 28 95
REMARK SMILES IDX 29 96
REMARK H PARENT 87 25 55 36 23 85
REMARK Flexibility Score: inf
ROOT
ATOM      1  C   UNL A   1      34.346  20.995  26.328  1.00  0.00     0.188 C 
ENDROOT
BRANCH   1   2
ATOM      2  O   UNL A   1      35.415  21.487  25.513  1.00  0.00    -0.376 OA
BRANCH   2   3
ATOM      3  C   UNL A   1      36.426  20.513  25.229  1.00  0.00     0.202 C 
BRANCH   3   4
ATOM      4  C   UNL A   1      37.842  21.076  25.036  1.00  0.00     0.261 C 
BRANCH   4   5
ATOM      5  O   UNL A   1      38.861  20.165  25.481  1.00  0.00    -0.460 OA
BRANCH   5   6
ATOM      6  C   UNL A   1      39.888  20.420  26.334  1.00  0.00     0.338 C 
ATOM      7  O   UNL A   1      40.579  19.477  26.719  1.00  0.00    -0.246 OA
BRANCH   6   8
ATOM      8  C   UNL A   1      40.241  21.791  26.813  1.00  0.00     0.060 A 
ATOM      9  C   UNL A   1      39.662  22.971  26.344  1.00  0.00     0.016 A 
ATOM     10  C   UNL A   1      41.187  21.889  27.847  1.00  0.00     0.016 A 
ATOM     11  C   UNL A   1      40.109  24.213  26.774  1.00  0.00     0.010 A 
ATOM     12  C   UNL A   1      41.591  23.136  28.340  1.00  0.00     0.010 A 
ATOM     13  C   UNL A   1      41.083  24.307  27.767  1.00  0.00    -0.014 A 
BRANCH  13  14
ATOM     14  C   UNL A   1      41.624  25.646  28.081  1.00  0.00     0.031 A 
ATOM     15  C   UNL A   1      42.985  26.004  27.570  1.00  0.00     0.074 A 
ATOM     16  C   UNL A   1      40.833  26.564  28.669  1.00  0.00     0.049 A 
ATOM     17  N   UNL A   1      43.657  27.114  27.710  1.00  0.00    -0.248 NA
ATOM     18  C   UNL A   1      43.679  24.971  26.785  1.00  0.00     0.031 C 
ATOM     19  C   UNL A   1      39.459  26.313  29.104  1.00  0.00     0.029 A 
ATOM     20  N   UNL A   1      41.038  27.883  28.968  1.00  0.00    -0.354 N 
ATOM     21  C   UNL A   1      44.856  26.912  27.038  1.00  0.00     0.074 A 
ATOM     22  C   UNL A   1      44.832  25.562  26.521  1.00  0.00     0.031 C 
ATOM     23  C   UNL A   1      38.926  27.454  29.567  1.00  0.00     0.029 A 
ATOM     24  C   UNL A   1      39.947  28.494  29.547  1.00  0.00     0.049 A 
ATOM     25  H   UNL A   1      41.885  28.352  28.786  1.00  0.00     0.167 HD
ATOM     26  C   UNL A   1      45.880  27.784  26.872  1.00  0.00     0.034 A 
ATOM     27  C   UNL A   1      39.811  29.742  30.038  1.00  0.00     0.034 A 
ATOM     28  C   UNL A   1      45.875  29.111  27.435  1.00  0.00     0.049 A 
ATOM     29  C   UNL A   1      41.011  30.653  29.947  1.00  0.00     0.074 A 
ATOM     30  C   UNL A   1      46.886  30.053  27.454  1.00  0.00     0.029 A 
ATOM     31  N   UNL A   1      44.787  29.679  28.093  1.00  0.00    -0.354 N 
ATOM     32  N   UNL A   1      42.181  30.422  29.391  1.00  0.00    -0.248 NA
ATOM     33  C   UNL A   1      40.884  31.981  30.555  1.00  0.00     0.031 C 
ATOM     34  C   UNL A   1      46.427  31.169  28.165  1.00  0.00     0.029 A 
ATOM     35  C   UNL A   1      45.106  30.953  28.532  1.00  0.00     0.049 A 
ATOM     36  H   UNL A   1      43.916  29.239  28.226  1.00  0.00     0.167 HD
ATOM     37  C   UNL A   1      42.924  31.582  29.573  1.00  0.00     0.074 A 
ATOM     38  C   UNL A   1      42.057  32.521  30.261  1.00  0.00     0.031 C 
ATOM     39  C   UNL A   1      44.208  31.852  29.220  1.00  0.00     0.034 A 
BRANCH  26  40
ATOM     40  C   UNL A   1      47.090  27.267  26.135  1.00  0.00     0.023 A 
ATOM     41  C   UNL A   1      48.102  26.545  26.795  1.00  0.00     0.031 A 
ATOM     42  C   UNL A   1      47.296  27.606  24.787  1.00  0.00     0.131 A 
ATOM     43  C   UNL A   1      49.310  26.271  26.135  1.00  0.00     0.055 A 
ATOM     44  C   UNL A   1      48.467  27.255  24.110  1.00  0.00     0.041 A 
ATOM     45  F   UNL A   1      46.381  28.320  24.114  1.00  0.00    -0.206 F 
ATOM     46  C   UNL A   1      49.491  26.601  24.791  1.00  0.00     0.022 A 
BRANCH  43  47
ATOM     47  S   UNL A   1      50.707  25.638  27.107  1.00  0.00     0.124 S 
ATOM     48  O   UNL A   1      50.207  24.330  27.523  1.00  0.00    -0.237 OA
ATOM     49  O   UNL A   1      51.792  25.624  26.130  1.00  0.00    -0.237 OA
ATOM     50  O   UNL A   1      50.849  26.616  28.183  1.00  0.00    -0.744 OA
ENDBRANCH  43  47
ENDBRANCH  26  40
BRANCH  27  51
ATOM     51  C   UNL A   1      38.551  30.172  30.722  1.00  0.00     0.023 A 
ATOM     52  C   UNL A   1      37.554  30.894  30.046  1.00  0.00     0.031 A 
ATOM     53  C   UNL A   1      38.352  29.917  32.093  1.00  0.00     0.131 A 
ATOM     54  C   UNL A   1      36.434  31.372  30.749  1.00  0.00     0.055 A 
ATOM     55  C   UNL A   1      37.206  30.335  32.771  1.00  0.00     0.041 A 
ATOM     56  F   UNL A   1      39.276  29.248  32.802  1.00  0.00    -0.206 F 
ATOM     57  C   UNL A   1      36.246  31.083  32.102  1.00  0.00     0.022 A 
BRANCH  54  58
ATOM     58  S   UNL A   1      35.273  32.479  29.896  1.00  0.00     0.124 S 
ATOM     59  O   UNL A   1      36.143  33.587  29.515  1.00  0.00    -0.237 OA
ATOM     60  O   UNL A   1      34.796  31.633  28.808  1.00  0.00    -0.237 OA
ATOM     61  O   UNL A   1      34.283  32.790  30.925  1.00  0.00    -0.744 OA
ENDBRANCH  54  58
ENDBRANCH  27  51
BRANCH  39  62
ATOM     62  C   UNL A   1      44.713  33.234  29.545  1.00  0.00     0.023 A 
ATOM     63  C   UNL A   1      44.391  34.340  28.742  1.00  0.00     0.031 A 
ATOM     64  C   UNL A   1      45.541  33.438  30.662  1.00  0.00     0.131 A 
ATOM     65  C   UNL A   1      44.946  35.594  29.031  1.00  0.00     0.055 A 
ATOM     66  C   UNL A   1      46.040  34.699  30.981  1.00  0.00     0.041 A 
ATOM     67  F   UNL A   1      45.876  32.411  31.460  1.00  0.00    -0.206 F 
ATOM     68  C   UNL A   1      45.755  35.784  30.156  1.00  0.00     0.022 A 
BRANCH  65  69
ATOM     69  S   UNL A   1      44.673  36.954  27.865  1.00  0.00     0.124 S 
ATOM     70  O   UNL A   1      43.723  37.789  28.591  1.00  0.00    -0.237 OA
ATOM     71  O   UNL A   1      46.015  37.503  27.704  1.00  0.00    -0.237 OA
ATOM     72  O   UNL A   1      44.133  36.285  26.681  1.00  0.00    -0.744 OA
ENDBRANCH  65  69
ENDBRANCH  39  62
ENDBRANCH  13  14
ENDBRANCH   6   8
ENDBRANCH   5   6
ENDBRANCH   4   5
ENDBRANCH   3   4
ENDBRANCH   2   3
ENDBRANCH   1   2
BRANCH   1  73
ATOM     73  C   UNL A   1      33.631  22.134  27.059  1.00  0.00     0.188 C 
BRANCH  73  74
ATOM     74  O   UNL A   1      32.760  22.948  26.272  1.00  0.00    -0.376 OA
BRANCH  74  75
ATOM     75  C   UNL A   1      31.869  22.291  25.376  1.00  0.00     0.202 C 
BRANCH  75  76
ATOM     76  C   UNL A   1      31.704  22.860  23.958  1.00  0.00     0.261 C 
BRANCH  76  77
ATOM     77  O   UNL A   1      30.524  23.646  23.750  1.00  0.00    -0.459 OA
BRANCH  77  78
ATOM     78  C   UNL A   1      30.778  24.898  23.263  1.00  0.00     0.365 C 
ATOM     79  O   UNL A   1      31.553  25.120  22.336  1.00  0.00    -0.245 OA
BRANCH  78  80
ATOM     80  C   UNL A   1      29.946  25.969  24.020  1.00  0.00     0.295 C 
ATOM     81  C   UNL A   1      30.274  25.914  25.522  1.00  0.00     0.087 C 
ATOM     82  N   UNL A   1      30.397  27.312  23.562  1.00  0.00    -0.320 N 
ATOM     83  C   UNL A   1      31.047  27.203  25.804  1.00  0.00     0.054 C 
ATOM     84  C   UNL A   1      31.531  27.608  24.425  1.00  0.00     0.188 C 
ATOM     85  H   UNL A   1      30.720  27.348  22.595  1.00  0.00     0.349 HD
ATOM     86  C   UNL A   1      32.210  27.093  26.781  1.00  0.00     0.010 C 
ATOM     87  C   UNL A   1      32.239  28.945  24.410  1.00  0.00     0.065 C 
ATOM     88  C   UNL A   1      33.071  28.365  26.774  1.00  0.00     0.001 C 
ATOM     89  C   UNL A   1      33.433  28.876  25.371  1.00  0.00     0.006 C 
BRANCH  82  90
ATOM     90  C   UNL A   1      29.357  28.295  23.276  1.00  0.00     0.265 C 
BRANCH  90  91
ATOM     91  C   UNL A   1      29.512  29.430  22.240  1.00  0.00     0.093 C 
BRANCH  91  92
ATOM     92  C   UNL A   1      28.472  30.567  22.151  1.00  0.00     0.123 C 
ATOM     93  C   UNL A   1      28.211  31.267  20.827  1.00  0.00     0.034 C 
ATOM     94  O   UNL A   1      28.761  31.567  23.132  1.00  0.00    -0.378 OA
ATOM     95  C   UNL A   1      27.994  32.716  21.198  1.00  0.00     0.031 C 
ATOM     96  C   UNL A   1      28.619  32.863  22.564  1.00  0.00     0.160 C 
ENDBRANCH  91  92
ENDBRANCH  90  91
ENDBRANCH  82  90
ENDBRANCH  78  80
ENDBRANCH  77  78
ENDBRANCH  76  77
ENDBRANCH  75  76
ENDBRANCH  74  75
ENDBRANCH  73  74
ENDBRANCH   1  73
TORSDOF 23
ENDMDL
