MODEL 1
REMARK VINA RESULT:      -9.6      0.000      0.000
REMARK SMILES Cc1nnc(-c2ccccc2-c2cc(NCC(=O)OCCOCCOCCOC(=O)c3ccc(-c4c5nc(c(-c6cc(S(=O)(=O)[O-])ccc6F)c6ccc([nH]6)c(-c6cc(S(=O)(=O)[O-])ccc6F)c6nc(c(-c7cc(S(=O)(=O)[O-])ccc7F)c7ccc4[nH]7)C=C6)C=C5)cc3)nc3[nH]ccc23)o1
REMARK SMILES IDX 23 1 22 2 21 3 20 4 19 5 17 6 18 7 16 8 15 9 14 11 12 12
REMARK SMILES IDX 13 13 99 14 95 15 98 16 94 17 96 18 97 19 11 21 6 22 7 23
REMARK SMILES IDX 8 24 10 25 9 26 5 27 1 28 2 29 3 30 100 31 4 32 24 33 25 34
REMARK SMILES IDX 26 35 27 36 28 37 29 38 30 39 31 40 32 41 93 42 33 43 92 44
REMARK SMILES IDX 34 45 35 46 36 47 86 48 37 49 91 50 85 51 87 52 38 53 90 54
REMARK SMILES IDX 84 55 83 56 39 58 71 59 51 60 70 61 52 62 55 63 69 64 88 65
REMARK SMILES IDX 53 66 54 67 68 69 89 70 56 71 40 72 41 73 49 74 42 75 48 76
REMARK SMILES IDX 50 77 47 78 43 79 44 80 45 81 46 82 72 83 73 84 81 85 74 86
REMARK SMILES IDX 80 87 82 88 79 89 75 90 76 91 77 92 78 93 57 94 58 95 66 96
REMARK SMILES IDX 59 97 65 98 67 99 64 100 60 101 61 102 62 103 63 104
REMARK H PARENT 15 10 96 20 87 57 55 68
REMARK Flexibility Score: inf
ROOT
ATOM      1  C   UNL A   1      32.787  36.145  29.965  1.00  0.00     0.188 C 
ENDROOT
BRANCH   1   2
ATOM      2  O   UNL A   1      32.773  34.913  29.280  1.00  0.00    -0.376 OA
BRANCH   2   3
ATOM      3  C   UNL A   1      33.933  34.098  29.373  1.00  0.00     0.202 C 
BRANCH   3   4
ATOM      4  C   UNL A   1      34.342  33.090  28.272  1.00  0.00     0.261 C 
BRANCH   4   5
ATOM      5  O   UNL A   1      34.353  31.699  28.640  1.00  0.00    -0.462 OA
BRANCH   5   6
ATOM      6  C   UNL A   1      34.961  30.804  27.819  1.00  0.00     0.325 C 
ATOM      7  O   UNL A   1      36.165  30.820  27.575  1.00  0.00    -0.250 OA
BRANCH   6   8
ATOM      8  C   UNL A   1      34.047  29.648  27.379  1.00  0.00     0.237 C 
BRANCH   8   9
ATOM      9  N   UNL A   1      34.527  28.784  26.293  1.00  0.00    -0.359 N 
ATOM     10  H   UNL A   1      35.495  28.698  26.141  1.00  0.00     0.162 HD
BRANCH   9  11
ATOM     11  C   UNL A   1      33.652  28.086  25.476  1.00  0.00     0.129 A 
ATOM     12  C   UNL A   1      32.322  26.054  25.099  1.00  0.00    -0.003 A 
ATOM     13  C   UNL A   1      33.164  26.841  25.914  1.00  0.00     0.056 A 
ATOM     14  C   UNL A   1      32.013  26.601  23.835  1.00  0.00     0.027 A 
ATOM     15  C   UNL A   1      32.535  27.853  23.536  1.00  0.00     0.140 A 
ATOM     16  C   UNL A   1      31.254  26.208  22.692  1.00  0.00     0.030 A 
ATOM     17  N   UNL A   1      33.320  28.627  24.295  1.00  0.00    -0.213 NA
ATOM     18  N   UNL A   1      32.126  28.205  22.283  1.00  0.00    -0.346 N 
ATOM     19  C   UNL A   1      31.353  27.209  21.748  1.00  0.00     0.085 A 
ATOM     20  H   UNL A   1      32.351  29.050  21.830  1.00  0.00     0.167 HD
BRANCH  12  21
ATOM     21  C   UNL A   1      31.787  24.729  25.480  1.00  0.00    -0.005 A 
ATOM     22  C   UNL A   1      32.365  23.506  25.077  1.00  0.00     0.047 A 
ATOM     23  C   UNL A   1      31.824  22.282  25.532  1.00  0.00     0.014 A 
ATOM     24  C   UNL A   1      30.714  22.248  26.369  1.00  0.00     0.001 A 
ATOM     25  C   UNL A   1      30.640  24.660  26.304  1.00  0.00     0.009 A 
ATOM     26  C   UNL A   1      30.113  23.441  26.746  1.00  0.00     0.001 A 
BRANCH  22  27
ATOM     27  C   UNL A   1      33.501  23.432  24.178  1.00  0.00     0.248 A 
ATOM     28  C   UNL A   1      36.987  23.073  24.043  1.00  0.00     0.113 C 
ATOM     29  C   UNL A   1      35.564  23.248  23.729  1.00  0.00     0.213 A 
ATOM     30  N   UNL A   1      34.948  23.381  22.574  1.00  0.00    -0.113 NA
ATOM     31  O   UNL A   1      34.716  23.296  24.795  1.00  0.00    -0.421 OA
ATOM     32  N   UNL A   1      33.599  23.492  22.867  1.00  0.00    -0.108 NA
ENDBRANCH  22  27
ENDBRANCH  12  21
ENDBRANCH   9  11
ENDBRANCH   8   9
ENDBRANCH   6   8
ENDBRANCH   5   6
ENDBRANCH   4   5
ENDBRANCH   3   4
ENDBRANCH   2   3
ENDBRANCH   1   2
BRANCH   1  33
ATOM     33  C   UNL A   1      32.890  35.985  31.491  1.00  0.00     0.188 C 
BRANCH  33  34
ATOM     34  O   UNL A   1      34.000  36.493  32.210  1.00  0.00    -0.376 OA
BRANCH  34  35
ATOM     35  C   UNL A   1      34.705  35.604  33.062  1.00  0.00     0.202 C 
BRANCH  35  36
ATOM     36  C   UNL A   1      34.119  34.209  33.333  1.00  0.00     0.261 C 
BRANCH  36  37
ATOM     37  O   UNL A   1      35.045  33.116  33.219  1.00  0.00    -0.460 OA
BRANCH  37  38
ATOM     38  C   UNL A   1      36.036  33.080  34.153  1.00  0.00     0.338 C 
ATOM     39  O   UNL A   1      35.942  33.371  35.337  1.00  0.00    -0.246 OA
BRANCH  38  40
ATOM     40  C   UNL A   1      37.209  32.398  33.563  1.00  0.00     0.060 A 
ATOM     41  C   UNL A   1      37.885  31.419  34.310  1.00  0.00     0.016 A 
ATOM     42  C   UNL A   1      37.625  32.710  32.271  1.00  0.00     0.016 A 
ATOM     43  C   UNL A   1      38.953  30.717  33.751  1.00  0.00     0.010 A 
ATOM     44  C   UNL A   1      38.724  32.039  31.729  1.00  0.00     0.010 A 
ATOM     45  C   UNL A   1      39.395  31.043  32.464  1.00  0.00    -0.014 A 
BRANCH  45  46
ATOM     46  C   UNL A   1      40.657  30.475  31.931  1.00  0.00     0.031 A 
ATOM     47  C   UNL A   1      41.941  31.191  32.235  1.00  0.00     0.074 A 
ATOM     48  C   UNL A   1      40.660  29.370  31.165  1.00  0.00     0.049 A 
ATOM     49  N   UNL A   1      43.140  30.992  31.755  1.00  0.00    -0.248 NA
ATOM     50  C   UNL A   1      41.850  32.291  33.208  1.00  0.00     0.031 C 
ATOM     51  C   UNL A   1      39.492  28.547  30.863  1.00  0.00     0.029 A 
ATOM     52  N   UNL A   1      41.686  28.763  30.485  1.00  0.00    -0.354 N 
ATOM     53  C   UNL A   1      43.947  31.955  32.350  1.00  0.00     0.074 A 
ATOM     54  C   UNL A   1      43.090  32.752  33.205  1.00  0.00     0.031 C 
ATOM     55  C   UNL A   1      39.865  27.548  30.041  1.00  0.00     0.029 A 
ATOM     56  C   UNL A   1      41.282  27.698  29.714  1.00  0.00     0.049 A 
ATOM     57  H   UNL A   1      42.623  29.062  30.542  1.00  0.00     0.167 HD
ATOM     58  C   UNL A   1      45.279  32.154  32.196  1.00  0.00     0.034 A 
ATOM     59  C   UNL A   1      41.970  26.959  28.819  1.00  0.00     0.034 A 
ATOM     60  C   UNL A   1      46.109  31.362  31.322  1.00  0.00     0.049 A 
ATOM     61  C   UNL A   1      43.425  27.286  28.559  1.00  0.00     0.074 A 
ATOM     62  C   UNL A   1      47.471  31.465  31.102  1.00  0.00     0.029 A 
ATOM     63  N   UNL A   1      45.653  30.333  30.507  1.00  0.00    -0.354 N 
ATOM     64  N   UNL A   1      44.184  28.197  29.125  1.00  0.00    -0.248 NA
ATOM     65  C   UNL A   1      44.112  26.488  27.533  1.00  0.00     0.031 C 
ATOM     66  C   UNL A   1      47.820  30.566  30.089  1.00  0.00     0.029 A 
ATOM     67  C   UNL A   1      46.697  29.831  29.745  1.00  0.00     0.049 A 
ATOM     68  H   UNL A   1      44.724  30.010  30.474  1.00  0.00     0.167 HD
ATOM     69  C   UNL A   1      45.446  28.052  28.550  1.00  0.00     0.074 A 
ATOM     70  C   UNL A   1      45.346  26.964  27.600  1.00  0.00     0.031 C 
ATOM     71  C   UNL A   1      46.585  28.750  28.792  1.00  0.00     0.034 A 
BRANCH  58  72
ATOM     72  C   UNL A   1      45.892  33.319  32.935  1.00  0.00     0.023 A 
ATOM     73  C   UNL A   1      45.932  34.611  32.384  1.00  0.00     0.031 A 
ATOM     74  C   UNL A   1      46.493  33.121  34.192  1.00  0.00     0.131 A 
ATOM     75  C   UNL A   1      46.635  35.631  33.042  1.00  0.00     0.055 A 
ATOM     76  C   UNL A   1      47.108  34.164  34.886  1.00  0.00     0.041 A 
ATOM     77  F   UNL A   1      46.511  31.905  34.759  1.00  0.00    -0.206 F 
ATOM     78  C   UNL A   1      47.200  35.424  34.303  1.00  0.00     0.022 A 
BRANCH  75  79
ATOM     79  S   UNL A   1      46.955  37.175  32.146  1.00  0.00     0.124 S 
ATOM     80  O   UNL A   1      47.884  37.852  33.048  1.00  0.00    -0.237 OA
ATOM     81  O   UNL A   1      47.519  36.697  30.888  1.00  0.00    -0.237 OA
ATOM     82  O   UNL A   1      45.635  37.793  32.044  1.00  0.00    -0.744 OA
ENDBRANCH  75  79
ENDBRANCH  58  72
BRANCH  59  83
ATOM     83  C   UNL A   1      41.299  25.864  28.059  1.00  0.00     0.023 A 
ATOM     84  C   UNL A   1      41.651  24.521  28.273  1.00  0.00     0.031 A 
ATOM     85  C   UNL A   1      40.346  26.142  27.063  1.00  0.00     0.131 A 
ATOM     86  C   UNL A   1      41.090  23.514  27.472  1.00  0.00     0.055 A 
ATOM     87  C   UNL A   1      39.746  25.131  26.311  1.00  0.00     0.041 A 
ATOM     88  F   UNL A   1      39.980  27.409  26.807  1.00  0.00    -0.206 F 
ATOM     89  C   UNL A   1      40.127  23.807  26.504  1.00  0.00     0.022 A 
BRANCH  86  90
ATOM     90  S   UNL A   1      41.713  21.820  27.650  1.00  0.00     0.124 S 
ATOM     91  O   UNL A   1      42.763  21.995  28.648  1.00  0.00    -0.237 OA
ATOM     92  O   UNL A   1      40.521  21.104  28.092  1.00  0.00    -0.237 OA
ATOM     93  O   UNL A   1      42.177  21.485  26.306  1.00  0.00    -0.744 OA
ENDBRANCH  86  90
ENDBRANCH  59  83
BRANCH  71  94
ATOM     94  C   UNL A   1      47.835  28.323  28.056  1.00  0.00     0.023 A 
ATOM     95  C   UNL A   1      48.593  27.210  28.458  1.00  0.00     0.031 A 
ATOM     96  C   UNL A   1      48.262  29.036  26.921  1.00  0.00     0.131 A 
ATOM     97  C   UNL A   1      49.762  26.869  27.757  1.00  0.00     0.055 A 
ATOM     98  C   UNL A   1      49.387  28.655  26.190  1.00  0.00     0.041 A 
ATOM     99  F   UNL A   1      47.580  30.111  26.493  1.00  0.00    -0.206 F 
ATOM    100  C   UNL A   1      50.151  27.571  26.613  1.00  0.00     0.022 A 
BRANCH  97 101
ATOM    101  S   UNL A   1      50.816  25.542  28.406  1.00  0.00     0.124 S 
ATOM    102  O   UNL A   1      50.626  25.682  29.846  1.00  0.00    -0.237 OA
ATOM    103  O   UNL A   1      50.231  24.352  27.798  1.00  0.00    -0.237 OA
ATOM    104  O   UNL A   1      52.149  25.894  27.918  1.00  0.00    -0.744 OA
ENDBRANCH  97 101
ENDBRANCH  71  94
ENDBRANCH  45  46
ENDBRANCH  38  40
ENDBRANCH  37  38
ENDBRANCH  36  37
ENDBRANCH  35  36
ENDBRANCH  34  35
ENDBRANCH  33  34
ENDBRANCH   1  33
TORSDOF 24
ENDMDL
MODEL 2
REMARK VINA RESULT:      -9.4      3.811     10.030
REMARK SMILES Cc1nnc(-c2ccccc2-c2cc(NCC(=O)OCCOCCOCCOC(=O)c3ccc(-c4c5nc(c(-c6cc(S(=O)(=O)[O-])ccc6F)c6ccc([nH]6)c(-c6cc(S(=O)(=O)[O-])ccc6F)c6nc(c(-c7cc(S(=O)(=O)[O-])ccc7F)c7ccc4[nH]7)C=C6)C=C5)cc3)nc3[nH]ccc23)o1
REMARK SMILES IDX 23 1 22 2 21 3 20 4 19 5 17 6 18 7 16 8 15 9 14 11 12 12
REMARK SMILES IDX 13 13 99 14 95 15 98 16 94 17 96 18 97 19 11 21 6 22 7 23
REMARK SMILES IDX 8 24 10 25 9 26 5 27 1 28 2 29 3 30 100 31 4 32 24 33 25 34
REMARK SMILES IDX 26 35 27 36 28 37 29 38 30 39 31 40 32 41 93 42 33 43 92 44
REMARK SMILES IDX 34 45 35 46 36 47 86 48 37 49 91 50 85 51 87 52 38 53 90 54
REMARK SMILES IDX 84 55 83 56 39 58 71 59 51 60 70 61 52 62 55 63 69 64 88 65
REMARK SMILES IDX 53 66 54 67 68 69 89 70 56 71 40 72 41 73 49 74 42 75 48 76
REMARK SMILES IDX 50 77 47 78 43 79 44 80 45 81 46 82 72 83 73 84 81 85 74 86
REMARK SMILES IDX 80 87 82 88 79 89 75 90 76 91 77 92 78 93 57 94 58 95 66 96
REMARK SMILES IDX 59 97 65 98 67 99 64 100 60 101 61 102 62 103 63 104
REMARK H PARENT 15 10 96 20 87 57 55 68
REMARK Flexibility Score: inf
ROOT
ATOM      1  C   UNL A   1      40.048  28.874  27.924  1.00  0.00     0.188 C 
ENDROOT
BRANCH   1   2
ATOM      2  O   UNL A   1      38.880  29.417  27.352  1.00  0.00    -0.376 OA
BRANCH   2   3
ATOM      3  C   UNL A   1      37.845  29.824  28.236  1.00  0.00     0.202 C 
BRANCH   3   4
ATOM      4  C   UNL A   1      36.342  29.710  27.880  1.00  0.00     0.261 C 
BRANCH   4   5
ATOM      5  O   UNL A   1      35.598  30.939  27.814  1.00  0.00    -0.462 OA
BRANCH   5   6
ATOM      6  C   UNL A   1      34.271  30.893  27.529  1.00  0.00     0.325 C 
ATOM      7  O   UNL A   1      33.531  31.871  27.604  1.00  0.00    -0.250 OA
BRANCH   6   8
ATOM      8  C   UNL A   1      33.815  29.560  26.912  1.00  0.00     0.237 C 
BRANCH   8   9
ATOM      9  N   UNL A   1      33.703  29.497  25.450  1.00  0.00    -0.359 N 
ATOM     10  H   UNL A   1      33.715  30.333  24.931  1.00  0.00     0.162 HD
BRANCH   9  11
ATOM     11  C   UNL A   1      33.579  28.290  24.780  1.00  0.00     0.129 A 
ATOM     12  C   UNL A   1      33.990  25.868  24.754  1.00  0.00    -0.003 A 
ATOM     13  C   UNL A   1      34.029  27.117  25.411  1.00  0.00     0.056 A 
ATOM     14  C   UNL A   1      33.473  25.887  23.441  1.00  0.00     0.027 A 
ATOM     15  C   UNL A   1      33.035  27.107  22.944  1.00  0.00     0.140 A 
ATOM     16  C   UNL A   1      33.251  24.935  22.400  1.00  0.00     0.030 A 
ATOM     17  N   UNL A   1      33.046  28.301  23.550  1.00  0.00    -0.213 NA
ATOM     18  N   UNL A   1      32.576  26.918  21.673  1.00  0.00    -0.346 N 
ATOM     19  C   UNL A   1      32.711  25.602  21.320  1.00  0.00     0.085 A 
ATOM     20  H   UNL A   1      32.203  27.623  21.095  1.00  0.00     0.167 HD
BRANCH  12  21
ATOM     21  C   UNL A   1      34.462  24.596  25.343  1.00  0.00    -0.005 A 
ATOM     22  C   UNL A   1      33.630  23.712  26.065  1.00  0.00     0.047 A 
ATOM     23  C   UNL A   1      34.147  22.488  26.548  1.00  0.00     0.014 A 
ATOM     24  C   UNL A   1      35.475  22.130  26.338  1.00  0.00     0.001 A 
ATOM     25  C   UNL A   1      35.814  24.219  25.176  1.00  0.00     0.009 A 
ATOM     26  C   UNL A   1      36.313  23.004  25.660  1.00  0.00     0.001 A 
BRANCH  22  27
ATOM     27  C   UNL A   1      32.243  24.008  26.368  1.00  0.00     0.248 A 
ATOM     28  C   UNL A   1      29.163  22.571  27.230  1.00  0.00     0.113 C 
ATOM     29  C   UNL A   1      30.254  23.489  26.878  1.00  0.00     0.213 A 
ATOM     30  N   UNL A   1      30.267  24.798  26.745  1.00  0.00    -0.113 NA
ATOM     31  O   UNL A   1      31.464  22.913  26.630  1.00  0.00    -0.421 OA
ATOM     32  N   UNL A   1      31.570  25.138  26.422  1.00  0.00    -0.108 NA
ENDBRANCH  22  27
ENDBRANCH  12  21
ENDBRANCH   9  11
ENDBRANCH   8   9
ENDBRANCH   6   8
ENDBRANCH   5   6
ENDBRANCH   4   5
ENDBRANCH   3   4
ENDBRANCH   2   3
ENDBRANCH   1   2
BRANCH   1  33
ATOM     33  C   UNL A   1      40.140  27.347  27.771  1.00  0.00     0.188 C 
BRANCH  33  34
ATOM     34  O   UNL A   1      40.463  26.750  26.526  1.00  0.00    -0.376 OA
BRANCH  34  35
ATOM     35  C   UNL A   1      40.657  25.345  26.492  1.00  0.00     0.202 C 
BRANCH  35  36
ATOM     36  C   UNL A   1      42.021  24.791  26.048  1.00  0.00     0.261 C 
BRANCH  36  37
ATOM     37  O   UNL A   1      43.153  25.261  26.799  1.00  0.00    -0.460 OA
BRANCH  37  38
ATOM     38  C   UNL A   1      43.904  26.224  26.196  1.00  0.00     0.338 C 
ATOM     39  O   UNL A   1      44.327  26.218  25.050  1.00  0.00    -0.246 OA
BRANCH  38  40
ATOM     40  C   UNL A   1      43.935  27.412  27.079  1.00  0.00     0.060 A 
ATOM     41  C   UNL A   1      43.517  28.655  26.576  1.00  0.00     0.016 A 
ATOM     42  C   UNL A   1      44.354  27.292  28.402  1.00  0.00     0.016 A 
ATOM     43  C   UNL A   1      43.475  29.774  27.408  1.00  0.00     0.010 A 
ATOM     44  C   UNL A   1      44.356  28.424  29.221  1.00  0.00     0.010 A 
ATOM     45  C   UNL A   1      43.920  29.669  28.729  1.00  0.00    -0.014 A 
BRANCH  45  46
ATOM     46  C   UNL A   1      44.097  30.881  29.567  1.00  0.00     0.031 A 
ATOM     47  C   UNL A   1      43.028  31.212  30.568  1.00  0.00     0.074 A 
ATOM     48  C   UNL A   1      45.163  31.687  29.418  1.00  0.00     0.049 A 
ATOM     49  N   UNL A   1      42.871  32.288  31.293  1.00  0.00    -0.248 NA
ATOM     50  C   UNL A   1      41.991  30.189  30.765  1.00  0.00     0.031 C 
ATOM     51  C   UNL A   1      46.299  31.432  28.537  1.00  0.00     0.029 A 
ATOM     52  N   UNL A   1      45.449  32.897  29.998  1.00  0.00    -0.354 N 
ATOM     53  C   UNL A   1      41.703  32.083  32.020  1.00  0.00     0.074 A 
ATOM     54  C   UNL A   1      41.183  30.790  31.624  1.00  0.00     0.031 C 
ATOM     55  C   UNL A   1      47.155  32.467  28.621  1.00  0.00     0.029 A 
ATOM     56  C   UNL A   1      46.598  33.481  29.516  1.00  0.00     0.049 A 
ATOM     57  H   UNL A   1      44.885  33.310  30.692  1.00  0.00     0.167 HD
ATOM     58  C   UNL A   1      41.122  32.900  32.932  1.00  0.00     0.034 A 
ATOM     59  C   UNL A   1      47.113  34.707  29.741  1.00  0.00     0.034 A 
ATOM     60  C   UNL A   1      41.646  34.193  33.295  1.00  0.00     0.049 A 
ATOM     61  C   UNL A   1      46.374  35.658  30.658  1.00  0.00     0.074 A 
ATOM     62  C   UNL A   1      41.148  35.096  34.218  1.00  0.00     0.029 A 
ATOM     63  N   UNL A   1      42.776  34.780  32.737  1.00  0.00    -0.354 N 
ATOM     64  N   UNL A   1      45.271  35.460  31.344  1.00  0.00    -0.248 NA
ATOM     65  C   UNL A   1      46.949  37.001  30.825  1.00  0.00     0.031 C 
ATOM     66  C   UNL A   1      41.919  36.261  34.151  1.00  0.00     0.029 A 
ATOM     67  C   UNL A   1      42.958  36.052  33.258  1.00  0.00     0.049 A 
ATOM     68  H   UNL A   1      43.360  34.355  32.069  1.00  0.00     0.167 HD
ATOM     69  C   UNL A   1      45.045  36.639  32.051  1.00  0.00     0.074 A 
ATOM     70  C   UNL A   1      46.128  37.539  31.714  1.00  0.00     0.031 C 
ATOM     71  C   UNL A   1      44.038  36.947  32.909  1.00  0.00     0.034 A 
BRANCH  58  72
ATOM     72  C   UNL A   1      39.817  32.440  33.536  1.00  0.00     0.023 A 
ATOM     73  C   UNL A   1      38.575  32.840  33.014  1.00  0.00     0.031 A 
ATOM     74  C   UNL A   1      39.817  31.629  34.686  1.00  0.00     0.131 A 
ATOM     75  C   UNL A   1      37.392  32.505  33.690  1.00  0.00     0.055 A 
ATOM     76  C   UNL A   1      38.632  31.219  35.298  1.00  0.00     0.041 A 
ATOM     77  F   UNL A   1      40.972  31.236  35.247  1.00  0.00    -0.206 F 
ATOM     78  C   UNL A   1      37.410  31.674  34.813  1.00  0.00     0.022 A 
BRANCH  75  79
ATOM     79  S   UNL A   1      35.851  33.319  33.186  1.00  0.00     0.124 S 
ATOM     80  O   UNL A   1      35.103  32.204  32.612  1.00  0.00    -0.237 OA
ATOM     81  O   UNL A   1      35.346  33.844  34.450  1.00  0.00    -0.237 OA
ATOM     82  O   UNL A   1      36.293  34.325  32.223  1.00  0.00    -0.744 OA
ENDBRANCH  75  79
ENDBRANCH  58  72
BRANCH  59  83
ATOM     83  C   UNL A   1      48.369  35.142  29.062  1.00  0.00     0.023 A 
ATOM     84  C   UNL A   1      48.335  35.666  27.759  1.00  0.00     0.031 A 
ATOM     85  C   UNL A   1      49.625  34.981  29.673  1.00  0.00     0.131 A 
ATOM     86  C   UNL A   1      49.534  35.967  27.095  1.00  0.00     0.055 A 
ATOM     87  C   UNL A   1      50.811  35.338  29.030  1.00  0.00     0.041 A 
ATOM     88  F   UNL A   1      49.718  34.473  30.914  1.00  0.00    -0.206 F 
ATOM     89  C   UNL A   1      50.772  35.823  27.727  1.00  0.00     0.022 A 
BRANCH  86  90
ATOM     90  S   UNL A   1      49.458  36.459  25.350  1.00  0.00     0.124 S 
ATOM     91  O   UNL A   1      48.264  37.297  25.333  1.00  0.00    -0.237 OA
ATOM     92  O   UNL A   1      50.729  37.150  25.174  1.00  0.00    -0.237 OA
ATOM     93  O   UNL A   1      49.338  35.186  24.642  1.00  0.00    -0.744 OA
ENDBRANCH  86  90
ENDBRANCH  59  83
BRANCH  71  94
ATOM     94  C   UNL A   1      44.087  38.297  33.587  1.00  0.00     0.023 A 
ATOM     95  C   UNL A   1      43.427  39.421  33.061  1.00  0.00     0.031 A 
ATOM     96  C   UNL A   1      44.796  38.453  34.793  1.00  0.00     0.131 A 
ATOM     97  C   UNL A   1      43.524  40.660  33.716  1.00  0.00     0.055 A 
ATOM     98  C   UNL A   1      44.836  39.671  35.472  1.00  0.00     0.041 A 
ATOM     99  F   UNL A   1      45.450  37.416  35.340  1.00  0.00    -0.206 F 
ATOM    100  C   UNL A   1      44.206  40.787  34.928  1.00  0.00     0.022 A 
BRANCH  97 101
ATOM    101  S   UNL A   1      42.815  42.128  32.919  1.00  0.00     0.124 S 
ATOM    102  O   UNL A   1      43.917  42.575  32.073  1.00  0.00    -0.237 OA
ATOM    103  O   UNL A   1      41.658  41.577  32.222  1.00  0.00    -0.237 OA
ATOM    104  O   UNL A   1      42.498  43.008  34.043  1.00  0.00    -0.744 OA
ENDBRANCH  97 101
ENDBRANCH  71  94
ENDBRANCH  45  46
ENDBRANCH  38  40
ENDBRANCH  37  38
ENDBRANCH  36  37
ENDBRANCH  35  36
ENDBRANCH  34  35
ENDBRANCH  33  34
ENDBRANCH   1  33
TORSDOF 24
ENDMDL
MODEL 3
REMARK VINA RESULT:      -9.4      6.569      9.706
REMARK SMILES Cc1nnc(-c2ccccc2-c2cc(NCC(=O)OCCOCCOCCOC(=O)c3ccc(-c4c5nc(c(-c6cc(S(=O)(=O)[O-])ccc6F)c6ccc([nH]6)c(-c6cc(S(=O)(=O)[O-])ccc6F)c6nc(c(-c7cc(S(=O)(=O)[O-])ccc7F)c7ccc4[nH]7)C=C6)C=C5)cc3)nc3[nH]ccc23)o1
REMARK SMILES IDX 23 1 22 2 21 3 20 4 19 5 17 6 18 7 16 8 15 9 14 11 12 12
REMARK SMILES IDX 13 13 99 14 95 15 98 16 94 17 96 18 97 19 11 21 6 22 7 23
REMARK SMILES IDX 8 24 10 25 9 26 5 27 1 28 2 29 3 30 100 31 4 32 24 33 25 34
REMARK SMILES IDX 26 35 27 36 28 37 29 38 30 39 31 40 32 41 93 42 33 43 92 44
REMARK SMILES IDX 34 45 35 46 36 47 86 48 37 49 91 50 85 51 87 52 38 53 90 54
REMARK SMILES IDX 84 55 83 56 39 58 71 59 51 60 70 61 52 62 55 63 69 64 88 65
REMARK SMILES IDX 53 66 54 67 68 69 89 70 56 71 40 72 41 73 49 74 42 75 48 76
REMARK SMILES IDX 50 77 47 78 43 79 44 80 45 81 46 82 72 83 73 84 81 85 74 86
REMARK SMILES IDX 80 87 82 88 79 89 75 90 76 91 77 92 78 93 57 94 58 95 66 96
REMARK SMILES IDX 59 97 65 98 67 99 64 100 60 101 61 102 62 103 63 104
REMARK H PARENT 15 10 96 20 87 57 55 68
REMARK Flexibility Score: inf
ROOT
ATOM      1  C   UNL A   1      41.139  28.409  29.208  1.00  0.00     0.188 C 
ENDROOT
BRANCH   1   2
ATOM      2  O   UNL A   1      40.116  28.988  28.430  1.00  0.00    -0.376 OA
BRANCH   2   3
ATOM      3  C   UNL A   1      38.832  29.112  29.023  1.00  0.00     0.202 C 
BRANCH   3   4
ATOM      4  C   UNL A   1      37.522  29.117  28.198  1.00  0.00     0.261 C 
BRANCH   4   5
ATOM      5  O   UNL A   1      37.045  30.397  27.748  1.00  0.00    -0.462 OA
BRANCH   5   6
ATOM      6  C   UNL A   1      35.707  30.630  27.718  1.00  0.00     0.325 C 
ATOM      7  O   UNL A   1      35.216  31.753  27.804  1.00  0.00    -0.250 OA
BRANCH   6   8
ATOM      8  C   UNL A   1      34.869  29.389  27.368  1.00  0.00     0.237 C 
BRANCH   8   9
ATOM      9  N   UNL A   1      34.054  29.449  26.148  1.00  0.00    -0.359 N 
ATOM     10  H   UNL A   1      33.651  30.307  25.881  1.00  0.00     0.162 HD
BRANCH   9  11
ATOM     11  C   UNL A   1      33.835  28.328  25.362  1.00  0.00     0.129 A 
ATOM     12  C   UNL A   1      34.068  25.898  25.085  1.00  0.00    -0.003 A 
ATOM     13  C   UNL A   1      34.205  27.068  25.863  1.00  0.00     0.056 A 
ATOM     14  C   UNL A   1      33.539  26.088  23.790  1.00  0.00     0.027 A 
ATOM     15  C   UNL A   1      33.185  27.381  23.427  1.00  0.00     0.140 A 
ATOM     16  C   UNL A   1      33.236  25.266  22.662  1.00  0.00     0.030 A 
ATOM     17  N   UNL A   1      33.290  28.503  24.149  1.00  0.00    -0.213 NA
ATOM     18  N   UNL A   1      32.700  27.356  22.152  1.00  0.00    -0.346 N 
ATOM     19  C   UNL A   1      32.734  26.076  21.666  1.00  0.00     0.085 A 
ATOM     20  H   UNL A   1      32.373  28.140  21.655  1.00  0.00     0.167 HD
BRANCH  12  21
ATOM     21  C   UNL A   1      34.452  24.543  25.534  1.00  0.00    -0.005 A 
ATOM     22  C   UNL A   1      33.550  23.626  26.116  1.00  0.00     0.047 A 
ATOM     23  C   UNL A   1      33.986  22.328  26.466  1.00  0.00     0.014 A 
ATOM     24  C   UNL A   1      35.301  21.926  26.261  1.00  0.00     0.001 A 
ATOM     25  C   UNL A   1      35.790  24.115  25.369  1.00  0.00     0.009 A 
ATOM     26  C   UNL A   1      36.208  22.827  25.722  1.00  0.00     0.001 A 
BRANCH  22  27
ATOM     27  C   UNL A   1      32.168  23.959  26.404  1.00  0.00     0.248 A 
ATOM     28  C   UNL A   1      29.050  22.607  27.270  1.00  0.00     0.113 C 
ATOM     29  C   UNL A   1      30.164  23.493  26.909  1.00  0.00     0.213 A 
ATOM     30  N   UNL A   1      30.208  24.799  26.755  1.00  0.00    -0.113 NA
ATOM     31  O   UNL A   1      31.362  22.886  26.679  1.00  0.00    -0.421 OA
ATOM     32  N   UNL A   1      31.521  25.104  26.434  1.00  0.00    -0.108 NA
ENDBRANCH  22  27
ENDBRANCH  12  21
ENDBRANCH   9  11
ENDBRANCH   8   9
ENDBRANCH   6   8
ENDBRANCH   5   6
ENDBRANCH   4   5
ENDBRANCH   3   4
ENDBRANCH   2   3
ENDBRANCH   1   2
BRANCH   1  33
ATOM     33  C   UNL A   1      41.347  26.915  28.914  1.00  0.00     0.188 C 
BRANCH  33  34
ATOM     34  O   UNL A   1      42.261  26.480  27.922  1.00  0.00    -0.376 OA
BRANCH  34  35
ATOM     35  C   UNL A   1      41.890  25.373  27.115  1.00  0.00     0.202 C 
BRANCH  35  36
ATOM     36  C   UNL A   1      42.986  24.590  26.374  1.00  0.00     0.261 C 
BRANCH  36  37
ATOM     37  O   UNL A   1      43.270  23.281  26.894  1.00  0.00    -0.460 OA
BRANCH  37  38
ATOM     38  C   UNL A   1      44.522  23.103  27.399  1.00  0.00     0.338 C 
ATOM     39  O   UNL A   1      45.528  22.788  26.780  1.00  0.00    -0.246 OA
BRANCH  38  40
ATOM     40  C   UNL A   1      44.534  23.589  28.797  1.00  0.00     0.060 A 
ATOM     41  C   UNL A   1      45.450  24.586  29.172  1.00  0.00     0.016 A 
ATOM     42  C   UNL A   1      43.631  23.077  29.725  1.00  0.00     0.016 A 
ATOM     43  C   UNL A   1      45.436  25.105  30.467  1.00  0.00     0.010 A 
ATOM     44  C   UNL A   1      43.649  23.566  31.034  1.00  0.00     0.010 A 
ATOM     45  C   UNL A   1      44.551  24.578  31.413  1.00  0.00    -0.014 A 
BRANCH  45  46
ATOM     46  C   UNL A   1      44.663  24.950  32.844  1.00  0.00     0.031 A 
ATOM     47  C   UNL A   1      44.254  26.337  33.250  1.00  0.00     0.074 A 
ATOM     48  C   UNL A   1      45.149  24.091  33.756  1.00  0.00     0.049 A 
ATOM     49  N   UNL A   1      44.410  26.950  34.393  1.00  0.00    -0.248 NA
ATOM     50  C   UNL A   1      43.589  27.141  32.214  1.00  0.00     0.031 C 
ATOM     51  C   UNL A   1      45.507  22.698  33.499  1.00  0.00     0.029 A 
ATOM     52  N   UNL A   1      45.443  24.276  35.084  1.00  0.00    -0.354 N 
ATOM     53  C   UNL A   1      43.881  28.223  34.212  1.00  0.00     0.074 A 
ATOM     54  C   UNL A   1      43.426  28.297  32.838  1.00  0.00     0.031 C 
ATOM     55  C   UNL A   1      45.990  22.158  34.634  1.00  0.00     0.029 A 
ATOM     56  C   UNL A   1      46.030  23.182  35.676  1.00  0.00     0.049 A 
ATOM     57  H   UNL A   1      45.252  25.113  35.567  1.00  0.00     0.167 HD
ATOM     58  C   UNL A   1      43.784  29.234  35.109  1.00  0.00     0.034 A 
ATOM     59  C   UNL A   1      46.571  23.041  36.904  1.00  0.00     0.034 A 
ATOM     60  C   UNL A   1      44.263  29.145  36.467  1.00  0.00     0.049 A 
ATOM     61  C   UNL A   1      46.578  24.226  37.845  1.00  0.00     0.074 A 
ATOM     62  C   UNL A   1      44.202  30.101  37.465  1.00  0.00     0.029 A 
ATOM     63  N   UNL A   1      44.912  28.044  37.012  1.00  0.00    -0.354 N 
ATOM     64  N   UNL A   1      46.076  25.427  37.669  1.00  0.00    -0.248 NA
ATOM     65  C   UNL A   1      47.231  24.036  39.148  1.00  0.00     0.031 C 
ATOM     66  C   UNL A   1      44.894  29.616  38.580  1.00  0.00     0.029 A 
ATOM     67  C   UNL A   1      45.303  28.318  38.314  1.00  0.00     0.049 A 
ATOM     68  H   UNL A   1      45.072  27.194  36.542  1.00  0.00     0.167 HD
ATOM     69  C   UNL A   1      46.319  26.120  38.854  1.00  0.00     0.074 A 
ATOM     70  C   UNL A   1      47.007  25.201  39.737  1.00  0.00     0.031 C 
ATOM     71  C   UNL A   1      45.996  27.397  39.185  1.00  0.00     0.034 A 
BRANCH  58  72
ATOM     72  C   UNL A   1      43.204  30.538  34.619  1.00  0.00     0.023 A 
ATOM     73  C   UNL A   1      41.823  30.799  34.661  1.00  0.00     0.031 A 
ATOM     74  C   UNL A   1      44.041  31.516  34.052  1.00  0.00     0.131 A 
ATOM     75  C   UNL A   1      41.313  31.962  34.066  1.00  0.00     0.055 A 
ATOM     76  C   UNL A   1      43.536  32.715  33.548  1.00  0.00     0.041 A 
ATOM     77  F   UNL A   1      45.365  31.315  33.959  1.00  0.00    -0.206 F 
ATOM     78  C   UNL A   1      42.162  32.936  33.534  1.00  0.00     0.022 A 
BRANCH  75  79
ATOM     79  S   UNL A   1      39.519  32.098  33.835  1.00  0.00     0.124 S 
ATOM     80  O   UNL A   1      39.275  31.081  32.815  1.00  0.00    -0.237 OA
ATOM     81  O   UNL A   1      39.007  31.802  35.168  1.00  0.00    -0.237 OA
ATOM     82  O   UNL A   1      39.334  33.476  33.386  1.00  0.00    -0.744 OA
ENDBRANCH  75  79
ENDBRANCH  58  72
BRANCH  59  83
ATOM     83  C   UNL A   1      47.199  21.751  37.316  1.00  0.00     0.023 A 
ATOM     84  C   UNL A   1      46.454  20.776  38.000  1.00  0.00     0.031 A 
ATOM     85  C   UNL A   1      48.564  21.498  37.094  1.00  0.00     0.131 A 
ATOM     86  C   UNL A   1      47.087  19.618  38.476  1.00  0.00     0.055 A 
ATOM     87  C   UNL A   1      49.176  20.317  37.517  1.00  0.00     0.041 A 
ATOM     88  F   UNL A   1      49.328  22.401  36.456  1.00  0.00    -0.206 F 
ATOM     89  C   UNL A   1      48.439  19.373  38.225  1.00  0.00     0.022 A 
BRANCH  86  90
ATOM     90  S   UNL A   1      46.136  18.478  39.518  1.00  0.00     0.124 S 
ATOM     91  O   UNL A   1      47.177  17.570  39.988  1.00  0.00    -0.237 OA
ATOM     92  O   UNL A   1      45.571  19.378  40.516  1.00  0.00    -0.237 OA
ATOM     93  O   UNL A   1      45.170  17.893  38.589  1.00  0.00    -0.744 OA
ENDBRANCH  86  90
ENDBRANCH  59  83
BRANCH  71  94
ATOM     94  C   UNL A   1      46.334  27.862  40.584  1.00  0.00     0.023 A 
ATOM     95  C   UNL A   1      47.519  28.560  40.871  1.00  0.00     0.031 A 
ATOM     96  C   UNL A   1      45.441  27.614  41.642  1.00  0.00     0.131 A 
ATOM     97  C   UNL A   1      47.801  28.948  42.192  1.00  0.00     0.055 A 
ATOM     98  C   UNL A   1      45.695  28.059  42.940  1.00  0.00     0.041 A 
ATOM     99  F   UNL A   1      44.295  26.948  41.429  1.00  0.00    -0.206 F 
ATOM    100  C   UNL A   1      46.886  28.721  43.223  1.00  0.00     0.022 A 
BRANCH  97 101
ATOM    101  S   UNL A   1      49.417  29.684  42.562  1.00  0.00     0.124 S 
ATOM    102  O   UNL A   1      50.277  28.508  42.630  1.00  0.00    -0.237 OA
ATOM    103  O   UNL A   1      49.629  30.564  41.417  1.00  0.00    -0.237 OA
ATOM    104  O   UNL A   1      49.199  30.369  43.835  1.00  0.00    -0.744 OA
ENDBRANCH  97 101
ENDBRANCH  71  94
ENDBRANCH  45  46
ENDBRANCH  38  40
ENDBRANCH  37  38
ENDBRANCH  36  37
ENDBRANCH  35  36
ENDBRANCH  34  35
ENDBRANCH  33  34
ENDBRANCH   1  33
TORSDOF 24
ENDMDL
