MODEL 1
REMARK VINA RESULT:     -10.3      0.000      0.000
REMARK SMILES O=C(OCCOCCOCCOC(=O)c1cn(C[C@@H]2CCS(=O)(=O)C2)c(=O)[nH]c1=O)c1ccc(-c2c3nc(c(-c4cc(S(=O)(=O)[O-])ccc4F)c4ccc([nH]4)c(-c4cc(S(=O)(=O)[O-])ccc4F)c4nc(c(-c5cc(S(=O)(=O)[O-])ccc5F)c5ccc2[nH]5)C=C4)C=C3)cc1
REMARK SMILES IDX 7 1 6 2 5 3 4 4 3 5 2 6 1 7 31 8 32 9 93 10 33 11 92 12
REMARK SMILES IDX 34 13 35 14 36 15 86 16 37 17 91 18 85 19 87 20 38 21 90 22
REMARK SMILES IDX 84 23 83 24 39 26 71 27 51 28 70 29 52 30 55 31 69 32 88 33
REMARK SMILES IDX 53 34 54 35 68 37 89 38 56 39 40 40 41 41 49 42 42 43 48 44
REMARK SMILES IDX 50 45 47 46 43 47 44 48 45 49 46 50 72 51 73 52 81 53 74 54
REMARK SMILES IDX 80 55 82 56 79 57 75 58 76 59 77 60 78 61 57 62 58 63 66 64
REMARK SMILES IDX 59 65 65 66 67 67 64 68 60 69 61 70 62 71 63 72 8 73 9 74
REMARK SMILES IDX 10 75 11 76 12 77 13 78 14 79 15 80 16 81 29 82 17 83 28 84
REMARK SMILES IDX 30 85 26 86 27 88 18 89 19 90 20 91 25 92 21 93 22 94 23 95
REMARK SMILES IDX 24 96
REMARK H PARENT 87 25 55 36 28 87
REMARK Flexibility Score: inf
ROOT
ATOM      1  C   UNL A   1      37.694  22.219  25.668  1.00  0.00     0.188 C 
ENDROOT
BRANCH   1   2
ATOM      2  O   UNL A   1      38.087  21.274  24.704  1.00  0.00    -0.376 OA
BRANCH   2   3
ATOM      3  C   UNL A   1      37.998  19.890  24.961  1.00  0.00     0.202 C 
BRANCH   3   4
ATOM      4  C   UNL A   1      39.015  19.097  25.793  1.00  0.00     0.261 C 
BRANCH   4   5
ATOM      5  O   UNL A   1      40.451  19.165  25.620  1.00  0.00    -0.460 OA
BRANCH   5   6
ATOM      6  C   UNL A   1      41.484  19.599  26.377  1.00  0.00     0.338 C 
ATOM      7  O   UNL A   1      42.222  18.790  26.930  1.00  0.00    -0.246 OA
BRANCH   6   8
ATOM      8  C   UNL A   1      41.574  21.029  26.747  1.00  0.00     0.060 A 
ATOM      9  C   UNL A   1      41.903  21.353  28.076  1.00  0.00     0.016 A 
ATOM     10  C   UNL A   1      41.344  22.047  25.831  1.00  0.00     0.016 A 
ATOM     11  C   UNL A   1      41.935  22.690  28.490  1.00  0.00     0.010 A 
ATOM     12  C   UNL A   1      41.283  23.372  26.260  1.00  0.00     0.010 A 
ATOM     13  C   UNL A   1      41.607  23.711  27.584  1.00  0.00    -0.014 A 
BRANCH  13  14
ATOM     14  C   UNL A   1      41.990  25.119  27.851  1.00  0.00     0.031 A 
ATOM     15  C   UNL A   1      41.041  26.183  28.316  1.00  0.00     0.074 A 
ATOM     16  C   UNL A   1      43.239  25.449  27.471  1.00  0.00     0.049 A 
ATOM     17  N   UNL A   1      41.318  27.406  28.696  1.00  0.00    -0.248 NA
ATOM     18  C   UNL A   1      39.605  25.869  28.333  1.00  0.00     0.031 C 
ATOM     19  C   UNL A   1      44.191  24.523  26.846  1.00  0.00     0.029 A 
ATOM     20  N   UNL A   1      43.894  26.649  27.474  1.00  0.00    -0.354 N 
ATOM     21  C   UNL A   1      40.113  27.976  29.094  1.00  0.00     0.074 A 
ATOM     22  C   UNL A   1      39.083  27.007  28.793  1.00  0.00     0.031 C 
ATOM     23  C   UNL A   1      45.275  25.205  26.460  1.00  0.00     0.029 A 
ATOM     24  C   UNL A   1      45.115  26.601  26.850  1.00  0.00     0.049 A 
ATOM     25  H   UNL A   1      43.527  27.465  27.884  1.00  0.00     0.167 HD
ATOM     26  C   UNL A   1      39.930  29.178  29.696  1.00  0.00     0.034 A 
ATOM     27  C   UNL A   1      46.020  27.570  26.623  1.00  0.00     0.034 A 
ATOM     28  C   UNL A   1      40.979  30.153  29.847  1.00  0.00     0.049 A 
ATOM     29  C   UNL A   1      45.783  28.914  27.245  1.00  0.00     0.074 A 
ATOM     30  C   UNL A   1      40.920  31.368  30.505  1.00  0.00     0.029 A 
ATOM     31  N   UNL A   1      42.242  30.056  29.288  1.00  0.00    -0.354 N 
ATOM     32  N   UNL A   1      44.740  29.331  27.922  1.00  0.00    -0.248 NA
ATOM     33  C   UNL A   1      46.861  29.899  27.128  1.00  0.00     0.031 C 
ATOM     34  C   UNL A   1      42.121  32.039  30.276  1.00  0.00     0.029 A 
ATOM     35  C   UNL A   1      42.950  31.221  29.525  1.00  0.00     0.049 A 
ATOM     36  H   UNL A   1      42.586  29.276  28.795  1.00  0.00     0.167 HD
ATOM     37  C   UNL A   1      45.043  30.622  28.333  1.00  0.00     0.074 A 
ATOM     38  C   UNL A   1      46.384  30.899  27.858  1.00  0.00     0.031 C 
ATOM     39  C   UNL A   1      44.280  31.498  29.035  1.00  0.00     0.034 A 
BRANCH  26  40
ATOM     40  C   UNL A   1      38.623  29.526  30.369  1.00  0.00     0.023 A 
ATOM     41  C   UNL A   1      37.673  30.385  29.791  1.00  0.00     0.031 A 
ATOM     42  C   UNL A   1      38.498  29.251  31.744  1.00  0.00     0.131 A 
ATOM     43  C   UNL A   1      36.623  30.893  30.584  1.00  0.00     0.055 A 
ATOM     44  C   UNL A   1      37.432  29.722  32.513  1.00  0.00     0.041 A 
ATOM     45  F   UNL A   1      39.456  28.563  32.386  1.00  0.00    -0.206 F 
ATOM     46  C   UNL A   1      36.479  30.537  31.929  1.00  0.00     0.022 A 
BRANCH  43  47
ATOM     47  S   UNL A   1      35.509  32.192  29.973  1.00  0.00     0.124 S 
ATOM     48  O   UNL A   1      34.564  32.307  31.079  1.00  0.00    -0.237 OA
ATOM     49  O   UNL A   1      36.416  33.326  29.809  1.00  0.00    -0.237 OA
ATOM     50  O   UNL A   1      34.973  31.633  28.739  1.00  0.00    -0.744 OA
ENDBRANCH  43  47
ENDBRANCH  26  40
BRANCH  27  51
ATOM     51  C   UNL A   1      47.261  27.208  25.887  1.00  0.00     0.023 A 
ATOM     52  C   UNL A   1      48.383  26.719  26.585  1.00  0.00     0.031 A 
ATOM     53  C   UNL A   1      47.411  27.539  24.533  1.00  0.00     0.131 A 
ATOM     54  C   UNL A   1      49.625  26.655  25.941  1.00  0.00     0.055 A 
ATOM     55  C   UNL A   1      48.633  27.401  23.876  1.00  0.00     0.041 A 
ATOM     56  F   UNL A   1      46.376  28.041  23.842  1.00  0.00    -0.206 F 
ATOM     57  C   UNL A   1      49.754  26.978  24.586  1.00  0.00     0.022 A 
BRANCH  54  58
ATOM     58  S   UNL A   1      51.141  26.324  26.883  1.00  0.00     0.124 S 
ATOM     59  O   UNL A   1      52.069  27.299  26.317  1.00  0.00    -0.237 OA
ATOM     60  O   UNL A   1      50.705  26.587  28.252  1.00  0.00    -0.237 OA
ATOM     61  O   UNL A   1      51.435  24.927  26.585  1.00  0.00    -0.744 OA
ENDBRANCH  54  58
ENDBRANCH  27  51
BRANCH  39  62
ATOM     62  C   UNL A   1      44.838  32.873  29.302  1.00  0.00     0.023 A 
ATOM     63  C   UNL A   1      44.563  33.933  28.420  1.00  0.00     0.031 A 
ATOM     64  C   UNL A   1      45.755  33.094  30.345  1.00  0.00     0.131 A 
ATOM     65  C   UNL A   1      45.231  35.154  28.571  1.00  0.00     0.055 A 
ATOM     66  C   UNL A   1      46.365  34.333  30.533  1.00  0.00     0.041 A 
ATOM     67  F   UNL A   1      46.068  32.107  31.200  1.00  0.00    -0.206 F 
ATOM     68  C   UNL A   1      46.116  35.364  29.633  1.00  0.00     0.022 A 
BRANCH  65  69
ATOM     69  S   UNL A   1      45.066  36.467  27.331  1.00  0.00     0.124 S 
ATOM     70  O   UNL A   1      46.312  36.330  26.582  1.00  0.00    -0.237 OA
ATOM     71  O   UNL A   1      43.858  36.063  26.615  1.00  0.00    -0.237 OA
ATOM     72  O   UNL A   1      44.943  37.686  28.124  1.00  0.00    -0.744 OA
ENDBRANCH  65  69
ENDBRANCH  39  62
ENDBRANCH  13  14
ENDBRANCH   6   8
ENDBRANCH   5   6
ENDBRANCH   4   5
ENDBRANCH   3   4
ENDBRANCH   2   3
ENDBRANCH   1   2
BRANCH   1  73
ATOM     73  C   UNL A   1      36.310  22.863  25.541  1.00  0.00     0.188 C 
BRANCH  73  74
ATOM     74  O   UNL A   1      35.564  22.682  24.352  1.00  0.00    -0.376 OA
BRANCH  74  75
ATOM     75  C   UNL A   1      34.477  21.766  24.359  1.00  0.00     0.202 C 
BRANCH  75  76
ATOM     76  C   UNL A   1      34.114  20.938  25.604  1.00  0.00     0.261 C 
BRANCH  76  77
ATOM     77  O   UNL A   1      32.869  21.278  26.230  1.00  0.00    -0.459 OA
BRANCH  77  78
ATOM     78  C   UNL A   1      32.880  22.358  27.052  1.00  0.00     0.345 C 
ATOM     79  O   UNL A   1      33.414  22.431  28.151  1.00  0.00    -0.246 OA
BRANCH  78  80
ATOM     80  C   UNL A   1      32.097  23.432  26.441  1.00  0.00     0.141 A 
ATOM     81  C   UNL A   1      32.750  24.508  25.994  1.00  0.00     0.112 A 
ATOM     82  C   UNL A   1      30.639  23.369  26.229  1.00  0.00     0.268 A 
ATOM     83  N   UNL A   1      32.085  25.553  25.381  1.00  0.00    -0.299 N 
ATOM     84  N   UNL A   1      30.044  24.544  25.865  1.00  0.00    -0.273 N 
ATOM     85  O   UNL A   1      29.973  22.356  26.410  1.00  0.00    -0.268 OA
ATOM     86  C   UNL A   1      30.697  25.648  25.398  1.00  0.00     0.328 A 
ATOM     87  H   UNL A   1      29.065  24.600  25.946  1.00  0.00     0.175 HD
ATOM     88  O   UNL A   1      30.054  26.596  24.961  1.00  0.00    -0.248 OA
BRANCH  83  89
ATOM     89  C   UNL A   1      32.852  26.593  24.722  1.00  0.00     0.131 C 
BRANCH  89  90
ATOM     90  C   UNL A   1      33.462  27.663  25.649  1.00  0.00     0.025 C 
ATOM     91  C   UNL A   1      32.894  27.692  27.075  1.00  0.00     0.022 C 
ATOM     92  C   UNL A   1      33.436  29.094  25.118  1.00  0.00     0.142 C 
ATOM     93  C   UNL A   1      31.731  28.670  27.137  1.00  0.00     0.137 C 
ATOM     94  S   UNL A   1      32.049  29.901  25.892  1.00  0.00     0.150 S 
ATOM     95  O   UNL A   1      30.934  29.923  24.968  1.00  0.00    -0.229 OA
ATOM     96  O   UNL A   1      32.520  31.110  26.538  1.00  0.00    -0.229 OA
ENDBRANCH  89  90
ENDBRANCH  83  89
ENDBRANCH  78  80
ENDBRANCH  77  78
ENDBRANCH  76  77
ENDBRANCH  75  76
ENDBRANCH  74  75
ENDBRANCH  73  74
ENDBRANCH   1  73
TORSDOF 22
ENDMDL
MODEL 2
REMARK VINA RESULT:     -10.3      2.351      9.103
REMARK SMILES O=C(OCCOCCOCCOC(=O)c1cn(C[C@@H]2CCS(=O)(=O)C2)c(=O)[nH]c1=O)c1ccc(-c2c3nc(c(-c4cc(S(=O)(=O)[O-])ccc4F)c4ccc([nH]4)c(-c4cc(S(=O)(=O)[O-])ccc4F)c4nc(c(-c5cc(S(=O)(=O)[O-])ccc5F)c5ccc2[nH]5)C=C4)C=C3)cc1
REMARK SMILES IDX 7 1 6 2 5 3 4 4 3 5 2 6 1 7 31 8 32 9 93 10 33 11 92 12
REMARK SMILES IDX 34 13 35 14 36 15 86 16 37 17 91 18 85 19 87 20 38 21 90 22
REMARK SMILES IDX 84 23 83 24 39 26 71 27 51 28 70 29 52 30 55 31 69 32 88 33
REMARK SMILES IDX 53 34 54 35 68 37 89 38 56 39 40 40 41 41 49 42 42 43 48 44
REMARK SMILES IDX 50 45 47 46 43 47 44 48 45 49 46 50 72 51 73 52 81 53 74 54
REMARK SMILES IDX 80 55 82 56 79 57 75 58 76 59 77 60 78 61 57 62 58 63 66 64
REMARK SMILES IDX 59 65 65 66 67 67 64 68 60 69 61 70 62 71 63 72 8 73 9 74
REMARK SMILES IDX 10 75 11 76 12 77 13 78 14 79 15 80 16 81 29 82 17 83 28 84
REMARK SMILES IDX 30 85 26 86 27 88 18 89 19 90 20 91 25 92 21 93 22 94 23 95
REMARK SMILES IDX 24 96
REMARK H PARENT 87 25 55 36 28 87
REMARK Flexibility Score: inf
ROOT
ATOM      1  C   UNL A   1      34.634  33.402  28.033  1.00  0.00     0.188 C 
ENDROOT
BRANCH   1   2
ATOM      2  O   UNL A   1      33.621  34.274  28.470  1.00  0.00    -0.376 OA
BRANCH   2   3
ATOM      3  C   UNL A   1      33.518  34.651  29.825  1.00  0.00     0.202 C 
BRANCH   3   4
ATOM      4  C   UNL A   1      34.500  34.217  30.922  1.00  0.00     0.261 C 
BRANCH   4   5
ATOM      5  O   UNL A   1      34.610  32.870  31.441  1.00  0.00    -0.460 OA
BRANCH   5   6
ATOM      6  C   UNL A   1      35.508  32.214  32.210  1.00  0.00     0.338 C 
ATOM      7  O   UNL A   1      35.576  32.452  33.412  1.00  0.00    -0.246 OA
BRANCH   6   8
ATOM      8  C   UNL A   1      36.572  31.407  31.573  1.00  0.00     0.060 A 
ATOM      9  C   UNL A   1      36.530  31.234  30.178  1.00  0.00     0.016 A 
ATOM     10  C   UNL A   1      37.595  30.820  32.305  1.00  0.00     0.016 A 
ATOM     11  C   UNL A   1      37.476  30.423  29.538  1.00  0.00     0.010 A 
ATOM     12  C   UNL A   1      38.480  29.938  31.686  1.00  0.00     0.010 A 
ATOM     13  C   UNL A   1      38.450  29.754  30.294  1.00  0.00    -0.014 A 
BRANCH  13  14
ATOM     14  C   UNL A   1      39.674  29.213  29.653  1.00  0.00     0.031 A 
ATOM     15  C   UNL A   1      39.854  27.783  29.239  1.00  0.00     0.074 A 
ATOM     16  C   UNL A   1      40.721  30.060  29.623  1.00  0.00     0.049 A 
ATOM     17  N   UNL A   1      40.839  27.254  28.558  1.00  0.00    -0.248 NA
ATOM     18  C   UNL A   1      38.834  26.810  29.657  1.00  0.00     0.031 C 
ATOM     19  C   UNL A   1      40.702  31.426  30.159  1.00  0.00     0.029 A 
ATOM     20  N   UNL A   1      42.010  29.884  29.205  1.00  0.00    -0.354 N 
ATOM     21  C   UNL A   1      40.516  25.914  28.374  1.00  0.00     0.074 A 
ATOM     22  C   UNL A   1      39.301  25.680  29.123  1.00  0.00     0.031 C 
ATOM     23  C   UNL A   1      41.938  31.934  30.104  1.00  0.00     0.029 A 
ATOM     24  C   UNL A   1      42.823  30.952  29.490  1.00  0.00     0.049 A 
ATOM     25  H   UNL A   1      42.324  29.072  28.745  1.00  0.00     0.167 HD
ATOM     26  C   UNL A   1      41.170  25.007  27.605  1.00  0.00     0.034 A 
ATOM     27  C   UNL A   1      44.138  31.133  29.272  1.00  0.00     0.034 A 
ATOM     28  C   UNL A   1      42.446  25.266  26.993  1.00  0.00     0.049 A 
ATOM     29  C   UNL A   1      44.867  30.098  28.469  1.00  0.00     0.074 A 
ATOM     30  C   UNL A   1      43.159  24.446  26.136  1.00  0.00     0.029 A 
ATOM     31  N   UNL A   1      43.223  26.391  27.216  1.00  0.00    -0.354 N 
ATOM     32  N   UNL A   1      44.422  28.952  28.013  1.00  0.00    -0.248 NA
ATOM     33  C   UNL A   1      46.253  30.399  28.099  1.00  0.00     0.031 C 
ATOM     34  C   UNL A   1      44.399  25.041  25.905  1.00  0.00     0.029 A 
ATOM     35  C   UNL A   1      44.440  26.256  26.570  1.00  0.00     0.049 A 
ATOM     36  H   UNL A   1      42.951  27.170  27.753  1.00  0.00     0.167 HD
ATOM     37  C   UNL A   1      45.466  28.401  27.280  1.00  0.00     0.074 A 
ATOM     38  C   UNL A   1      46.550  29.362  27.327  1.00  0.00     0.031 C 
ATOM     39  C   UNL A   1      45.522  27.209  26.633  1.00  0.00     0.034 A 
BRANCH  26  40
ATOM     40  C   UNL A   1      40.531  23.689  27.235  1.00  0.00     0.023 A 
ATOM     41  C   UNL A   1      41.234  22.473  27.237  1.00  0.00     0.031 A 
ATOM     42  C   UNL A   1      39.298  23.725  26.555  1.00  0.00     0.131 A 
ATOM     43  C   UNL A   1      40.669  21.343  26.609  1.00  0.00     0.055 A 
ATOM     44  C   UNL A   1      38.724  22.593  25.975  1.00  0.00     0.041 A 
ATOM     45  F   UNL A   1      38.652  24.890  26.388  1.00  0.00    -0.206 F 
ATOM     46  C   UNL A   1      39.405  21.389  26.012  1.00  0.00     0.022 A 
BRANCH  43  47
ATOM     47  S   UNL A   1      41.621  19.816  26.359  1.00  0.00     0.124 S 
ATOM     48  O   UNL A   1      40.613  18.939  25.769  1.00  0.00    -0.237 OA
ATOM     49  O   UNL A   1      42.675  20.254  25.447  1.00  0.00    -0.237 OA
ATOM     50  O   UNL A   1      42.060  19.460  27.702  1.00  0.00    -0.744 OA
ENDBRANCH  43  47
ENDBRANCH  26  40
BRANCH  27  51
ATOM     51  C   UNL A   1      44.751  32.412  29.722  1.00  0.00     0.023 A 
ATOM     52  C   UNL A   1      44.727  33.544  28.885  1.00  0.00     0.031 A 
ATOM     53  C   UNL A   1      45.536  32.458  30.883  1.00  0.00     0.131 A 
ATOM     54  C   UNL A   1      45.543  34.642  29.182  1.00  0.00     0.055 A 
ATOM     55  C   UNL A   1      46.289  33.584  31.214  1.00  0.00     0.041 A 
ATOM     56  F   UNL A   1      45.614  31.388  31.689  1.00  0.00    -0.206 F 
ATOM     57  C   UNL A   1      46.312  34.676  30.350  1.00  0.00     0.022 A 
BRANCH  54  58
ATOM     58  S   UNL A   1      45.771  35.981  27.977  1.00  0.00     0.124 S 
ATOM     59  O   UNL A   1      44.799  36.970  28.434  1.00  0.00    -0.237 OA
ATOM     60  O   UNL A   1      47.173  36.331  28.182  1.00  0.00    -0.237 OA
ATOM     61  O   UNL A   1      45.472  35.348  26.697  1.00  0.00    -0.744 OA
ENDBRANCH  54  58
ENDBRANCH  27  51
BRANCH  39  62
ATOM     62  C   UNL A   1      46.814  26.829  25.954  1.00  0.00     0.023 A 
ATOM     63  C   UNL A   1      47.849  26.222  26.689  1.00  0.00     0.031 A 
ATOM     64  C   UNL A   1      47.070  27.197  24.622  1.00  0.00     0.131 A 
ATOM     65  C   UNL A   1      49.105  26.041  26.100  1.00  0.00     0.055 A 
ATOM     66  C   UNL A   1      48.302  26.952  24.018  1.00  0.00     0.041 A 
ATOM     67  F   UNL A   1      46.121  27.800  23.886  1.00  0.00    -0.206 F 
ATOM     68  C   UNL A   1      49.331  26.386  24.764  1.00  0.00     0.022 A 
BRANCH  65  69
ATOM     69  S   UNL A   1      50.519  25.464  27.078  1.00  0.00     0.124 S 
ATOM     70  O   UNL A   1      50.769  26.610  27.948  1.00  0.00    -0.237 OA
ATOM     71  O   UNL A   1      49.972  24.283  27.740  1.00  0.00    -0.237 OA
ATOM     72  O   UNL A   1      51.551  25.199  26.081  1.00  0.00    -0.744 OA
ENDBRANCH  65  69
ENDBRANCH  39  62
ENDBRANCH  13  14
ENDBRANCH   6   8
ENDBRANCH   5   6
ENDBRANCH   4   5
ENDBRANCH   3   4
ENDBRANCH   2   3
ENDBRANCH   1   2
BRANCH   1  73
ATOM     73  C   UNL A   1      34.279  31.931  27.792  1.00  0.00     0.188 C 
BRANCH  73  74
ATOM     74  O   UNL A   1      32.999  31.595  27.291  1.00  0.00    -0.376 OA
BRANCH  74  75
ATOM     75  C   UNL A   1      32.664  30.224  27.131  1.00  0.00     0.202 C 
BRANCH  75  76
ATOM     76  C   UNL A   1      33.672  29.097  27.421  1.00  0.00     0.261 C 
BRANCH  76  77
ATOM     77  O   UNL A   1      33.524  27.915  26.621  1.00  0.00    -0.459 OA
BRANCH  77  78
ATOM     78  C   UNL A   1      32.266  27.424  26.493  1.00  0.00     0.345 C 
ATOM     79  O   UNL A   1      31.439  27.301  27.388  1.00  0.00    -0.246 OA
BRANCH  78  80
ATOM     80  C   UNL A   1      32.053  27.005  25.109  1.00  0.00     0.141 A 
ATOM     81  C   UNL A   1      31.985  25.696  24.852  1.00  0.00     0.112 A 
ATOM     82  C   UNL A   1      31.841  27.941  23.989  1.00  0.00     0.268 A 
ATOM     83  N   UNL A   1      31.759  25.221  23.575  1.00  0.00    -0.299 N 
ATOM     84  N   UNL A   1      31.893  27.389  22.740  1.00  0.00    -0.273 N 
ATOM     85  O   UNL A   1      31.679  29.147  24.137  1.00  0.00    -0.268 OA
ATOM     86  C   UNL A   1      31.816  26.054  22.463  1.00  0.00     0.328 A 
ATOM     87  H   UNL A   1      31.995  28.003  21.978  1.00  0.00     0.175 HD
ATOM     88  O   UNL A   1      31.724  25.679  21.299  1.00  0.00    -0.248 OA
BRANCH  83  89
ATOM     89  C   UNL A   1      31.478  23.810  23.381  1.00  0.00     0.131 C 
BRANCH  89  90
ATOM     90  C   UNL A   1      32.689  22.933  23.006  1.00  0.00     0.025 C 
ATOM     91  C   UNL A   1      32.342  21.523  22.506  1.00  0.00     0.022 C 
ATOM     92  C   UNL A   1      33.760  22.784  24.083  1.00  0.00     0.142 C 
ATOM     93  C   UNL A   1      32.332  20.557  23.680  1.00  0.00     0.137 C 
ATOM     94  S   UNL A   1      33.473  21.214  24.876  1.00  0.00     0.150 S 
ATOM     95  O   UNL A   1      32.766  21.431  26.121  1.00  0.00    -0.229 OA
ATOM     96  O   UNL A   1      34.699  20.443  24.827  1.00  0.00    -0.229 OA
ENDBRANCH  89  90
ENDBRANCH  83  89
ENDBRANCH  78  80
ENDBRANCH  77  78
ENDBRANCH  76  77
ENDBRANCH  75  76
ENDBRANCH  74  75
ENDBRANCH  73  74
ENDBRANCH   1  73
TORSDOF 22
ENDMDL
MODEL 3
REMARK VINA RESULT:     -10.2      4.059      6.064
REMARK SMILES O=C(OCCOCCOCCOC(=O)c1cn(C[C@@H]2CCS(=O)(=O)C2)c(=O)[nH]c1=O)c1ccc(-c2c3nc(c(-c4cc(S(=O)(=O)[O-])ccc4F)c4ccc([nH]4)c(-c4cc(S(=O)(=O)[O-])ccc4F)c4nc(c(-c5cc(S(=O)(=O)[O-])ccc5F)c5ccc2[nH]5)C=C4)C=C3)cc1
REMARK SMILES IDX 7 1 6 2 5 3 4 4 3 5 2 6 1 7 31 8 32 9 93 10 33 11 92 12
REMARK SMILES IDX 34 13 35 14 36 15 86 16 37 17 91 18 85 19 87 20 38 21 90 22
REMARK SMILES IDX 84 23 83 24 39 26 71 27 51 28 70 29 52 30 55 31 69 32 88 33
REMARK SMILES IDX 53 34 54 35 68 37 89 38 56 39 40 40 41 41 49 42 42 43 48 44
REMARK SMILES IDX 50 45 47 46 43 47 44 48 45 49 46 50 72 51 73 52 81 53 74 54
REMARK SMILES IDX 80 55 82 56 79 57 75 58 76 59 77 60 78 61 57 62 58 63 66 64
REMARK SMILES IDX 59 65 65 66 67 67 64 68 60 69 61 70 62 71 63 72 8 73 9 74
REMARK SMILES IDX 10 75 11 76 12 77 13 78 14 79 15 80 16 81 29 82 17 83 28 84
REMARK SMILES IDX 30 85 26 86 27 88 18 89 19 90 20 91 25 92 21 93 22 94 23 95
REMARK SMILES IDX 24 96
REMARK H PARENT 87 25 55 36 28 87
REMARK Flexibility Score: inf
ROOT
ATOM      1  C   UNL A   1      41.589  20.634  27.431  1.00  0.00     0.188 C 
ENDROOT
BRANCH   1   2
ATOM      2  O   UNL A   1      42.040  19.724  26.459  1.00  0.00    -0.376 OA
BRANCH   2   3
ATOM      3  C   UNL A   1      43.111  20.045  25.599  1.00  0.00     0.202 C 
BRANCH   3   4
ATOM      4  C   UNL A   1      43.814  21.409  25.565  1.00  0.00     0.261 C 
BRANCH   4   5
ATOM      5  O   UNL A   1      43.207  22.636  25.095  1.00  0.00    -0.460 OA
BRANCH   5   6
ATOM      6  C   UNL A   1      43.581  23.935  25.062  1.00  0.00     0.338 C 
ATOM      7  O   UNL A   1      44.598  24.266  24.459  1.00  0.00    -0.246 OA
BRANCH   6   8
ATOM      8  C   UNL A   1      42.921  24.913  25.954  1.00  0.00     0.060 A 
ATOM      9  C   UNL A   1      41.854  24.469  26.755  1.00  0.00     0.016 A 
ATOM     10  C   UNL A   1      43.320  26.241  26.020  1.00  0.00     0.016 A 
ATOM     11  C   UNL A   1      41.154  25.373  27.564  1.00  0.00     0.010 A 
ATOM     12  C   UNL A   1      42.569  27.161  26.751  1.00  0.00     0.010 A 
ATOM     13  C   UNL A   1      41.499  26.733  27.554  1.00  0.00    -0.014 A 
BRANCH  13  14
ATOM     14  C   UNL A   1      41.065  27.638  28.647  1.00  0.00     0.031 A 
ATOM     15  C   UNL A   1      39.956  28.642  28.528  1.00  0.00     0.074 A 
ATOM     16  C   UNL A   1      41.860  27.638  29.734  1.00  0.00     0.049 A 
ATOM     17  N   UNL A   1      39.429  29.381  29.470  1.00  0.00    -0.248 NA
ATOM     18  C   UNL A   1      39.383  28.882  27.196  1.00  0.00     0.031 C 
ATOM     19  C   UNL A   1      43.068  26.818  29.881  1.00  0.00     0.029 A 
ATOM     20  N   UNL A   1      41.828  28.393  30.873  1.00  0.00    -0.354 N 
ATOM     21  C   UNL A   1      38.396  30.098  28.876  1.00  0.00     0.074 A 
ATOM     22  C   UNL A   1      38.451  29.798  27.462  1.00  0.00     0.031 C 
ATOM     23  C   UNL A   1      43.700  27.169  31.006  1.00  0.00     0.029 A 
ATOM     24  C   UNL A   1      42.921  28.201  31.681  1.00  0.00     0.049 A 
ATOM     25  H   UNL A   1      41.095  29.012  31.092  1.00  0.00     0.167 HD
ATOM     26  C   UNL A   1      37.477  30.884  29.492  1.00  0.00     0.034 A 
ATOM     27  C   UNL A   1      43.259  28.780  32.847  1.00  0.00     0.034 A 
ATOM     28  C   UNL A   1      37.557  31.249  30.883  1.00  0.00     0.049 A 
ATOM     29  C   UNL A   1      42.262  29.692  33.495  1.00  0.00     0.074 A 
ATOM     30  C   UNL A   1      36.643  31.977  31.622  1.00  0.00     0.029 A 
ATOM     31  N   UNL A   1      38.626  30.972  31.718  1.00  0.00    -0.354 N 
ATOM     32  N   UNL A   1      41.105  30.102  33.032  1.00  0.00    -0.248 NA
ATOM     33  C   UNL A   1      42.580  30.175  34.841  1.00  0.00     0.031 C 
ATOM     34  C   UNL A   1      37.196  32.207  32.882  1.00  0.00     0.029 A 
ATOM     35  C   UNL A   1      38.428  31.576  32.948  1.00  0.00     0.049 A 
ATOM     36  H   UNL A   1      39.410  30.428  31.475  1.00  0.00     0.167 HD
ATOM     37  C   UNL A   1      40.543  30.875  34.040  1.00  0.00     0.074 A 
ATOM     38  C   UNL A   1      41.475  30.842  35.150  1.00  0.00     0.031 C 
ATOM     39  C   UNL A   1      39.367  31.553  34.044  1.00  0.00     0.034 A 
BRANCH  26  40
ATOM     40  C   UNL A   1      36.224  31.333  28.777  1.00  0.00     0.023 A 
ATOM     41  C   UNL A   1      35.733  32.647  28.849  1.00  0.00     0.031 A 
ATOM     42  C   UNL A   1      35.349  30.338  28.300  1.00  0.00     0.131 A 
ATOM     43  C   UNL A   1      34.423  32.924  28.407  1.00  0.00     0.055 A 
ATOM     44  C   UNL A   1      34.069  30.627  27.822  1.00  0.00     0.041 A 
ATOM     45  F   UNL A   1      35.704  29.045  28.348  1.00  0.00    -0.206 F 
ATOM     46  C   UNL A   1      33.605  31.929  27.862  1.00  0.00     0.022 A 
BRANCH  43  47
ATOM     47  S   UNL A   1      33.641  34.539  28.696  1.00  0.00     0.124 S 
ATOM     48  O   UNL A   1      33.399  34.490  30.135  1.00  0.00    -0.237 OA
ATOM     49  O   UNL A   1      34.684  35.469  28.271  1.00  0.00    -0.237 OA
ATOM     50  O   UNL A   1      32.452  34.500  27.854  1.00  0.00    -0.744 OA
ENDBRANCH  43  47
ENDBRANCH  26  40
BRANCH  27  51
ATOM     51  C   UNL A   1      44.540  28.371  33.483  1.00  0.00     0.023 A 
ATOM     52  C   UNL A   1      45.742  29.020  33.139  1.00  0.00     0.031 A 
ATOM     53  C   UNL A   1      44.610  27.211  34.269  1.00  0.00     0.131 A 
ATOM     54  C   UNL A   1      46.967  28.453  33.513  1.00  0.00     0.055 A 
ATOM     55  C   UNL A   1      45.829  26.692  34.702  1.00  0.00     0.041 A 
ATOM     56  F   UNL A   1      43.491  26.544  34.588  1.00  0.00    -0.206 F 
ATOM     57  C   UNL A   1      47.018  27.301  34.306  1.00  0.00     0.022 A 
BRANCH  54  58
ATOM     58  S   UNL A   1      48.527  29.086  32.835  1.00  0.00     0.124 S 
ATOM     59  O   UNL A   1      48.799  28.136  31.760  1.00  0.00    -0.237 OA
ATOM     60  O   UNL A   1      48.144  30.429  32.410  1.00  0.00    -0.237 OA
ATOM     61  O   UNL A   1      49.443  29.033  33.969  1.00  0.00    -0.744 OA
ENDBRANCH  54  58
ENDBRANCH  27  51
BRANCH  39  62
ATOM     62  C   UNL A   1      39.020  32.369  35.264  1.00  0.00     0.023 A 
ATOM     63  C   UNL A   1      39.478  33.693  35.385  1.00  0.00     0.031 A 
ATOM     64  C   UNL A   1      38.363  31.788  36.363  1.00  0.00     0.131 A 
ATOM     65  C   UNL A   1      39.310  34.379  36.593  1.00  0.00     0.055 A 
ATOM     66  C   UNL A   1      38.137  32.498  37.540  1.00  0.00     0.041 A 
ATOM     67  F   UNL A   1      37.927  30.518  36.305  1.00  0.00    -0.206 F 
ATOM     68  C   UNL A   1      38.627  33.795  37.664  1.00  0.00     0.022 A 
BRANCH  65  69
ATOM     69  S   UNL A   1      40.075  36.001  36.858  1.00  0.00     0.124 S 
ATOM     70  O   UNL A   1      39.314  36.509  37.997  1.00  0.00    -0.237 OA
ATOM     71  O   UNL A   1      41.462  35.644  37.143  1.00  0.00    -0.237 OA
ATOM     72  O   UNL A   1      39.856  36.703  35.598  1.00  0.00    -0.744 OA
ENDBRANCH  65  69
ENDBRANCH  39  62
ENDBRANCH  13  14
ENDBRANCH   6   8
ENDBRANCH   5   6
ENDBRANCH   4   5
ENDBRANCH   3   4
ENDBRANCH   2   3
ENDBRANCH   1   2
BRANCH   1  73
ATOM     73  C   UNL A   1      40.386  21.524  27.099  1.00  0.00     0.188 C 
BRANCH  73  74
ATOM     74  O   UNL A   1      39.771  21.419  25.830  1.00  0.00    -0.376 OA
BRANCH  74  75
ATOM     75  C   UNL A   1      38.361  21.570  25.737  1.00  0.00     0.202 C 
BRANCH  75  76
ATOM     76  C   UNL A   1      37.676  22.941  25.879  1.00  0.00     0.261 C 
BRANCH  76  77
ATOM     77  O   UNL A   1      36.317  22.906  26.341  1.00  0.00    -0.459 OA
BRANCH  77  78
ATOM     78  C   UNL A   1      35.412  22.326  25.514  1.00  0.00     0.345 C 
ATOM     79  O   UNL A   1      35.658  21.585  24.571  1.00  0.00    -0.246 OA
BRANCH  78  80
ATOM     80  C   UNL A   1      34.069  22.768  25.888  1.00  0.00     0.141 A 
ATOM     81  C   UNL A   1      33.807  24.077  25.856  1.00  0.00     0.112 A 
ATOM     82  C   UNL A   1      32.967  21.850  26.233  1.00  0.00     0.268 A 
ATOM     83  N   UNL A   1      32.555  24.571  26.170  1.00  0.00    -0.299 N 
ATOM     84  N   UNL A   1      31.860  22.436  26.781  1.00  0.00    -0.273 N 
ATOM     85  O   UNL A   1      33.033  20.633  26.098  1.00  0.00    -0.268 OA
ATOM     86  C   UNL A   1      31.576  23.770  26.747  1.00  0.00     0.328 A 
ATOM     87  H   UNL A   1      31.216  21.848  27.236  1.00  0.00     0.175 HD
ATOM     88  O   UNL A   1      30.484  24.170  27.139  1.00  0.00    -0.248 OA
BRANCH  83  89
ATOM     89  C   UNL A   1      32.259  25.968  25.913  1.00  0.00     0.131 C 
BRANCH  89  90
ATOM     90  C   UNL A   1      31.493  26.260  24.607  1.00  0.00     0.025 C 
ATOM     91  C   UNL A   1      32.303  26.063  23.318  1.00  0.00     0.022 C 
ATOM     92  C   UNL A   1      30.824  27.629  24.521  1.00  0.00     0.142 C 
ATOM     93  C   UNL A   1      32.957  27.378  22.926  1.00  0.00     0.137 C 
ATOM     94  S   UNL A   1      31.905  28.666  23.557  1.00  0.00     0.150 S 
ATOM     95  O   UNL A   1      32.681  29.504  24.448  1.00  0.00    -0.229 OA
ATOM     96  O   UNL A   1      31.144  29.230  22.459  1.00  0.00    -0.229 OA
ENDBRANCH  89  90
ENDBRANCH  83  89
ENDBRANCH  78  80
ENDBRANCH  77  78
ENDBRANCH  76  77
ENDBRANCH  75  76
ENDBRANCH  74  75
ENDBRANCH  73  74
ENDBRANCH   1  73
TORSDOF 22
ENDMDL
