MODEL 1
REMARK VINA RESULT:     -10.4      0.000      0.000
REMARK SMILES CCC[N@@H+]1CC2(CC[NH+](C(=O)Cn3nnnc3C)CC2)C[C@H]1C(=O)OCCOCCOCCOC(=O)c1ccc(-c2c3nc(c(-c4cc(S(=O)(=O)[O-])ccc4F)c4ccc([nH]4)c(-c4cc(S(=O)(=O)[O-])ccc4F)c4nc(c(-c5cc(S(=O)(=O)[O-])ccc5F)c5ccc2[nH]5)C=C4)C=C3)cc1
REMARK SMILES IDX 29 1 28 2 27 3 26 4 25 5 23 6 24 7 22 8 4 9 5 10 6 12 21 13
REMARK SMILES IDX 7 14 20 15 8 16 19 17 9 18 3 20 2 21 1 22 10 23 11 24 12 25
REMARK SMILES IDX 13 26 14 27 17 28 15 29 16 30 18 31 30 32 31 33 32 34 33 35
REMARK SMILES IDX 34 36 35 37 36 38 37 39 38 40 99 41 39 42 98 43 40 44 41 45
REMARK SMILES IDX 42 46 92 47 43 48 97 49 91 50 93 51 44 52 96 53 90 54 89 55
REMARK SMILES IDX 45 57 77 58 57 59 76 60 58 61 61 62 75 63 94 64 59 65 60 66
REMARK SMILES IDX 74 68 95 69 62 70 46 71 47 72 55 73 48 74 54 75 56 76 53 77
REMARK SMILES IDX 49 78 50 79 51 80 52 81 78 82 79 83 87 84 80 85 86 86 88 87
REMARK SMILES IDX 85 88 81 89 82 90 83 91 84 92 63 93 64 94 72 95 65 96 71 97
REMARK SMILES IDX 73 98 70 99 66 100 67 101 68 102 69 103
REMARK H PARENT 4 11 9 19 93 56 61 67
REMARK Flexibility Score: inf
ROOT
ATOM      1  C   UNL A   1      33.044  28.826  24.692  1.00  0.00     0.188 C 
ENDROOT
BRANCH   1   2
ATOM      2  O   UNL A   1      32.606  27.482  24.777  1.00  0.00    -0.376 OA
BRANCH   2   3
ATOM      3  C   UNL A   1      32.165  26.958  26.018  1.00  0.00     0.202 C 
BRANCH   3   4
ATOM      4  C   UNL A   1      30.852  26.158  26.146  1.00  0.00     0.261 C 
BRANCH   4   5
ATOM      5  O   UNL A   1      30.975  24.762  26.475  1.00  0.00    -0.459 OA
BRANCH   5   6
ATOM      6  C   UNL A   1      30.993  23.892  25.441  1.00  0.00     0.365 C 
ATOM      7  O   UNL A   1      30.548  24.157  24.324  1.00  0.00    -0.245 OA
BRANCH   6   8
ATOM      8  C   UNL A   1      31.567  22.496  25.745  1.00  0.00     0.295 C 
ATOM      9  N   UNL A   1      32.195  21.712  24.642  1.00  0.00    -0.323 N 
ATOM     10  C   UNL A   1      33.549  22.213  24.502  1.00  0.00     0.270 C 
ATOM     11  H   UNL A   1      31.724  21.844  23.746  1.00  0.00     0.348 HD
ATOM     12  C   UNL A   1      33.986  22.684  25.902  1.00  0.00     0.036 C 
ATOM     13  C   UNL A   1      32.693  22.680  26.743  1.00  0.00     0.091 C 
ATOM     14  C   UNL A   1      34.612  24.091  25.787  1.00  0.00     0.075 C 
ATOM     15  C   UNL A   1      34.992  21.744  26.587  1.00  0.00     0.075 C 
ATOM     16  C   UNL A   1      35.971  24.041  25.085  1.00  0.00     0.271 C 
ATOM     17  C   UNL A   1      36.341  21.733  25.888  1.00  0.00     0.271 C 
ATOM     18  N   UNL A   1      36.861  23.088  25.759  1.00  0.00    -0.270 N 
ATOM     19  H   UNL A   1      35.947  23.286  25.453  1.00  0.00     0.356 HD
BRANCH   9  20
ATOM     20  C   UNL A   1      32.044  20.257  24.842  1.00  0.00     0.262 C 
BRANCH  20  21
ATOM     21  C   UNL A   1      32.402  19.298  23.684  1.00  0.00     0.058 C 
ATOM     22  C   UNL A   1      32.919  17.937  24.139  1.00  0.00     0.010 C 
ENDBRANCH  20  21
ENDBRANCH   9  20
BRANCH  18  23
ATOM     23  C   UNL A   1      38.130  23.354  26.241  1.00  0.00     0.333 C 
ATOM     24  O   UNL A   1      38.324  24.136  27.176  1.00  0.00    -0.229 OA
BRANCH  23  25
ATOM     25  C   UNL A   1      39.310  22.656  25.621  1.00  0.00     0.293 C 
BRANCH  25  26
ATOM     26  N   UNL A   1      39.898  21.662  26.488  1.00  0.00    -0.216 N 
ATOM     27  N   UNL A   1      40.544  22.071  27.596  1.00  0.00    -0.044 NA
ATOM     28  C   UNL A   1      39.946  20.293  26.408  1.00  0.00     0.149 A 
ATOM     29  N   UNL A   1      41.007  20.969  28.160  1.00  0.00    -0.024 NA
ATOM     30  N   UNL A   1      40.645  19.862  27.440  1.00  0.00    -0.114 NA
ATOM     31  C   UNL A   1      39.347  19.439  25.360  1.00  0.00     0.091 C 
ENDBRANCH  25  26
ENDBRANCH  23  25
ENDBRANCH  18  23
ENDBRANCH   6   8
ENDBRANCH   5   6
ENDBRANCH   4   5
ENDBRANCH   3   4
ENDBRANCH   2   3
ENDBRANCH   1   2
BRANCH   1  32
ATOM     32  C   UNL A   1      32.818  29.813  25.854  1.00  0.00     0.188 C 
BRANCH  32  33
ATOM     33  O   UNL A   1      33.614  29.655  27.006  1.00  0.00    -0.376 OA
BRANCH  33  34
ATOM     34  C   UNL A   1      34.898  30.227  27.168  1.00  0.00     0.202 C 
BRANCH  34  35
ATOM     35  C   UNL A   1      35.379  30.951  28.421  1.00  0.00     0.261 C 
BRANCH  35  36
ATOM     36  O   UNL A   1      36.775  31.013  28.581  1.00  0.00    -0.460 OA
BRANCH  36  37
ATOM     37  C   UNL A   1      37.238  30.226  29.571  1.00  0.00     0.338 C 
ATOM     38  O   UNL A   1      37.012  30.337  30.772  1.00  0.00    -0.246 OA
BRANCH  37  39
ATOM     39  C   UNL A   1      38.067  29.188  28.967  1.00  0.00     0.060 A 
ATOM     40  C   UNL A   1      38.502  28.168  29.812  1.00  0.00     0.016 A 
ATOM     41  C   UNL A   1      38.680  29.478  27.740  1.00  0.00     0.016 A 
ATOM     42  C   UNL A   1      39.756  27.665  29.589  1.00  0.00     0.010 A 
ATOM     43  C   UNL A   1      39.944  29.003  27.540  1.00  0.00     0.010 A 
ATOM     44  C   UNL A   1      40.498  28.201  28.532  1.00  0.00    -0.014 A 
BRANCH  44  45
ATOM     45  C   UNL A   1      41.895  27.869  28.439  1.00  0.00     0.031 A 
ATOM     46  C   UNL A   1      42.104  26.603  27.724  1.00  0.00     0.074 A 
ATOM     47  C   UNL A   1      42.859  28.691  28.892  1.00  0.00     0.049 A 
ATOM     48  N   UNL A   1      42.420  25.470  28.248  1.00  0.00    -0.248 NA
ATOM     49  C   UNL A   1      41.671  26.521  26.319  1.00  0.00     0.031 C 
ATOM     50  C   UNL A   1      42.729  30.055  29.410  1.00  0.00     0.029 A 
ATOM     51  N   UNL A   1      44.202  28.497  28.884  1.00  0.00    -0.354 N 
ATOM     52  C   UNL A   1      42.497  24.591  27.180  1.00  0.00     0.074 A 
ATOM     53  C   UNL A   1      41.778  25.210  26.100  1.00  0.00     0.031 C 
ATOM     54  C   UNL A   1      43.952  30.636  29.437  1.00  0.00     0.029 A 
ATOM     55  C   UNL A   1      44.954  29.655  29.047  1.00  0.00     0.049 A 
ATOM     56  H   UNL A   1      44.611  27.610  28.771  1.00  0.00     0.167 HD
ATOM     57  C   UNL A   1      43.402  23.580  27.186  1.00  0.00     0.034 A 
ATOM     58  C   UNL A   1      46.286  29.796  28.796  1.00  0.00     0.034 A 
ATOM     59  C   UNL A   1      43.916  23.352  28.519  1.00  0.00     0.049 A 
ATOM     60  C   UNL A   1      46.874  28.429  28.854  1.00  0.00     0.074 A 
ATOM     61  C   UNL A   1      43.333  23.028  29.731  1.00  0.00     0.029 A 
ATOM     62  N   UNL A   1      45.158  23.862  28.828  1.00  0.00    -0.354 N 
ATOM     63  N   UNL A   1      46.924  27.725  29.954  1.00  0.00    -0.248 NA
ATOM     64  C   UNL A   1      46.916  27.642  27.627  1.00  0.00     0.031 C 
ATOM     65  C   UNL A   1      44.040  23.799  30.700  1.00  0.00     0.029 A 
ATOM     66  C   UNL A   1      45.071  24.484  30.052  1.00  0.00     0.049 A 
ATOM     67  H   UNL A   1      45.967  23.794  28.270  1.00  0.00     0.167 HD
ATOM     68  C   UNL A   1      46.541  26.445  29.582  1.00  0.00     0.074 A 
ATOM     69  C   UNL A   1      46.651  26.428  28.124  1.00  0.00     0.031 C 
ATOM     70  C   UNL A   1      45.882  25.621  30.454  1.00  0.00     0.034 A 
BRANCH  57  71
ATOM     71  C   UNL A   1      44.096  23.071  25.949  1.00  0.00     0.023 A 
ATOM     72  C   UNL A   1      43.892  21.722  25.617  1.00  0.00     0.031 A 
ATOM     73  C   UNL A   1      45.140  23.729  25.255  1.00  0.00     0.131 A 
ATOM     74  C   UNL A   1      44.746  21.069  24.716  1.00  0.00     0.055 A 
ATOM     75  C   UNL A   1      45.938  23.094  24.303  1.00  0.00     0.041 A 
ATOM     76  F   UNL A   1      45.518  24.984  25.521  1.00  0.00    -0.206 F 
ATOM     77  C   UNL A   1      45.765  21.746  24.051  1.00  0.00     0.022 A 
BRANCH  74  78
ATOM     78  S   UNL A   1      44.610  19.272  24.564  1.00  0.00     0.124 S 
ATOM     79  O   UNL A   1      45.535  18.820  25.597  1.00  0.00    -0.237 OA
ATOM     80  O   UNL A   1      43.191  19.057  24.829  1.00  0.00    -0.237 OA
ATOM     81  O   UNL A   1      45.034  19.017  23.189  1.00  0.00    -0.744 OA
ENDBRANCH  74  78
ENDBRANCH  57  71
BRANCH  58  82
ATOM     82  C   UNL A   1      46.969  30.972  28.176  1.00  0.00     0.023 A 
ATOM     83  C   UNL A   1      46.329  31.853  27.274  1.00  0.00     0.031 A 
ATOM     84  C   UNL A   1      48.231  31.386  28.664  1.00  0.00     0.131 A 
ATOM     85  C   UNL A   1      46.948  33.074  26.902  1.00  0.00     0.055 A 
ATOM     86  C   UNL A   1      48.838  32.587  28.290  1.00  0.00     0.041 A 
ATOM     87  F   UNL A   1      48.887  30.679  29.597  1.00  0.00    -0.206 F 
ATOM     88  C   UNL A   1      48.194  33.442  27.414  1.00  0.00     0.022 A 
BRANCH  85  89
ATOM     89  S   UNL A   1      46.097  34.262  25.809  1.00  0.00     0.124 S 
ATOM     90  O   UNL A   1      47.182  34.736  24.959  1.00  0.00    -0.237 OA
ATOM     91  O   UNL A   1      45.085  33.432  25.167  1.00  0.00    -0.237 OA
ATOM     92  O   UNL A   1      45.566  35.261  26.738  1.00  0.00    -0.744 OA
ENDBRANCH  85  89
ENDBRANCH  58  82
BRANCH  70  93
ATOM     93  C   UNL A   1      45.820  26.029  31.918  1.00  0.00     0.023 A 
ATOM     94  C   UNL A   1      44.661  26.498  32.582  1.00  0.00     0.031 A 
ATOM     95  C   UNL A   1      46.972  25.821  32.696  1.00  0.00     0.131 A 
ATOM     96  C   UNL A   1      44.695  26.758  33.968  1.00  0.00     0.055 A 
ATOM     97  C   UNL A   1      46.994  26.054  34.071  1.00  0.00     0.041 A 
ATOM     98  F   UNL A   1      48.097  25.351  32.135  1.00  0.00    -0.206 F 
ATOM     99  C   UNL A   1      45.857  26.531  34.711  1.00  0.00     0.022 A 
BRANCH  96 100
ATOM    100  S   UNL A   1      43.232  27.423  34.827  1.00  0.00     0.124 S 
ATOM    101  O   UNL A   1      42.510  28.131  33.777  1.00  0.00    -0.237 OA
ATOM    102  O   UNL A   1      42.591  26.216  35.343  1.00  0.00    -0.237 OA
ATOM    103  O   UNL A   1      43.809  28.290  35.858  1.00  0.00    -0.744 OA
ENDBRANCH  96 100
ENDBRANCH  70  93
ENDBRANCH  44  45
ENDBRANCH  37  39
ENDBRANCH  36  37
ENDBRANCH  35  36
ENDBRANCH  34  35
ENDBRANCH  33  34
ENDBRANCH  32  33
ENDBRANCH   1  32
TORSDOF 25
ENDMDL
MODEL 2
REMARK VINA RESULT:      -9.8      2.877      8.193
REMARK SMILES CCC[N@@H+]1CC2(CC[NH+](C(=O)Cn3nnnc3C)CC2)C[C@H]1C(=O)OCCOCCOCCOC(=O)c1ccc(-c2c3nc(c(-c4cc(S(=O)(=O)[O-])ccc4F)c4ccc([nH]4)c(-c4cc(S(=O)(=O)[O-])ccc4F)c4nc(c(-c5cc(S(=O)(=O)[O-])ccc5F)c5ccc2[nH]5)C=C4)C=C3)cc1
REMARK SMILES IDX 29 1 28 2 27 3 26 4 25 5 23 6 24 7 22 8 4 9 5 10 6 12 21 13
REMARK SMILES IDX 7 14 20 15 8 16 19 17 9 18 3 20 2 21 1 22 10 23 11 24 12 25
REMARK SMILES IDX 13 26 14 27 17 28 15 29 16 30 18 31 30 32 31 33 32 34 33 35
REMARK SMILES IDX 34 36 35 37 36 38 37 39 38 40 99 41 39 42 98 43 40 44 41 45
REMARK SMILES IDX 42 46 92 47 43 48 97 49 91 50 93 51 44 52 96 53 90 54 89 55
REMARK SMILES IDX 45 57 77 58 57 59 76 60 58 61 61 62 75 63 94 64 59 65 60 66
REMARK SMILES IDX 74 68 95 69 62 70 46 71 47 72 55 73 48 74 54 75 56 76 53 77
REMARK SMILES IDX 49 78 50 79 51 80 52 81 78 82 79 83 87 84 80 85 86 86 88 87
REMARK SMILES IDX 85 88 81 89 82 90 83 91 84 92 63 93 64 94 72 95 65 96 71 97
REMARK SMILES IDX 73 98 70 99 66 100 67 101 68 102 69 103
REMARK H PARENT 4 11 9 19 93 56 61 67
REMARK Flexibility Score: inf
ROOT
ATOM      1  C   UNL A   1      35.140  33.228  29.233  1.00  0.00     0.188 C 
ENDROOT
BRANCH   1   2
ATOM      2  O   UNL A   1      34.635  32.926  27.945  1.00  0.00    -0.376 OA
BRANCH   2   3
ATOM      3  C   UNL A   1      34.270  31.594  27.622  1.00  0.00     0.202 C 
BRANCH   3   4
ATOM      4  C   UNL A   1      32.831  31.219  27.208  1.00  0.00     0.261 C 
BRANCH   4   5
ATOM      5  O   UNL A   1      32.693  30.348  26.071  1.00  0.00    -0.459 OA
BRANCH   5   6
ATOM      6  C   UNL A   1      31.863  29.290  26.212  1.00  0.00     0.365 C 
ATOM      7  O   UNL A   1      31.793  28.616  27.239  1.00  0.00    -0.245 OA
BRANCH   6   8
ATOM      8  C   UNL A   1      31.022  28.925  24.975  1.00  0.00     0.295 C 
ATOM      9  N   UNL A   1      31.577  29.185  23.615  1.00  0.00    -0.323 N 
ATOM     10  C   UNL A   1      32.461  28.076  23.313  1.00  0.00     0.270 C 
ATOM     11  H   UNL A   1      32.132  30.041  23.573  1.00  0.00     0.348 HD
ATOM     12  C   UNL A   1      31.889  26.850  24.049  1.00  0.00     0.036 C 
ATOM     13  C   UNL A   1      30.817  27.422  24.998  1.00  0.00     0.091 C 
ATOM     14  C   UNL A   1      33.031  26.140  24.808  1.00  0.00     0.075 C 
ATOM     15  C   UNL A   1      31.199  25.835  23.121  1.00  0.00     0.075 C 
ATOM     16  C   UNL A   1      33.995  25.447  23.842  1.00  0.00     0.271 C 
ATOM     17  C   UNL A   1      32.180  25.141  22.193  1.00  0.00     0.271 C 
ATOM     18  N   UNL A   1      33.264  24.535  22.955  1.00  0.00    -0.270 N 
ATOM     19  H   UNL A   1      33.274  25.405  23.414  1.00  0.00     0.356 HD
BRANCH   9  20
ATOM     20  C   UNL A   1      30.516  29.475  22.631  1.00  0.00     0.262 C 
BRANCH  20  21
ATOM     21  C   UNL A   1      29.142  29.976  23.132  1.00  0.00     0.058 C 
ATOM     22  C   UNL A   1      29.129  31.441  23.553  1.00  0.00     0.010 C 
ENDBRANCH  20  21
ENDBRANCH   9  20
BRANCH  18  23
ATOM     23  C   UNL A   1      33.530  23.191  22.763  1.00  0.00     0.333 C 
ATOM     24  O   UNL A   1      32.905  22.510  21.944  1.00  0.00    -0.229 OA
BRANCH  23  25
ATOM     25  C   UNL A   1      34.627  22.541  23.562  1.00  0.00     0.293 C 
BRANCH  25  26
ATOM     26  N   UNL A   1      34.130  21.709  24.633  1.00  0.00    -0.216 N 
ATOM     27  N   UNL A   1      33.717  20.461  24.343  1.00  0.00    -0.044 NA
ATOM     28  C   UNL A   1      33.976  21.943  25.976  1.00  0.00     0.149 A 
ATOM     29  N   UNL A   1      33.284  19.960  25.488  1.00  0.00    -0.024 NA
ATOM     30  N   UNL A   1      33.438  20.862  26.506  1.00  0.00    -0.114 NA
ATOM     31  C   UNL A   1      34.323  23.178  26.712  1.00  0.00     0.091 C 
ENDBRANCH  25  26
ENDBRANCH  23  25
ENDBRANCH  18  23
ENDBRANCH   6   8
ENDBRANCH   5   6
ENDBRANCH   4   5
ENDBRANCH   3   4
ENDBRANCH   2   3
ENDBRANCH   1   2
BRANCH   1  32
ATOM     32  C   UNL A   1      34.457  32.689  30.504  1.00  0.00     0.188 C 
BRANCH  32  33
ATOM     33  O   UNL A   1      34.669  33.394  31.706  1.00  0.00    -0.376 OA
BRANCH  33  34
ATOM     34  C   UNL A   1      35.169  32.808  32.893  1.00  0.00     0.202 C 
BRANCH  34  35
ATOM     35  C   UNL A   1      36.614  32.904  33.370  1.00  0.00     0.261 C 
BRANCH  35  36
ATOM     36  O   UNL A   1      37.550  32.191  32.599  1.00  0.00    -0.460 OA
BRANCH  36  37
ATOM     37  C   UNL A   1      38.048  32.899  31.568  1.00  0.00     0.338 C 
ATOM     38  O   UNL A   1      37.939  34.106  31.377  1.00  0.00    -0.246 OA
BRANCH  37  39
ATOM     39  C   UNL A   1      38.765  31.975  30.696  1.00  0.00     0.060 A 
ATOM     40  C   UNL A   1      38.256  30.680  30.605  1.00  0.00     0.016 A 
ATOM     41  C   UNL A   1      40.081  32.305  30.341  1.00  0.00     0.016 A 
ATOM     42  C   UNL A   1      39.162  29.660  30.486  1.00  0.00     0.010 A 
ATOM     43  C   UNL A   1      40.986  31.286  30.259  1.00  0.00     0.010 A 
ATOM     44  C   UNL A   1      40.520  29.990  30.454  1.00  0.00    -0.014 A 
BRANCH  44  45
ATOM     45  C   UNL A   1      41.484  28.930  30.582  1.00  0.00     0.031 A 
ATOM     46  C   UNL A   1      41.804  28.655  31.989  1.00  0.00     0.074 A 
ATOM     47  C   UNL A   1      41.943  28.247  29.517  1.00  0.00     0.049 A 
ATOM     48  N   UNL A   1      42.884  28.986  32.608  1.00  0.00    -0.248 NA
ATOM     49  C   UNL A   1      40.718  28.194  32.869  1.00  0.00     0.031 C 
ATOM     50  C   UNL A   1      41.502  28.322  28.123  1.00  0.00     0.029 A 
ATOM     51  N   UNL A   1      42.858  27.245  29.491  1.00  0.00    -0.354 N 
ATOM     52  C   UNL A   1      42.713  28.516  33.900  1.00  0.00     0.074 A 
ATOM     53  C   UNL A   1      41.302  28.298  34.064  1.00  0.00     0.031 C 
ATOM     54  C   UNL A   1      41.978  27.248  27.449  1.00  0.00     0.029 A 
ATOM     55  C   UNL A   1      42.842  26.478  28.332  1.00  0.00     0.049 A 
ATOM     56  H   UNL A   1      43.481  27.075  30.233  1.00  0.00     0.167 HD
ATOM     57  C   UNL A   1      43.775  28.058  34.610  1.00  0.00     0.034 A 
ATOM     58  C   UNL A   1      43.434  25.263  28.159  1.00  0.00     0.034 A 
ATOM     59  C   UNL A   1      45.022  28.490  34.015  1.00  0.00     0.049 A 
ATOM     60  C   UNL A   1      44.511  25.167  29.183  1.00  0.00     0.074 A 
ATOM     61  C   UNL A   1      45.569  29.725  33.721  1.00  0.00     0.029 A 
ATOM     62  N   UNL A   1      45.718  27.581  33.247  1.00  0.00    -0.354 N 
ATOM     63  N   UNL A   1      45.567  25.937  29.176  1.00  0.00    -0.248 NA
ATOM     64  C   UNL A   1      44.176  24.610  30.488  1.00  0.00     0.031 C 
ATOM     65  C   UNL A   1      46.212  29.554  32.460  1.00  0.00     0.029 A 
ATOM     66  C   UNL A   1      46.106  28.211  32.088  1.00  0.00     0.049 A 
ATOM     67  H   UNL A   1      45.906  26.644  33.487  1.00  0.00     0.167 HD
ATOM     68  C   UNL A   1      45.742  26.326  30.495  1.00  0.00     0.074 A 
ATOM     69  C   UNL A   1      44.923  25.396  31.273  1.00  0.00     0.031 C 
ATOM     70  C   UNL A   1      46.283  27.543  30.810  1.00  0.00     0.034 A 
BRANCH  57  71
ATOM     71  C   UNL A   1      43.696  26.921  35.596  1.00  0.00     0.023 A 
ATOM     72  C   UNL A   1      44.139  27.182  36.903  1.00  0.00     0.031 A 
ATOM     73  C   UNL A   1      43.485  25.559  35.274  1.00  0.00     0.131 A 
ATOM     74  C   UNL A   1      44.434  26.131  37.783  1.00  0.00     0.055 A 
ATOM     75  C   UNL A   1      43.707  24.521  36.179  1.00  0.00     0.041 A 
ATOM     76  F   UNL A   1      43.151  25.141  34.048  1.00  0.00    -0.206 F 
ATOM     77  C   UNL A   1      44.217  24.800  37.433  1.00  0.00     0.022 A 
BRANCH  74  78
ATOM     78  S   UNL A   1      45.277  26.529  39.332  1.00  0.00     0.124 S 
ATOM     79  O   UNL A   1      44.151  26.703  40.242  1.00  0.00    -0.237 OA
ATOM     80  O   UNL A   1      46.097  25.339  39.539  1.00  0.00    -0.237 OA
ATOM     81  O   UNL A   1      46.016  27.747  39.010  1.00  0.00    -0.744 OA
ENDBRANCH  74  78
ENDBRANCH  57  71
BRANCH  58  82
ATOM     82  C   UNL A   1      42.887  24.089  27.413  1.00  0.00     0.023 A 
ATOM     83  C   UNL A   1      43.668  23.290  26.546  1.00  0.00     0.031 A 
ATOM     84  C   UNL A   1      41.604  23.588  27.737  1.00  0.00     0.131 A 
ATOM     85  C   UNL A   1      43.160  22.061  26.050  1.00  0.00     0.055 A 
ATOM     86  C   UNL A   1      41.108  22.381  27.242  1.00  0.00     0.041 A 
ATOM     87  F   UNL A   1      40.814  24.213  28.624  1.00  0.00    -0.206 F 
ATOM     88  C   UNL A   1      41.889  21.606  26.404  1.00  0.00     0.022 A 
BRANCH  85  89
ATOM     89  S   UNL A   1      44.189  20.976  25.004  1.00  0.00     0.124 S 
ATOM     90  O   UNL A   1      43.417  19.740  24.985  1.00  0.00    -0.237 OA
ATOM     91  O   UNL A   1      44.258  21.718  23.751  1.00  0.00    -0.237 OA
ATOM     92  O   UNL A   1      45.454  20.895  25.736  1.00  0.00    -0.744 OA
ENDBRANCH  85  89
ENDBRANCH  58  82
BRANCH  70  93
ATOM     93  C   UNL A   1      46.940  28.344  29.697  1.00  0.00     0.023 A 
ATOM     94  C   UNL A   1      46.252  29.174  28.779  1.00  0.00     0.031 A 
ATOM     95  C   UNL A   1      48.345  28.348  29.645  1.00  0.00     0.131 A 
ATOM     96  C   UNL A   1      46.973  29.947  27.845  1.00  0.00     0.055 A 
ATOM     97  C   UNL A   1      49.054  29.134  28.738  1.00  0.00     0.041 A 
ATOM     98  F   UNL A   1      49.060  27.605  30.505  1.00  0.00    -0.206 F 
ATOM     99  C   UNL A   1      48.371  29.932  27.829  1.00  0.00     0.022 A 
BRANCH  96 100
ATOM    100  S   UNL A   1      46.103  30.972  26.614  1.00  0.00     0.124 S 
ATOM    101  O   UNL A   1      46.381  30.299  25.352  1.00  0.00    -0.237 OA
ATOM    102  O   UNL A   1      44.719  30.918  27.078  1.00  0.00    -0.237 OA
ATOM    103  O   UNL A   1      46.738  32.285  26.756  1.00  0.00    -0.744 OA
ENDBRANCH  96 100
ENDBRANCH  70  93
ENDBRANCH  44  45
ENDBRANCH  37  39
ENDBRANCH  36  37
ENDBRANCH  35  36
ENDBRANCH  34  35
ENDBRANCH  33  34
ENDBRANCH  32  33
ENDBRANCH   1  32
TORSDOF 25
ENDMDL
MODEL 3
REMARK VINA RESULT:      -9.7      9.545     16.933
REMARK SMILES CCC[N@@H+]1CC2(CC[NH+](C(=O)Cn3nnnc3C)CC2)C[C@H]1C(=O)OCCOCCOCCOC(=O)c1ccc(-c2c3nc(c(-c4cc(S(=O)(=O)[O-])ccc4F)c4ccc([nH]4)c(-c4cc(S(=O)(=O)[O-])ccc4F)c4nc(c(-c5cc(S(=O)(=O)[O-])ccc5F)c5ccc2[nH]5)C=C4)C=C3)cc1
REMARK SMILES IDX 29 1 28 2 27 3 26 4 25 5 23 6 24 7 22 8 4 9 5 10 6 12 21 13
REMARK SMILES IDX 7 14 20 15 8 16 19 17 9 18 3 20 2 21 1 22 10 23 11 24 12 25
REMARK SMILES IDX 13 26 14 27 17 28 15 29 16 30 18 31 30 32 31 33 32 34 33 35
REMARK SMILES IDX 34 36 35 37 36 38 37 39 38 40 99 41 39 42 98 43 40 44 41 45
REMARK SMILES IDX 42 46 92 47 43 48 97 49 91 50 93 51 44 52 96 53 90 54 89 55
REMARK SMILES IDX 45 57 77 58 57 59 76 60 58 61 61 62 75 63 94 64 59 65 60 66
REMARK SMILES IDX 74 68 95 69 62 70 46 71 47 72 55 73 48 74 54 75 56 76 53 77
REMARK SMILES IDX 49 78 50 79 51 80 52 81 78 82 79 83 87 84 80 85 86 86 88 87
REMARK SMILES IDX 85 88 81 89 82 90 83 91 84 92 63 93 64 94 72 95 65 96 71 97
REMARK SMILES IDX 73 98 70 99 66 100 67 101 68 102 69 103
REMARK H PARENT 4 11 9 19 93 56 61 67
REMARK Flexibility Score: inf
ROOT
ATOM      1  C   UNL A   1      41.717  42.364  23.743  1.00  0.00     0.188 C 
ENDROOT
BRANCH   1   2
ATOM      2  O   UNL A   1      42.332  43.145  22.733  1.00  0.00    -0.376 OA
BRANCH   2   3
ATOM      3  C   UNL A   1      42.334  42.691  21.390  1.00  0.00     0.202 C 
BRANCH   3   4
ATOM      4  C   UNL A   1      41.467  43.358  20.302  1.00  0.00     0.261 C 
BRANCH   4   5
ATOM      5  O   UNL A   1      42.115  44.338  19.471  1.00  0.00    -0.459 OA
BRANCH   5   6
ATOM      6  C   UNL A   1      42.765  43.878  18.379  1.00  0.00     0.365 C 
ATOM      7  O   UNL A   1      42.563  42.769  17.887  1.00  0.00    -0.245 OA
BRANCH   6   8
ATOM      8  C   UNL A   1      43.838  44.812  17.791  1.00  0.00     0.295 C 
ATOM      9  N   UNL A   1      43.814  46.262  18.145  1.00  0.00    -0.323 N 
ATOM     10  C   UNL A   1      44.455  46.378  19.441  1.00  0.00     0.270 C 
ATOM     11  H   UNL A   1      42.866  46.629  18.237  1.00  0.00     0.348 HD
ATOM     12  C   UNL A   1      45.498  45.247  19.513  1.00  0.00     0.036 C 
ATOM     13  C   UNL A   1      45.182  44.338  18.308  1.00  0.00     0.091 C 
ATOM     14  C   UNL A   1      45.350  44.512  20.863  1.00  0.00     0.075 C 
ATOM     15  C   UNL A   1      46.951  45.732  19.364  1.00  0.00     0.075 C 
ATOM     16  C   UNL A   1      45.822  45.386  22.028  1.00  0.00     0.271 C 
ATOM     17  C   UNL A   1      47.403  46.573  20.545  1.00  0.00     0.271 C 
ATOM     18  N   UNL A   1      47.193  45.855  21.795  1.00  0.00    -0.270 N 
ATOM     19  H   UNL A   1      46.310  45.665  21.404  1.00  0.00     0.356 HD
BRANCH   9  20
ATOM     20  C   UNL A   1      44.352  47.106  17.060  1.00  0.00     0.262 C 
BRANCH  20  21
ATOM     21  C   UNL A   1      43.502  48.284  16.533  1.00  0.00     0.058 C 
ATOM     22  C   UNL A   1      42.011  47.982  16.429  1.00  0.00     0.010 C 
ENDBRANCH  20  21
ENDBRANCH   9  20
BRANCH  18  23
ATOM     23  C   UNL A   1      48.267  45.702  22.654  1.00  0.00     0.333 C 
ATOM     24  O   UNL A   1      48.920  46.667  23.063  1.00  0.00    -0.229 OA
BRANCH  23  25
ATOM     25  C   UNL A   1      48.639  44.322  23.122  1.00  0.00     0.293 C 
BRANCH  25  26
ATOM     26  N   UNL A   1      48.458  43.312  22.106  1.00  0.00    -0.216 N 
ATOM     27  N   UNL A   1      49.122  43.441  20.942  1.00  0.00    -0.044 NA
ATOM     28  C   UNL A   1      47.695  42.173  22.076  1.00  0.00     0.149 A 
ATOM     29  N   UNL A   1      48.736  42.414  20.203  1.00  0.00    -0.024 NA
ATOM     30  N   UNL A   1      47.857  41.620  20.889  1.00  0.00    -0.114 NA
ATOM     31  C   UNL A   1      46.829  41.650  23.155  1.00  0.00     0.091 C 
ENDBRANCH  25  26
ENDBRANCH  23  25
ENDBRANCH  18  23
ENDBRANCH   6   8
ENDBRANCH   5   6
ENDBRANCH   4   5
ENDBRANCH   3   4
ENDBRANCH   2   3
ENDBRANCH   1   2
BRANCH   1  32
ATOM     32  C   UNL A   1      42.557  41.607  24.788  1.00  0.00     0.188 C 
BRANCH  32  33
ATOM     33  O   UNL A   1      41.865  40.926  25.810  1.00  0.00    -0.376 OA
BRANCH  33  34
ATOM     34  C   UNL A   1      42.493  40.156  26.818  1.00  0.00     0.202 C 
BRANCH  34  35
ATOM     35  C   UNL A   1      42.762  38.658  26.731  1.00  0.00     0.261 C 
BRANCH  35  36
ATOM     36  O   UNL A   1      43.313  38.078  27.887  1.00  0.00    -0.460 OA
BRANCH  36  37
ATOM     37  C   UNL A   1      43.956  36.918  27.654  1.00  0.00     0.338 C 
ATOM     38  O   UNL A   1      44.561  36.599  26.636  1.00  0.00    -0.246 OA
BRANCH  37  39
ATOM     39  C   UNL A   1      43.820  36.084  28.843  1.00  0.00     0.060 A 
ATOM     40  C   UNL A   1      43.787  34.705  28.637  1.00  0.00     0.016 A 
ATOM     41  C   UNL A   1      43.347  36.693  30.014  1.00  0.00     0.016 A 
ATOM     42  C   UNL A   1      42.969  33.972  29.455  1.00  0.00     0.010 A 
ATOM     43  C   UNL A   1      42.505  35.968  30.806  1.00  0.00     0.010 A 
ATOM     44  C   UNL A   1      42.242  34.653  30.436  1.00  0.00    -0.014 A 
BRANCH  44  45
ATOM     45  C   UNL A   1      41.200  33.944  31.131  1.00  0.00     0.031 A 
ATOM     46  C   UNL A   1      41.543  33.724  32.542  1.00  0.00     0.074 A 
ATOM     47  C   UNL A   1      40.036  33.620  30.539  1.00  0.00     0.049 A 
ATOM     48  N   UNL A   1      41.916  32.612  33.076  1.00  0.00    -0.248 NA
ATOM     49  C   UNL A   1      41.741  34.903  33.400  1.00  0.00     0.031 C 
ATOM     50  C   UNL A   1      39.547  34.002  29.212  1.00  0.00     0.029 A 
ATOM     51  N   UNL A   1      38.984  32.944  31.066  1.00  0.00    -0.354 N 
ATOM     52  C   UNL A   1      42.127  32.910  34.412  1.00  0.00     0.074 A 
ATOM     53  C   UNL A   1      42.269  34.338  34.486  1.00  0.00     0.031 C 
ATOM     54  C   UNL A   1      38.218  33.755  29.142  1.00  0.00     0.029 A 
ATOM     55  C   UNL A   1      37.790  33.099  30.370  1.00  0.00     0.049 A 
ATOM     56  H   UNL A   1      39.060  32.389  31.874  1.00  0.00     0.167 HD
ATOM     57  C   UNL A   1      41.857  31.989  35.372  1.00  0.00     0.034 A 
ATOM     58  C   UNL A   1      36.545  32.780  30.821  1.00  0.00     0.034 A 
ATOM     59  C   UNL A   1      41.734  30.665  34.800  1.00  0.00     0.049 A 
ATOM     60  C   UNL A   1      36.731  31.774  31.902  1.00  0.00     0.074 A 
ATOM     61  C   UNL A   1      42.576  29.857  34.058  1.00  0.00     0.029 A 
ATOM     62  N   UNL A   1      40.465  30.165  34.599  1.00  0.00    -0.354 N 
ATOM     63  N   UNL A   1      37.206  30.576  31.682  1.00  0.00    -0.248 NA
ATOM     64  C   UNL A   1      36.901  32.252  33.270  1.00  0.00     0.031 C 
ATOM     65  C   UNL A   1      41.735  29.237  33.088  1.00  0.00     0.029 A 
ATOM     66  C   UNL A   1      40.415  29.623  33.336  1.00  0.00     0.049 A 
ATOM     67  H   UNL A   1      39.724  30.191  35.247  1.00  0.00     0.167 HD
ATOM     68  C   UNL A   1      38.114  30.351  32.706  1.00  0.00     0.074 A 
ATOM     69  C   UNL A   1      37.808  31.369  33.710  1.00  0.00     0.031 C 
ATOM     70  C   UNL A   1      39.218  29.566  32.514  1.00  0.00     0.034 A 
BRANCH  57  71
ATOM     71  C   UNL A   1      41.330  32.335  36.740  1.00  0.00     0.023 A 
ATOM     72  C   UNL A   1      39.962  32.115  36.967  1.00  0.00     0.031 A 
ATOM     73  C   UNL A   1      42.003  33.109  37.715  1.00  0.00     0.131 A 
ATOM     74  C   UNL A   1      39.310  32.715  38.054  1.00  0.00     0.055 A 
ATOM     75  C   UNL A   1      41.365  33.641  38.836  1.00  0.00     0.041 A 
ATOM     76  F   UNL A   1      43.282  33.483  37.598  1.00  0.00    -0.206 F 
ATOM     77  C   UNL A   1      40.002  33.473  38.996  1.00  0.00     0.022 A 
BRANCH  74  78
ATOM     78  S   UNL A   1      37.505  32.633  38.116  1.00  0.00     0.124 S 
ATOM     79  O   UNL A   1      37.205  33.574  39.190  1.00  0.00    -0.237 OA
ATOM     80  O   UNL A   1      37.141  33.054  36.768  1.00  0.00    -0.237 OA
ATOM     81  O   UNL A   1      37.242  31.229  38.424  1.00  0.00    -0.744 OA
ENDBRANCH  74  78
ENDBRANCH  57  71
BRANCH  58  82
ATOM     82  C   UNL A   1      35.283  33.552  30.609  1.00  0.00     0.023 A 
ATOM     83  C   UNL A   1      34.830  34.556  31.496  1.00  0.00     0.031 A 
ATOM     84  C   UNL A   1      34.608  33.465  29.368  1.00  0.00     0.131 A 
ATOM     85  C   UNL A   1      33.758  35.409  31.127  1.00  0.00     0.055 A 
ATOM     86  C   UNL A   1      33.550  34.304  29.013  1.00  0.00     0.041 A 
ATOM     87  F   UNL A   1      35.012  32.615  28.411  1.00  0.00    -0.206 F 
ATOM     88  C   UNL A   1      33.127  35.288  29.888  1.00  0.00     0.022 A 
BRANCH  85  89
ATOM     89  S   UNL A   1      33.221  36.767  32.223  1.00  0.00     0.124 S 
ATOM     90  O   UNL A   1      32.939  37.838  31.275  1.00  0.00    -0.237 OA
ATOM     91  O   UNL A   1      32.073  36.185  32.907  1.00  0.00    -0.237 OA
ATOM     92  O   UNL A   1      34.388  36.997  33.077  1.00  0.00    -0.744 OA
ENDBRANCH  85  89
ENDBRANCH  58  82
BRANCH  70  93
ATOM     93  C   UNL A   1      39.289  28.726  31.249  1.00  0.00     0.023 A 
ATOM     94  C   UNL A   1      39.996  29.084  30.075  1.00  0.00     0.031 A 
ATOM     95  C   UNL A   1      38.701  27.450  31.285  1.00  0.00     0.131 A 
ATOM     96  C   UNL A   1      40.073  28.183  28.992  1.00  0.00     0.055 A 
ATOM     97  C   UNL A   1      38.802  26.552  30.223  1.00  0.00     0.041 A 
ATOM     98  F   UNL A   1      38.040  27.036  32.379  1.00  0.00    -0.206 F 
ATOM     99  C   UNL A   1      39.482  26.919  29.068  1.00  0.00     0.022 A 
BRANCH  96 100
ATOM    100  S   UNL A   1      40.923  28.651  27.449  1.00  0.00     0.124 S 
ATOM    101  O   UNL A   1      39.854  29.197  26.622  1.00  0.00    -0.237 OA
ATOM    102  O   UNL A   1      41.923  29.608  27.916  1.00  0.00    -0.237 OA
ATOM    103  O   UNL A   1      41.476  27.383  26.969  1.00  0.00    -0.744 OA
ENDBRANCH  96 100
ENDBRANCH  70  93
ENDBRANCH  44  45
ENDBRANCH  37  39
ENDBRANCH  36  37
ENDBRANCH  35  36
ENDBRANCH  34  35
ENDBRANCH  33  34
ENDBRANCH  32  33
ENDBRANCH   1  32
TORSDOF 25
ENDMDL
