MODEL 1
REMARK VINA RESULT:     -10.3      0.000      0.000
REMARK SMILES Cc1cscc1C(=O)N[C@H](C(=O)OCCOCCOCCOC(=O)c1ccc(-c2c3nc(c(-c4cc(S(=O)(=O)[O-])ccc4F)c4ccc([nH]4)c(-c4cc(S(=O)(=O)[O-])ccc4F)c4nc(c(-c5cc(S(=O)(=O)[O-])ccc5F)c5ccc2[nH]5)C=C4)C=C3)cc1)c1ccccc1
REMARK SMILES IDX 18 1 17 2 16 3 15 4 14 5 13 6 11 7 12 8 10 9 9 10 7 11 8 12
REMARK SMILES IDX 6 14 1 15 2 16 3 17 4 18 5 19 88 20 89 21 93 22 90 23 92 24
REMARK SMILES IDX 91 25 19 26 20 27 21 28 22 29 23 30 24 31 25 32 26 33 87 34
REMARK SMILES IDX 27 35 86 36 28 37 29 38 30 39 80 40 31 41 85 42 79 43 81 44
REMARK SMILES IDX 32 45 84 46 78 47 77 48 33 50 65 51 45 52 64 53 46 54 49 55
REMARK SMILES IDX 63 56 82 57 47 58 48 59 62 61 83 62 50 63 34 64 35 65 43 66
REMARK SMILES IDX 36 67 42 68 44 69 41 70 37 71 38 72 39 73 40 74 66 75 67 76
REMARK SMILES IDX 75 77 68 78 74 79 76 80 73 81 69 82 70 83 71 84 72 85 51 86
REMARK SMILES IDX 52 87 60 88 53 89 59 90 61 91 58 92 54 93 55 94 56 95 57 96
REMARK H PARENT 9 13 81 49 49 60
REMARK Flexibility Score: inf
ROOT
ATOM      1  C   UNL A   1      32.589  29.515  26.140  1.00  0.00     0.188 C 
ENDROOT
BRANCH   1   2
ATOM      2  C   UNL A   1      31.700  28.296  26.413  1.00  0.00     0.188 C 
BRANCH   2   3
ATOM      3  O   UNL A   1      31.278  27.615  25.241  1.00  0.00    -0.376 OA
BRANCH   3   4
ATOM      4  C   UNL A   1      31.424  28.368  24.046  1.00  0.00     0.202 C 
BRANCH   4   5
ATOM      5  C   UNL A   1      31.587  27.532  22.769  1.00  0.00     0.261 C 
BRANCH   5   6
ATOM      6  O   UNL A   1      32.013  26.160  22.984  1.00  0.00    -0.461 OA
BRANCH   6   7
ATOM      7  C   UNL A   1      33.337  25.886  22.907  1.00  0.00     0.333 C 
ATOM      8  O   UNL A   1      33.913  25.876  21.820  1.00  0.00    -0.249 OA
BRANCH   7   9
ATOM      9  C   UNL A   1      33.999  25.368  24.227  1.00  0.00     0.223 C 
BRANCH   9  10
ATOM     10  N   UNL A   1      32.931  25.001  25.146  1.00  0.00    -0.335 N 
ATOM     11  C   UNL A   1      32.321  23.815  25.455  1.00  0.00     0.253 C 
ATOM     12  O   UNL A   1      31.546  23.897  26.416  1.00  0.00    -0.269 OA
ATOM     13  H   UNL A   1      32.575  25.764  25.653  1.00  0.00     0.165 HD
BRANCH  11  14
ATOM     14  C   UNL A   1      32.418  22.550  24.685  1.00  0.00     0.053 A 
ATOM     15  C   UNL A   1      33.565  20.554  26.098  1.00  0.00     0.046 C 
ATOM     16  C   UNL A   1      32.933  21.191  24.907  1.00  0.00    -0.028 A 
ATOM     17  C   UNL A   1      32.698  20.381  23.802  1.00  0.00     0.069 A 
ATOM     18  S   UNL A   1      31.885  21.157  22.537  1.00  0.00    -0.151 S 
ATOM     19  C   UNL A   1      31.807  22.594  23.433  1.00  0.00     0.079 A 
ENDBRANCH  11  14
ENDBRANCH   9  10
BRANCH   9  20
ATOM     20  C   UNL A   1      35.166  24.367  24.389  1.00  0.00    -0.014 A 
ATOM     21  C   UNL A   1      35.751  24.083  25.636  1.00  0.00     0.006 A 
ATOM     22  C   UNL A   1      35.589  23.541  23.319  1.00  0.00     0.006 A 
ATOM     23  C   UNL A   1      36.753  23.100  25.771  1.00  0.00     0.000 A 
ATOM     24  C   UNL A   1      36.603  22.585  23.440  1.00  0.00     0.000 A 
ATOM     25  C   UNL A   1      37.189  22.363  24.672  1.00  0.00     0.000 A 
ENDBRANCH   9  20
ENDBRANCH   7   9
ENDBRANCH   6   7
ENDBRANCH   5   6
ENDBRANCH   4   5
ENDBRANCH   3   4
ENDBRANCH   2   3
ENDBRANCH   1   2
BRANCH   1  26
ATOM     26  O   UNL A   1      32.036  30.727  25.654  1.00  0.00    -0.376 OA
BRANCH  26  27
ATOM     27  C   UNL A   1      31.144  31.429  26.501  1.00  0.00     0.202 C 
BRANCH  27  28
ATOM     28  C   UNL A   1      31.466  32.887  26.874  1.00  0.00     0.261 C 
BRANCH  28  29
ATOM     29  O   UNL A   1      32.845  33.291  26.759  1.00  0.00    -0.460 OA
BRANCH  29  30
ATOM     30  C   UNL A   1      33.416  33.736  27.908  1.00  0.00     0.338 C 
ATOM     31  O   UNL A   1      32.918  34.518  28.710  1.00  0.00    -0.246 OA
BRANCH  30  32
ATOM     32  C   UNL A   1      34.671  32.997  28.191  1.00  0.00     0.060 A 
ATOM     33  C   UNL A   1      34.595  31.616  28.427  1.00  0.00     0.016 A 
ATOM     34  C   UNL A   1      35.893  33.656  28.320  1.00  0.00     0.016 A 
ATOM     35  C   UNL A   1      35.723  30.894  28.822  1.00  0.00     0.010 A 
ATOM     36  C   UNL A   1      37.019  32.936  28.749  1.00  0.00     0.010 A 
ATOM     37  C   UNL A   1      36.934  31.559  29.037  1.00  0.00    -0.014 A 
BRANCH  37  38
ATOM     38  C   UNL A   1      38.035  30.865  29.760  1.00  0.00     0.031 A 
ATOM     39  C   UNL A   1      38.281  31.223  31.204  1.00  0.00     0.074 A 
ATOM     40  C   UNL A   1      38.774  29.902  29.179  1.00  0.00     0.049 A 
ATOM     41  N   UNL A   1      39.238  30.836  32.009  1.00  0.00    -0.248 NA
ATOM     42  C   UNL A   1      37.312  32.142  31.819  1.00  0.00     0.031 C 
ATOM     43  C   UNL A   1      38.580  29.385  27.828  1.00  0.00     0.029 A 
ATOM     44  N   UNL A   1      39.845  29.187  29.662  1.00  0.00    -0.354 N 
ATOM     45  C   UNL A   1      38.997  31.477  33.220  1.00  0.00     0.074 A 
ATOM     46  C   UNL A   1      37.819  32.297  33.032  1.00  0.00     0.031 C 
ATOM     47  C   UNL A   1      39.510  28.446  27.583  1.00  0.00     0.029 A 
ATOM     48  C   UNL A   1      40.401  28.332  28.738  1.00  0.00     0.049 A 
ATOM     49  H   UNL A   1      40.183  29.277  30.582  1.00  0.00     0.167 HD
ATOM     50  C   UNL A   1      39.693  31.390  34.381  1.00  0.00     0.034 A 
ATOM     51  C   UNL A   1      41.521  27.580  28.799  1.00  0.00     0.034 A 
ATOM     52  C   UNL A   1      40.868  30.573  34.559  1.00  0.00     0.049 A 
ATOM     53  C   UNL A   1      42.356  27.597  30.063  1.00  0.00     0.074 A 
ATOM     54  C   UNL A   1      41.647  30.418  35.694  1.00  0.00     0.029 A 
ATOM     55  N   UNL A   1      41.445  29.781  33.575  1.00  0.00    -0.354 N 
ATOM     56  N   UNL A   1      42.140  28.233  31.192  1.00  0.00    -0.248 NA
ATOM     57  C   UNL A   1      43.586  26.792  30.058  1.00  0.00     0.031 C 
ATOM     58  C   UNL A   1      42.736  29.603  35.373  1.00  0.00     0.029 A 
ATOM     59  C   UNL A   1      42.590  29.170  34.065  1.00  0.00     0.049 A 
ATOM     60  H   UNL A   1      41.093  29.670  32.662  1.00  0.00     0.167 HD
ATOM     61  C   UNL A   1      43.187  27.873  32.039  1.00  0.00     0.074 A 
ATOM     62  C   UNL A   1      44.026  26.957  31.297  1.00  0.00     0.031 C 
ATOM     63  C   UNL A   1      43.429  28.259  33.319  1.00  0.00     0.034 A 
BRANCH  50  64
ATOM     64  C   UNL A   1      39.236  32.261  35.530  1.00  0.00     0.023 A 
ATOM     65  C   UNL A   1      39.640  33.601  35.656  1.00  0.00     0.031 A 
ATOM     66  C   UNL A   1      38.407  31.724  36.532  1.00  0.00     0.131 A 
ATOM     67  C   UNL A   1      39.274  34.336  36.795  1.00  0.00     0.055 A 
ATOM     68  C   UNL A   1      37.976  32.487  37.618  1.00  0.00     0.041 A 
ATOM     69  F   UNL A   1      38.010  30.443  36.478  1.00  0.00    -0.206 F 
ATOM     70  C   UNL A   1      38.423  33.797  37.763  1.00  0.00     0.022 A 
BRANCH  67  71
ATOM     71  S   UNL A   1      40.053  35.950  37.071  1.00  0.00     0.124 S 
ATOM     72  O   UNL A   1      39.885  36.586  35.767  1.00  0.00    -0.237 OA
ATOM     73  O   UNL A   1      39.254  36.504  38.159  1.00  0.00    -0.237 OA
ATOM     74  O   UNL A   1      41.431  35.612  37.417  1.00  0.00    -0.744 OA
ENDBRANCH  67  71
ENDBRANCH  50  64
BRANCH  51  75
ATOM     75  C   UNL A   1      41.976  26.793  27.614  1.00  0.00     0.023 A 
ATOM     76  C   UNL A   1      41.676  25.427  27.487  1.00  0.00     0.031 A 
ATOM     77  C   UNL A   1      42.792  27.380  26.629  1.00  0.00     0.131 A 
ATOM     78  C   UNL A   1      42.229  24.683  26.431  1.00  0.00     0.055 A 
ATOM     79  C   UNL A   1      43.287  26.650  25.547  1.00  0.00     0.041 A 
ATOM     80  F   UNL A   1      43.123  28.678  26.706  1.00  0.00    -0.206 F 
ATOM     81  C   UNL A   1      43.018  25.289  25.452  1.00  0.00     0.022 A 
BRANCH  78  82
ATOM     82  S   UNL A   1      41.992  22.884  26.418  1.00  0.00     0.124 S 
ATOM     83  O   UNL A   1      42.673  22.488  27.644  1.00  0.00    -0.237 OA
ATOM     84  O   UNL A   1      40.538  22.770  26.424  1.00  0.00    -0.237 OA
ATOM     85  O   UNL A   1      42.644  22.465  25.178  1.00  0.00    -0.744 OA
ENDBRANCH  78  82
ENDBRANCH  51  75
BRANCH  63  86
ATOM     86  C   UNL A   1      44.620  27.646  34.021  1.00  0.00     0.023 A 
ATOM     87  C   UNL A   1      44.548  26.395  34.660  1.00  0.00     0.031 A 
ATOM     88  C   UNL A   1      45.849  28.330  34.053  1.00  0.00     0.131 A 
ATOM     89  C   UNL A   1      45.665  25.894  35.349  1.00  0.00     0.055 A 
ATOM     90  C   UNL A   1      46.975  27.797  34.683  1.00  0.00     0.041 A 
ATOM     91  F   UNL A   1      45.979  29.530  33.464  1.00  0.00    -0.206 F 
ATOM     92  C   UNL A   1      46.883  26.579  35.348  1.00  0.00     0.022 A 
BRANCH  89  93
ATOM     93  S   UNL A   1      45.480  24.380  36.331  1.00  0.00     0.124 S 
ATOM     94  O   UNL A   1      44.236  24.634  37.050  1.00  0.00    -0.237 OA
ATOM     95  O   UNL A   1      45.423  23.346  35.304  1.00  0.00    -0.237 OA
ATOM     96  O   UNL A   1      46.682  24.360  37.162  1.00  0.00    -0.744 OA
ENDBRANCH  89  93
ENDBRANCH  63  86
ENDBRANCH  37  38
ENDBRANCH  30  32
ENDBRANCH  29  30
ENDBRANCH  28  29
ENDBRANCH  27  28
ENDBRANCH  26  27
ENDBRANCH   1  26
TORSDOF 23
ENDMDL
MODEL 2
REMARK VINA RESULT:     -10.2      4.608      7.936
REMARK SMILES Cc1cscc1C(=O)N[C@H](C(=O)OCCOCCOCCOC(=O)c1ccc(-c2c3nc(c(-c4cc(S(=O)(=O)[O-])ccc4F)c4ccc([nH]4)c(-c4cc(S(=O)(=O)[O-])ccc4F)c4nc(c(-c5cc(S(=O)(=O)[O-])ccc5F)c5ccc2[nH]5)C=C4)C=C3)cc1)c1ccccc1
REMARK SMILES IDX 18 1 17 2 16 3 15 4 14 5 13 6 11 7 12 8 10 9 9 10 7 11 8 12
REMARK SMILES IDX 6 14 1 15 2 16 3 17 4 18 5 19 88 20 89 21 93 22 90 23 92 24
REMARK SMILES IDX 91 25 19 26 20 27 21 28 22 29 23 30 24 31 25 32 26 33 87 34
REMARK SMILES IDX 27 35 86 36 28 37 29 38 30 39 80 40 31 41 85 42 79 43 81 44
REMARK SMILES IDX 32 45 84 46 78 47 77 48 33 50 65 51 45 52 64 53 46 54 49 55
REMARK SMILES IDX 63 56 82 57 47 58 48 59 62 61 83 62 50 63 34 64 35 65 43 66
REMARK SMILES IDX 36 67 42 68 44 69 41 70 37 71 38 72 39 73 40 74 66 75 67 76
REMARK SMILES IDX 75 77 68 78 74 79 76 80 73 81 69 82 70 83 71 84 72 85 51 86
REMARK SMILES IDX 52 87 60 88 53 89 59 90 61 91 58 92 54 93 55 94 56 95 57 96
REMARK H PARENT 9 13 81 49 49 60
REMARK Flexibility Score: inf
ROOT
ATOM      1  C   UNL A   1      34.529  20.332  25.207  1.00  0.00     0.188 C 
ENDROOT
BRANCH   1   2
ATOM      2  C   UNL A   1      33.044  20.492  24.861  1.00  0.00     0.188 C 
BRANCH   2   3
ATOM      3  O   UNL A   1      32.769  20.464  23.469  1.00  0.00    -0.376 OA
BRANCH   3   4
ATOM      4  C   UNL A   1      32.001  21.565  23.005  1.00  0.00     0.202 C 
BRANCH   4   5
ATOM      5  C   UNL A   1      31.795  22.688  24.030  1.00  0.00     0.261 C 
BRANCH   5   6
ATOM      6  O   UNL A   1      32.897  23.627  24.142  1.00  0.00    -0.461 OA
BRANCH   6   7
ATOM      7  C   UNL A   1      33.060  24.279  25.318  1.00  0.00     0.333 C 
ATOM      8  O   UNL A   1      32.576  23.830  26.356  1.00  0.00    -0.249 OA
BRANCH   7   9
ATOM      9  C   UNL A   1      33.680  25.712  25.218  1.00  0.00     0.223 C 
BRANCH   9  10
ATOM     10  N   UNL A   1      33.845  26.028  23.805  1.00  0.00    -0.335 N 
ATOM     11  C   UNL A   1      33.152  26.820  22.931  1.00  0.00     0.253 C 
ATOM     12  O   UNL A   1      33.708  26.944  21.833  1.00  0.00    -0.269 OA
ATOM     13  H   UNL A   1      34.617  25.578  23.393  1.00  0.00     0.165 HD
BRANCH  11  14
ATOM     14  C   UNL A   1      31.803  27.399  23.149  1.00  0.00     0.053 A 
ATOM     15  C   UNL A   1      29.938  25.521  23.692  1.00  0.00     0.046 C 
ATOM     16  C   UNL A   1      30.453  26.900  23.452  1.00  0.00    -0.028 A 
ATOM     17  C   UNL A   1      29.554  27.950  23.598  1.00  0.00     0.069 A 
ATOM     18  S   UNL A   1      30.245  29.482  23.409  1.00  0.00    -0.151 S 
ATOM     19  C   UNL A   1      31.770  28.792  23.144  1.00  0.00     0.079 A 
ENDBRANCH  11  14
ENDBRANCH   9  10
BRANCH   9  20
ATOM     20  C   UNL A   1      33.265  26.995  25.972  1.00  0.00    -0.014 A 
ATOM     21  C   UNL A   1      34.036  28.171  25.947  1.00  0.00     0.006 A 
ATOM     22  C   UNL A   1      31.992  27.119  26.580  1.00  0.00     0.006 A 
ATOM     23  C   UNL A   1      33.591  29.356  26.569  1.00  0.00     0.000 A 
ATOM     24  C   UNL A   1      31.557  28.281  27.225  1.00  0.00     0.000 A 
ATOM     25  C   UNL A   1      32.360  29.406  27.220  1.00  0.00     0.000 A 
ENDBRANCH   9  20
ENDBRANCH   7   9
ENDBRANCH   6   7
ENDBRANCH   5   6
ENDBRANCH   4   5
ENDBRANCH   3   4
ENDBRANCH   2   3
ENDBRANCH   1   2
BRANCH   1  26
ATOM     26  O   UNL A   1      35.315  19.319  24.601  1.00  0.00    -0.376 OA
BRANCH  26  27
ATOM     27  C   UNL A   1      36.696  19.286  24.911  1.00  0.00     0.202 C 
BRANCH  27  28
ATOM     28  C   UNL A   1      37.569  20.500  24.548  1.00  0.00     0.261 C 
BRANCH  28  29
ATOM     29  O   UNL A   1      37.929  21.380  25.632  1.00  0.00    -0.460 OA
BRANCH  29  30
ATOM     30  C   UNL A   1      39.180  21.203  26.131  1.00  0.00     0.338 C 
ATOM     31  O   UNL A   1      39.896  20.223  25.962  1.00  0.00    -0.246 OA
BRANCH  30  32
ATOM     32  C   UNL A   1      39.673  22.450  26.765  1.00  0.00     0.060 A 
ATOM     33  C   UNL A   1      39.172  23.677  26.306  1.00  0.00     0.016 A 
ATOM     34  C   UNL A   1      40.681  22.431  27.727  1.00  0.00     0.016 A 
ATOM     35  C   UNL A   1      39.691  24.885  26.776  1.00  0.00     0.010 A 
ATOM     36  C   UNL A   1      41.226  23.644  28.176  1.00  0.00     0.010 A 
ATOM     37  C   UNL A   1      40.760  24.877  27.677  1.00  0.00    -0.014 A 
BRANCH  37  38
ATOM     38  C   UNL A   1      41.521  26.133  27.926  1.00  0.00     0.031 A 
ATOM     39  C   UNL A   1      40.852  27.234  28.709  1.00  0.00     0.074 A 
ATOM     40  C   UNL A   1      42.794  26.289  27.516  1.00  0.00     0.049 A 
ATOM     41  N   UNL A   1      41.266  28.449  28.964  1.00  0.00    -0.248 NA
ATOM     42  C   UNL A   1      39.536  26.914  29.283  1.00  0.00     0.031 C 
ATOM     43  C   UNL A   1      43.596  25.273  26.841  1.00  0.00     0.029 A 
ATOM     44  N   UNL A   1      43.635  27.372  27.612  1.00  0.00    -0.354 N 
ATOM     45  C   UNL A   1      40.256  29.045  29.712  1.00  0.00     0.074 A 
ATOM     46  C   UNL A   1      39.199  28.063  29.845  1.00  0.00     0.031 C 
ATOM     47  C   UNL A   1      44.809  25.786  26.569  1.00  0.00     0.029 A 
ATOM     48  C   UNL A   1      44.853  27.183  27.000  1.00  0.00     0.049 A 
ATOM     49  H   UNL A   1      43.390  28.206  28.074  1.00  0.00     0.167 HD
ATOM     50  C   UNL A   1      40.212  30.294  30.239  1.00  0.00     0.034 A 
ATOM     51  C   UNL A   1      45.866  28.047  26.775  1.00  0.00     0.034 A 
ATOM     52  C   UNL A   1      41.268  31.267  30.098  1.00  0.00     0.049 A 
ATOM     53  C   UNL A   1      45.743  29.476  27.260  1.00  0.00     0.074 A 
ATOM     54  C   UNL A   1      41.319  32.560  30.590  1.00  0.00     0.029 A 
ATOM     55  N   UNL A   1      42.453  31.063  29.404  1.00  0.00    -0.354 N 
ATOM     56  N   UNL A   1      44.769  30.042  27.937  1.00  0.00    -0.248 NA
ATOM     57  C   UNL A   1      46.858  30.382  26.951  1.00  0.00     0.031 C 
ATOM     58  C   UNL A   1      42.492  33.162  30.126  1.00  0.00     0.029 A 
ATOM     59  C   UNL A   1      43.222  32.218  29.422  1.00  0.00     0.049 A 
ATOM     60  H   UNL A   1      42.711  30.221  28.963  1.00  0.00     0.167 HD
ATOM     61  C   UNL A   1      45.175  31.356  28.163  1.00  0.00     0.074 A 
ATOM     62  C   UNL A   1      46.484  31.496  27.563  1.00  0.00     0.031 C 
ATOM     63  C   UNL A   1      44.527  32.356  28.816  1.00  0.00     0.034 A 
BRANCH  50  64
ATOM     64  C   UNL A   1      38.945  30.700  30.957  1.00  0.00     0.023 A 
ATOM     65  C   UNL A   1      37.814  31.168  30.267  1.00  0.00     0.031 A 
ATOM     66  C   UNL A   1      38.885  30.645  32.361  1.00  0.00     0.131 A 
ATOM     67  C   UNL A   1      36.700  31.632  30.986  1.00  0.00     0.055 A 
ATOM     68  C   UNL A   1      37.743  31.026  33.066  1.00  0.00     0.041 A 
ATOM     69  F   UNL A   1      39.944  30.230  33.076  1.00  0.00    -0.206 F 
ATOM     70  C   UNL A   1      36.646  31.538  32.378  1.00  0.00     0.022 A 
BRANCH  67  71
ATOM     71  S   UNL A   1      35.389  32.502  30.084  1.00  0.00     0.124 S 
ATOM     72  O   UNL A   1      34.314  32.522  31.074  1.00  0.00    -0.237 OA
ATOM     73  O   UNL A   1      36.009  33.787  29.788  1.00  0.00    -0.237 OA
ATOM     74  O   UNL A   1      35.141  31.645  28.927  1.00  0.00    -0.744 OA
ENDBRANCH  67  71
ENDBRANCH  50  64
BRANCH  51  75
ATOM     75  C   UNL A   1      47.068  27.624  25.995  1.00  0.00     0.023 A 
ATOM     76  C   UNL A   1      47.205  27.943  24.635  1.00  0.00     0.031 A 
ATOM     77  C   UNL A   1      48.062  26.818  26.583  1.00  0.00     0.131 A 
ATOM     78  C   UNL A   1      48.279  27.419  23.896  1.00  0.00     0.055 A 
ATOM     79  C   UNL A   1      49.160  26.352  25.859  1.00  0.00     0.041 A 
ATOM     80  F   UNL A   1      47.976  26.470  27.877  1.00  0.00    -0.206 F 
ATOM     81  C   UNL A   1      49.265  26.639  24.503  1.00  0.00     0.022 A 
BRANCH  78  82
ATOM     82  S   UNL A   1      48.308  27.678  22.100  1.00  0.00     0.124 S 
ATOM     83  O   UNL A   1      48.567  26.329  21.612  1.00  0.00    -0.237 OA
ATOM     84  O   UNL A   1      46.972  28.207  21.849  1.00  0.00    -0.237 OA
ATOM     85  O   UNL A   1      49.400  28.631  21.912  1.00  0.00    -0.744 OA
ENDBRANCH  78  82
ENDBRANCH  51  75
BRANCH  63  86
ATOM     86  C   UNL A   1      45.250  33.676  28.967  1.00  0.00     0.023 A 
ATOM     87  C   UNL A   1      46.081  33.951  30.068  1.00  0.00     0.031 A 
ATOM     88  C   UNL A   1      45.099  34.678  27.991  1.00  0.00     0.131 A 
ATOM     89  C   UNL A   1      46.684  35.214  30.193  1.00  0.00     0.055 A 
ATOM     90  C   UNL A   1      45.753  35.907  28.087  1.00  0.00     0.041 A 
ATOM     91  F   UNL A   1      44.317  34.476  26.918  1.00  0.00    -0.206 F 
ATOM     92  C   UNL A   1      46.540  36.186  29.199  1.00  0.00     0.022 A 
BRANCH  89  93
ATOM     93  S   UNL A   1      47.581  35.607  31.720  1.00  0.00     0.124 S 
ATOM     94  O   UNL A   1      47.598  34.317  32.403  1.00  0.00    -0.237 OA
ATOM     95  O   UNL A   1      48.866  36.077  31.215  1.00  0.00    -0.237 OA
ATOM     96  O   UNL A   1      46.752  36.631  32.352  1.00  0.00    -0.744 OA
ENDBRANCH  89  93
ENDBRANCH  63  86
ENDBRANCH  37  38
ENDBRANCH  30  32
ENDBRANCH  29  30
ENDBRANCH  28  29
ENDBRANCH  27  28
ENDBRANCH  26  27
ENDBRANCH   1  26
TORSDOF 23
ENDMDL
MODEL 3
REMARK VINA RESULT:      -9.9      2.039      8.794
REMARK SMILES Cc1cscc1C(=O)N[C@H](C(=O)OCCOCCOCCOC(=O)c1ccc(-c2c3nc(c(-c4cc(S(=O)(=O)[O-])ccc4F)c4ccc([nH]4)c(-c4cc(S(=O)(=O)[O-])ccc4F)c4nc(c(-c5cc(S(=O)(=O)[O-])ccc5F)c5ccc2[nH]5)C=C4)C=C3)cc1)c1ccccc1
REMARK SMILES IDX 18 1 17 2 16 3 15 4 14 5 13 6 11 7 12 8 10 9 9 10 7 11 8 12
REMARK SMILES IDX 6 14 1 15 2 16 3 17 4 18 5 19 88 20 89 21 93 22 90 23 92 24
REMARK SMILES IDX 91 25 19 26 20 27 21 28 22 29 23 30 24 31 25 32 26 33 87 34
REMARK SMILES IDX 27 35 86 36 28 37 29 38 30 39 80 40 31 41 85 42 79 43 81 44
REMARK SMILES IDX 32 45 84 46 78 47 77 48 33 50 65 51 45 52 64 53 46 54 49 55
REMARK SMILES IDX 63 56 82 57 47 58 48 59 62 61 83 62 50 63 34 64 35 65 43 66
REMARK SMILES IDX 36 67 42 68 44 69 41 70 37 71 38 72 39 73 40 74 66 75 67 76
REMARK SMILES IDX 75 77 68 78 74 79 76 80 73 81 69 82 70 83 71 84 72 85 51 86
REMARK SMILES IDX 52 87 60 88 53 89 59 90 61 91 58 92 54 93 55 94 56 95 57 96
REMARK H PARENT 9 13 81 49 49 60
REMARK Flexibility Score: inf
ROOT
ATOM      1  C   UNL A   1      40.560  20.580  26.509  1.00  0.00     0.188 C 
ENDROOT
BRANCH   1   2
ATOM      2  C   UNL A   1      39.379  21.501  26.182  1.00  0.00     0.188 C 
BRANCH   2   3
ATOM      3  O   UNL A   1      38.410  20.916  25.324  1.00  0.00    -0.376 OA
BRANCH   3   4
ATOM      4  C   UNL A   1      37.113  21.482  25.440  1.00  0.00     0.202 C 
BRANCH   4   5
ATOM      5  C   UNL A   1      36.735  22.467  24.325  1.00  0.00     0.261 C 
BRANCH   5   6
ATOM      6  O   UNL A   1      35.417  22.266  23.749  1.00  0.00    -0.461 OA
BRANCH   6   7
ATOM      7  C   UNL A   1      34.633  23.353  23.560  1.00  0.00     0.333 C 
ATOM      8  O   UNL A   1      35.098  24.387  23.081  1.00  0.00    -0.249 OA
BRANCH   7   9
ATOM      9  C   UNL A   1      33.205  23.277  24.194  1.00  0.00     0.223 C 
BRANCH   9  10
ATOM     10  N   UNL A   1      33.323  22.595  25.476  1.00  0.00    -0.335 N 
ATOM     11  C   UNL A   1      33.327  21.277  25.845  1.00  0.00     0.253 C 
ATOM     12  O   UNL A   1      33.606  21.101  27.038  1.00  0.00    -0.269 OA
ATOM     13  H   UNL A   1      33.421  23.212  26.237  1.00  0.00     0.165 HD
BRANCH  11  14
ATOM     14  C   UNL A   1      32.920  20.127  25.000  1.00  0.00     0.053 A 
ATOM     15  C   UNL A   1      32.141  20.875  22.524  1.00  0.00     0.046 C 
ATOM     16  C   UNL A   1      32.416  19.919  23.635  1.00  0.00    -0.028 A 
ATOM     17  C   UNL A   1      32.249  18.565  23.365  1.00  0.00     0.069 A 
ATOM     18  S   UNL A   1      32.681  17.548  24.646  1.00  0.00    -0.151 S 
ATOM     19  C   UNL A   1      33.119  18.882  25.594  1.00  0.00     0.079 A 
ENDBRANCH  11  14
ENDBRANCH   9  10
BRANCH   9  20
ATOM     20  C   UNL A   1      32.146  24.396  24.319  1.00  0.00    -0.014 A 
ATOM     21  C   UNL A   1      30.921  24.359  23.628  1.00  0.00     0.006 A 
ATOM     22  C   UNL A   1      32.270  25.431  25.278  1.00  0.00     0.006 A 
ATOM     23  C   UNL A   1      29.935  25.347  23.828  1.00  0.00     0.000 A 
ATOM     24  C   UNL A   1      31.308  26.430  25.459  1.00  0.00     0.000 A 
ATOM     25  C   UNL A   1      30.134  26.390  24.730  1.00  0.00     0.000 A 
ENDBRANCH   9  20
ENDBRANCH   7   9
ENDBRANCH   6   7
ENDBRANCH   5   6
ENDBRANCH   4   5
ENDBRANCH   3   4
ENDBRANCH   2   3
ENDBRANCH   1   2
BRANCH   1  26
ATOM     26  O   UNL A   1      41.874  21.097  26.639  1.00  0.00    -0.376 OA
BRANCH  26  27
ATOM     27  C   UNL A   1      42.883  20.541  25.816  1.00  0.00     0.202 C 
BRANCH  27  28
ATOM     28  C   UNL A   1      44.215  21.296  25.659  1.00  0.00     0.261 C 
BRANCH  28  29
ATOM     29  O   UNL A   1      44.299  22.589  26.290  1.00  0.00    -0.460 OA
BRANCH  29  30
ATOM     30  C   UNL A   1      43.935  23.640  25.510  1.00  0.00     0.338 C 
ATOM     31  O   UNL A   1      44.066  23.719  24.293  1.00  0.00    -0.246 OA
BRANCH  30  32
ATOM     32  C   UNL A   1      43.162  24.633  26.294  1.00  0.00     0.060 A 
ATOM     33  C   UNL A   1      43.524  25.986  26.202  1.00  0.00     0.016 A 
ATOM     34  C   UNL A   1      42.160  24.244  27.181  1.00  0.00     0.016 A 
ATOM     35  C   UNL A   1      42.916  26.947  27.011  1.00  0.00     0.010 A 
ATOM     36  C   UNL A   1      41.572  25.205  28.019  1.00  0.00     0.010 A 
ATOM     37  C   UNL A   1      41.971  26.555  27.964  1.00  0.00    -0.014 A 
BRANCH  37  38
ATOM     38  C   UNL A   1      41.568  27.510  29.034  1.00  0.00     0.031 A 
ATOM     39  C   UNL A   1      42.364  27.531  30.315  1.00  0.00     0.074 A 
ATOM     40  C   UNL A   1      40.553  28.380  28.869  1.00  0.00     0.049 A 
ATOM     41  N   UNL A   1      42.147  28.193  31.422  1.00  0.00    -0.248 NA
ATOM     42  C   UNL A   1      43.569  26.688  30.342  1.00  0.00     0.031 C 
ATOM     43  C   UNL A   1      39.766  28.540  27.650  1.00  0.00     0.029 A 
ATOM     44  N   UNL A   1      40.013  29.294  29.741  1.00  0.00    -0.354 N 
ATOM     45  C   UNL A   1      43.177  27.834  32.286  1.00  0.00     0.074 A 
ATOM     46  C   UNL A   1      44.001  26.876  31.579  1.00  0.00     0.031 C 
ATOM     47  C   UNL A   1      38.832  29.486  27.855  1.00  0.00     0.029 A 
ATOM     48  C   UNL A   1      38.918  29.960  29.237  1.00  0.00     0.049 A 
ATOM     49  H   UNL A   1      40.373  29.459  30.642  1.00  0.00     0.167 HD
ATOM     50  C   UNL A   1      43.415  28.263  33.550  1.00  0.00     0.034 A 
ATOM     51  C   UNL A   1      38.060  30.816  29.832  1.00  0.00     0.034 A 
ATOM     52  C   UNL A   1      42.586  29.216  34.249  1.00  0.00     0.049 A 
ATOM     53  C   UNL A   1      38.269  31.183  31.286  1.00  0.00     0.074 A 
ATOM     54  C   UNL A   1      42.739  29.712  35.532  1.00  0.00     0.029 A 
ATOM     55  N   UNL A   1      41.442  29.808  33.731  1.00  0.00    -0.354 N 
ATOM     56  N   UNL A   1      39.226  30.812  32.107  1.00  0.00    -0.248 NA
ATOM     57  C   UNL A   1      37.281  32.086  31.893  1.00  0.00     0.031 C 
ATOM     58  C   UNL A   1      41.647  30.536  35.819  1.00  0.00     0.029 A 
ATOM     59  C   UNL A   1      40.859  30.631  34.683  1.00  0.00     0.049 A 
ATOM     60  H   UNL A   1      41.095  29.664  32.821  1.00  0.00     0.167 HD
ATOM     61  C   UNL A   1      38.972  31.467  33.311  1.00  0.00     0.074 A 
ATOM     62  C   UNL A   1      37.782  32.264  33.107  1.00  0.00     0.031 C 
ATOM     63  C   UNL A   1      39.665  31.421  34.478  1.00  0.00     0.034 A 
BRANCH  50  64
ATOM     64  C   UNL A   1      44.584  27.646  34.284  1.00  0.00     0.023 A 
ATOM     65  C   UNL A   1      44.467  26.438  34.992  1.00  0.00     0.031 A 
ATOM     66  C   UNL A   1      45.829  28.300  34.298  1.00  0.00     0.131 A 
ATOM     67  C   UNL A   1      45.552  25.961  35.743  1.00  0.00     0.055 A 
ATOM     68  C   UNL A   1      46.930  27.775  34.976  1.00  0.00     0.041 A 
ATOM     69  F   UNL A   1      45.995  29.470  33.660  1.00  0.00    -0.206 F 
ATOM     70  C   UNL A   1      46.791  26.606  35.718  1.00  0.00     0.022 A 
BRANCH  67  71
ATOM     71  S   UNL A   1      45.277  24.572  36.877  1.00  0.00     0.124 S 
ATOM     72  O   UNL A   1      44.733  25.252  38.050  1.00  0.00    -0.237 OA
ATOM     73  O   UNL A   1      44.343  23.737  36.133  1.00  0.00    -0.237 OA
ATOM     74  O   UNL A   1      46.613  24.008  37.059  1.00  0.00    -0.744 OA
ENDBRANCH  67  71
ENDBRANCH  50  64
BRANCH  51  75
ATOM     75  C   UNL A   1      36.875  31.344  29.092  1.00  0.00     0.023 A 
ATOM     76  C   UNL A   1      35.845  30.492  28.660  1.00  0.00     0.031 A 
ATOM     77  C   UNL A   1      36.797  32.702  28.730  1.00  0.00     0.131 A 
ATOM     78  C   UNL A   1      34.812  30.994  27.851  1.00  0.00     0.055 A 
ATOM     79  C   UNL A   1      35.735  33.208  27.980  1.00  0.00     0.041 A 
ATOM     80  F   UNL A   1      37.760  33.560  29.104  1.00  0.00    -0.206 F 
ATOM     81  C   UNL A   1      34.742  32.349  27.523  1.00  0.00     0.022 A 
BRANCH  78  82
ATOM     82  S   UNL A   1      33.619  29.827  27.140  1.00  0.00     0.124 S 
ATOM     83  O   UNL A   1      33.906  29.943  25.716  1.00  0.00    -0.237 OA
ATOM     84  O   UNL A   1      34.008  28.572  27.774  1.00  0.00    -0.237 OA
ATOM     85  O   UNL A   1      32.326  30.364  27.562  1.00  0.00    -0.744 OA
ENDBRANCH  78  82
ENDBRANCH  51  75
BRANCH  63  86
ATOM     86  C   UNL A   1      39.188  32.302  35.610  1.00  0.00     0.023 A 
ATOM     87  C   UNL A   1      39.624  33.630  35.759  1.00  0.00     0.031 A 
ATOM     88  C   UNL A   1      38.280  31.799  36.560  1.00  0.00     0.131 A 
ATOM     89  C   UNL A   1      39.197  34.390  36.862  1.00  0.00     0.055 A 
ATOM     90  C   UNL A   1      37.807  32.579  37.617  1.00  0.00     0.041 A 
ATOM     91  F   UNL A   1      37.829  30.537  36.473  1.00  0.00    -0.206 F 
ATOM     92  C   UNL A   1      38.276  33.878  37.780  1.00  0.00     0.022 A 
BRANCH  89  93
ATOM     93  S   UNL A   1      39.935  36.024  37.137  1.00  0.00     0.124 S 
ATOM     94  O   UNL A   1      39.926  36.592  35.792  1.00  0.00    -0.237 OA
ATOM     95  O   UNL A   1      39.009  36.629  38.089  1.00  0.00    -0.237 OA
ATOM     96  O   UNL A   1      41.260  35.718  37.671  1.00  0.00    -0.744 OA
ENDBRANCH  89  93
ENDBRANCH  63  86
ENDBRANCH  37  38
ENDBRANCH  30  32
ENDBRANCH  29  30
ENDBRANCH  28  29
ENDBRANCH  27  28
ENDBRANCH  26  27
ENDBRANCH   1  26
TORSDOF 23
ENDMDL
