MODEL 1
REMARK VINA RESULT:     -10.2      0.000      0.000
REMARK SMILES COc1cc2cc(C(=O)OCCOCCOCCOC(=O)c3ccc(-c4c5nc(c(-c6cc(S(=O)(=O)[O-])ccc6F)c6ccc([nH]6)c(-c6cc(S(=O)(=O)[O-])ccc6F)c6nc(c(-c7cc(S(=O)(=O)[O-])ccc7F)c7ccc4[nH]7)C=C6)C=C5)cc3)n(Cc3ccccc3)c2c(OC)c1OC
REMARK SMILES IDX 15 1 14 2 13 3 12 4 11 5 10 6 8 7 9 8 7 9 3 10 4 11 97 12
REMARK SMILES IDX 5 13 94 14 6 15 93 16 85 17 2 18 1 19 98 20 99 21 95 22
REMARK SMILES IDX 96 23 86 24 87 25 88 26 92 27 89 28 91 29 90 30 16 31 17 32
REMARK SMILES IDX 18 33 19 34 20 35 21 36 22 37 23 38 84 39 24 40 83 41 25 42
REMARK SMILES IDX 26 43 27 44 77 45 28 46 82 47 76 48 78 49 29 50 81 51 75 52
REMARK SMILES IDX 74 53 30 55 62 56 42 57 61 58 43 59 46 60 60 61 79 62 44 63
REMARK SMILES IDX 45 64 59 66 80 67 47 68 31 69 32 70 40 71 33 72 39 73 41 74
REMARK SMILES IDX 38 75 34 76 35 77 36 78 37 79 63 80 64 81 72 82 65 83 71 84
REMARK SMILES IDX 73 85 70 86 66 87 67 88 68 89 69 90 48 91 49 92 57 93 50 94
REMARK SMILES IDX 56 95 58 96 55 97 51 98 52 99 53 100 54 101
REMARK H PARENT 78 54 46 65
REMARK Flexibility Score: inf
ROOT
ATOM      1  C   UNL A   1      31.189  31.176  26.445  1.00  0.00     0.188 C 
ENDROOT
BRANCH   1   2
ATOM      2  C   UNL A   1      31.648  30.447  25.174  1.00  0.00     0.188 C 
BRANCH   2   3
ATOM      3  O   UNL A   1      30.705  29.566  24.567  1.00  0.00    -0.376 OA
BRANCH   3   4
ATOM      4  C   UNL A   1      31.075  28.947  23.338  1.00  0.00     0.202 C 
BRANCH   4   5
ATOM      5  C   UNL A   1      30.044  27.970  22.761  1.00  0.00     0.261 C 
BRANCH   5   6
ATOM      6  O   UNL A   1      30.685  26.701  22.530  1.00  0.00    -0.459 OA
BRANCH   6   7
ATOM      7  C   UNL A   1      30.435  25.727  23.439  1.00  0.00     0.355 C 
ATOM      8  O   UNL A   1      29.427  25.662  24.121  1.00  0.00    -0.244 OA
BRANCH   7   9
ATOM      9  C   UNL A   1      31.463  24.708  23.374  1.00  0.00     0.129 A 
ATOM     10  C   UNL A   1      33.510  20.754  24.622  1.00  0.00     0.165 A 
ATOM     11  C   UNL A   1      32.414  21.255  23.941  1.00  0.00     0.061 A 
ATOM     12  C   UNL A   1      34.529  21.626  25.002  1.00  0.00     0.205 A 
ATOM     13  C   UNL A   1      32.287  22.624  23.632  1.00  0.00     0.008 A 
ATOM     14  C   UNL A   1      34.428  23.029  24.735  1.00  0.00     0.189 A 
ATOM     15  C   UNL A   1      31.277  23.396  23.002  1.00  0.00     0.044 A 
ATOM     16  C   UNL A   1      33.268  23.510  24.069  1.00  0.00     0.096 A 
ATOM     17  N   UNL A   1      32.801  24.780  23.722  1.00  0.00    -0.327 N 
BRANCH  10  18
ATOM     18  O   UNL A   1      33.616  19.397  24.797  1.00  0.00    -0.493 OA
ATOM     19  C   UNL A   1      32.511  18.657  24.255  1.00  0.00     0.278 C 
ENDBRANCH  10  18
BRANCH  12  20
ATOM     20  O   UNL A   1      35.677  21.150  25.602  1.00  0.00    -0.490 OA
ATOM     21  C   UNL A   1      36.765  20.957  24.685  1.00  0.00     0.278 C 
ENDBRANCH  12  20
BRANCH  14  22
ATOM     22  O   UNL A   1      35.380  23.950  25.090  1.00  0.00    -0.491 OA
ATOM     23  C   UNL A   1      35.476  24.182  26.492  1.00  0.00     0.278 C 
ENDBRANCH  14  22
BRANCH  17  24
ATOM     24  C   UNL A   1      33.565  26.018  23.703  1.00  0.00     0.158 C 
BRANCH  24  25
ATOM     25  C   UNL A   1      33.417  26.750  25.021  1.00  0.00    -0.028 A 
ATOM     26  C   UNL A   1      32.355  26.468  25.894  1.00  0.00     0.005 A 
ATOM     27  C   UNL A   1      34.311  27.761  25.382  1.00  0.00     0.005 A 
ATOM     28  C   UNL A   1      32.148  27.205  27.058  1.00  0.00     0.000 A 
ATOM     29  C   UNL A   1      34.132  28.477  26.571  1.00  0.00     0.000 A 
ATOM     30  C   UNL A   1      33.043  28.210  27.401  1.00  0.00     0.000 A 
ENDBRANCH  24  25
ENDBRANCH  17  24
ENDBRANCH   7   9
ENDBRANCH   6   7
ENDBRANCH   5   6
ENDBRANCH   4   5
ENDBRANCH   3   4
ENDBRANCH   2   3
ENDBRANCH   1   2
BRANCH   1  31
ATOM     31  O   UNL A   1      31.507  32.564  26.531  1.00  0.00    -0.376 OA
BRANCH  31  32
ATOM     32  C   UNL A   1      32.392  32.938  27.586  1.00  0.00     0.202 C 
BRANCH  32  33
ATOM     33  C   UNL A   1      33.765  32.264  27.500  1.00  0.00     0.261 C 
BRANCH  33  34
ATOM     34  O   UNL A   1      34.724  33.085  28.191  1.00  0.00    -0.460 OA
BRANCH  34  35
ATOM     35  C   UNL A   1      35.017  32.695  29.456  1.00  0.00     0.338 C 
ATOM     36  O   UNL A   1      34.342  32.914  30.449  1.00  0.00    -0.246 OA
BRANCH  35  37
ATOM     37  C   UNL A   1      36.131  31.710  29.383  1.00  0.00     0.060 A 
ATOM     38  C   UNL A   1      35.923  30.327  29.357  1.00  0.00     0.016 A 
ATOM     39  C   UNL A   1      37.431  32.197  29.486  1.00  0.00     0.016 A 
ATOM     40  C   UNL A   1      36.998  29.441  29.549  1.00  0.00     0.010 A 
ATOM     41  C   UNL A   1      38.503  31.304  29.596  1.00  0.00     0.010 A 
ATOM     42  C   UNL A   1      38.311  29.916  29.716  1.00  0.00    -0.014 A 
BRANCH  42  43
ATOM     43  C   UNL A   1      39.454  28.961  29.607  1.00  0.00     0.031 A 
ATOM     44  C   UNL A   1      39.863  28.584  30.966  1.00  0.00     0.074 A 
ATOM     45  C   UNL A   1      40.207  28.386  28.624  1.00  0.00     0.049 A 
ATOM     46  N   UNL A   1      40.854  29.141  31.577  1.00  0.00    -0.248 NA
ATOM     47  C   UNL A   1      39.028  27.709  31.786  1.00  0.00     0.031 C 
ATOM     48  C   UNL A   1      40.182  28.567  27.179  1.00  0.00     0.029 A 
ATOM     49  N   UNL A   1      41.169  27.392  28.734  1.00  0.00    -0.354 N 
ATOM     50  C   UNL A   1      40.944  28.471  32.774  1.00  0.00     0.074 A 
ATOM     51  C   UNL A   1      39.680  27.792  32.948  1.00  0.00     0.031 C 
ATOM     52  C   UNL A   1      40.781  27.538  26.537  1.00  0.00     0.029 A 
ATOM     53  C   UNL A   1      41.484  26.754  27.533  1.00  0.00     0.049 A 
ATOM     54  H   UNL A   1      41.595  27.158  29.590  1.00  0.00     0.167 HD
ATOM     55  C   UNL A   1      42.166  28.273  33.333  1.00  0.00     0.034 A 
ATOM     56  C   UNL A   1      42.467  25.863  27.252  1.00  0.00     0.034 A 
ATOM     57  C   UNL A   1      43.195  29.057  32.690  1.00  0.00     0.049 A 
ATOM     58  C   UNL A   1      43.648  26.263  28.039  1.00  0.00     0.074 A 
ATOM     59  C   UNL A   1      43.607  30.371  32.679  1.00  0.00     0.029 A 
ATOM     60  N   UNL A   1      43.774  28.451  31.608  1.00  0.00    -0.354 N 
ATOM     61  N   UNL A   1      44.347  27.340  27.811  1.00  0.00    -0.248 NA
ATOM     62  C   UNL A   1      43.970  25.549  29.268  1.00  0.00     0.031 C 
ATOM     63  C   UNL A   1      44.408  30.547  31.510  1.00  0.00     0.029 A 
ATOM     64  C   UNL A   1      44.469  29.339  30.824  1.00  0.00     0.049 A 
ATOM     65  H   UNL A   1      43.701  27.488  31.413  1.00  0.00     0.167 HD
ATOM     66  C   UNL A   1      44.831  27.678  29.053  1.00  0.00     0.074 A 
ATOM     67  C   UNL A   1      44.760  26.456  29.843  1.00  0.00     0.031 C 
ATOM     68  C   UNL A   1      44.853  28.976  29.470  1.00  0.00     0.034 A 
BRANCH  55  69
ATOM     69  C   UNL A   1      42.500  27.040  34.126  1.00  0.00     0.023 A 
ATOM     70  C   UNL A   1      43.316  26.012  33.621  1.00  0.00     0.031 A 
ATOM     71  C   UNL A   1      42.199  26.973  35.497  1.00  0.00     0.131 A 
ATOM     72  C   UNL A   1      43.752  24.954  34.421  1.00  0.00     0.055 A 
ATOM     73  C   UNL A   1      42.697  25.957  36.320  1.00  0.00     0.041 A 
ATOM     74  F   UNL A   1      41.453  27.922  36.084  1.00  0.00    -0.206 F 
ATOM     75  C   UNL A   1      43.471  24.934  35.782  1.00  0.00     0.022 A 
BRANCH  72  76
ATOM     76  S   UNL A   1      44.703  23.600  33.683  1.00  0.00     0.124 S 
ATOM     77  O   UNL A   1      44.153  22.438  34.370  1.00  0.00    -0.237 OA
ATOM     78  O   UNL A   1      44.354  23.732  32.271  1.00  0.00    -0.237 OA
ATOM     79  O   UNL A   1      46.086  23.936  34.012  1.00  0.00    -0.744 OA
ENDBRANCH  72  76
ENDBRANCH  55  69
BRANCH  56  80
ATOM     80  C   UNL A   1      42.524  24.719  26.308  1.00  0.00     0.023 A 
ATOM     81  C   UNL A   1      41.858  23.516  26.610  1.00  0.00     0.031 A 
ATOM     82  C   UNL A   1      43.490  24.666  25.284  1.00  0.00     0.131 A 
ATOM     83  C   UNL A   1      42.221  22.313  25.971  1.00  0.00     0.055 A 
ATOM     84  C   UNL A   1      43.842  23.472  24.643  1.00  0.00     0.041 A 
ATOM     85  F   UNL A   1      44.175  25.764  24.929  1.00  0.00    -0.206 F 
ATOM     86  C   UNL A   1      43.224  22.281  25.004  1.00  0.00     0.022 A 
BRANCH  83  87
ATOM     87  S   UNL A   1      41.443  20.761  26.509  1.00  0.00     0.124 S 
ATOM     88  O   UNL A   1      42.091  20.472  27.786  1.00  0.00    -0.237 OA
ATOM     89  O   UNL A   1      40.036  21.136  26.593  1.00  0.00    -0.237 OA
ATOM     90  O   UNL A   1      41.791  19.851  25.423  1.00  0.00    -0.744 OA
ENDBRANCH  83  87
ENDBRANCH  56  80
BRANCH  68  91
ATOM     91  C   UNL A   1      45.101  30.069  28.464  1.00  0.00     0.023 A 
ATOM     92  C   UNL A   1      46.417  30.564  28.385  1.00  0.00     0.031 A 
ATOM     93  C   UNL A   1      44.124  30.701  27.675  1.00  0.00     0.131 A 
ATOM     94  C   UNL A   1      46.721  31.667  27.579  1.00  0.00     0.055 A 
ATOM     95  C   UNL A   1      44.444  31.764  26.820  1.00  0.00     0.041 A 
ATOM     96  F   UNL A   1      42.831  30.355  27.746  1.00  0.00    -0.206 F 
ATOM     97  C   UNL A   1      45.744  32.262  26.779  1.00  0.00     0.022 A 
BRANCH  94  98
ATOM     98  S   UNL A   1      48.364  32.429  27.652  1.00  0.00     0.124 S 
ATOM     99  O   UNL A   1      48.099  33.671  28.373  1.00  0.00    -0.237 OA
ATOM    100  O   UNL A   1      49.139  31.432  28.387  1.00  0.00    -0.237 OA
ATOM    101  O   UNL A   1      48.741  32.590  26.250  1.00  0.00    -0.744 OA
ENDBRANCH  94  98
ENDBRANCH  68  91
ENDBRANCH  42  43
ENDBRANCH  35  37
ENDBRANCH  34  35
ENDBRANCH  33  34
ENDBRANCH  32  33
ENDBRANCH  31  32
ENDBRANCH   1  31
TORSDOF 25
ENDMDL
MODEL 2
REMARK VINA RESULT:     -10.0      2.731      9.536
REMARK SMILES COc1cc2cc(C(=O)OCCOCCOCCOC(=O)c3ccc(-c4c5nc(c(-c6cc(S(=O)(=O)[O-])ccc6F)c6ccc([nH]6)c(-c6cc(S(=O)(=O)[O-])ccc6F)c6nc(c(-c7cc(S(=O)(=O)[O-])ccc7F)c7ccc4[nH]7)C=C6)C=C5)cc3)n(Cc3ccccc3)c2c(OC)c1OC
REMARK SMILES IDX 15 1 14 2 13 3 12 4 11 5 10 6 8 7 9 8 7 9 3 10 4 11 97 12
REMARK SMILES IDX 5 13 94 14 6 15 93 16 85 17 2 18 1 19 98 20 99 21 95 22
REMARK SMILES IDX 96 23 86 24 87 25 88 26 92 27 89 28 91 29 90 30 16 31 17 32
REMARK SMILES IDX 18 33 19 34 20 35 21 36 22 37 23 38 84 39 24 40 83 41 25 42
REMARK SMILES IDX 26 43 27 44 77 45 28 46 82 47 76 48 78 49 29 50 81 51 75 52
REMARK SMILES IDX 74 53 30 55 62 56 42 57 61 58 43 59 46 60 60 61 79 62 44 63
REMARK SMILES IDX 45 64 59 66 80 67 47 68 31 69 32 70 40 71 33 72 39 73 41 74
REMARK SMILES IDX 38 75 34 76 35 77 36 78 37 79 63 80 64 81 72 82 65 83 71 84
REMARK SMILES IDX 73 85 70 86 66 87 67 88 68 89 69 90 48 91 49 92 57 93 50 94
REMARK SMILES IDX 56 95 58 96 55 97 51 98 52 99 53 100 54 101
REMARK H PARENT 78 54 46 65
REMARK Flexibility Score: inf
ROOT
ATOM      1  C   UNL A   1      41.802  19.831  26.188  1.00  0.00     0.188 C 
ENDROOT
BRANCH   1   2
ATOM      2  C   UNL A   1      40.275  19.897  26.043  1.00  0.00     0.188 C 
BRANCH   2   3
ATOM      3  O   UNL A   1      39.646  21.110  26.450  1.00  0.00    -0.376 OA
BRANCH   3   4
ATOM      4  C   UNL A   1      38.474  21.515  25.747  1.00  0.00     0.202 C 
BRANCH   4   5
ATOM      5  C   UNL A   1      38.135  23.006  25.847  1.00  0.00     0.261 C 
BRANCH   5   6
ATOM      6  O   UNL A   1      36.943  23.263  25.079  1.00  0.00    -0.459 OA
BRANCH   6   7
ATOM      7  C   UNL A   1      35.812  23.502  25.787  1.00  0.00     0.355 C 
ATOM      8  O   UNL A   1      35.518  22.938  26.828  1.00  0.00    -0.244 OA
BRANCH   7   9
ATOM      9  C   UNL A   1      35.086  24.614  25.210  1.00  0.00     0.129 A 
ATOM     10  C   UNL A   1      31.779  27.845  25.110  1.00  0.00     0.165 A 
ATOM     11  C   UNL A   1      32.971  27.513  25.731  1.00  0.00     0.061 A 
ATOM     12  C   UNL A   1      31.372  27.119  23.992  1.00  0.00     0.205 A 
ATOM     13  C   UNL A   1      33.781  26.453  25.278  1.00  0.00     0.008 A 
ATOM     14  C   UNL A   1      32.149  26.015  23.514  1.00  0.00     0.189 A 
ATOM     15  C   UNL A   1      34.995  25.881  25.739  1.00  0.00     0.044 A 
ATOM     16  C   UNL A   1      33.346  25.681  24.203  1.00  0.00     0.096 A 
ATOM     17  N   UNL A   1      34.287  24.656  24.079  1.00  0.00    -0.327 N 
BRANCH  10  18
ATOM     18  O   UNL A   1      31.095  28.954  25.542  1.00  0.00    -0.493 OA
ATOM     19  C   UNL A   1      31.929  29.937  26.172  1.00  0.00     0.278 C 
ENDBRANCH  10  18
BRANCH  12  20
ATOM     20  O   UNL A   1      30.238  27.477  23.294  1.00  0.00    -0.490 OA
ATOM     21  C   UNL A   1      29.055  26.786  23.726  1.00  0.00     0.278 C 
ENDBRANCH  12  20
BRANCH  14  22
ATOM     22  O   UNL A   1      31.807  25.246  22.432  1.00  0.00    -0.491 OA
ATOM     23  C   UNL A   1      31.973  25.895  21.175  1.00  0.00     0.278 C 
ENDBRANCH  14  22
BRANCH  17  24
ATOM     24  C   UNL A   1      34.452  23.750  22.953  1.00  0.00     0.158 C 
BRANCH  24  25
ATOM     25  C   UNL A   1      33.634  22.492  23.163  1.00  0.00    -0.028 A 
ATOM     26  C   UNL A   1      33.907  21.618  24.226  1.00  0.00     0.005 A 
ATOM     27  C   UNL A   1      32.614  22.145  22.274  1.00  0.00     0.005 A 
ATOM     28  C   UNL A   1      33.232  20.407  24.370  1.00  0.00     0.000 A 
ATOM     29  C   UNL A   1      31.906  20.950  22.437  1.00  0.00     0.000 A 
ATOM     30  C   UNL A   1      32.224  20.074  23.475  1.00  0.00     0.000 A 
ENDBRANCH  24  25
ENDBRANCH  17  24
ENDBRANCH   7   9
ENDBRANCH   6   7
ENDBRANCH   5   6
ENDBRANCH   4   5
ENDBRANCH   3   4
ENDBRANCH   2   3
ENDBRANCH   1   2
BRANCH   1  31
ATOM     31  O   UNL A   1      42.444  18.682  25.638  1.00  0.00    -0.376 OA
BRANCH  31  32
ATOM     32  C   UNL A   1      43.699  18.329  26.218  1.00  0.00     0.202 C 
BRANCH  32  33
ATOM     33  C   UNL A   1      44.886  18.520  25.269  1.00  0.00     0.261 C 
BRANCH  33  34
ATOM     34  O   UNL A   1      45.356  19.875  25.386  1.00  0.00    -0.460 OA
BRANCH  34  35
ATOM     35  C   UNL A   1      44.932  20.722  24.415  1.00  0.00     0.338 C 
ATOM     36  O   UNL A   1      44.640  20.413  23.271  1.00  0.00    -0.246 OA
BRANCH  35  37
ATOM     37  C   UNL A   1      44.601  22.023  25.057  1.00  0.00     0.060 A 
ATOM     38  C   UNL A   1      43.586  22.865  24.591  1.00  0.00     0.016 A 
ATOM     39  C   UNL A   1      45.437  22.471  26.076  1.00  0.00     0.016 A 
ATOM     40  C   UNL A   1      43.483  24.186  25.062  1.00  0.00     0.010 A 
ATOM     41  C   UNL A   1      45.275  23.760  26.595  1.00  0.00     0.010 A 
ATOM     42  C   UNL A   1      44.357  24.676  26.048  1.00  0.00    -0.014 A 
BRANCH  42  43
ATOM     43  C   UNL A   1      44.033  25.959  26.742  1.00  0.00     0.031 A 
ATOM     44  C   UNL A   1      45.123  26.907  26.478  1.00  0.00     0.074 A 
ATOM     45  C   UNL A   1      43.049  26.459  27.544  1.00  0.00     0.049 A 
ATOM     46  N   UNL A   1      46.085  27.116  27.312  1.00  0.00    -0.248 NA
ATOM     47  C   UNL A   1      45.295  27.504  25.155  1.00  0.00     0.031 C 
ATOM     48  C   UNL A   1      41.863  25.822  28.103  1.00  0.00     0.029 A 
ATOM     49  N   UNL A   1      42.866  27.761  27.989  1.00  0.00    -0.354 N 
ATOM     50  C   UNL A   1      46.844  28.101  26.727  1.00  0.00     0.074 A 
ATOM     51  C   UNL A   1      46.464  28.123  25.332  1.00  0.00     0.031 C 
ATOM     52  C   UNL A   1      40.943  26.735  28.490  1.00  0.00     0.029 A 
ATOM     53  C   UNL A   1      41.583  28.035  28.468  1.00  0.00     0.049 A 
ATOM     54  H   UNL A   1      43.583  28.434  27.969  1.00  0.00     0.167 HD
ATOM     55  C   UNL A   1      47.459  29.020  27.515  1.00  0.00     0.034 A 
ATOM     56  C   UNL A   1      41.109  29.134  29.106  1.00  0.00     0.034 A 
ATOM     57  C   UNL A   1      47.436  28.647  28.910  1.00  0.00     0.049 A 
ATOM     58  C   UNL A   1      42.188  29.618  29.986  1.00  0.00     0.074 A 
ATOM     59  C   UNL A   1      48.094  27.759  29.732  1.00  0.00     0.029 A 
ATOM     60  N   UNL A   1      46.319  29.059  29.586  1.00  0.00    -0.354 N 
ATOM     61  N   UNL A   1      42.601  28.988  31.051  1.00  0.00    -0.248 NA
ATOM     62  C   UNL A   1      42.996  30.759  29.575  1.00  0.00     0.031 C 
ATOM     63  C   UNL A   1      47.295  27.606  30.905  1.00  0.00     0.029 A 
ATOM     64  C   UNL A   1      46.160  28.398  30.780  1.00  0.00     0.049 A 
ATOM     65  H   UNL A   1      45.700  29.750  29.255  1.00  0.00     0.167 HD
ATOM     66  C   UNL A   1      43.925  29.346  31.144  1.00  0.00     0.074 A 
ATOM     67  C   UNL A   1      44.049  30.575  30.372  1.00  0.00     0.031 C 
ATOM     68  C   UNL A   1      44.881  28.430  31.469  1.00  0.00     0.034 A 
BRANCH  55  69
ATOM     69  C   UNL A   1      47.654  30.449  27.088  1.00  0.00     0.023 A 
ATOM     70  C   UNL A   1      46.577  31.313  26.820  1.00  0.00     0.031 A 
ATOM     71  C   UNL A   1      48.923  31.047  27.166  1.00  0.00     0.131 A 
ATOM     72  C   UNL A   1      46.765  32.676  26.585  1.00  0.00     0.055 A 
ATOM     73  C   UNL A   1      49.107  32.426  27.007  1.00  0.00     0.041 A 
ATOM     74  F   UNL A   1      50.013  30.316  27.447  1.00  0.00    -0.206 F 
ATOM     75  C   UNL A   1      48.026  33.248  26.706  1.00  0.00     0.022 A 
BRANCH  72  76
ATOM     76  S   UNL A   1      45.352  33.714  26.129  1.00  0.00     0.124 S 
ATOM     77  O   UNL A   1      45.975  35.024  25.986  1.00  0.00    -0.237 OA
ATOM     78  O   UNL A   1      44.908  33.078  24.891  1.00  0.00    -0.237 OA
ATOM     79  O   UNL A   1      44.440  33.565  27.261  1.00  0.00    -0.744 OA
ENDBRANCH  72  76
ENDBRANCH  55  69
BRANCH  56  80
ATOM     80  C   UNL A   1      39.776  29.788  29.092  1.00  0.00     0.023 A 
ATOM     81  C   UNL A   1      39.217  30.282  30.286  1.00  0.00     0.031 A 
ATOM     82  C   UNL A   1      38.901  29.635  28.000  1.00  0.00     0.131 A 
ATOM     83  C   UNL A   1      37.831  30.519  30.387  1.00  0.00     0.055 A 
ATOM     84  C   UNL A   1      37.525  29.880  28.099  1.00  0.00     0.041 A 
ATOM     85  F   UNL A   1      39.345  29.169  26.823  1.00  0.00    -0.206 F 
ATOM     86  C   UNL A   1      36.979  30.300  29.306  1.00  0.00     0.022 A 
BRANCH  83  87
ATOM     87  S   UNL A   1      37.135  31.003  31.994  1.00  0.00     0.124 S 
ATOM     88  O   UNL A   1      36.786  32.410  31.812  1.00  0.00    -0.237 OA
ATOM     89  O   UNL A   1      36.005  30.091  32.127  1.00  0.00    -0.237 OA
ATOM     90  O   UNL A   1      38.254  30.759  32.899  1.00  0.00    -0.744 OA
ENDBRANCH  83  87
ENDBRANCH  56  80
BRANCH  68  91
ATOM     91  C   UNL A   1      44.541  27.319  32.427  1.00  0.00     0.023 A 
ATOM     92  C   UNL A   1      44.491  27.659  33.793  1.00  0.00     0.031 A 
ATOM     93  C   UNL A   1      44.369  25.964  32.092  1.00  0.00     0.131 A 
ATOM     94  C   UNL A   1      44.314  26.673  34.771  1.00  0.00     0.055 A 
ATOM     95  C   UNL A   1      44.128  24.989  33.069  1.00  0.00     0.041 A 
ATOM     96  F   UNL A   1      44.484  25.533  30.828  1.00  0.00    -0.206 F 
ATOM     97  C   UNL A   1      44.115  25.338  34.417  1.00  0.00     0.022 A 
BRANCH  94  98
ATOM     98  S   UNL A   1      44.470  27.090  36.528  1.00  0.00     0.124 S 
ATOM     99  O   UNL A   1      44.489  25.774  37.160  1.00  0.00    -0.237 OA
ATOM    100  O   UNL A   1      45.735  27.821  36.565  1.00  0.00    -0.237 OA
ATOM    101  O   UNL A   1      43.285  27.898  36.805  1.00  0.00    -0.744 OA
ENDBRANCH  94  98
ENDBRANCH  68  91
ENDBRANCH  42  43
ENDBRANCH  35  37
ENDBRANCH  34  35
ENDBRANCH  33  34
ENDBRANCH  32  33
ENDBRANCH  31  32
ENDBRANCH   1  31
TORSDOF 25
ENDMDL
MODEL 3
REMARK VINA RESULT:      -9.3      3.286      9.897
REMARK SMILES COc1cc2cc(C(=O)OCCOCCOCCOC(=O)c3ccc(-c4c5nc(c(-c6cc(S(=O)(=O)[O-])ccc6F)c6ccc([nH]6)c(-c6cc(S(=O)(=O)[O-])ccc6F)c6nc(c(-c7cc(S(=O)(=O)[O-])ccc7F)c7ccc4[nH]7)C=C6)C=C5)cc3)n(Cc3ccccc3)c2c(OC)c1OC
REMARK SMILES IDX 15 1 14 2 13 3 12 4 11 5 10 6 8 7 9 8 7 9 3 10 4 11 97 12
REMARK SMILES IDX 5 13 94 14 6 15 93 16 85 17 2 18 1 19 98 20 99 21 95 22
REMARK SMILES IDX 96 23 86 24 87 25 88 26 92 27 89 28 91 29 90 30 16 31 17 32
REMARK SMILES IDX 18 33 19 34 20 35 21 36 22 37 23 38 84 39 24 40 83 41 25 42
REMARK SMILES IDX 26 43 27 44 77 45 28 46 82 47 76 48 78 49 29 50 81 51 75 52
REMARK SMILES IDX 74 53 30 55 62 56 42 57 61 58 43 59 46 60 60 61 79 62 44 63
REMARK SMILES IDX 45 64 59 66 80 67 47 68 31 69 32 70 40 71 33 72 39 73 41 74
REMARK SMILES IDX 38 75 34 76 35 77 36 78 37 79 63 80 64 81 72 82 65 83 71 84
REMARK SMILES IDX 73 85 70 86 66 87 67 88 68 89 69 90 48 91 49 92 57 93 50 94
REMARK SMILES IDX 56 95 58 96 55 97 51 98 52 99 53 100 54 101
REMARK H PARENT 78 54 46 65
REMARK Flexibility Score: inf
ROOT
ATOM      1  C   UNL A   1      43.084  21.262  25.565  1.00  0.00     0.188 C 
ENDROOT
BRANCH   1   2
ATOM      2  C   UNL A   1      41.888  20.949  26.476  1.00  0.00     0.188 C 
BRANCH   2   3
ATOM      3  O   UNL A   1      41.061  19.853  26.093  1.00  0.00    -0.376 OA
BRANCH   3   4
ATOM      4  C   UNL A   1      39.652  20.063  26.072  1.00  0.00     0.202 C 
BRANCH   4   5
ATOM      5  C   UNL A   1      39.210  21.505  25.795  1.00  0.00     0.261 C 
BRANCH   5   6
ATOM      6  O   UNL A   1      37.832  21.495  25.374  1.00  0.00    -0.459 OA
BRANCH   6   7
ATOM      7  C   UNL A   1      37.114  22.613  25.641  1.00  0.00     0.355 C 
ATOM      8  O   UNL A   1      37.467  23.493  26.408  1.00  0.00    -0.244 OA
BRANCH   7   9
ATOM      9  C   UNL A   1      35.950  22.677  24.782  1.00  0.00     0.129 A 
ATOM     10  C   UNL A   1      32.638  24.839  22.385  1.00  0.00     0.165 A 
ATOM     11  C   UNL A   1      33.996  24.563  22.381  1.00  0.00     0.061 A 
ATOM     12  C   UNL A   1      31.815  24.177  23.296  1.00  0.00     0.205 A 
ATOM     13  C   UNL A   1      34.575  23.646  23.278  1.00  0.00     0.008 A 
ATOM     14  C   UNL A   1      32.367  23.258  24.245  1.00  0.00     0.189 A 
ATOM     15  C   UNL A   1      35.908  23.219  23.518  1.00  0.00     0.044 A 
ATOM     16  C   UNL A   1      33.770  23.033  24.235  1.00  0.00     0.096 A 
ATOM     17  N   UNL A   1      34.643  22.293  25.035  1.00  0.00    -0.327 N 
BRANCH  10  18
ATOM     18  O   UNL A   1      32.128  25.664  21.415  1.00  0.00    -0.493 OA
ATOM     19  C   UNL A   1      32.603  25.366  20.094  1.00  0.00     0.278 C 
ENDBRANCH  10  18
BRANCH  12  20
ATOM     20  O   UNL A   1      30.448  24.357  23.270  1.00  0.00    -0.490 OA
ATOM     21  C   UNL A   1      30.013  25.540  23.958  1.00  0.00     0.278 C 
ENDBRANCH  12  20
BRANCH  14  22
ATOM     22  O   UNL A   1      31.625  22.581  25.180  1.00  0.00    -0.491 OA
ATOM     23  C   UNL A   1      31.459  23.277  26.412  1.00  0.00     0.278 C 
ENDBRANCH  14  22
BRANCH  17  24
ATOM     24  C   UNL A   1      34.288  21.259  25.995  1.00  0.00     0.158 C 
BRANCH  24  25
ATOM     25  C   UNL A   1      34.017  19.949  25.283  1.00  0.00    -0.028 A 
ATOM     26  C   UNL A   1      35.067  19.104  24.892  1.00  0.00     0.005 A 
ATOM     27  C   UNL A   1      32.713  19.569  24.956  1.00  0.00     0.005 A 
ATOM     28  C   UNL A   1      34.838  17.949  24.146  1.00  0.00     0.000 A 
ATOM     29  C   UNL A   1      32.475  18.390  24.242  1.00  0.00     0.000 A 
ATOM     30  C   UNL A   1      33.537  17.588  23.824  1.00  0.00     0.000 A 
ENDBRANCH  24  25
ENDBRANCH  17  24
ENDBRANCH   7   9
ENDBRANCH   6   7
ENDBRANCH   5   6
ENDBRANCH   4   5
ENDBRANCH   3   4
ENDBRANCH   2   3
ENDBRANCH   1   2
BRANCH   1  31
ATOM     31  O   UNL A   1      43.900  22.368  25.946  1.00  0.00    -0.376 OA
BRANCH  31  32
ATOM     32  C   UNL A   1      45.300  22.219  25.713  1.00  0.00     0.202 C 
BRANCH  32  33
ATOM     33  C   UNL A   1      46.100  23.502  25.959  1.00  0.00     0.261 C 
BRANCH  33  34
ATOM     34  O   UNL A   1      45.464  24.583  25.253  1.00  0.00    -0.460 OA
BRANCH  34  35
ATOM     35  C   UNL A   1      46.183  25.732  25.182  1.00  0.00     0.338 C 
ATOM     36  O   UNL A   1      47.133  25.939  24.446  1.00  0.00    -0.246 OA
BRANCH  35  37
ATOM     37  C   UNL A   1      45.436  26.782  25.927  1.00  0.00     0.060 A 
ATOM     38  C   UNL A   1      46.034  27.601  26.892  1.00  0.00     0.016 A 
ATOM     39  C   UNL A   1      44.057  26.846  25.746  1.00  0.00     0.016 A 
ATOM     40  C   UNL A   1      45.243  28.390  27.745  1.00  0.00     0.010 A 
ATOM     41  C   UNL A   1      43.287  27.696  26.547  1.00  0.00     0.010 A 
ATOM     42  C   UNL A   1      43.843  28.421  27.617  1.00  0.00    -0.014 A 
BRANCH  42  43
ATOM     43  C   UNL A   1      43.067  29.488  28.318  1.00  0.00     0.031 A 
ATOM     44  C   UNL A   1      43.653  30.786  27.963  1.00  0.00     0.074 A 
ATOM     45  C   UNL A   1      42.016  29.576  29.186  1.00  0.00     0.049 A 
ATOM     46  N   UNL A   1      44.496  31.403  28.721  1.00  0.00    -0.248 NA
ATOM     47  C   UNL A   1      43.482  31.346  26.624  1.00  0.00     0.031 C 
ATOM     48  C   UNL A   1      41.233  28.535  29.838  1.00  0.00     0.029 A 
ATOM     49  N   UNL A   1      41.345  30.707  29.628  1.00  0.00    -0.354 N 
ATOM     50  C   UNL A   1      44.747  32.587  28.070  1.00  0.00     0.074 A 
ATOM     51  C   UNL A   1      44.304  32.395  26.707  1.00  0.00     0.031 C 
ATOM     52  C   UNL A   1      40.046  29.009  30.282  1.00  0.00     0.029 A 
ATOM     53  C   UNL A   1      40.095  30.454  30.197  1.00  0.00     0.049 A 
ATOM     54  H   UNL A   1      41.721  31.613  29.547  1.00  0.00     0.167 HD
ATOM     55  C   UNL A   1      44.980  33.709  28.799  1.00  0.00     0.034 A 
ATOM     56  C   UNL A   1      39.255  31.289  30.856  1.00  0.00     0.034 A 
ATOM     57  C   UNL A   1      45.200  33.416  30.196  1.00  0.00     0.049 A 
ATOM     58  C   UNL A   1      40.094  32.207  31.648  1.00  0.00     0.074 A 
ATOM     59  C   UNL A   1      46.214  32.907  30.977  1.00  0.00     0.029 A 
ATOM     60  N   UNL A   1      44.057  33.364  30.949  1.00  0.00    -0.354 N 
ATOM     61  N   UNL A   1      40.794  31.843  32.686  1.00  0.00    -0.248 NA
ATOM     62  C   UNL A   1      40.335  33.560  31.165  1.00  0.00     0.031 C 
ATOM     63  C   UNL A   1      45.624  32.490  32.208  1.00  0.00     0.029 A 
ATOM     64  C   UNL A   1      44.258  32.745  32.158  1.00  0.00     0.049 A 
ATOM     65  H   UNL A   1      43.190  33.729  30.657  1.00  0.00     0.167 HD
ATOM     66  C   UNL A   1      41.859  32.714  32.677  1.00  0.00     0.074 A 
ATOM     67  C   UNL A   1      41.420  33.854  31.883  1.00  0.00     0.031 C 
ATOM     68  C   UNL A   1      43.125  32.280  32.940  1.00  0.00     0.034 A 
BRANCH  55  69
ATOM     69  C   UNL A   1      44.545  35.074  28.343  1.00  0.00     0.023 A 
ATOM     70  C   UNL A   1      45.441  36.015  27.806  1.00  0.00     0.031 A 
ATOM     71  C   UNL A   1      43.179  35.379  28.218  1.00  0.00     0.131 A 
ATOM     72  C   UNL A   1      45.003  37.212  27.237  1.00  0.00     0.055 A 
ATOM     73  C   UNL A   1      42.732  36.541  27.579  1.00  0.00     0.041 A 
ATOM     74  F   UNL A   1      42.240  34.533  28.669  1.00  0.00    -0.206 F 
ATOM     75  C   UNL A   1      43.646  37.471  27.092  1.00  0.00     0.022 A 
BRANCH  72  76
ATOM     76  S   UNL A   1      46.213  38.435  26.671  1.00  0.00     0.124 S 
ATOM     77  O   UNL A   1      47.068  37.633  25.805  1.00  0.00    -0.237 OA
ATOM     78  O   UNL A   1      45.355  39.408  25.998  1.00  0.00    -0.237 OA
ATOM     79  O   UNL A   1      46.828  38.906  27.909  1.00  0.00    -0.744 OA
ENDBRANCH  72  76
ENDBRANCH  55  69
BRANCH  56  80
ATOM     80  C   UNL A   1      37.773  31.342  30.934  1.00  0.00     0.023 A 
ATOM     81  C   UNL A   1      37.017  31.724  29.810  1.00  0.00     0.031 A 
ATOM     82  C   UNL A   1      37.108  31.352  32.175  1.00  0.00     0.131 A 
ATOM     83  C   UNL A   1      35.690  32.179  29.955  1.00  0.00     0.055 A 
ATOM     84  C   UNL A   1      35.787  31.794  32.317  1.00  0.00     0.041 A 
ATOM     85  F   UNL A   1      37.749  31.004  33.301  1.00  0.00    -0.206 F 
ATOM     86  C   UNL A   1      35.078  32.235  31.206  1.00  0.00     0.022 A 
BRANCH  83  87
ATOM     87  S   UNL A   1      34.811  32.811  28.496  1.00  0.00     0.124 S 
ATOM     88  O   UNL A   1      34.045  33.941  29.015  1.00  0.00    -0.237 OA
ATOM     89  O   UNL A   1      35.910  33.159  27.602  1.00  0.00    -0.237 OA
ATOM     90  O   UNL A   1      34.012  31.657  28.096  1.00  0.00    -0.744 OA
ENDBRANCH  83  87
ENDBRANCH  56  80
BRANCH  68  91
ATOM     91  C   UNL A   1      43.331  31.168  33.934  1.00  0.00     0.023 A 
ATOM     92  C   UNL A   1      43.639  29.900  33.404  1.00  0.00     0.031 A 
ATOM     93  C   UNL A   1      43.147  31.260  35.325  1.00  0.00     0.131 A 
ATOM     94  C   UNL A   1      43.718  28.776  34.235  1.00  0.00     0.055 A 
ATOM     95  C   UNL A   1      43.290  30.145  36.161  1.00  0.00     0.041 A 
ATOM     96  F   UNL A   1      42.769  32.405  35.909  1.00  0.00    -0.206 F 
ATOM     97  C   UNL A   1      43.562  28.893  35.617  1.00  0.00     0.022 A 
BRANCH  94  98
ATOM     98  S   UNL A   1      43.898  27.121  33.519  1.00  0.00     0.124 S 
ATOM     99  O   UNL A   1      43.193  26.285  34.487  1.00  0.00    -0.237 OA
ATOM    100  O   UNL A   1      43.240  27.267  32.223  1.00  0.00    -0.237 OA
ATOM    101  O   UNL A   1      45.343  26.919  33.456  1.00  0.00    -0.744 OA
ENDBRANCH  94  98
ENDBRANCH  68  91
ENDBRANCH  42  43
ENDBRANCH  35  37
ENDBRANCH  34  35
ENDBRANCH  33  34
ENDBRANCH  32  33
ENDBRANCH  31  32
ENDBRANCH   1  31
TORSDOF 25
ENDMDL
