MODEL 1
REMARK VINA RESULT:     -11.1      0.000      0.000
REMARK SMILES CC(C)c1ccc(C(=O)N2CCC[C@@H](C(=O)OCCOCCOCCOC(=O)c3ccc(-c4c5nc(c(-c6cc(S(=O)(=O)[O-])ccc6F)c6ccc([nH]6)c(-c6cc(S(=O)(=O)[O-])ccc6F)c6nc(c(-c7cc(S(=O)(=O)[O-])ccc7F)c7ccc4[nH]7)C=C6)C=C5)cc3)C2)cc1
REMARK SMILES IDX 21 1 20 2 19 3 18 4 17 5 15 6 16 7 14 8 10 9 11 10 92 11
REMARK SMILES IDX 12 12 13 13 8 14 9 15 7 16 4 17 5 18 94 19 6 20 93 21 2 22
REMARK SMILES IDX 1 23 3 24 22 25 23 26 24 27 25 28 26 29 27 30 28 31 29 32
REMARK SMILES IDX 30 33 91 34 31 35 90 36 32 37 33 38 34 39 84 40 35 41 89 42
REMARK SMILES IDX 83 43 85 44 36 45 88 46 82 47 81 48 37 50 69 51 49 52 68 53
REMARK SMILES IDX 50 54 53 55 67 56 86 57 51 58 52 59 66 61 87 62 54 63 38 64
REMARK SMILES IDX 39 65 47 66 40 67 46 68 48 69 45 70 41 71 42 72 43 73 44 74
REMARK SMILES IDX 70 75 71 76 79 77 72 78 78 79 80 80 77 81 73 82 74 83 75 84
REMARK SMILES IDX 76 85 55 86 56 87 64 88 57 89 63 90 65 91 62 92 58 93 59 94
REMARK SMILES IDX 60 95 61 96
REMARK H PARENT 85 49 53 60
REMARK Flexibility Score: inf
ROOT
ATOM      1  C   UNL A   1      32.959  29.496  25.119  1.00  0.00     0.188 C 
ENDROOT
BRANCH   1   2
ATOM      2  O   UNL A   1      31.949  28.762  24.449  1.00  0.00    -0.376 OA
BRANCH   2   3
ATOM      3  C   UNL A   1      30.969  29.476  23.714  1.00  0.00     0.202 C 
BRANCH   3   4
ATOM      4  C   UNL A   1      29.793  28.689  23.124  1.00  0.00     0.261 C 
BRANCH   4   5
ATOM      5  O   UNL A   1      30.075  27.290  22.921  1.00  0.00    -0.463 OA
BRANCH   5   6
ATOM      6  C   UNL A   1      29.475  26.415  23.776  1.00  0.00     0.310 C 
ATOM      7  O   UNL A   1      28.266  26.354  23.961  1.00  0.00    -0.252 OA
BRANCH   6   8
ATOM      8  C   UNL A   1      30.453  25.459  24.446  1.00  0.00     0.119 C 
ATOM      9  N   UNL A   1      32.860  24.732  24.305  1.00  0.00    -0.338 N 
ATOM     10  C   UNL A   1      33.060  24.922  25.733  1.00  0.00     0.120 C 
ATOM     11  C   UNL A   1      31.754  25.413  23.639  1.00  0.00     0.135 C 
ATOM     12  C   UNL A   1      31.743  24.778  26.491  1.00  0.00     0.022 C 
ATOM     13  C   UNL A   1      30.701  25.746  25.933  1.00  0.00     0.019 C 
BRANCH   9  14
ATOM     14  C   UNL A   1      33.611  23.811  23.587  1.00  0.00     0.253 C 
ATOM     15  O   UNL A   1      34.404  24.176  22.724  1.00  0.00    -0.269 OA
BRANCH  14  16
ATOM     16  C   UNL A   1      33.542  22.370  24.009  1.00  0.00     0.040 A 
ATOM     17  C   UNL A   1      33.524  19.556  24.454  1.00  0.00    -0.045 A 
ATOM     18  C   UNL A   1      32.516  20.184  23.703  1.00  0.00     0.005 A 
ATOM     19  C   UNL A   1      34.519  20.372  25.010  1.00  0.00     0.005 A 
ATOM     20  C   UNL A   1      32.521  21.570  23.487  1.00  0.00     0.014 A 
ATOM     21  C   UNL A   1      34.529  21.759  24.788  1.00  0.00     0.014 A 
BRANCH  17  22
ATOM     22  C   UNL A   1      33.530  18.032  24.570  1.00  0.00     0.013 C 
ATOM     23  C   UNL A   1      32.728  17.461  25.747  1.00  0.00     0.012 C 
ATOM     24  C   UNL A   1      33.048  17.360  23.278  1.00  0.00     0.012 C 
ENDBRANCH  17  22
ENDBRANCH  14  16
ENDBRANCH   9  14
ENDBRANCH   6   8
ENDBRANCH   5   6
ENDBRANCH   4   5
ENDBRANCH   3   4
ENDBRANCH   2   3
ENDBRANCH   1   2
BRANCH   1  25
ATOM     25  C   UNL A   1      32.847  29.734  26.640  1.00  0.00     0.188 C 
BRANCH  25  26
ATOM     26  O   UNL A   1      31.824  30.553  27.154  1.00  0.00    -0.376 OA
BRANCH  26  27
ATOM     27  C   UNL A   1      31.368  31.701  26.470  1.00  0.00     0.202 C 
BRANCH  27  28
ATOM     28  C   UNL A   1      31.894  33.133  26.669  1.00  0.00     0.261 C 
BRANCH  28  29
ATOM     29  O   UNL A   1      32.290  33.526  27.983  1.00  0.00    -0.460 OA
BRANCH  29  30
ATOM     30  C   UNL A   1      33.418  34.273  28.046  1.00  0.00     0.338 C 
ATOM     31  O   UNL A   1      33.494  35.496  27.981  1.00  0.00    -0.246 OA
BRANCH  30  32
ATOM     32  C   UNL A   1      34.564  33.416  28.383  1.00  0.00     0.060 A 
ATOM     33  C   UNL A   1      34.318  32.223  29.070  1.00  0.00     0.016 A 
ATOM     34  C   UNL A   1      35.871  33.808  28.096  1.00  0.00     0.016 A 
ATOM     35  C   UNL A   1      35.378  31.437  29.516  1.00  0.00     0.010 A 
ATOM     36  C   UNL A   1      36.936  33.018  28.549  1.00  0.00     0.010 A 
ATOM     37  C   UNL A   1      36.698  31.849  29.295  1.00  0.00    -0.014 A 
BRANCH  37  38
ATOM     38  C   UNL A   1      37.809  31.140  29.981  1.00  0.00     0.031 A 
ATOM     39  C   UNL A   1      38.137  31.506  31.405  1.00  0.00     0.074 A 
ATOM     40  C   UNL A   1      38.486  30.149  29.372  1.00  0.00     0.049 A 
ATOM     41  N   UNL A   1      39.068  31.033  32.194  1.00  0.00    -0.248 NA
ATOM     42  C   UNL A   1      37.293  32.538  32.026  1.00  0.00     0.031 C 
ATOM     43  C   UNL A   1      38.221  29.648  28.024  1.00  0.00     0.029 A 
ATOM     44  N   UNL A   1      39.547  29.392  29.807  1.00  0.00    -0.354 N 
ATOM     45  C   UNL A   1      38.911  31.695  33.406  1.00  0.00     0.074 A 
ATOM     46  C   UNL A   1      37.819  32.630  33.238  1.00  0.00     0.031 C 
ATOM     47  C   UNL A   1      39.109  28.681  27.736  1.00  0.00     0.029 A 
ATOM     48  C   UNL A   1      40.036  28.527  28.856  1.00  0.00     0.049 A 
ATOM     49  H   UNL A   1      39.922  29.462  30.715  1.00  0.00     0.167 HD
ATOM     50  C   UNL A   1      39.610  31.538  34.556  1.00  0.00     0.034 A 
ATOM     51  C   UNL A   1      41.128  27.736  28.870  1.00  0.00     0.034 A 
ATOM     52  C   UNL A   1      40.734  30.647  34.700  1.00  0.00     0.049 A 
ATOM     53  C   UNL A   1      41.993  27.698  30.111  1.00  0.00     0.074 A 
ATOM     54  C   UNL A   1      41.524  30.432  35.816  1.00  0.00     0.029 A 
ATOM     55  N   UNL A   1      41.251  29.850  33.688  1.00  0.00    -0.354 N 
ATOM     56  N   UNL A   1      41.826  28.321  31.256  1.00  0.00    -0.248 NA
ATOM     57  C   UNL A   1      43.192  26.850  30.061  1.00  0.00     0.031 C 
ATOM     58  C   UNL A   1      42.567  29.572  35.454  1.00  0.00     0.029 A 
ATOM     59  C   UNL A   1      42.378  29.180  34.139  1.00  0.00     0.049 A 
ATOM     60  H   UNL A   1      40.871  29.770  32.784  1.00  0.00     0.167 HD
ATOM     61  C   UNL A   1      42.880  27.909  32.070  1.00  0.00     0.074 A 
ATOM     62  C   UNL A   1      43.668  26.979  31.290  1.00  0.00     0.031 C 
ATOM     63  C   UNL A   1      43.166  28.261  33.350  1.00  0.00     0.034 A 
BRANCH  50  64
ATOM     64  C   UNL A   1      39.221  32.409  35.724  1.00  0.00     0.023 A 
ATOM     65  C   UNL A   1      39.681  33.733  35.848  1.00  0.00     0.031 A 
ATOM     66  C   UNL A   1      38.392  31.900  36.738  1.00  0.00     0.131 A 
ATOM     67  C   UNL A   1      39.350  34.482  36.988  1.00  0.00     0.055 A 
ATOM     68  C   UNL A   1      38.011  32.673  37.836  1.00  0.00     0.041 A 
ATOM     69  F   UNL A   1      37.947  30.635  36.685  1.00  0.00    -0.206 F 
ATOM     70  C   UNL A   1      38.499  33.969  37.971  1.00  0.00     0.022 A 
BRANCH  67  71
ATOM     71  S   UNL A   1      40.134  36.100  37.226  1.00  0.00     0.124 S 
ATOM     72  O   UNL A   1      41.482  35.718  37.638  1.00  0.00    -0.237 OA
ATOM     73  O   UNL A   1      40.019  36.706  35.904  1.00  0.00    -0.237 OA
ATOM     74  O   UNL A   1      39.324  36.724  38.271  1.00  0.00    -0.744 OA
ENDBRANCH  67  71
ENDBRANCH  50  64
BRANCH  51  75
ATOM     75  C   UNL A   1      41.527  26.969  27.652  1.00  0.00     0.023 A 
ATOM     76  C   UNL A   1      41.357  25.578  27.571  1.00  0.00     0.031 A 
ATOM     77  C   UNL A   1      42.168  27.616  26.578  1.00  0.00     0.131 A 
ATOM     78  C   UNL A   1      41.868  24.874  26.468  1.00  0.00     0.055 A 
ATOM     79  C   UNL A   1      42.618  26.920  25.456  1.00  0.00     0.041 A 
ATOM     80  F   UNL A   1      42.371  28.943  26.608  1.00  0.00    -0.206 F 
ATOM     81  C   UNL A   1      42.483  25.537  25.403  1.00  0.00     0.022 A 
BRANCH  78  82
ATOM     82  S   UNL A   1      41.824  23.059  26.495  1.00  0.00     0.124 S 
ATOM     83  O   UNL A   1      40.405  22.800  26.711  1.00  0.00    -0.237 OA
ATOM     84  O   UNL A   1      42.344  22.722  25.174  1.00  0.00    -0.237 OA
ATOM     85  O   UNL A   1      42.699  22.714  27.614  1.00  0.00    -0.744 OA
ENDBRANCH  78  82
ENDBRANCH  51  75
BRANCH  63  86
ATOM     86  C   UNL A   1      44.356  27.598  34.003  1.00  0.00     0.023 A 
ATOM     87  C   UNL A   1      44.211  26.538  34.916  1.00  0.00     0.031 A 
ATOM     88  C   UNL A   1      45.659  28.038  33.706  1.00  0.00     0.131 A 
ATOM     89  C   UNL A   1      45.344  25.989  35.538  1.00  0.00     0.055 A 
ATOM     90  C   UNL A   1      46.785  27.448  34.280  1.00  0.00     0.041 A 
ATOM     91  F   UNL A   1      45.859  29.047  32.842  1.00  0.00    -0.206 F 
ATOM     92  C   UNL A   1      46.631  26.426  35.212  1.00  0.00     0.022 A 
BRANCH  89  93
ATOM     93  S   UNL A   1      45.111  24.755  36.846  1.00  0.00     0.124 S 
ATOM     94  O   UNL A   1      43.759  24.276  36.577  1.00  0.00    -0.237 OA
ATOM     95  O   UNL A   1      46.188  23.808  36.577  1.00  0.00    -0.237 OA
ATOM     96  O   UNL A   1      45.260  25.528  38.078  1.00  0.00    -0.744 OA
ENDBRANCH  89  93
ENDBRANCH  63  86
ENDBRANCH  37  38
ENDBRANCH  30  32
ENDBRANCH  29  30
ENDBRANCH  28  29
ENDBRANCH  27  28
ENDBRANCH  26  27
ENDBRANCH  25  26
ENDBRANCH   1  25
TORSDOF 23
ENDMDL
MODEL 2
REMARK VINA RESULT:     -10.8      2.447      9.277
REMARK SMILES CC(C)c1ccc(C(=O)N2CCC[C@@H](C(=O)OCCOCCOCCOC(=O)c3ccc(-c4c5nc(c(-c6cc(S(=O)(=O)[O-])ccc6F)c6ccc([nH]6)c(-c6cc(S(=O)(=O)[O-])ccc6F)c6nc(c(-c7cc(S(=O)(=O)[O-])ccc7F)c7ccc4[nH]7)C=C6)C=C5)cc3)C2)cc1
REMARK SMILES IDX 21 1 20 2 19 3 18 4 17 5 15 6 16 7 14 8 10 9 11 10 92 11
REMARK SMILES IDX 12 12 13 13 8 14 9 15 7 16 4 17 5 18 94 19 6 20 93 21 2 22
REMARK SMILES IDX 1 23 3 24 22 25 23 26 24 27 25 28 26 29 27 30 28 31 29 32
REMARK SMILES IDX 30 33 91 34 31 35 90 36 32 37 33 38 34 39 84 40 35 41 89 42
REMARK SMILES IDX 83 43 85 44 36 45 88 46 82 47 81 48 37 50 69 51 49 52 68 53
REMARK SMILES IDX 50 54 53 55 67 56 86 57 51 58 52 59 66 61 87 62 54 63 38 64
REMARK SMILES IDX 39 65 47 66 40 67 46 68 48 69 45 70 41 71 42 72 43 73 44 74
REMARK SMILES IDX 70 75 71 76 79 77 72 78 78 79 80 80 77 81 73 82 74 83 75 84
REMARK SMILES IDX 76 85 55 86 56 87 64 88 57 89 63 90 65 91 62 92 58 93 59 94
REMARK SMILES IDX 60 95 61 96
REMARK H PARENT 85 49 53 60
REMARK Flexibility Score: inf
ROOT
ATOM      1  C   UNL A   1      39.006  21.855  26.066  1.00  0.00     0.188 C 
ENDROOT
BRANCH   1   2
ATOM      2  O   UNL A   1      38.037  21.812  25.033  1.00  0.00    -0.376 OA
BRANCH   2   3
ATOM      3  C   UNL A   1      36.881  21.012  25.222  1.00  0.00     0.202 C 
BRANCH   3   4
ATOM      4  C   UNL A   1      35.513  21.702  25.194  1.00  0.00     0.261 C 
BRANCH   4   5
ATOM      5  O   UNL A   1      34.420  20.812  24.891  1.00  0.00    -0.463 OA
BRANCH   5   6
ATOM      6  C   UNL A   1      33.252  21.391  24.493  1.00  0.00     0.310 C 
ATOM      7  O   UNL A   1      32.461  20.876  23.714  1.00  0.00    -0.252 OA
BRANCH   6   8
ATOM      8  C   UNL A   1      32.983  22.731  25.165  1.00  0.00     0.119 C 
ATOM      9  N   UNL A   1      32.221  25.065  24.602  1.00  0.00    -0.338 N 
ATOM     10  C   UNL A   1      31.227  25.057  25.664  1.00  0.00     0.120 C 
ATOM     11  C   UNL A   1      32.737  23.797  24.094  1.00  0.00     0.135 C 
ATOM     12  C   UNL A   1      31.631  24.098  26.781  1.00  0.00     0.022 C 
ATOM     13  C   UNL A   1      31.868  22.698  26.219  1.00  0.00     0.019 C 
BRANCH   9  14
ATOM     14  C   UNL A   1      32.794  26.249  24.157  1.00  0.00     0.253 C 
ATOM     15  O   UNL A   1      33.998  26.326  23.933  1.00  0.00    -0.269 OA
BRANCH  14  16
ATOM     16  C   UNL A   1      31.872  27.383  23.804  1.00  0.00     0.040 A 
ATOM     17  C   UNL A   1      29.841  29.305  23.259  1.00  0.00    -0.045 A 
ATOM     18  C   UNL A   1      30.022  28.180  22.436  1.00  0.00     0.005 A 
ATOM     19  C   UNL A   1      30.722  29.467  24.336  1.00  0.00     0.005 A 
ATOM     20  C   UNL A   1      31.024  27.234  22.701  1.00  0.00     0.014 A 
ATOM     21  C   UNL A   1      31.721  28.518  24.607  1.00  0.00     0.014 A 
BRANCH  17  22
ATOM     22  C   UNL A   1      28.666  30.246  22.988  1.00  0.00     0.013 C 
ATOM     23  C   UNL A   1      28.686  31.562  23.778  1.00  0.00     0.012 C 
ATOM     24  C   UNL A   1      28.529  30.573  21.496  1.00  0.00     0.012 C 
ENDBRANCH  17  22
ENDBRANCH  14  16
ENDBRANCH   9  14
ENDBRANCH   6   8
ENDBRANCH   5   6
ENDBRANCH   4   5
ENDBRANCH   3   4
ENDBRANCH   2   3
ENDBRANCH   1   2
BRANCH   1  25
ATOM     25  C   UNL A   1      40.087  20.756  26.142  1.00  0.00     0.188 C 
BRANCH  25  26
ATOM     26  O   UNL A   1      41.330  21.027  26.744  1.00  0.00    -0.376 OA
BRANCH  26  27
ATOM     27  C   UNL A   1      42.553  20.710  26.115  1.00  0.00     0.202 C 
BRANCH  27  28
ATOM     28  C   UNL A   1      43.472  21.705  25.384  1.00  0.00     0.261 C 
BRANCH  28  29
ATOM     29  O   UNL A   1      42.878  22.873  24.815  1.00  0.00    -0.460 OA
BRANCH  29  30
ATOM     30  C   UNL A   1      43.596  24.012  24.958  1.00  0.00     0.338 C 
ATOM     31  O   UNL A   1      44.614  24.321  24.347  1.00  0.00    -0.246 OA
BRANCH  30  32
ATOM     32  C   UNL A   1      42.882  24.941  25.847  1.00  0.00     0.060 A 
ATOM     33  C   UNL A   1      43.368  26.247  25.967  1.00  0.00     0.016 A 
ATOM     34  C   UNL A   1      41.794  24.520  26.611  1.00  0.00     0.016 A 
ATOM     35  C   UNL A   1      42.799  27.127  26.885  1.00  0.00     0.010 A 
ATOM     36  C   UNL A   1      41.226  25.406  27.536  1.00  0.00     0.010 A 
ATOM     37  C   UNL A   1      41.749  26.701  27.707  1.00  0.00    -0.014 A 
BRANCH  37  38
ATOM     38  C   UNL A   1      41.317  27.557  28.842  1.00  0.00     0.031 A 
ATOM     39  C   UNL A   1      42.110  27.525  30.122  1.00  0.00     0.074 A 
ATOM     40  C   UNL A   1      40.267  28.392  28.725  1.00  0.00     0.049 A 
ATOM     41  N   UNL A   1      41.912  28.172  31.242  1.00  0.00    -0.248 NA
ATOM     42  C   UNL A   1      43.293  26.651  30.137  1.00  0.00     0.031 C 
ATOM     43  C   UNL A   1      39.461  28.574  27.520  1.00  0.00     0.029 A 
ATOM     44  N   UNL A   1      39.692  29.237  29.643  1.00  0.00    -0.354 N 
ATOM     45  C   UNL A   1      42.952  27.799  32.086  1.00  0.00     0.074 A 
ATOM     46  C   UNL A   1      43.758  26.840  31.362  1.00  0.00     0.031 C 
ATOM     47  C   UNL A   1      38.483  29.459  27.778  1.00  0.00     0.029 A 
ATOM     48  C   UNL A   1      38.562  29.870  29.179  1.00  0.00     0.049 A 
ATOM     49  H   UNL A   1      40.055  29.377  30.548  1.00  0.00     0.167 HD
ATOM     50  C   UNL A   1      43.214  28.217  33.347  1.00  0.00     0.034 A 
ATOM     51  C   UNL A   1      37.672  30.655  29.820  1.00  0.00     0.034 A 
ATOM     52  C   UNL A   1      42.374  29.128  34.084  1.00  0.00     0.049 A 
ATOM     53  C   UNL A   1      37.896  30.979  31.281  1.00  0.00     0.074 A 
ATOM     54  C   UNL A   1      42.539  29.597  35.375  1.00  0.00     0.029 A 
ATOM     55  N   UNL A   1      41.194  29.682  33.609  1.00  0.00    -0.354 N 
ATOM     56  N   UNL A   1      38.890  30.628  32.064  1.00  0.00    -0.248 NA
ATOM     57  C   UNL A   1      36.877  31.806  31.942  1.00  0.00     0.031 C 
ATOM     58  C   UNL A   1      41.417  30.363  35.710  1.00  0.00     0.029 A 
ATOM     59  C   UNL A   1      40.594  30.447  34.598  1.00  0.00     0.049 A 
ATOM     60  H   UNL A   1      40.835  29.552  32.701  1.00  0.00     0.167 HD
ATOM     61  C   UNL A   1      38.631  31.224  33.298  1.00  0.00     0.074 A 
ATOM     62  C   UNL A   1      37.394  31.961  33.151  1.00  0.00     0.031 C 
ATOM     63  C   UNL A   1      39.354  31.172  34.447  1.00  0.00     0.034 A 
BRANCH  50  64
ATOM     64  C   UNL A   1      44.421  27.628  34.033  1.00  0.00     0.023 A 
ATOM     65  C   UNL A   1      44.339  26.450  34.798  1.00  0.00     0.031 A 
ATOM     66  C   UNL A   1      45.669  28.266  33.935  1.00  0.00     0.131 A 
ATOM     67  C   UNL A   1      45.473  25.978  35.476  1.00  0.00     0.055 A 
ATOM     68  C   UNL A   1      46.809  27.754  34.555  1.00  0.00     0.041 A 
ATOM     69  F   UNL A   1      45.799  29.408  33.241  1.00  0.00    -0.206 F 
ATOM     70  C   UNL A   1      46.713  26.609  35.340  1.00  0.00     0.022 A 
BRANCH  67  71
ATOM     71  S   UNL A   1      45.287  24.588  36.625  1.00  0.00     0.124 S 
ATOM     72  O   UNL A   1      45.091  23.470  35.706  1.00  0.00    -0.237 OA
ATOM     73  O   UNL A   1      46.552  24.603  37.350  1.00  0.00    -0.237 OA
ATOM     74  O   UNL A   1      44.110  24.951  37.414  1.00  0.00    -0.744 OA
ENDBRANCH  67  71
ENDBRANCH  50  64
BRANCH  51  75
ATOM     75  C   UNL A   1      36.439  31.131  29.124  1.00  0.00     0.023 A 
ATOM     76  C   UNL A   1      36.006  32.463  29.224  1.00  0.00     0.031 A 
ATOM     77  C   UNL A   1      35.626  30.228  28.413  1.00  0.00     0.131 A 
ATOM     78  C   UNL A   1      34.772  32.841  28.670  1.00  0.00     0.055 A 
ATOM     79  C   UNL A   1      34.431  30.624  27.811  1.00  0.00     0.041 A 
ATOM     80  F   UNL A   1      35.982  28.938  28.298  1.00  0.00    -0.206 F 
ATOM     81  C   UNL A   1      33.989  31.935  27.951  1.00  0.00     0.022 A 
BRANCH  78  82
ATOM     82  S   UNL A   1      34.143  34.511  29.002  1.00  0.00     0.124 S 
ATOM     83  O   UNL A   1      32.703  34.317  28.868  1.00  0.00    -0.237 OA
ATOM     84  O   UNL A   1      34.633  34.758  30.355  1.00  0.00    -0.237 OA
ATOM     85  O   UNL A   1      34.764  35.323  27.958  1.00  0.00    -0.744 OA
ENDBRANCH  78  82
ENDBRANCH  51  75
BRANCH  63  86
ATOM     86  C   UNL A   1      38.849  31.977  35.621  1.00  0.00     0.023 A 
ATOM     87  C   UNL A   1      38.237  31.371  36.732  1.00  0.00     0.031 A 
ATOM     88  C   UNL A   1      38.984  33.378  35.624  1.00  0.00     0.131 A 
ATOM     89  C   UNL A   1      37.736  32.166  37.776  1.00  0.00     0.055 A 
ATOM     90  C   UNL A   1      38.539  34.158  36.692  1.00  0.00     0.041 A 
ATOM     91  F   UNL A   1      39.560  34.012  34.590  1.00  0.00    -0.206 F 
ATOM     92  C   UNL A   1      37.899  33.554  37.770  1.00  0.00     0.022 A 
BRANCH  89  93
ATOM     93  S   UNL A   1      36.787  31.372  39.101  1.00  0.00     0.124 S 
ATOM     94  O   UNL A   1      36.695  29.994  38.627  1.00  0.00    -0.237 OA
ATOM     95  O   UNL A   1      37.637  31.589  40.267  1.00  0.00    -0.237 OA
ATOM     96  O   UNL A   1      35.525  32.109  39.110  1.00  0.00    -0.744 OA
ENDBRANCH  89  93
ENDBRANCH  63  86
ENDBRANCH  37  38
ENDBRANCH  30  32
ENDBRANCH  29  30
ENDBRANCH  28  29
ENDBRANCH  27  28
ENDBRANCH  26  27
ENDBRANCH  25  26
ENDBRANCH   1  25
TORSDOF 23
ENDMDL
MODEL 3
REMARK VINA RESULT:     -10.6      1.698      2.145
REMARK SMILES CC(C)c1ccc(C(=O)N2CCC[C@@H](C(=O)OCCOCCOCCOC(=O)c3ccc(-c4c5nc(c(-c6cc(S(=O)(=O)[O-])ccc6F)c6ccc([nH]6)c(-c6cc(S(=O)(=O)[O-])ccc6F)c6nc(c(-c7cc(S(=O)(=O)[O-])ccc7F)c7ccc4[nH]7)C=C6)C=C5)cc3)C2)cc1
REMARK SMILES IDX 21 1 20 2 19 3 18 4 17 5 15 6 16 7 14 8 10 9 11 10 92 11
REMARK SMILES IDX 12 12 13 13 8 14 9 15 7 16 4 17 5 18 94 19 6 20 93 21 2 22
REMARK SMILES IDX 1 23 3 24 22 25 23 26 24 27 25 28 26 29 27 30 28 31 29 32
REMARK SMILES IDX 30 33 91 34 31 35 90 36 32 37 33 38 34 39 84 40 35 41 89 42
REMARK SMILES IDX 83 43 85 44 36 45 88 46 82 47 81 48 37 50 69 51 49 52 68 53
REMARK SMILES IDX 50 54 53 55 67 56 86 57 51 58 52 59 66 61 87 62 54 63 38 64
REMARK SMILES IDX 39 65 47 66 40 67 46 68 48 69 45 70 41 71 42 72 43 73 44 74
REMARK SMILES IDX 70 75 71 76 79 77 72 78 78 79 80 80 77 81 73 82 74 83 75 84
REMARK SMILES IDX 76 85 55 86 56 87 64 88 57 89 63 90 65 91 62 92 58 93 59 94
REMARK SMILES IDX 60 95 61 96
REMARK H PARENT 85 49 53 60
REMARK Flexibility Score: inf
ROOT
ATOM      1  C   UNL A   1      33.221  28.163  25.460  1.00  0.00     0.188 C 
ENDROOT
BRANCH   1   2
ATOM      2  O   UNL A   1      34.091  27.899  24.374  1.00  0.00    -0.376 OA
BRANCH   2   3
ATOM      3  C   UNL A   1      33.793  28.473  23.112  1.00  0.00     0.202 C 
BRANCH   3   4
ATOM      4  C   UNL A   1      33.353  27.540  21.980  1.00  0.00     0.261 C 
BRANCH   4   5
ATOM      5  O   UNL A   1      32.354  26.578  22.375  1.00  0.00    -0.463 OA
BRANCH   5   6
ATOM      6  C   UNL A   1      32.690  25.262  22.253  1.00  0.00     0.310 C 
ATOM      7  O   UNL A   1      33.330  24.801  21.317  1.00  0.00    -0.252 OA
BRANCH   6   8
ATOM      8  C   UNL A   1      32.247  24.414  23.438  1.00  0.00     0.119 C 
ATOM      9  N   UNL A   1      32.996  23.775  25.756  1.00  0.00    -0.338 N 
ATOM     10  C   UNL A   1      31.701  24.107  26.327  1.00  0.00     0.120 C 
ATOM     11  C   UNL A   1      33.378  24.345  24.467  1.00  0.00     0.135 C 
ATOM     12  C   UNL A   1      30.596  23.981  25.281  1.00  0.00     0.022 C 
ATOM     13  C   UNL A   1      30.916  24.849  24.065  1.00  0.00     0.019 C 
BRANCH   9  14
ATOM     14  C   UNL A   1      33.821  22.822  26.338  1.00  0.00     0.253 C 
ATOM     15  O   UNL A   1      34.447  23.068  27.365  1.00  0.00    -0.269 OA
BRANCH  14  16
ATOM     16  C   UNL A   1      33.796  21.432  25.766  1.00  0.00     0.040 A 
ATOM     17  C   UNL A   1      33.666  18.965  24.347  1.00  0.00    -0.045 A 
ATOM     18  C   UNL A   1      32.502  19.673  24.691  1.00  0.00     0.005 A 
ATOM     19  C   UNL A   1      34.893  19.499  24.762  1.00  0.00     0.005 A 
ATOM     20  C   UNL A   1      32.564  20.886  25.393  1.00  0.00     0.014 A 
ATOM     21  C   UNL A   1      34.958  20.716  25.459  1.00  0.00     0.014 A 
BRANCH  17  22
ATOM     22  C   UNL A   1      33.547  17.705  23.489  1.00  0.00     0.013 C 
ATOM     23  C   UNL A   1      33.346  16.398  24.268  1.00  0.00     0.012 C 
ATOM     24  C   UNL A   1      32.431  17.829  22.444  1.00  0.00     0.012 C 
ENDBRANCH  17  22
ENDBRANCH  14  16
ENDBRANCH   9  14
ENDBRANCH   6   8
ENDBRANCH   5   6
ENDBRANCH   4   5
ENDBRANCH   3   4
ENDBRANCH   2   3
ENDBRANCH   1   2
BRANCH   1  25
ATOM     25  C   UNL A   1      31.839  28.796  25.192  1.00  0.00     0.188 C 
BRANCH  25  26
ATOM     26  O   UNL A   1      31.658  30.184  25.332  1.00  0.00    -0.376 OA
BRANCH  26  27
ATOM     27  C   UNL A   1      31.819  30.842  26.571  1.00  0.00     0.202 C 
BRANCH  27  28
ATOM     28  C   UNL A   1      31.607  32.345  26.825  1.00  0.00     0.261 C 
BRANCH  28  29
ATOM     29  O   UNL A   1      32.739  33.209  26.713  1.00  0.00    -0.460 OA
BRANCH  29  30
ATOM     30  C   UNL A   1      33.232  33.668  27.888  1.00  0.00     0.338 C 
ATOM     31  O   UNL A   1      32.682  34.442  28.664  1.00  0.00    -0.246 OA
BRANCH  30  32
ATOM     32  C   UNL A   1      34.482  32.963  28.210  1.00  0.00     0.060 A 
ATOM     33  C   UNL A   1      34.405  31.622  28.597  1.00  0.00     0.016 A 
ATOM     34  C   UNL A   1      35.709  33.627  28.205  1.00  0.00     0.016 A 
ATOM     35  C   UNL A   1      35.546  30.948  29.027  1.00  0.00     0.010 A 
ATOM     36  C   UNL A   1      36.854  32.948  28.640  1.00  0.00     0.010 A 
ATOM     37  C   UNL A   1      36.774  31.616  29.090  1.00  0.00    -0.014 A 
BRANCH  37  38
ATOM     38  C   UNL A   1      37.923  30.970  29.775  1.00  0.00     0.031 A 
ATOM     39  C   UNL A   1      38.229  31.349  31.201  1.00  0.00     0.074 A 
ATOM     40  C   UNL A   1      38.656  30.022  29.163  1.00  0.00     0.049 A 
ATOM     41  N   UNL A   1      39.184  30.928  31.989  1.00  0.00    -0.248 NA
ATOM     42  C   UNL A   1      37.326  32.328  31.825  1.00  0.00     0.031 C 
ATOM     43  C   UNL A   1      38.421  29.511  27.813  1.00  0.00     0.029 A 
ATOM     44  N   UNL A   1      39.759  29.326  29.597  1.00  0.00    -0.354 N 
ATOM     45  C   UNL A   1      38.988  31.575  33.204  1.00  0.00     0.074 A 
ATOM     46  C   UNL A   1      37.845  32.446  33.037  1.00  0.00     0.031 C 
ATOM     47  C   UNL A   1      39.364  28.598  27.522  1.00  0.00     0.029 A 
ATOM     48  C   UNL A   1      40.298  28.494  28.643  1.00  0.00     0.049 A 
ATOM     49  H   UNL A   1      40.128  29.414  30.505  1.00  0.00     0.167 HD
ATOM     50  C   UNL A   1      39.694  31.454  34.354  1.00  0.00     0.034 A 
ATOM     51  C   UNL A   1      41.433  27.767  28.655  1.00  0.00     0.034 A 
ATOM     52  C   UNL A   1      40.867  30.629  34.495  1.00  0.00     0.049 A 
ATOM     53  C   UNL A   1      42.298  27.774  29.897  1.00  0.00     0.074 A 
ATOM     54  C   UNL A   1      41.667  30.455  35.611  1.00  0.00     0.029 A 
ATOM     55  N   UNL A   1      41.430  29.866  33.481  1.00  0.00    -0.354 N 
ATOM     56  N   UNL A   1      42.094  28.382  31.043  1.00  0.00    -0.248 NA
ATOM     57  C   UNL A   1      43.543  26.997  29.845  1.00  0.00     0.031 C 
ATOM     58  C   UNL A   1      42.759  29.658  35.248  1.00  0.00     0.029 A 
ATOM     59  C   UNL A   1      42.594  29.261  33.931  1.00  0.00     0.049 A 
ATOM     60  H   UNL A   1      41.057  29.768  32.576  1.00  0.00     0.167 HD
ATOM     61  C   UNL A   1      43.170  28.028  31.858  1.00  0.00     0.074 A 
ATOM     62  C   UNL A   1      44.011  27.148  31.075  1.00  0.00     0.031 C 
ATOM     63  C   UNL A   1      43.434  28.391  33.140  1.00  0.00     0.034 A 
BRANCH  50  64
ATOM     64  C   UNL A   1      39.255  32.297  35.524  1.00  0.00     0.023 A 
ATOM     65  C   UNL A   1      39.718  33.613  35.707  1.00  0.00     0.031 A 
ATOM     66  C   UNL A   1      38.374  31.768  36.483  1.00  0.00     0.131 A 
ATOM     67  C   UNL A   1      39.337  34.334  36.849  1.00  0.00     0.055 A 
ATOM     68  C   UNL A   1      37.944  32.515  37.581  1.00  0.00     0.041 A 
ATOM     69  F   UNL A   1      37.922  30.509  36.373  1.00  0.00    -0.206 F 
ATOM     70  C   UNL A   1      38.434  33.803  37.774  1.00  0.00     0.022 A 
BRANCH  67  71
ATOM     71  S   UNL A   1      40.120  35.938  37.168  1.00  0.00     0.124 S 
ATOM     72  O   UNL A   1      39.795  36.673  35.949  1.00  0.00    -0.237 OA
ATOM     73  O   UNL A   1      39.445  36.386  38.381  1.00  0.00    -0.237 OA
ATOM     74  O   UNL A   1      41.535  35.605  37.327  1.00  0.00    -0.744 OA
ENDBRANCH  67  71
ENDBRANCH  50  64
BRANCH  51  75
ATOM     75  C   UNL A   1      41.877  27.029  27.435  1.00  0.00     0.023 A 
ATOM     76  C   UNL A   1      41.727  25.637  27.322  1.00  0.00     0.031 A 
ATOM     77  C   UNL A   1      42.540  27.704  26.392  1.00  0.00     0.131 A 
ATOM     78  C   UNL A   1      42.278  24.961  26.221  1.00  0.00     0.055 A 
ATOM     79  C   UNL A   1      43.031  27.035  25.270  1.00  0.00     0.041 A 
ATOM     80  F   UNL A   1      42.725  29.033  26.453  1.00  0.00    -0.206 F 
ATOM     81  C   UNL A   1      42.915  25.652  25.187  1.00  0.00     0.022 A 
BRANCH  78  82
ATOM     82  S   UNL A   1      42.256  23.146  26.212  1.00  0.00     0.124 S 
ATOM     83  O   UNL A   1      42.836  22.849  24.907  1.00  0.00    -0.237 OA
ATOM     84  O   UNL A   1      43.086  22.826  27.370  1.00  0.00    -0.237 OA
ATOM     85  O   UNL A   1      40.839  22.822  26.355  1.00  0.00    -0.744 OA
ENDBRANCH  78  82
ENDBRANCH  51  75
BRANCH  63  86
ATOM     86  C   UNL A   1      44.659  27.795  33.791  1.00  0.00     0.023 A 
ATOM     87  C   UNL A   1      45.897  28.461  33.801  1.00  0.00     0.031 A 
ATOM     88  C   UNL A   1      44.583  26.534  34.412  1.00  0.00     0.131 A 
ATOM     89  C   UNL A   1      47.021  27.842  34.373  1.00  0.00     0.055 A 
ATOM     90  C   UNL A   1      45.688  25.951  35.033  1.00  0.00     0.041 A 
ATOM     91  F   UNL A   1      43.427  25.850  34.433  1.00  0.00    -0.206 F 
ATOM     92  C   UNL A   1      46.919  26.599  35.004  1.00  0.00     0.022 A 
BRANCH  89  93
ATOM     93  S   UNL A   1      48.639  28.642  34.204  1.00  0.00     0.124 S 
ATOM     94  O   UNL A   1      49.390  27.653  33.435  1.00  0.00    -0.237 OA
ATOM     95  O   UNL A   1      48.306  29.876  33.501  1.00  0.00    -0.237 OA
ATOM     96  O   UNL A   1      49.082  28.817  35.586  1.00  0.00    -0.744 OA
ENDBRANCH  89  93
ENDBRANCH  63  86
ENDBRANCH  37  38
ENDBRANCH  30  32
ENDBRANCH  29  30
ENDBRANCH  28  29
ENDBRANCH  27  28
ENDBRANCH  26  27
ENDBRANCH  25  26
ENDBRANCH   1  25
TORSDOF 23
ENDMDL
