MODEL 1
REMARK VINA RESULT:      -8.8      0.000      0.000
REMARK SMILES O=C(OCCOCCOCCOC(=O)[C@@]1([NH2+]C2CC2)CCC[C@H]1CCn1ccnc1)c1ccc(-c2c3nc(c(-c4cc(S(=O)(=O)[O-])ccc4F)c4ccc([nH]4)c(-c4cc(S(=O)(=O)[O-])ccc4F)c4nc(c(-c5cc(S(=O)(=O)[O-])ccc5F)c5ccc2[nH]5)C=C4)C=C3)cc1
REMARK SMILES IDX 7 1 6 2 5 3 4 4 3 5 2 6 1 7 31 8 32 9 93 10 33 11 92 12
REMARK SMILES IDX 34 13 35 14 36 15 86 16 37 17 91 18 85 19 87 20 38 21 90 22
REMARK SMILES IDX 84 23 83 24 39 26 71 27 51 28 70 29 52 30 55 31 69 32 88 33
REMARK SMILES IDX 53 34 54 35 68 37 89 38 56 39 40 40 41 41 49 42 42 43 48 44
REMARK SMILES IDX 50 45 47 46 43 47 44 48 45 49 46 50 72 51 73 52 81 53 74 54
REMARK SMILES IDX 80 55 82 56 79 57 75 58 76 59 77 60 78 61 57 62 58 63 66 64
REMARK SMILES IDX 59 65 65 66 67 67 64 68 60 69 61 70 62 71 63 72 8 73 9 74
REMARK SMILES IDX 10 75 11 76 12 77 13 78 14 79 15 80 20 81 23 82 21 83 22 84
REMARK SMILES IDX 16 85 17 88 18 89 19 90 24 91 25 92 26 93 27 94 30 95 28 96
REMARK SMILES IDX 29 97
REMARK H PARENT 87 25 55 36 16 86 16 87
REMARK Flexibility Score: inf
ROOT
ATOM      1  C   UNL A   1      37.848  22.233  25.830  1.00  0.00     0.188 C 
ENDROOT
BRANCH   1   2
ATOM      2  O   UNL A   1      39.183  22.685  25.974  1.00  0.00    -0.376 OA
BRANCH   2   3
ATOM      3  C   UNL A   1      40.141  21.856  26.611  1.00  0.00     0.202 C 
BRANCH   3   4
ATOM      4  C   UNL A   1      41.568  22.158  26.190  1.00  0.00     0.261 C 
BRANCH   4   5
ATOM      5  O   UNL A   1      42.454  22.180  27.318  1.00  0.00    -0.460 OA
BRANCH   5   6
ATOM      6  C   UNL A   1      42.466  23.087  28.318  1.00  0.00     0.338 C 
ATOM      7  O   UNL A   1      42.360  22.701  29.481  1.00  0.00    -0.246 OA
BRANCH   6   8
ATOM      8  C   UNL A   1      42.563  24.548  28.075  1.00  0.00     0.060 A 
ATOM      9  C   UNL A   1      43.662  25.308  28.481  1.00  0.00     0.016 A 
ATOM     10  C   UNL A   1      41.378  25.190  27.662  1.00  0.00     0.016 A 
ATOM     11  C   UNL A   1      43.543  26.688  28.567  1.00  0.00     0.010 A 
ATOM     12  C   UNL A   1      41.242  26.563  27.793  1.00  0.00     0.010 A 
ATOM     13  C   UNL A   1      42.306  27.289  28.318  1.00  0.00    -0.014 A 
BRANCH  13  14
ATOM     14  C   UNL A   1      42.134  28.665  28.762  1.00  0.00     0.031 A 
ATOM     15  C   UNL A   1      43.040  29.669  28.172  1.00  0.00     0.074 A 
ATOM     16  C   UNL A   1      41.188  29.013  29.657  1.00  0.00     0.049 A 
ATOM     17  N   UNL A   1      44.022  30.282  28.745  1.00  0.00    -0.248 NA
ATOM     18  C   UNL A   1      42.911  29.947  26.739  1.00  0.00     0.031 C 
ATOM     19  C   UNL A   1      40.061  28.207  30.133  1.00  0.00     0.029 A 
ATOM     20  N   UNL A   1      40.995  30.213  30.273  1.00  0.00    -0.354 N 
ATOM     21  C   UNL A   1      44.499  31.197  27.812  1.00  0.00     0.074 A 
ATOM     22  C   UNL A   1      43.910  30.813  26.557  1.00  0.00     0.031 C 
ATOM     23  C   UNL A   1      39.195  29.004  30.798  1.00  0.00     0.029 A 
ATOM     24  C   UNL A   1      39.768  30.336  30.910  1.00  0.00     0.049 A 
ATOM     25  H   UNL A   1      41.669  30.932  30.266  1.00  0.00     0.167 HD
ATOM     26  C   UNL A   1      45.163  32.323  28.202  1.00  0.00     0.034 A 
ATOM     27  C   UNL A   1      39.229  31.466  31.437  1.00  0.00     0.034 A 
ATOM     28  C   UNL A   1      45.649  32.195  29.562  1.00  0.00     0.049 A 
ATOM     29  C   UNL A   1      40.351  32.386  31.746  1.00  0.00     0.074 A 
ATOM     30  C   UNL A   1      46.477  31.298  30.213  1.00  0.00     0.029 A 
ATOM     31  N   UNL A   1      45.000  32.880  30.567  1.00  0.00    -0.354 N 
ATOM     32  N   UNL A   1      41.249  32.138  32.660  1.00  0.00    -0.248 NA
ATOM     33  C   UNL A   1      40.751  33.360  30.740  1.00  0.00     0.031 C 
ATOM     34  C   UNL A   1      45.907  31.143  31.512  1.00  0.00     0.029 A 
ATOM     35  C   UNL A   1      44.807  31.997  31.601  1.00  0.00     0.049 A 
ATOM     36  H   UNL A   1      44.728  33.825  30.547  1.00  0.00     0.167 HD
ATOM     37  C   UNL A   1      42.448  32.575  32.117  1.00  0.00     0.074 A 
ATOM     38  C   UNL A   1      42.063  33.415  30.986  1.00  0.00     0.031 C 
ATOM     39  C   UNL A   1      43.637  31.994  32.459  1.00  0.00     0.034 A 
BRANCH  26  40
ATOM     40  C   UNL A   1      45.060  33.670  27.508  1.00  0.00     0.023 A 
ATOM     41  C   UNL A   1      46.253  34.200  26.975  1.00  0.00     0.031 A 
ATOM     42  C   UNL A   1      43.982  34.581  27.594  1.00  0.00     0.131 A 
ATOM     43  C   UNL A   1      46.390  35.575  26.725  1.00  0.00     0.055 A 
ATOM     44  C   UNL A   1      44.103  35.937  27.272  1.00  0.00     0.041 A 
ATOM     45  F   UNL A   1      42.777  34.245  28.061  1.00  0.00    -0.206 F 
ATOM     46  C   UNL A   1      45.324  36.453  26.880  1.00  0.00     0.022 A 
BRANCH  43  47
ATOM     47  S   UNL A   1      48.054  36.219  26.416  1.00  0.00     0.124 S 
ATOM     48  O   UNL A   1      48.625  35.159  25.592  1.00  0.00    -0.237 OA
ATOM     49  O   UNL A   1      47.764  37.478  25.739  1.00  0.00    -0.237 OA
ATOM     50  O   UNL A   1      48.621  36.345  27.756  1.00  0.00    -0.744 OA
ENDBRANCH  43  47
ENDBRANCH  26  40
BRANCH  27  51
ATOM     51  C   UNL A   1      37.802  31.880  31.350  1.00  0.00     0.023 A 
ATOM     52  C   UNL A   1      37.140  32.119  30.129  1.00  0.00     0.031 A 
ATOM     53  C   UNL A   1      36.993  31.828  32.510  1.00  0.00     0.131 A 
ATOM     54  C   UNL A   1      35.737  32.305  30.106  1.00  0.00     0.055 A 
ATOM     55  C   UNL A   1      35.612  32.024  32.483  1.00  0.00     0.041 A 
ATOM     56  F   UNL A   1      37.509  31.500  33.705  1.00  0.00    -0.206 F 
ATOM     57  C   UNL A   1      34.976  32.257  31.276  1.00  0.00     0.022 A 
BRANCH  54  58
ATOM     58  S   UNL A   1      34.858  32.523  28.525  1.00  0.00     0.124 S 
ATOM     59  O   UNL A   1      34.456  31.161  28.202  1.00  0.00    -0.237 OA
ATOM     60  O   UNL A   1      33.787  33.449  28.888  1.00  0.00    -0.237 OA
ATOM     61  O   UNL A   1      35.878  33.090  27.642  1.00  0.00    -0.744 OA
ENDBRANCH  54  58
ENDBRANCH  27  51
BRANCH  39  62
ATOM     62  C   UNL A   1      43.681  31.086  33.671  1.00  0.00     0.023 A 
ATOM     63  C   UNL A   1      43.878  31.531  34.997  1.00  0.00     0.031 A 
ATOM     64  C   UNL A   1      43.378  29.726  33.477  1.00  0.00     0.131 A 
ATOM     65  C   UNL A   1      43.779  30.621  36.068  1.00  0.00     0.055 A 
ATOM     66  C   UNL A   1      43.266  28.832  34.541  1.00  0.00     0.041 A 
ATOM     67  F   UNL A   1      43.145  29.249  32.243  1.00  0.00    -0.206 F 
ATOM     68  C   UNL A   1      43.472  29.275  35.842  1.00  0.00     0.022 A 
BRANCH  65  69
ATOM     69  S   UNL A   1      44.045  31.177  37.781  1.00  0.00     0.124 S 
ATOM     70  O   UNL A   1      45.236  32.012  37.689  1.00  0.00    -0.237 OA
ATOM     71  O   UNL A   1      42.795  31.870  38.084  1.00  0.00    -0.237 OA
ATOM     72  O   UNL A   1      44.236  29.925  38.518  1.00  0.00    -0.744 OA
ENDBRANCH  65  69
ENDBRANCH  39  62
ENDBRANCH  13  14
ENDBRANCH   6   8
ENDBRANCH   5   6
ENDBRANCH   4   5
ENDBRANCH   3   4
ENDBRANCH   2   3
ENDBRANCH   1   2
BRANCH   1  73
ATOM     73  C   UNL A   1      36.692  23.227  25.695  1.00  0.00     0.188 C 
BRANCH  73  74
ATOM     74  O   UNL A   1      36.306  23.825  24.466  1.00  0.00    -0.376 OA
BRANCH  74  75
ATOM     75  C   UNL A   1      35.879  23.077  23.342  1.00  0.00     0.202 C 
BRANCH  75  76
ATOM     76  C   UNL A   1      34.383  22.771  23.237  1.00  0.00     0.261 C 
BRANCH  76  77
ATOM     77  O   UNL A   1      33.518  23.925  23.187  1.00  0.00    -0.459 OA
BRANCH  77  78
ATOM     78  C   UNL A   1      32.292  23.729  23.728  1.00  0.00     0.368 C 
ATOM     79  O   UNL A   1      31.465  22.964  23.238  1.00  0.00    -0.245 OA
BRANCH  78  80
ATOM     80  C   UNL A   1      31.970  24.624  24.939  1.00  0.00     0.197 C 
ATOM     81  C   UNL A   1      33.112  25.652  25.064  1.00  0.00     0.081 C 
ATOM     82  C   UNL A   1      30.714  25.582  24.946  1.00  0.00     0.064 C 
ATOM     83  C   UNL A   1      32.645  26.678  26.078  1.00  0.00     0.008 C 
ATOM     84  C   UNL A   1      31.119  26.646  26.022  1.00  0.00     0.011 C 
BRANCH  80  85
ATOM     85  N   UNL A   1      31.818  23.798  26.171  1.00  0.00    -0.329 N 
ATOM     86  H   UNL A   1      30.907  23.348  26.084  1.00  0.00     0.347 HD
ATOM     87  H   UNL A   1      32.012  24.501  26.884  1.00  0.00     0.347 HD
BRANCH  85  88
ATOM     88  C   UNL A   1      32.728  22.744  26.599  1.00  0.00     0.183 C 
ATOM     89  C   UNL A   1      33.964  22.834  27.436  1.00  0.00     0.071 C 
ATOM     90  C   UNL A   1      32.696  22.336  28.053  1.00  0.00     0.071 C 
ENDBRANCH  85  88
ENDBRANCH  80  85
BRANCH  82  91
ATOM     91  C   UNL A   1      30.285  26.382  23.695  1.00  0.00     0.032 C 
BRANCH  91  92
ATOM     92  C   UNL A   1      29.043  27.261  23.794  1.00  0.00     0.123 C 
BRANCH  92  93
ATOM     93  N   UNL A   1      28.984  28.484  23.025  1.00  0.00    -0.337 N 
ATOM     94  C   UNL A   1      27.829  29.160  22.727  1.00  0.00     0.107 A 
ATOM     95  C   UNL A   1      29.976  29.011  22.248  1.00  0.00     0.199 A 
ATOM     96  C   UNL A   1      28.190  30.086  21.781  1.00  0.00     0.130 A 
ATOM     97  N   UNL A   1      29.528  30.002  21.506  1.00  0.00    -0.245 NA
ENDBRANCH  92  93
ENDBRANCH  91  92
ENDBRANCH  82  91
ENDBRANCH  78  80
ENDBRANCH  77  78
ENDBRANCH  76  77
ENDBRANCH  75  76
ENDBRANCH  74  75
ENDBRANCH  73  74
ENDBRANCH   1  73
TORSDOF 25
ENDMDL
MODEL 2
REMARK VINA RESULT:      -8.5      2.669      4.390
REMARK SMILES O=C(OCCOCCOCCOC(=O)[C@@]1([NH2+]C2CC2)CCC[C@H]1CCn1ccnc1)c1ccc(-c2c3nc(c(-c4cc(S(=O)(=O)[O-])ccc4F)c4ccc([nH]4)c(-c4cc(S(=O)(=O)[O-])ccc4F)c4nc(c(-c5cc(S(=O)(=O)[O-])ccc5F)c5ccc2[nH]5)C=C4)C=C3)cc1
REMARK SMILES IDX 7 1 6 2 5 3 4 4 3 5 2 6 1 7 31 8 32 9 93 10 33 11 92 12
REMARK SMILES IDX 34 13 35 14 36 15 86 16 37 17 91 18 85 19 87 20 38 21 90 22
REMARK SMILES IDX 84 23 83 24 39 26 71 27 51 28 70 29 52 30 55 31 69 32 88 33
REMARK SMILES IDX 53 34 54 35 68 37 89 38 56 39 40 40 41 41 49 42 42 43 48 44
REMARK SMILES IDX 50 45 47 46 43 47 44 48 45 49 46 50 72 51 73 52 81 53 74 54
REMARK SMILES IDX 80 55 82 56 79 57 75 58 76 59 77 60 78 61 57 62 58 63 66 64
REMARK SMILES IDX 59 65 65 66 67 67 64 68 60 69 61 70 62 71 63 72 8 73 9 74
REMARK SMILES IDX 10 75 11 76 12 77 13 78 14 79 15 80 20 81 23 82 21 83 22 84
REMARK SMILES IDX 16 85 17 88 18 89 19 90 24 91 25 92 26 93 27 94 30 95 28 96
REMARK SMILES IDX 29 97
REMARK H PARENT 87 25 55 36 16 86 16 87
REMARK Flexibility Score: inf
ROOT
ATOM      1  C   UNL A   1      40.831  23.919  26.286  1.00  0.00     0.188 C 
ENDROOT
BRANCH   1   2
ATOM      2  O   UNL A   1      42.106  23.685  26.860  1.00  0.00    -0.376 OA
BRANCH   2   3
ATOM      3  C   UNL A   1      43.193  23.315  26.028  1.00  0.00     0.202 C 
BRANCH   3   4
ATOM      4  C   UNL A   1      44.502  23.170  26.783  1.00  0.00     0.261 C 
BRANCH   4   5
ATOM      5  O   UNL A   1      44.330  23.427  28.184  1.00  0.00    -0.460 OA
BRANCH   5   6
ATOM      6  C   UNL A   1      44.804  24.485  28.875  1.00  0.00     0.338 C 
ATOM      7  O   UNL A   1      46.005  24.547  29.130  1.00  0.00    -0.246 OA
BRANCH   6   8
ATOM      8  C   UNL A   1      43.928  25.570  29.381  1.00  0.00     0.060 A 
ATOM      9  C   UNL A   1      42.816  26.033  28.675  1.00  0.00     0.016 A 
ATOM     10  C   UNL A   1      44.420  26.307  30.478  1.00  0.00     0.016 A 
ATOM     11  C   UNL A   1      42.265  27.266  28.998  1.00  0.00     0.010 A 
ATOM     12  C   UNL A   1      43.903  27.559  30.771  1.00  0.00     0.010 A 
ATOM     13  C   UNL A   1      42.877  28.057  29.975  1.00  0.00    -0.014 A 
BRANCH  13  14
ATOM     14  C   UNL A   1      42.495  29.461  30.028  1.00  0.00     0.031 A 
ATOM     15  C   UNL A   1      43.405  30.420  29.374  1.00  0.00     0.074 A 
ATOM     16  C   UNL A   1      41.362  29.870  30.633  1.00  0.00     0.049 A 
ATOM     17  N   UNL A   1      44.193  31.274  29.937  1.00  0.00    -0.248 NA
ATOM     18  C   UNL A   1      43.540  30.347  27.916  1.00  0.00     0.031 C 
ATOM     19  C   UNL A   1      40.241  29.046  31.093  1.00  0.00     0.029 A 
ATOM     20  N   UNL A   1      40.941  31.140  30.890  1.00  0.00    -0.354 N 
ATOM     21  C   UNL A   1      44.761  32.012  28.903  1.00  0.00     0.074 A 
ATOM     22  C   UNL A   1      44.472  31.278  27.700  1.00  0.00     0.031 C 
ATOM     23  C   UNL A   1      39.190  29.847  31.381  1.00  0.00     0.029 A 
ATOM     24  C   UNL A   1      39.606  31.235  31.257  1.00  0.00     0.049 A 
ATOM     25  H   UNL A   1      41.534  31.924  30.822  1.00  0.00     0.167 HD
ATOM     26  C   UNL A   1      45.228  33.276  29.110  1.00  0.00     0.034 A 
ATOM     27  C   UNL A   1      38.871  32.371  31.387  1.00  0.00     0.034 A 
ATOM     28  C   UNL A   1      45.443  33.525  30.523  1.00  0.00     0.049 A 
ATOM     29  C   UNL A   1      39.820  33.481  31.647  1.00  0.00     0.074 A 
ATOM     30  C   UNL A   1      46.203  32.921  31.508  1.00  0.00     0.029 A 
ATOM     31  N   UNL A   1      44.547  34.325  31.200  1.00  0.00    -0.354 N 
ATOM     32  N   UNL A   1      40.537  33.571  32.734  1.00  0.00    -0.248 NA
ATOM     33  C   UNL A   1      40.323  34.247  30.516  1.00  0.00     0.031 C 
ATOM     34  C   UNL A   1      45.401  32.986  32.687  1.00  0.00     0.029 A 
ATOM     35  C   UNL A   1      44.232  33.681  32.371  1.00  0.00     0.049 A 
ATOM     36  H   UNL A   1      44.199  35.195  30.901  1.00  0.00     0.167 HD
ATOM     37  C   UNL A   1      41.775  34.032  32.315  1.00  0.00     0.074 A 
ATOM     38  C   UNL A   1      41.549  34.536  30.962  1.00  0.00     0.031 C 
ATOM     39  C   UNL A   1      42.920  33.711  32.989  1.00  0.00     0.034 A 
BRANCH  26  40
ATOM     40  C   UNL A   1      45.144  34.405  28.098  1.00  0.00     0.023 A 
ATOM     41  C   UNL A   1      46.332  35.121  27.849  1.00  0.00     0.031 A 
ATOM     42  C   UNL A   1      43.963  35.006  27.605  1.00  0.00     0.131 A 
ATOM     43  C   UNL A   1      46.300  36.418  27.310  1.00  0.00     0.055 A 
ATOM     44  C   UNL A   1      43.946  36.268  27.000  1.00  0.00     0.041 A 
ATOM     45  F   UNL A   1      42.752  34.459  27.741  1.00  0.00    -0.206 F 
ATOM     46  C   UNL A   1      45.111  37.003  26.892  1.00  0.00     0.022 A 
BRANCH  43  47
ATOM     47  S   UNL A   1      47.817  37.405  27.384  1.00  0.00     0.124 S 
ATOM     48  O   UNL A   1      47.289  38.756  27.226  1.00  0.00    -0.237 OA
ATOM     49  O   UNL A   1      48.329  37.062  28.706  1.00  0.00    -0.237 OA
ATOM     50  O   UNL A   1      48.601  36.904  26.258  1.00  0.00    -0.744 OA
ENDBRANCH  43  47
ENDBRANCH  26  40
BRANCH  27  51
ATOM     51  C   UNL A   1      37.459  32.556  30.956  1.00  0.00     0.023 A 
ATOM     52  C   UNL A   1      36.494  33.222  31.738  1.00  0.00     0.031 A 
ATOM     53  C   UNL A   1      37.096  32.255  29.623  1.00  0.00     0.131 A 
ATOM     54  C   UNL A   1      35.231  33.546  31.185  1.00  0.00     0.055 A 
ATOM     55  C   UNL A   1      35.847  32.565  29.085  1.00  0.00     0.041 A 
ATOM     56  F   UNL A   1      37.979  31.719  28.764  1.00  0.00    -0.206 F 
ATOM     57  C   UNL A   1      34.909  33.220  29.865  1.00  0.00     0.022 A 
BRANCH  54  58
ATOM     58  S   UNL A   1      34.010  34.488  32.154  1.00  0.00     0.124 S 
ATOM     59  O   UNL A   1      34.835  35.503  32.792  1.00  0.00    -0.237 OA
ATOM     60  O   UNL A   1      33.085  34.954  31.122  1.00  0.00    -0.237 OA
ATOM     61  O   UNL A   1      33.450  33.488  33.064  1.00  0.00    -0.744 OA
ENDBRANCH  54  58
ENDBRANCH  27  51
BRANCH  39  62
ATOM     62  C   UNL A   1      42.804  33.115  34.376  1.00  0.00     0.023 A 
ATOM     63  C   UNL A   1      42.780  31.730  34.654  1.00  0.00     0.031 A 
ATOM     64  C   UNL A   1      42.850  33.999  35.470  1.00  0.00     0.131 A 
ATOM     65  C   UNL A   1      42.793  31.279  35.988  1.00  0.00     0.055 A 
ATOM     66  C   UNL A   1      42.878  33.547  36.789  1.00  0.00     0.041 A 
ATOM     67  F   UNL A   1      42.909  35.326  35.272  1.00  0.00    -0.206 F 
ATOM     68  C   UNL A   1      42.844  32.183  37.053  1.00  0.00     0.022 A 
BRANCH  65  69
ATOM     69  S   UNL A   1      42.748  29.496  36.361  1.00  0.00     0.124 S 
ATOM     70  O   UNL A   1      41.345  29.246  36.665  1.00  0.00    -0.237 OA
ATOM     71  O   UNL A   1      43.254  28.904  35.125  1.00  0.00    -0.237 OA
ATOM     72  O   UNL A   1      43.651  29.367  37.507  1.00  0.00    -0.744 OA
ENDBRANCH  65  69
ENDBRANCH  39  62
ENDBRANCH  13  14
ENDBRANCH   6   8
ENDBRANCH   5   6
ENDBRANCH   4   5
ENDBRANCH   3   4
ENDBRANCH   2   3
ENDBRANCH   1   2
BRANCH   1  73
ATOM     73  C   UNL A   1      39.622  24.247  27.166  1.00  0.00     0.188 C 
BRANCH  73  74
ATOM     74  O   UNL A   1      38.308  24.436  26.661  1.00  0.00    -0.376 OA
BRANCH  74  75
ATOM     75  C   UNL A   1      37.461  23.365  26.287  1.00  0.00     0.202 C 
BRANCH  75  76
ATOM     76  C   UNL A   1      37.337  23.067  24.791  1.00  0.00     0.261 C 
BRANCH  76  77
ATOM     77  O   UNL A   1      36.180  22.295  24.408  1.00  0.00    -0.459 OA
BRANCH  77  78
ATOM     78  C   UNL A   1      35.419  22.868  23.445  1.00  0.00     0.368 C 
ATOM     79  O   UNL A   1      35.899  23.382  22.437  1.00  0.00    -0.245 OA
BRANCH  78  80
ATOM     80  C   UNL A   1      33.913  22.929  23.764  1.00  0.00     0.197 C 
ATOM     81  C   UNL A   1      33.158  22.510  22.486  1.00  0.00     0.081 C 
ATOM     82  C   UNL A   1      33.254  21.959  24.822  1.00  0.00     0.064 C 
ATOM     83  C   UNL A   1      31.712  22.316  22.897  1.00  0.00     0.008 C 
ATOM     84  C   UNL A   1      31.750  21.969  24.385  1.00  0.00     0.011 C 
BRANCH  80  85
ATOM     85  N   UNL A   1      33.533  24.297  24.219  1.00  0.00    -0.329 N 
ATOM     86  H   UNL A   1      32.513  24.319  24.189  1.00  0.00     0.347 HD
ATOM     87  H   UNL A   1      34.107  24.861  23.593  1.00  0.00     0.347 HD
BRANCH  85  88
ATOM     88  C   UNL A   1      33.891  24.891  25.500  1.00  0.00     0.183 C 
ATOM     89  C   UNL A   1      33.925  26.331  25.907  1.00  0.00     0.071 C 
ATOM     90  C   UNL A   1      32.780  25.472  26.341  1.00  0.00     0.071 C 
ENDBRANCH  85  88
ENDBRANCH  80  85
BRANCH  82  91
ATOM     91  C   UNL A   1      33.656  20.471  24.935  1.00  0.00     0.032 C 
BRANCH  91  92
ATOM     92  C   UNL A   1      32.598  19.415  24.633  1.00  0.00     0.123 C 
BRANCH  92  93
ATOM     93  N   UNL A   1      32.995  18.028  24.547  1.00  0.00    -0.337 N 
ATOM     94  C   UNL A   1      33.077  17.175  25.617  1.00  0.00     0.107 A 
ATOM     95  C   UNL A   1      33.608  17.416  23.491  1.00  0.00     0.199 A 
ATOM     96  C   UNL A   1      33.732  16.066  25.142  1.00  0.00     0.130 A 
ATOM     97  N   UNL A   1      34.038  16.216  23.816  1.00  0.00    -0.245 NA
ENDBRANCH  92  93
ENDBRANCH  91  92
ENDBRANCH  82  91
ENDBRANCH  78  80
ENDBRANCH  77  78
ENDBRANCH  76  77
ENDBRANCH  75  76
ENDBRANCH  74  75
ENDBRANCH  73  74
ENDBRANCH   1  73
TORSDOF 25
ENDMDL
MODEL 3
REMARK VINA RESULT:      -8.2      5.729      8.302
REMARK SMILES O=C(OCCOCCOCCOC(=O)[C@@]1([NH2+]C2CC2)CCC[C@H]1CCn1ccnc1)c1ccc(-c2c3nc(c(-c4cc(S(=O)(=O)[O-])ccc4F)c4ccc([nH]4)c(-c4cc(S(=O)(=O)[O-])ccc4F)c4nc(c(-c5cc(S(=O)(=O)[O-])ccc5F)c5ccc2[nH]5)C=C4)C=C3)cc1
REMARK SMILES IDX 7 1 6 2 5 3 4 4 3 5 2 6 1 7 31 8 32 9 93 10 33 11 92 12
REMARK SMILES IDX 34 13 35 14 36 15 86 16 37 17 91 18 85 19 87 20 38 21 90 22
REMARK SMILES IDX 84 23 83 24 39 26 71 27 51 28 70 29 52 30 55 31 69 32 88 33
REMARK SMILES IDX 53 34 54 35 68 37 89 38 56 39 40 40 41 41 49 42 42 43 48 44
REMARK SMILES IDX 50 45 47 46 43 47 44 48 45 49 46 50 72 51 73 52 81 53 74 54
REMARK SMILES IDX 80 55 82 56 79 57 75 58 76 59 77 60 78 61 57 62 58 63 66 64
REMARK SMILES IDX 59 65 65 66 67 67 64 68 60 69 61 70 62 71 63 72 8 73 9 74
REMARK SMILES IDX 10 75 11 76 12 77 13 78 14 79 15 80 20 81 23 82 21 83 22 84
REMARK SMILES IDX 16 85 17 88 18 89 19 90 24 91 25 92 26 93 27 94 30 95 28 96
REMARK SMILES IDX 29 97
REMARK H PARENT 87 25 55 36 16 86 16 87
REMARK Flexibility Score: inf
ROOT
ATOM      1  C   UNL A   1      38.594  21.593  25.877  1.00  0.00     0.188 C 
ENDROOT
BRANCH   1   2
ATOM      2  O   UNL A   1      39.978  21.888  25.797  1.00  0.00    -0.376 OA
BRANCH   2   3
ATOM      3  C   UNL A   1      40.832  21.546  26.876  1.00  0.00     0.202 C 
BRANCH   3   4
ATOM      4  C   UNL A   1      42.261  22.021  26.681  1.00  0.00     0.261 C 
BRANCH   4   5
ATOM      5  O   UNL A   1      42.901  22.287  27.937  1.00  0.00    -0.460 OA
BRANCH   5   6
ATOM      6  C   UNL A   1      43.478  23.445  28.320  1.00  0.00     0.338 C 
ATOM      7  O   UNL A   1      43.080  24.005  29.341  1.00  0.00    -0.246 OA
BRANCH   6   8
ATOM      8  C   UNL A   1      44.554  24.103  27.539  1.00  0.00     0.060 A 
ATOM      9  C   UNL A   1      45.903  23.780  27.694  1.00  0.00     0.016 A 
ATOM     10  C   UNL A   1      44.186  25.264  26.829  1.00  0.00     0.016 A 
ATOM     11  C   UNL A   1      46.874  24.658  27.231  1.00  0.00     0.010 A 
ATOM     12  C   UNL A   1      45.153  26.165  26.410  1.00  0.00     0.010 A 
ATOM     13  C   UNL A   1      46.487  25.885  26.685  1.00  0.00    -0.014 A 
BRANCH  13  14
ATOM     14  C   UNL A   1      47.515  26.906  26.549  1.00  0.00     0.031 A 
ATOM     15  C   UNL A   1      48.377  26.823  25.354  1.00  0.00     0.074 A 
ATOM     16  C   UNL A   1      47.671  27.888  27.459  1.00  0.00     0.049 A 
ATOM     17  N   UNL A   1      49.619  26.473  25.297  1.00  0.00    -0.248 NA
ATOM     18  C   UNL A   1      47.755  27.050  24.046  1.00  0.00     0.031 C 
ATOM     19  C   UNL A   1      46.757  28.263  28.541  1.00  0.00     0.029 A 
ATOM     20  N   UNL A   1      48.661  28.820  27.550  1.00  0.00    -0.354 N 
ATOM     21  C   UNL A   1      50.007  26.654  23.973  1.00  0.00     0.074 A 
ATOM     22  C   UNL A   1      48.786  26.822  23.231  1.00  0.00     0.031 C 
ATOM     23  C   UNL A   1      47.132  29.461  29.045  1.00  0.00     0.029 A 
ATOM     24  C   UNL A   1      48.380  29.867  28.417  1.00  0.00     0.049 A 
ATOM     25  H   UNL A   1      49.504  28.756  27.044  1.00  0.00     0.167 HD
ATOM     26  C   UNL A   1      51.312  26.869  23.642  1.00  0.00     0.034 A 
ATOM     27  C   UNL A   1      49.085  31.019  28.566  1.00  0.00     0.034 A 
ATOM     28  C   UNL A   1      52.195  26.460  24.717  1.00  0.00     0.049 A 
ATOM     29  C   UNL A   1      50.472  30.747  28.112  1.00  0.00     0.074 A 
ATOM     30  C   UNL A   1      52.406  25.274  25.398  1.00  0.00     0.029 A 
ATOM     31  N   UNL A   1      52.793  27.430  25.493  1.00  0.00    -0.354 N 
ATOM     32  N   UNL A   1      51.279  29.928  28.729  1.00  0.00    -0.248 NA
ATOM     33  C   UNL A   1      50.817  31.021  26.725  1.00  0.00     0.031 C 
ATOM     34  C   UNL A   1      52.648  25.660  26.749  1.00  0.00     0.029 A 
ATOM     35  C   UNL A   1      52.636  27.055  26.805  1.00  0.00     0.049 A 
ATOM     36  H   UNL A   1      53.248  28.239  25.167  1.00  0.00     0.167 HD
ATOM     37  C   UNL A   1      51.957  29.260  27.720  1.00  0.00     0.074 A 
ATOM     38  C   UNL A   1      51.713  30.052  26.517  1.00  0.00     0.031 C 
ATOM     39  C   UNL A   1      52.417  27.985  27.896  1.00  0.00     0.034 A 
BRANCH  26  40
ATOM     40  C   UNL A   1      51.781  27.780  22.520  1.00  0.00     0.023 A 
ATOM     41  C   UNL A   1      52.324  29.024  22.900  1.00  0.00     0.031 A 
ATOM     42  C   UNL A   1      51.467  27.653  21.148  1.00  0.00     0.131 A 
ATOM     43  C   UNL A   1      52.371  30.102  22.001  1.00  0.00     0.055 A 
ATOM     44  C   UNL A   1      51.586  28.710  20.238  1.00  0.00     0.041 A 
ATOM     45  F   UNL A   1      50.957  26.540  20.614  1.00  0.00    -0.206 F 
ATOM     46  C   UNL A   1      51.996  29.957  20.671  1.00  0.00     0.022 A 
BRANCH  43  47
ATOM     47  S   UNL A   1      52.716  31.749  22.669  1.00  0.00     0.124 S 
ATOM     48  O   UNL A   1      54.009  31.535  23.311  1.00  0.00    -0.237 OA
ATOM     49  O   UNL A   1      52.722  32.564  21.460  1.00  0.00    -0.237 OA
ATOM     50  O   UNL A   1      51.597  31.985  23.578  1.00  0.00    -0.744 OA
ENDBRANCH  43  47
ENDBRANCH  26  40
BRANCH  27  51
ATOM     51  C   UNL A   1      48.513  32.380  28.750  1.00  0.00     0.023 A 
ATOM     52  C   UNL A   1      48.023  33.162  27.685  1.00  0.00     0.031 A 
ATOM     53  C   UNL A   1      48.236  32.845  30.057  1.00  0.00     0.131 A 
ATOM     54  C   UNL A   1      47.306  34.354  27.949  1.00  0.00     0.055 A 
ATOM     55  C   UNL A   1      47.538  34.025  30.313  1.00  0.00     0.041 A 
ATOM     56  F   UNL A   1      48.563  32.119  31.138  1.00  0.00    -0.206 F 
ATOM     57  C   UNL A   1      47.063  34.783  29.257  1.00  0.00     0.022 A 
BRANCH  54  58
ATOM     58  S   UNL A   1      46.588  35.326  26.585  1.00  0.00     0.124 S 
ATOM     59  O   UNL A   1      47.589  36.363  26.382  1.00  0.00    -0.237 OA
ATOM     60  O   UNL A   1      46.460  34.328  25.525  1.00  0.00    -0.237 OA
ATOM     61  O   UNL A   1      45.316  35.796  27.133  1.00  0.00    -0.744 OA
ENDBRANCH  54  58
ENDBRANCH  27  51
BRANCH  39  62
ATOM     62  C   UNL A   1      52.468  27.417  29.299  1.00  0.00     0.023 A 
ATOM     63  C   UNL A   1      51.444  26.642  29.887  1.00  0.00     0.031 A 
ATOM     64  C   UNL A   1      53.668  27.565  30.018  1.00  0.00     0.131 A 
ATOM     65  C   UNL A   1      51.641  26.058  31.153  1.00  0.00     0.055 A 
ATOM     66  C   UNL A   1      53.865  26.971  31.264  1.00  0.00     0.041 A 
ATOM     67  F   UNL A   1      54.694  28.260  29.498  1.00  0.00    -0.206 F 
ATOM     68  C   UNL A   1      52.848  26.220  31.840  1.00  0.00     0.022 A 
BRANCH  65  69
ATOM     69  S   UNL A   1      50.324  25.069  31.930  1.00  0.00     0.124 S 
ATOM     70  O   UNL A   1      49.147  25.373  31.126  1.00  0.00    -0.237 OA
ATOM     71  O   UNL A   1      50.845  23.708  31.817  1.00  0.00    -0.237 OA
ATOM     72  O   UNL A   1      50.275  25.585  33.300  1.00  0.00    -0.744 OA
ENDBRANCH  65  69
ENDBRANCH  39  62
ENDBRANCH  13  14
ENDBRANCH   6   8
ENDBRANCH   5   6
ENDBRANCH   4   5
ENDBRANCH   3   4
ENDBRANCH   2   3
ENDBRANCH   1   2
BRANCH   1  73
ATOM     73  C   UNL A   1      37.554  22.715  25.936  1.00  0.00     0.188 C 
BRANCH  73  74
ATOM     74  O   UNL A   1      37.308  23.619  24.869  1.00  0.00    -0.376 OA
BRANCH  74  75
ATOM     75  C   UNL A   1      36.860  23.204  23.592  1.00  0.00     0.202 C 
BRANCH  75  76
ATOM     76  C   UNL A   1      35.541  22.429  23.535  1.00  0.00     0.261 C 
BRANCH  76  77
ATOM     77  O   UNL A   1      34.383  23.142  24.016  1.00  0.00    -0.459 OA
BRANCH  77  78
ATOM     78  C   UNL A   1      33.206  22.506  23.807  1.00  0.00     0.368 C 
ATOM     79  O   UNL A   1      32.824  22.167  22.690  1.00  0.00    -0.245 OA
BRANCH  78  80
ATOM     80  C   UNL A   1      32.329  22.341  25.063  1.00  0.00     0.197 C 
ATOM     81  C   UNL A   1      33.120  22.920  26.253  1.00  0.00     0.081 C 
ATOM     82  C   UNL A   1      30.961  23.115  25.220  1.00  0.00     0.064 C 
ATOM     83  C   UNL A   1      32.144  22.995  27.410  1.00  0.00     0.008 C 
ATOM     84  C   UNL A   1      30.760  23.115  26.773  1.00  0.00     0.011 C 
BRANCH  80  85
ATOM     85  N   UNL A   1      31.975  20.907  25.266  1.00  0.00    -0.329 N 
ATOM     86  H   UNL A   1      31.406  20.652  24.458  1.00  0.00     0.347 HD
ATOM     87  H   UNL A   1      31.591  20.949  26.210  1.00  0.00     0.347 HD
BRANCH  85  88
ATOM     88  C   UNL A   1      32.926  19.816  25.425  1.00  0.00     0.183 C 
ATOM     89  C   UNL A   1      32.677  18.348  25.571  1.00  0.00     0.071 C 
ATOM     90  C   UNL A   1      33.134  18.887  24.252  1.00  0.00     0.071 C 
ENDBRANCH  85  88
ENDBRANCH  80  85
BRANCH  82  91
ATOM     91  C   UNL A   1      30.791  24.583  24.767  1.00  0.00     0.032 C 
BRANCH  91  92
ATOM     92  C   UNL A   1      30.736  25.665  25.840  1.00  0.00     0.123 C 
BRANCH  92  93
ATOM     93  N   UNL A   1      31.728  26.716  25.830  1.00  0.00    -0.337 N 
ATOM     94  C   UNL A   1      33.049  26.540  26.151  1.00  0.00     0.107 A 
ATOM     95  C   UNL A   1      31.497  28.060  25.783  1.00  0.00     0.199 A 
ATOM     96  C   UNL A   1      33.562  27.808  26.270  1.00  0.00     0.130 A 
ATOM     97  N   UNL A   1      32.596  28.745  26.018  1.00  0.00    -0.245 NA
ENDBRANCH  92  93
ENDBRANCH  91  92
ENDBRANCH  82  91
ENDBRANCH  78  80
ENDBRANCH  77  78
ENDBRANCH  76  77
ENDBRANCH  75  76
ENDBRANCH  74  75
ENDBRANCH  73  74
ENDBRANCH   1  73
TORSDOF 25
ENDMDL
