MODEL 1
REMARK VINA RESULT:      -9.0      0.000      0.000
REMARK SMILES O=C(OCCOCCOCCOC(=O)c1ccc(-c2c3nc(c(-c4cc(S(=O)(=O)[O-])ccc4F)c4ccc([nH]4)c(-c4cc(S(=O)(=O)[O-])ccc4F)c4nc(c(-c5cc(S(=O)(=O)[O-])ccc5F)c5ccc2[nH]5)C=C4)C=C3)cc1)C1=Cc2cc(Cl)cc(-c3ccc(Cl)cc3)c2O[C@@H]1C(F)(F)F
REMARK SMILES IDX 8 1 7 2 6 3 5 4 4 5 3 6 2 7 1 8 78 9 79 10 95 11 80 12 94 13
REMARK SMILES IDX 81 14 93 15 82 16 85 17 83 18 84 19 96 20 97 21 98 22 99 23
REMARK SMILES IDX 86 24 87 25 92 26 88 27 91 28 89 29 90 30 9 31 10 32 11 33
REMARK SMILES IDX 12 34 13 35 14 36 15 37 16 38 77 39 17 40 76 41 18 42 19 43
REMARK SMILES IDX 20 44 70 45 21 46 75 47 69 48 71 49 22 50 74 51 68 52 67 53
REMARK SMILES IDX 23 55 55 56 35 57 54 58 36 59 39 60 53 61 72 62 37 63 38 64
REMARK SMILES IDX 52 66 73 67 40 68 24 69 25 70 33 71 26 72 32 73 34 74 31 75
REMARK SMILES IDX 27 76 28 77 29 78 30 79 56 80 57 81 65 82 58 83 64 84 66 85
REMARK SMILES IDX 63 86 59 87 60 88 61 89 62 90 41 91 42 92 50 93 43 94 49 95
REMARK SMILES IDX 51 96 48 97 44 98 45 99 46 100 47 101
REMARK H PARENT 71 54 39 65
REMARK Flexibility Score: inf
ROOT
ATOM      1  C   UNL A   1      45.133  35.366  42.964  1.00  0.00     0.188 C 
ENDROOT
BRANCH   1   2
ATOM      2  C   UNL A   1      44.480  34.974  44.296  1.00  0.00     0.188 C 
BRANCH   2   3
ATOM      3  O   UNL A   1      42.988  34.788  44.505  1.00  0.00    -0.376 OA
BRANCH   3   4
ATOM      4  C   UNL A   1      42.035  33.338  44.179  1.00  0.00     0.202 C 
BRANCH   4   5
ATOM      5  C   UNL A   1      39.918  33.411  43.698  1.00  0.00     0.261 C 
BRANCH   5   6
ATOM      6  O   UNL A   1      39.108  32.322  43.007  1.00  0.00    -0.460 OA
BRANCH   6   7
ATOM      7  C   UNL A   1      39.448  32.193  41.718  1.00  0.00     0.338 C 
ATOM      8  O   UNL A   1      40.514  31.879  41.250  1.00  0.00    -0.246 OA
BRANCH   7   9
ATOM      9  C   UNL A   1      38.341  32.959  41.168  1.00  0.00     0.087 C 
ATOM     10  C   UNL A   1      38.707  34.124  40.390  1.00  0.00     0.027 C 
ATOM     11  C   UNL A   1      37.462  31.413  40.462  1.00  0.00     0.316 C 
ATOM     12  C   UNL A   1      38.705  34.187  38.606  1.00  0.00     0.019 A 
ATOM     13  O   UNL A   1      37.580  31.384  38.494  1.00  0.00    -0.475 OA
ATOM     14  C   UNL A   1      39.313  35.275  38.033  1.00  0.00     0.032 A 
ATOM     15  C   UNL A   1      38.225  32.856  37.607  1.00  0.00     0.135 A 
ATOM     16  C   UNL A   1      39.451  35.219  36.645  1.00  0.00     0.042 A 
ATOM     17  C   UNL A   1      38.336  32.927  36.225  1.00  0.00     0.026 A 
ATOM     18  Cl  UNL A   1      40.279  36.530  35.872  1.00  0.00    -0.084 Cl
ATOM     19  C   UNL A   1      38.977  34.142  35.811  1.00  0.00     0.033 A 
BRANCH  11  20
ATOM     20  C   UNL A   1      36.155  31.667  41.567  1.00  0.00     0.430 C 
ATOM     21  F   UNL A   1      35.820  32.876  42.024  1.00  0.00    -0.167 F 
ATOM     22  F   UNL A   1      35.035  31.159  40.984  1.00  0.00    -0.167 F 
ATOM     23  F   UNL A   1      36.304  30.929  42.713  1.00  0.00    -0.167 F 
ENDBRANCH  11  20
BRANCH  17  24
ATOM     24  C   UNL A   1      37.875  32.064  35.141  1.00  0.00    -0.015 A 
ATOM     25  C   UNL A   1      38.417  30.795  34.923  1.00  0.00     0.010 A 
ATOM     26  C   UNL A   1      37.031  32.595  34.139  1.00  0.00     0.010 A 
ATOM     27  C   UNL A   1      38.035  30.034  33.809  1.00  0.00     0.021 A 
ATOM     28  C   UNL A   1      36.621  31.828  33.041  1.00  0.00     0.021 A 
ATOM     29  C   UNL A   1      37.107  30.535  32.898  1.00  0.00     0.041 A 
ATOM     30  Cl  UNL A   1      36.552  29.551  31.600  1.00  0.00    -0.084 Cl
ENDBRANCH  17  24
ENDBRANCH   7   9
ENDBRANCH   6   7
ENDBRANCH   5   6
ENDBRANCH   4   5
ENDBRANCH   3   4
ENDBRANCH   2   3
ENDBRANCH   1   2
BRANCH   1  31
ATOM     31  O   UNL A   1      45.553  34.373  42.078  1.00  0.00    -0.376 OA
BRANCH  31  32
ATOM     32  C   UNL A   1      44.757  34.227  40.927  1.00  0.00     0.202 C 
BRANCH  32  33
ATOM     33  C   UNL A   1      43.548  35.119  40.661  1.00  0.00     0.261 C 
BRANCH  33  34
ATOM     34  O   UNL A   1      42.551  34.528  39.830  1.00  0.00    -0.460 OA
BRANCH  34  35
ATOM     35  C   UNL A   1      42.660  34.829  38.516  1.00  0.00     0.338 C 
ATOM     36  O   UNL A   1      42.745  35.935  38.014  1.00  0.00    -0.246 OA
BRANCH  35  37
ATOM     37  C   UNL A   1      42.881  33.578  37.779  1.00  0.00     0.060 A 
ATOM     38  C   UNL A   1      44.025  33.458  36.978  1.00  0.00     0.016 A 
ATOM     39  C   UNL A   1      41.924  32.565  37.832  1.00  0.00     0.016 A 
ATOM     40  C   UNL A   1      44.207  32.329  36.200  1.00  0.00     0.010 A 
ATOM     41  C   UNL A   1      42.075  31.455  37.003  1.00  0.00     0.010 A 
ATOM     42  C   UNL A   1      43.191  31.369  36.153  1.00  0.00    -0.014 A 
BRANCH  42  43
ATOM     43  C   UNL A   1      43.148  30.497  34.963  1.00  0.00     0.031 A 
ATOM     44  C   UNL A   1      42.300  30.961  33.811  1.00  0.00     0.074 A 
ATOM     45  C   UNL A   1      43.913  29.398  34.881  1.00  0.00     0.049 A 
ATOM     46  N   UNL A   1      42.124  30.418  32.637  1.00  0.00    -0.248 NA
ATOM     47  C   UNL A   1      41.551  32.214  34.014  1.00  0.00     0.031 C 
ATOM     48  C   UNL A   1      44.824  28.923  35.920  1.00  0.00     0.029 A 
ATOM     49  N   UNL A   1      44.050  28.493  33.865  1.00  0.00    -0.354 N 
ATOM     50  C   UNL A   1      41.245  31.261  31.966  1.00  0.00     0.074 A 
ATOM     51  C   UNL A   1      40.891  32.325  32.875  1.00  0.00     0.031 C 
ATOM     52  C   UNL A   1      45.431  27.807  35.482  1.00  0.00     0.029 A 
ATOM     53  C   UNL A   1      44.924  27.474  34.153  1.00  0.00     0.049 A 
ATOM     54  H   UNL A   1      43.567  28.564  33.010  1.00  0.00     0.167 HD
ATOM     55  C   UNL A   1      40.780  31.152  30.699  1.00  0.00     0.034 A 
ATOM     56  C   UNL A   1      45.254  26.392  33.420  1.00  0.00     0.034 A 
ATOM     57  C   UNL A   1      41.130  30.062  29.826  1.00  0.00     0.049 A 
ATOM     58  C   UNL A   1      44.635  26.236  32.050  1.00  0.00     0.074 A 
ATOM     59  C   UNL A   1      40.724  29.836  28.525  1.00  0.00     0.029 A 
ATOM     60  N   UNL A   1      41.954  28.998  30.179  1.00  0.00    -0.354 N 
ATOM     61  N   UNL A   1      43.804  27.035  31.417  1.00  0.00    -0.248 NA
ATOM     62  C   UNL A   1      45.010  25.038  31.291  1.00  0.00     0.031 C 
ATOM     63  C   UNL A   1      41.215  28.589  28.128  1.00  0.00     0.029 A 
ATOM     64  C   UNL A   1      42.030  28.092  29.135  1.00  0.00     0.049 A 
ATOM     65  H   UNL A   1      42.415  28.904  31.043  1.00  0.00     0.167 HD
ATOM     66  C   UNL A   1      43.599  26.458  30.165  1.00  0.00     0.074 A 
ATOM     67  C   UNL A   1      44.402  25.253  30.135  1.00  0.00     0.031 C 
ATOM     68  C   UNL A   1      42.831  26.889  29.129  1.00  0.00     0.034 A 
BRANCH  55  69
ATOM     69  C   UNL A   1      39.787  32.189  30.232  1.00  0.00     0.023 A 
ATOM     70  C   UNL A   1      38.446  31.872  29.952  1.00  0.00     0.031 A 
ATOM     71  C   UNL A   1      40.208  33.513  30.012  1.00  0.00     0.131 A 
ATOM     72  C   UNL A   1      37.598  32.844  29.399  1.00  0.00     0.055 A 
ATOM     73  C   UNL A   1      39.335  34.498  29.551  1.00  0.00     0.041 A 
ATOM     74  F   UNL A   1      41.486  33.868  30.223  1.00  0.00    -0.206 F 
ATOM     75  C   UNL A   1      38.025  34.163  29.227  1.00  0.00     0.022 A 
BRANCH  72  76
ATOM     76  S   UNL A   1      35.986  32.322  28.748  1.00  0.00     0.124 S 
ATOM     77  O   UNL A   1      35.128  32.494  29.917  1.00  0.00    -0.237 OA
ATOM     78  O   UNL A   1      35.771  33.259  27.652  1.00  0.00    -0.237 OA
ATOM     79  O   UNL A   1      36.212  30.934  28.348  1.00  0.00    -0.744 OA
ENDBRANCH  72  76
ENDBRANCH  55  69
BRANCH  56  80
ATOM     80  C   UNL A   1      46.190  25.364  33.960  1.00  0.00     0.023 A 
ATOM     81  C   UNL A   1      45.711  24.223  34.625  1.00  0.00     0.031 A 
ATOM     82  C   UNL A   1      47.582  25.542  33.882  1.00  0.00     0.131 A 
ATOM     83  C   UNL A   1      46.613  23.339  35.235  1.00  0.00     0.055 A 
ATOM     84  C   UNL A   1      48.477  24.623  34.430  1.00  0.00     0.041 A 
ATOM     85  F   UNL A   1      48.097  26.620  33.268  1.00  0.00    -0.206 F 
ATOM     86  C   UNL A   1      47.994  23.521  35.127  1.00  0.00     0.022 A 
BRANCH  83  87
ATOM     87  S   UNL A   1      45.953  22.011  36.279  1.00  0.00     0.124 S 
ATOM     88  O   UNL A   1      45.475  22.758  37.437  1.00  0.00    -0.237 OA
ATOM     89  O   UNL A   1      44.926  21.430  35.421  1.00  0.00    -0.237 OA
ATOM     90  O   UNL A   1      47.115  21.159  36.522  1.00  0.00    -0.744 OA
ENDBRANCH  83  87
ENDBRANCH  56  80
BRANCH  68  91
ATOM     91  C   UNL A   1      42.880  26.082  27.851  1.00  0.00     0.023 A 
ATOM     92  C   UNL A   1      42.239  24.837  27.728  1.00  0.00     0.031 A 
ATOM     93  C   UNL A   1      43.605  26.562  26.744  1.00  0.00     0.131 A 
ATOM     94  C   UNL A   1      42.410  24.079  26.561  1.00  0.00     0.055 A 
ATOM     95  C   UNL A   1      43.692  25.845  25.552  1.00  0.00     0.041 A 
ATOM     96  F   UNL A   1      44.243  27.742  26.804  1.00  0.00    -0.206 F 
ATOM     97  C   UNL A   1      43.110  24.584  25.463  1.00  0.00     0.022 A 
BRANCH  94  98
ATOM     98  S   UNL A   1      41.835  22.359  26.555  1.00  0.00     0.124 S 
ATOM     99  O   UNL A   1      42.184  21.929  25.206  1.00  0.00    -0.237 OA
ATOM    100  O   UNL A   1      42.614  21.765  27.635  1.00  0.00    -0.237 OA
ATOM    101  O   UNL A   1      40.401  22.477  26.817  1.00  0.00    -0.744 OA
ENDBRANCH  94  98
ENDBRANCH  68  91
ENDBRANCH  42  43
ENDBRANCH  35  37
ENDBRANCH  34  35
ENDBRANCH  33  34
ENDBRANCH  32  33
ENDBRANCH  31  32
ENDBRANCH   1  31
TORSDOF 22
ENDMDL
MODEL 2
REMARK VINA RESULT:      -8.9      8.263     13.825
REMARK SMILES O=C(OCCOCCOCCOC(=O)c1ccc(-c2c3nc(c(-c4cc(S(=O)(=O)[O-])ccc4F)c4ccc([nH]4)c(-c4cc(S(=O)(=O)[O-])ccc4F)c4nc(c(-c5cc(S(=O)(=O)[O-])ccc5F)c5ccc2[nH]5)C=C4)C=C3)cc1)C1=Cc2cc(Cl)cc(-c3ccc(Cl)cc3)c2O[C@@H]1C(F)(F)F
REMARK SMILES IDX 8 1 7 2 6 3 5 4 4 5 3 6 2 7 1 8 78 9 79 10 95 11 80 12 94 13
REMARK SMILES IDX 81 14 93 15 82 16 85 17 83 18 84 19 96 20 97 21 98 22 99 23
REMARK SMILES IDX 86 24 87 25 92 26 88 27 91 28 89 29 90 30 9 31 10 32 11 33
REMARK SMILES IDX 12 34 13 35 14 36 15 37 16 38 77 39 17 40 76 41 18 42 19 43
REMARK SMILES IDX 20 44 70 45 21 46 75 47 69 48 71 49 22 50 74 51 68 52 67 53
REMARK SMILES IDX 23 55 55 56 35 57 54 58 36 59 39 60 53 61 72 62 37 63 38 64
REMARK SMILES IDX 52 66 73 67 40 68 24 69 25 70 33 71 26 72 32 73 34 74 31 75
REMARK SMILES IDX 27 76 28 77 29 78 30 79 56 80 57 81 65 82 58 83 64 84 66 85
REMARK SMILES IDX 63 86 59 87 60 88 61 89 62 90 41 91 42 92 50 93 43 94 49 95
REMARK SMILES IDX 51 96 48 97 44 98 45 99 46 100 47 101
REMARK H PARENT 71 54 39 65
REMARK Flexibility Score: inf
ROOT
ATOM      1  C   UNL A   1      40.676  22.802  26.734  1.00  0.00     0.188 C 
ENDROOT
BRANCH   1   2
ATOM      2  C   UNL A   1      39.167  22.642  26.512  1.00  0.00     0.188 C 
BRANCH   2   3
ATOM      3  O   UNL A   1      38.518  21.478  25.786  1.00  0.00    -0.376 OA
BRANCH   3   4
ATOM      4  C   UNL A   1      37.235  21.553  24.577  1.00  0.00     0.202 C 
BRANCH   4   5
ATOM      5  C   UNL A   1      36.326  23.423  23.947  1.00  0.00     0.261 C 
BRANCH   5   6
ATOM      6  O   UNL A   1      35.096  24.082  24.557  1.00  0.00    -0.460 OA
BRANCH   6   7
ATOM      7  C   UNL A   1      34.226  24.477  23.617  1.00  0.00     0.338 C 
ATOM      8  O   UNL A   1      34.455  24.894  22.510  1.00  0.00    -0.246 OA
BRANCH   7   9
ATOM      9  C   UNL A   1      33.085  24.659  24.500  1.00  0.00     0.087 C 
ATOM     10  C   UNL A   1      33.272  25.602  25.582  1.00  0.00     0.027 C 
ATOM     11  C   UNL A   1      31.849  24.890  23.058  1.00  0.00     0.316 C 
ATOM     12  C   UNL A   1      32.638  27.271  25.586  1.00  0.00     0.019 A 
ATOM     13  O   UNL A   1      31.251  26.765  22.949  1.00  0.00    -0.475 OA
ATOM     14  C   UNL A   1      33.113  28.102  26.568  1.00  0.00     0.032 A 
ATOM     15  C   UNL A   1      31.690  27.932  24.295  1.00  0.00     0.135 A 
ATOM     16  C   UNL A   1      32.738  29.442  26.449  1.00  0.00     0.042 A 
ATOM     17  C   UNL A   1      31.305  29.266  24.307  1.00  0.00     0.026 A 
ATOM     18  Cl  UNL A   1      33.371  30.554  27.617  1.00  0.00    -0.084 Cl
ATOM     19  C   UNL A   1      31.883  29.971  25.415  1.00  0.00     0.033 A 
BRANCH  11  20
ATOM     20  C   UNL A   1      31.062  23.418  23.514  1.00  0.00     0.430 C 
ATOM     21  F   UNL A   1      31.664  22.229  23.453  1.00  0.00    -0.167 F 
ATOM     22  F   UNL A   1      30.650  23.569  24.802  1.00  0.00    -0.167 F 
ATOM     23  F   UNL A   1      29.902  23.219  22.810  1.00  0.00    -0.167 F 
ENDBRANCH  11  20
BRANCH  17  24
ATOM     24  C   UNL A   1      30.396  30.049  23.475  1.00  0.00    -0.015 A 
ATOM     25  C   UNL A   1      29.533  31.006  24.018  1.00  0.00     0.010 A 
ATOM     26  C   UNL A   1      30.200  29.685  22.123  1.00  0.00     0.010 A 
ATOM     27  C   UNL A   1      28.593  31.663  23.212  1.00  0.00     0.021 A 
ATOM     28  C   UNL A   1      29.285  30.361  21.306  1.00  0.00     0.021 A 
ATOM     29  C   UNL A   1      28.503  31.370  21.852  1.00  0.00     0.041 A 
ATOM     30  Cl  UNL A   1      27.432  32.263  20.844  1.00  0.00    -0.084 Cl
ENDBRANCH  17  24
ENDBRANCH   7   9
ENDBRANCH   6   7
ENDBRANCH   5   6
ENDBRANCH   4   5
ENDBRANCH   3   4
ENDBRANCH   2   3
ENDBRANCH   1   2
BRANCH   1  31
ATOM     31  O   UNL A   1      41.318  22.042  27.713  1.00  0.00    -0.376 OA
BRANCH  31  32
ATOM     32  C   UNL A   1      41.086  20.655  27.637  1.00  0.00     0.202 C 
BRANCH  32  33
ATOM     33  C   UNL A   1      41.997  19.724  26.842  1.00  0.00     0.261 C 
BRANCH  33  34
ATOM     34  O   UNL A   1      42.453  20.264  25.603  1.00  0.00    -0.460 OA
BRANCH  34  35
ATOM     35  C   UNL A   1      43.777  20.109  25.374  1.00  0.00     0.338 C 
ATOM     36  O   UNL A   1      44.373  19.071  25.151  1.00  0.00    -0.246 OA
BRANCH  35  37
ATOM     37  C   UNL A   1      44.372  21.443  25.221  1.00  0.00     0.060 A 
ATOM     38  C   UNL A   1      45.645  21.680  25.757  1.00  0.00     0.016 A 
ATOM     39  C   UNL A   1      43.640  22.462  24.612  1.00  0.00     0.016 A 
ATOM     40  C   UNL A   1      46.186  22.953  25.711  1.00  0.00     0.010 A 
ATOM     41  C   UNL A   1      44.156  23.755  24.619  1.00  0.00     0.010 A 
ATOM     42  C   UNL A   1      45.405  24.003  25.216  1.00  0.00    -0.014 A 
BRANCH  42  43
ATOM     43  C   UNL A   1      45.755  25.365  25.661  1.00  0.00     0.031 A 
ATOM     44  C   UNL A   1      44.643  26.199  26.236  1.00  0.00     0.074 A 
ATOM     45  C   UNL A   1      47.025  25.795  25.645  1.00  0.00     0.049 A 
ATOM     46  N   UNL A   1      44.682  27.401  26.744  1.00  0.00    -0.248 NA
ATOM     47  C   UNL A   1      43.303  25.585  26.242  1.00  0.00     0.031 C 
ATOM     48  C   UNL A   1      48.173  25.020  25.180  1.00  0.00     0.029 A 
ATOM     49  N   UNL A   1      47.557  26.989  26.047  1.00  0.00    -0.354 N 
ATOM     50  C   UNL A   1      43.375  27.686  27.125  1.00  0.00     0.074 A 
ATOM     51  C   UNL A   1      42.562  26.552  26.753  1.00  0.00     0.031 C 
ATOM     52  C   UNL A   1      49.283  25.765  25.326  1.00  0.00     0.029 A 
ATOM     53  C   UNL A   1      48.915  27.075  25.860  1.00  0.00     0.049 A 
ATOM     54  H   UNL A   1      47.019  27.718  26.432  1.00  0.00     0.167 HD
ATOM     55  C   UNL A   1      42.903  28.797  27.736  1.00  0.00     0.034 A 
ATOM     56  C   UNL A   1      49.750  28.109  26.084  1.00  0.00     0.034 A 
ATOM     57  C   UNL A   1      43.736  29.923  28.068  1.00  0.00     0.049 A 
ATOM     58  C   UNL A   1      49.177  29.382  26.665  1.00  0.00     0.074 A 
ATOM     59  C   UNL A   1      43.379  31.108  28.684  1.00  0.00     0.029 A 
ATOM     60  N   UNL A   1      45.096  30.013  27.788  1.00  0.00    -0.354 N 
ATOM     61  N   UNL A   1      47.941  29.648  27.026  1.00  0.00    -0.248 NA
ATOM     62  C   UNL A   1      50.117  30.487  26.882  1.00  0.00     0.031 C 
ATOM     63  C   UNL A   1      44.493  31.951  28.681  1.00  0.00     0.029 A 
ATOM     64  C   UNL A   1      45.579  31.251  28.177  1.00  0.00     0.049 A 
ATOM     65  H   UNL A   1      45.635  29.301  27.374  1.00  0.00     0.167 HD
ATOM     66  C   UNL A   1      47.969  30.936  27.559  1.00  0.00     0.074 A 
ATOM     67  C   UNL A   1      49.345  31.381  27.479  1.00  0.00     0.031 C 
ATOM     68  C   UNL A   1      46.956  31.679  28.080  1.00  0.00     0.034 A 
BRANCH  55  69
ATOM     69  C   UNL A   1      41.418  28.870  27.996  1.00  0.00     0.023 A 
ATOM     70  C   UNL A   1      40.870  28.688  29.279  1.00  0.00     0.031 A 
ATOM     71  C   UNL A   1      40.528  29.074  26.926  1.00  0.00     0.131 A 
ATOM     72  C   UNL A   1      39.478  28.638  29.444  1.00  0.00     0.055 A 
ATOM     73  C   UNL A   1      39.147  29.117  27.113  1.00  0.00     0.041 A 
ATOM     74  F   UNL A   1      40.988  29.214  25.672  1.00  0.00    -0.206 F 
ATOM     75  C   UNL A   1      38.613  28.883  28.375  1.00  0.00     0.022 A 
BRANCH  72  76
ATOM     76  S   UNL A   1      38.811  28.079  31.037  1.00  0.00     0.124 S 
ATOM     77  O   UNL A   1      37.642  28.941  31.185  1.00  0.00    -0.237 OA
ATOM     78  O   UNL A   1      38.539  26.669  30.788  1.00  0.00    -0.237 OA
ATOM     79  O   UNL A   1      39.898  28.349  31.976  1.00  0.00    -0.744 OA
ENDBRANCH  72  76
ENDBRANCH  55  69
BRANCH  56  80
ATOM     80  C   UNL A   1      51.198  28.004  25.745  1.00  0.00     0.023 A 
ATOM     81  C   UNL A   1      52.153  27.688  26.726  1.00  0.00     0.031 A 
ATOM     82  C   UNL A   1      51.659  28.289  24.448  1.00  0.00     0.131 A 
ATOM     83  C   UNL A   1      53.519  27.723  26.408  1.00  0.00     0.055 A 
ATOM     84  C   UNL A   1      53.015  28.254  24.120  1.00  0.00     0.041 A 
ATOM     85  F   UNL A   1      50.792  28.607  23.473  1.00  0.00    -0.206 F 
ATOM     86  C   UNL A   1      53.957  27.985  25.109  1.00  0.00     0.022 A 
BRANCH  83  87
ATOM     87  S   UNL A   1      54.725  27.540  27.751  1.00  0.00     0.124 S 
ATOM     88  O   UNL A   1      54.519  26.152  28.145  1.00  0.00    -0.237 OA
ATOM     89  O   UNL A   1      55.983  27.835  27.073  1.00  0.00    -0.237 OA
ATOM     90  O   UNL A   1      54.299  28.538  28.730  1.00  0.00    -0.744 OA
ENDBRANCH  83  87
ENDBRANCH  56  80
BRANCH  68  91
ATOM     91  C   UNL A   1      47.319  33.025  28.666  1.00  0.00     0.023 A 
ATOM     92  C   UNL A   1      47.364  34.193  27.885  1.00  0.00     0.031 A 
ATOM     93  C   UNL A   1      47.647  33.131  30.030  1.00  0.00     0.131 A 
ATOM     94  C   UNL A   1      47.814  35.393  28.453  1.00  0.00     0.055 A 
ATOM     95  C   UNL A   1      48.003  34.348  30.610  1.00  0.00     0.041 A 
ATOM     96  F   UNL A   1      47.627  32.049  30.826  1.00  0.00    -0.206 F 
ATOM     97  C   UNL A   1      48.110  35.485  29.816  1.00  0.00     0.022 A 
BRANCH  94  98
ATOM     98  S   UNL A   1      48.157  36.795  27.355  1.00  0.00     0.124 S 
ATOM     99  O   UNL A   1      49.537  37.117  27.700  1.00  0.00    -0.237 OA
ATOM    100  O   UNL A   1      47.949  36.214  26.033  1.00  0.00    -0.237 OA
ATOM    101  O   UNL A   1      47.167  37.794  27.756  1.00  0.00    -0.744 OA
ENDBRANCH  94  98
ENDBRANCH  68  91
ENDBRANCH  42  43
ENDBRANCH  35  37
ENDBRANCH  34  35
ENDBRANCH  33  34
ENDBRANCH  32  33
ENDBRANCH  31  32
ENDBRANCH   1  31
TORSDOF 22
ENDMDL
MODEL 3
REMARK VINA RESULT:      -8.8      6.036     12.983
REMARK SMILES O=C(OCCOCCOCCOC(=O)c1ccc(-c2c3nc(c(-c4cc(S(=O)(=O)[O-])ccc4F)c4ccc([nH]4)c(-c4cc(S(=O)(=O)[O-])ccc4F)c4nc(c(-c5cc(S(=O)(=O)[O-])ccc5F)c5ccc2[nH]5)C=C4)C=C3)cc1)C1=Cc2cc(Cl)cc(-c3ccc(Cl)cc3)c2O[C@@H]1C(F)(F)F
REMARK SMILES IDX 8 1 7 2 6 3 5 4 4 5 3 6 2 7 1 8 78 9 79 10 95 11 80 12 94 13
REMARK SMILES IDX 81 14 93 15 82 16 85 17 83 18 84 19 96 20 97 21 98 22 99 23
REMARK SMILES IDX 86 24 87 25 92 26 88 27 91 28 89 29 90 30 9 31 10 32 11 33
REMARK SMILES IDX 12 34 13 35 14 36 15 37 16 38 77 39 17 40 76 41 18 42 19 43
REMARK SMILES IDX 20 44 70 45 21 46 75 47 69 48 71 49 22 50 74 51 68 52 67 53
REMARK SMILES IDX 23 55 55 56 35 57 54 58 36 59 39 60 53 61 72 62 37 63 38 64
REMARK SMILES IDX 52 66 73 67 40 68 24 69 25 70 33 71 26 72 32 73 34 74 31 75
REMARK SMILES IDX 27 76 28 77 29 78 30 79 56 80 57 81 65 82 58 83 64 84 66 85
REMARK SMILES IDX 63 86 59 87 60 88 61 89 62 90 41 91 42 92 50 93 43 94 49 95
REMARK SMILES IDX 51 96 48 97 44 98 45 99 46 100 47 101
REMARK H PARENT 71 54 39 65
REMARK Flexibility Score: inf
ROOT
ATOM      1  C   UNL A   1      36.300  30.563  27.585  1.00  0.00     0.188 C 
ENDROOT
BRANCH   1   2
ATOM      2  C   UNL A   1      35.404  29.365  27.927  1.00  0.00     0.188 C 
BRANCH   2   3
ATOM      3  O   UNL A   1      33.944  29.238  27.531  1.00  0.00    -0.376 OA
BRANCH   3   4
ATOM      4  C   UNL A   1      33.230  29.575  25.953  1.00  0.00     0.202 C 
BRANCH   4   5
ATOM      5  C   UNL A   1      31.585  28.414  25.138  1.00  0.00     0.261 C 
BRANCH   5   6
ATOM      6  O   UNL A   1      30.821  27.304  25.849  1.00  0.00    -0.460 OA
BRANCH   6   7
ATOM      7  C   UNL A   1      31.646  26.375  26.350  1.00  0.00     0.338 C 
ATOM      8  O   UNL A   1      31.979  26.208  27.496  1.00  0.00    -0.246 OA
BRANCH   7   9
ATOM      9  C   UNL A   1      32.288  26.017  25.096  1.00  0.00     0.087 C 
ATOM     10  C   UNL A   1      33.732  25.913  25.136  1.00  0.00     0.027 C 
ATOM     11  C   UNL A   1      31.103  24.552  24.765  1.00  0.00     0.316 C 
ATOM     12  C   UNL A   1      34.631  24.373  25.215  1.00  0.00     0.019 A 
ATOM     13  O   UNL A   1      32.040  22.833  24.997  1.00  0.00    -0.475 OA
ATOM     14  C   UNL A   1      35.970  24.462  25.496  1.00  0.00     0.032 A 
ATOM     15  C   UNL A   1      33.861  22.821  25.215  1.00  0.00     0.135 A 
ATOM     16  C   UNL A   1      36.615  23.244  25.722  1.00  0.00     0.042 A 
ATOM     17  C   UNL A   1      34.604  21.659  25.376  1.00  0.00     0.026 A 
ATOM     18  Cl  UNL A   1      38.291  23.296  26.157  1.00  0.00    -0.084 Cl
ATOM     19  C   UNL A   1      35.983  21.949  25.643  1.00  0.00     0.033 A 
BRANCH  11  20
ATOM     20  C   UNL A   1      30.478  25.386  23.384  1.00  0.00     0.430 C 
ATOM     21  F   UNL A   1      30.995  26.533  22.939  1.00  0.00    -0.167 F 
ATOM     22  F   UNL A   1      30.528  24.517  22.337  1.00  0.00    -0.167 F 
ATOM     23  F   UNL A   1      29.145  25.674  23.519  1.00  0.00    -0.167 F 
ENDBRANCH  11  20
BRANCH  17  24
ATOM     24  C   UNL A   1      34.276  20.240  25.259  1.00  0.00    -0.015 A 
ATOM     25  C   UNL A   1      35.135  19.331  24.636  1.00  0.00     0.010 A 
ATOM     26  C   UNL A   1      32.968  19.800  25.564  1.00  0.00     0.010 A 
ATOM     27  C   UNL A   1      34.747  17.998  24.438  1.00  0.00     0.021 A 
ATOM     28  C   UNL A   1      32.586  18.463  25.398  1.00  0.00     0.021 A 
ATOM     29  C   UNL A   1      33.493  17.560  24.859  1.00  0.00     0.041 A 
ATOM     30  Cl  UNL A   1      33.067  15.898  24.723  1.00  0.00    -0.084 Cl
ENDBRANCH  17  24
ENDBRANCH   7   9
ENDBRANCH   6   7
ENDBRANCH   5   6
ENDBRANCH   4   5
ENDBRANCH   3   4
ENDBRANCH   2   3
ENDBRANCH   1   2
BRANCH   1  31
ATOM     31  O   UNL A   1      36.416  31.623  28.486  1.00  0.00    -0.376 OA
BRANCH  31  32
ATOM     32  C   UNL A   1      35.237  31.938  29.188  1.00  0.00     0.202 C 
BRANCH  32  33
ATOM     33  C   UNL A   1      34.479  33.241  28.953  1.00  0.00     0.261 C 
BRANCH  33  34
ATOM     34  O   UNL A   1      33.547  33.574  29.980  1.00  0.00    -0.460 OA
BRANCH  34  35
ATOM     35  C   UNL A   1      33.849  34.697  30.672  1.00  0.00     0.338 C 
ATOM     36  O   UNL A   1      33.302  35.783  30.595  1.00  0.00    -0.246 OA
BRANCH  35  37
ATOM     37  C   UNL A   1      34.823  34.343  31.712  1.00  0.00     0.060 A 
ATOM     38  C   UNL A   1      36.056  35.009  31.736  1.00  0.00     0.016 A 
ATOM     39  C   UNL A   1      34.538  33.312  32.606  1.00  0.00     0.016 A 
ATOM     40  C   UNL A   1      37.028  34.627  32.644  1.00  0.00     0.010 A 
ATOM     41  C   UNL A   1      35.536  32.887  33.480  1.00  0.00     0.010 A 
ATOM     42  C   UNL A   1      36.795  33.513  33.457  1.00  0.00    -0.014 A 
BRANCH  42  43
ATOM     43  C   UNL A   1      37.979  32.815  33.991  1.00  0.00     0.031 A 
ATOM     44  C   UNL A   1      38.540  31.694  33.159  1.00  0.00     0.074 A 
ATOM     45  C   UNL A   1      38.582  33.231  35.114  1.00  0.00     0.049 A 
ATOM     46  N   UNL A   1      39.594  30.952  33.365  1.00  0.00    -0.248 NA
ATOM     47  C   UNL A   1      37.809  31.373  31.919  1.00  0.00     0.031 C 
ATOM     48  C   UNL A   1      38.150  34.359  35.936  1.00  0.00     0.029 A 
ATOM     49  N   UNL A   1      39.698  32.754  35.745  1.00  0.00    -0.354 N 
ATOM     50  C   UNL A   1      39.650  30.077  32.286  1.00  0.00     0.074 A 
ATOM     51  C   UNL A   1      38.504  30.351  31.450  1.00  0.00     0.031 C 
ATOM     52  C   UNL A   1      39.001  34.489  36.969  1.00  0.00     0.029 A 
ATOM     53  C   UNL A   1      40.009  33.433  36.898  1.00  0.00     0.049 A 
ATOM     54  H   UNL A   1      40.227  31.996  35.407  1.00  0.00     0.167 HD
ATOM     55  C   UNL A   1      40.581  29.133  32.018  1.00  0.00     0.034 A 
ATOM     56  C   UNL A   1      40.991  33.205  37.791  1.00  0.00     0.034 A 
ATOM     57  C   UNL A   1      41.698  28.865  32.887  1.00  0.00     0.049 A 
ATOM     58  C   UNL A   1      41.955  32.071  37.526  1.00  0.00     0.074 A 
ATOM     59  C   UNL A   1      42.706  27.933  32.731  1.00  0.00     0.029 A 
ATOM     60  N   UNL A   1      41.937  29.515  34.093  1.00  0.00    -0.354 N 
ATOM     61  N   UNL A   1      42.006  31.246  36.503  1.00  0.00    -0.248 NA
ATOM     62  C   UNL A   1      43.001  31.848  38.530  1.00  0.00     0.031 C 
ATOM     63  C   UNL A   1      43.493  27.948  33.886  1.00  0.00     0.029 A 
ATOM     64  C   UNL A   1      43.052  28.973  34.711  1.00  0.00     0.049 A 
ATOM     65  H   UNL A   1      41.395  30.253  34.454  1.00  0.00     0.167 HD
ATOM     66  C   UNL A   1      43.122  30.440  36.720  1.00  0.00     0.074 A 
ATOM     67  C   UNL A   1      43.715  30.888  37.963  1.00  0.00     0.031 C 
ATOM     68  C   UNL A   1      43.621  29.430  35.957  1.00  0.00     0.034 A 
BRANCH  55  69
ATOM     69  C   UNL A   1      40.374  28.279  30.790  1.00  0.00     0.023 A 
ATOM     70  C   UNL A   1      41.129  28.456  29.617  1.00  0.00     0.031 A 
ATOM     71  C   UNL A   1      39.361  27.303  30.779  1.00  0.00     0.131 A 
ATOM     72  C   UNL A   1      40.810  27.724  28.463  1.00  0.00     0.055 A 
ATOM     73  C   UNL A   1      39.112  26.512  29.657  1.00  0.00     0.041 A 
ATOM     74  F   UNL A   1      38.581  27.115  31.855  1.00  0.00    -0.206 F 
ATOM     75  C   UNL A   1      39.828  26.730  28.485  1.00  0.00     0.022 A 
BRANCH  72  76
ATOM     76  S   UNL A   1      41.575  28.204  26.889  1.00  0.00     0.124 S 
ATOM     77  O   UNL A   1      42.704  29.010  27.346  1.00  0.00    -0.237 OA
ATOM     78  O   UNL A   1      41.907  26.916  26.294  1.00  0.00    -0.237 OA
ATOM     79  O   UNL A   1      40.519  28.953  26.210  1.00  0.00    -0.744 OA
ENDBRANCH  72  76
ENDBRANCH  55  69
BRANCH  56  80
ATOM     80  C   UNL A   1      41.108  34.039  39.022  1.00  0.00     0.023 A 
ATOM     81  C   UNL A   1      40.222  33.872  40.100  1.00  0.00     0.031 A 
ATOM     82  C   UNL A   1      42.066  35.064  39.112  1.00  0.00     0.131 A 
ATOM     83  C   UNL A   1      40.273  34.754  41.189  1.00  0.00     0.055 A 
ATOM     84  C   UNL A   1      42.157  35.895  40.230  1.00  0.00     0.041 A 
ATOM     85  F   UNL A   1      42.932  35.276  38.108  1.00  0.00    -0.206 F 
ATOM     86  C   UNL A   1      41.245  35.753  41.271  1.00  0.00     0.022 A 
BRANCH  83  87
ATOM     87  S   UNL A   1      38.968  34.655  42.445  1.00  0.00     0.124 S 
ATOM     88  O   UNL A   1      39.515  33.661  43.361  1.00  0.00    -0.237 OA
ATOM     89  O   UNL A   1      38.918  36.026  42.942  1.00  0.00    -0.237 OA
ATOM     90  O   UNL A   1      37.796  34.226  41.685  1.00  0.00    -0.744 OA
ENDBRANCH  83  87
ENDBRANCH  56  80
BRANCH  68  91
ATOM     91  C   UNL A   1      44.913  28.792  36.418  1.00  0.00     0.023 A 
ATOM     92  C   UNL A   1      44.932  27.689  37.289  1.00  0.00     0.031 A 
ATOM     93  C   UNL A   1      46.147  29.316  35.992  1.00  0.00     0.131 A 
ATOM     94  C   UNL A   1      46.156  27.206  37.773  1.00  0.00     0.055 A 
ATOM     95  C   UNL A   1      47.362  28.770  36.404  1.00  0.00     0.041 A 
ATOM     96  F   UNL A   1      46.193  30.373  35.164  1.00  0.00    -0.206 F 
ATOM     97  C   UNL A   1      47.372  27.722  37.318  1.00  0.00     0.022 A 
BRANCH  94  98
ATOM     98  S   UNL A   1      46.134  25.996  39.125  1.00  0.00     0.124 S 
ATOM     99  O   UNL A   1      47.327  25.206  38.841  1.00  0.00    -0.237 OA
ATOM    100  O   UNL A   1      46.201  26.848  40.307  1.00  0.00    -0.237 OA
ATOM    101  O   UNL A   1      44.865  25.295  38.936  1.00  0.00    -0.744 OA
ENDBRANCH  94  98
ENDBRANCH  68  91
ENDBRANCH  42  43
ENDBRANCH  35  37
ENDBRANCH  34  35
ENDBRANCH  33  34
ENDBRANCH  32  33
ENDBRANCH  31  32
ENDBRANCH   1  31
TORSDOF 22
ENDMDL
