MODEL 1
REMARK VINA RESULT:     -10.7      0.000      0.000
REMARK SMILES O=C(OCCOCCOCCOC(=O)c1cncc(OCCCc2ccccc2)n1)c1ccc(-c2c3nc(c(-c4cc(S(=O)(=O)[O-])ccc4F)c4ccc([nH]4)c(-c4cc(S(=O)(=O)[O-])ccc4F)c4nc(c(-c5cc(S(=O)(=O)[O-])ccc5F)c5ccc2[nH]5)C=C4)C=C3)cc1
REMARK SMILES IDX 8 1 7 2 6 3 5 4 4 5 3 6 2 7 1 8 31 9 32 10 93 11 33 12 92 13
REMARK SMILES IDX 34 14 35 15 36 16 86 17 37 18 91 19 85 20 87 21 38 22 90 23
REMARK SMILES IDX 84 24 83 25 39 27 71 28 51 29 70 30 52 31 55 32 69 33 88 34
REMARK SMILES IDX 53 35 54 36 68 38 89 39 56 40 40 41 41 42 49 43 42 44 48 45
REMARK SMILES IDX 50 46 47 47 43 48 44 49 45 50 46 51 72 52 73 53 81 54 74 55
REMARK SMILES IDX 80 56 82 57 79 58 75 59 76 60 77 61 78 62 57 63 58 64 66 65
REMARK SMILES IDX 59 66 65 67 67 68 64 69 60 70 61 71 62 72 63 73 9 74 10 75
REMARK SMILES IDX 11 76 12 77 13 78 14 79 15 80 16 81 30 82 17 83 19 84 18 85
REMARK SMILES IDX 20 86 21 87 22 88 23 89 24 90 25 91 29 92 26 93 28 94 27 95
REMARK H PARENT 87 26 55 37
REMARK Flexibility Score: inf
ROOT
ATOM      1  C   UNL A   1      34.975  33.083  28.901  1.00  0.00     0.188 C 
ENDROOT
BRANCH   1   2
ATOM      2  C   UNL A   1      33.956  34.120  29.373  1.00  0.00     0.188 C 
BRANCH   2   3
ATOM      3  O   UNL A   1      34.422  34.842  30.523  1.00  0.00    -0.376 OA
BRANCH   3   4
ATOM      4  C   UNL A   1      34.109  34.190  31.757  1.00  0.00     0.202 C 
BRANCH   4   5
ATOM      5  C   UNL A   1      35.331  33.825  32.606  1.00  0.00     0.261 C 
BRANCH   5   6
ATOM      6  O   UNL A   1      35.329  32.434  32.944  1.00  0.00    -0.460 OA
BRANCH   6   7
ATOM      7  C   UNL A   1      36.455  31.902  33.477  1.00  0.00     0.338 C 
ATOM      8  O   UNL A   1      36.926  32.334  34.522  1.00  0.00    -0.246 OA
BRANCH   7   9
ATOM      9  C   UNL A   1      37.250  30.996  32.589  1.00  0.00     0.060 A 
ATOM     10  C   UNL A   1      38.178  30.056  33.047  1.00  0.00     0.016 A 
ATOM     11  C   UNL A   1      37.114  31.182  31.206  1.00  0.00     0.016 A 
ATOM     12  C   UNL A   1      38.990  29.357  32.154  1.00  0.00     0.010 A 
ATOM     13  C   UNL A   1      37.895  30.457  30.301  1.00  0.00     0.010 A 
ATOM     14  C   UNL A   1      38.886  29.592  30.782  1.00  0.00    -0.014 A 
BRANCH  14  15
ATOM     15  C   UNL A   1      40.018  29.195  29.915  1.00  0.00     0.031 A 
ATOM     16  C   UNL A   1      41.159  30.164  29.778  1.00  0.00     0.074 A 
ATOM     17  C   UNL A   1      40.085  27.975  29.357  1.00  0.00     0.049 A 
ATOM     18  N   UNL A   1      42.267  30.059  29.096  1.00  0.00    -0.248 NA
ATOM     19  C   UNL A   1      41.026  31.427  30.523  1.00  0.00     0.031 C 
ATOM     20  C   UNL A   1      39.078  26.926  29.504  1.00  0.00     0.029 A 
ATOM     21  N   UNL A   1      41.052  27.410  28.564  1.00  0.00    -0.354 N 
ATOM     22  C   UNL A   1      42.964  31.238  29.334  1.00  0.00     0.074 A 
ATOM     23  C   UNL A   1      42.122  32.070  30.164  1.00  0.00     0.031 C 
ATOM     24  C   UNL A   1      39.483  25.846  28.815  1.00  0.00     0.029 A 
ATOM     25  C   UNL A   1      40.740  26.142  28.140  1.00  0.00     0.049 A 
ATOM     26  H   UNL A   1      41.888  27.870  28.323  1.00  0.00     0.167 HD
ATOM     27  C   UNL A   1      44.206  31.588  28.922  1.00  0.00     0.034 A 
ATOM     28  C   UNL A   1      41.379  25.320  27.284  1.00  0.00     0.034 A 
ATOM     29  C   UNL A   1      45.016  30.753  28.075  1.00  0.00     0.049 A 
ATOM     30  C   UNL A   1      42.701  25.769  26.722  1.00  0.00     0.074 A 
ATOM     31  C   UNL A   1      46.270  31.005  27.550  1.00  0.00     0.029 A 
ATOM     32  N   UNL A   1      44.633  29.498  27.612  1.00  0.00    -0.354 N 
ATOM     33  N   UNL A   1      43.348  26.892  26.944  1.00  0.00    -0.248 NA
ATOM     34  C   UNL A   1      43.391  24.844  25.815  1.00  0.00     0.031 C 
ATOM     35  C   UNL A   1      46.618  29.929  26.724  1.00  0.00     0.029 A 
ATOM     36  C   UNL A   1      45.610  28.976  26.784  1.00  0.00     0.049 A 
ATOM     37  H   UNL A   1      43.789  29.047  27.842  1.00  0.00     0.167 HD
ATOM     38  C   UNL A   1      44.534  26.797  26.227  1.00  0.00     0.074 A 
ATOM     39  C   UNL A   1      44.513  25.506  25.563  1.00  0.00     0.031 C 
ATOM     40  C   UNL A   1      45.554  27.687  26.133  1.00  0.00     0.034 A 
BRANCH  27  41
ATOM     41  C   UNL A   1      44.684  32.957  29.337  1.00  0.00     0.023 A 
ATOM     42  C   UNL A   1      44.528  34.074  28.492  1.00  0.00     0.031 A 
ATOM     43  C   UNL A   1      45.438  33.118  30.510  1.00  0.00     0.131 A 
ATOM     44  C   UNL A   1      45.223  35.261  28.771  1.00  0.00     0.055 A 
ATOM     45  C   UNL A   1      46.049  34.333  30.830  1.00  0.00     0.041 A 
ATOM     46  F   UNL A   1      45.643  32.082  31.339  1.00  0.00    -0.206 F 
ATOM     47  C   UNL A   1      45.965  35.405  29.945  1.00  0.00     0.022 A 
BRANCH  44  48
ATOM     48  S   UNL A   1      45.323  36.526  27.471  1.00  0.00     0.124 S 
ATOM     49  O   UNL A   1      46.338  37.427  28.012  1.00  0.00    -0.237 OA
ATOM     50  O   UNL A   1      45.717  35.748  26.303  1.00  0.00    -0.237 OA
ATOM     51  O   UNL A   1      43.971  37.080  27.428  1.00  0.00    -0.744 OA
ENDBRANCH  44  48
ENDBRANCH  27  41
BRANCH  28  52
ATOM     52  C   UNL A   1      40.743  24.035  26.871  1.00  0.00     0.023 A 
ATOM     53  C   UNL A   1      41.444  22.820  26.874  1.00  0.00     0.031 A 
ATOM     54  C   UNL A   1      39.393  24.014  26.465  1.00  0.00     0.131 A 
ATOM     55  C   UNL A   1      40.800  21.639  26.465  1.00  0.00     0.055 A 
ATOM     56  C   UNL A   1      38.748  22.834  26.091  1.00  0.00     0.041 A 
ATOM     57  F   UNL A   1      38.670  25.146  26.450  1.00  0.00    -0.206 F 
ATOM     58  C   UNL A   1      39.455  21.637  26.084  1.00  0.00     0.022 A 
BRANCH  55  59
ATOM     59  S   UNL A   1      41.755  20.098  26.394  1.00  0.00     0.124 S 
ATOM     60  O   UNL A   1      42.095  19.891  27.798  1.00  0.00    -0.237 OA
ATOM     61  O   UNL A   1      40.789  19.165  25.824  1.00  0.00    -0.237 OA
ATOM     62  O   UNL A   1      42.882  20.432  25.525  1.00  0.00    -0.744 OA
ENDBRANCH  55  59
ENDBRANCH  28  52
BRANCH  40  63
ATOM     63  C   UNL A   1      46.749  27.273  25.319  1.00  0.00     0.023 A 
ATOM     64  C   UNL A   1      46.935  27.727  24.003  1.00  0.00     0.031 A 
ATOM     65  C   UNL A   1      47.730  26.442  25.886  1.00  0.00     0.131 A 
ATOM     66  C   UNL A   1      48.069  27.321  23.283  1.00  0.00     0.055 A 
ATOM     67  C   UNL A   1      48.877  26.078  25.181  1.00  0.00     0.041 A 
ATOM     68  F   UNL A   1      47.594  25.985  27.142  1.00  0.00    -0.206 F 
ATOM     69  C   UNL A   1      49.048  26.513  23.871  1.00  0.00     0.022 A 
BRANCH  66  70
ATOM     70  S   UNL A   1      48.232  27.833  21.553  1.00  0.00     0.124 S 
ATOM     71  O   UNL A   1      49.270  28.855  21.637  1.00  0.00    -0.237 OA
ATOM     72  O   UNL A   1      48.614  26.588  20.890  1.00  0.00    -0.237 OA
ATOM     73  O   UNL A   1      46.898  28.327  21.215  1.00  0.00    -0.744 OA
ENDBRANCH  66  70
ENDBRANCH  40  63
ENDBRANCH  14  15
ENDBRANCH   7   9
ENDBRANCH   6   7
ENDBRANCH   5   6
ENDBRANCH   4   5
ENDBRANCH   3   4
ENDBRANCH   2   3
ENDBRANCH   1   2
BRANCH   1  74
ATOM     74  O   UNL A   1      34.476  31.750  28.761  1.00  0.00    -0.376 OA
BRANCH  74  75
ATOM     75  C   UNL A   1      34.200  31.308  27.436  1.00  0.00     0.202 C 
BRANCH  75  76
ATOM     76  C   UNL A   1      32.958  30.432  27.227  1.00  0.00     0.261 C 
BRANCH  76  77
ATOM     77  O   UNL A   1      32.735  29.973  25.885  1.00  0.00    -0.458 OA
BRANCH  77  78
ATOM     78  C   UNL A   1      33.279  28.755  25.610  1.00  0.00     0.358 C 
ATOM     79  O   UNL A   1      34.288  28.280  26.108  1.00  0.00    -0.244 OA
BRANCH  78  80
ATOM     80  C   UNL A   1      32.490  28.060  24.576  1.00  0.00     0.170 A 
ATOM     81  C   UNL A   1      31.649  28.809  23.768  1.00  0.00     0.147 A 
ATOM     82  N   UNL A   1      32.796  26.757  24.322  1.00  0.00    -0.203 NA
ATOM     83  N   UNL A   1      31.092  28.291  22.647  1.00  0.00    -0.257 NA
ATOM     84  C   UNL A   1      32.213  26.246  23.217  1.00  0.00     0.233 A 
ATOM     85  C   UNL A   1      31.401  26.998  22.382  1.00  0.00     0.179 A 
BRANCH  84  86
ATOM     86  O   UNL A   1      32.584  24.988  22.814  1.00  0.00    -0.477 OA
BRANCH  86  87
ATOM     87  C   UNL A   1      32.320  24.001  23.817  1.00  0.00     0.232 C 
BRANCH  87  88
ATOM     88  C   UNL A   1      33.126  22.729  23.535  1.00  0.00     0.046 C 
BRANCH  88  89
ATOM     89  C   UNL A   1      32.864  21.594  24.534  1.00  0.00     0.039 C 
BRANCH  89  90
ATOM     90  C   UNL A   1      32.994  20.176  24.013  1.00  0.00    -0.048 A 
ATOM     91  C   UNL A   1      33.897  19.309  24.652  1.00  0.00     0.004 A 
ATOM     92  C   UNL A   1      32.227  19.669  22.958  1.00  0.00     0.004 A 
ATOM     93  C   UNL A   1      34.023  17.976  24.257  1.00  0.00     0.000 A 
ATOM     94  C   UNL A   1      32.377  18.343  22.544  1.00  0.00     0.000 A 
ATOM     95  C   UNL A   1      33.258  17.491  23.202  1.00  0.00     0.000 A 
ENDBRANCH  89  90
ENDBRANCH  88  89
ENDBRANCH  87  88
ENDBRANCH  86  87
ENDBRANCH  84  86
ENDBRANCH  78  80
ENDBRANCH  77  78
ENDBRANCH  76  77
ENDBRANCH  75  76
ENDBRANCH  74  75
ENDBRANCH   1  74
TORSDOF 25
ENDMDL
MODEL 2
REMARK VINA RESULT:     -10.4      4.630      6.911
REMARK SMILES O=C(OCCOCCOCCOC(=O)c1cncc(OCCCc2ccccc2)n1)c1ccc(-c2c3nc(c(-c4cc(S(=O)(=O)[O-])ccc4F)c4ccc([nH]4)c(-c4cc(S(=O)(=O)[O-])ccc4F)c4nc(c(-c5cc(S(=O)(=O)[O-])ccc5F)c5ccc2[nH]5)C=C4)C=C3)cc1
REMARK SMILES IDX 8 1 7 2 6 3 5 4 4 5 3 6 2 7 1 8 31 9 32 10 93 11 33 12 92 13
REMARK SMILES IDX 34 14 35 15 36 16 86 17 37 18 91 19 85 20 87 21 38 22 90 23
REMARK SMILES IDX 84 24 83 25 39 27 71 28 51 29 70 30 52 31 55 32 69 33 88 34
REMARK SMILES IDX 53 35 54 36 68 38 89 39 56 40 40 41 41 42 49 43 42 44 48 45
REMARK SMILES IDX 50 46 47 47 43 48 44 49 45 50 46 51 72 52 73 53 81 54 74 55
REMARK SMILES IDX 80 56 82 57 79 58 75 59 76 60 77 61 78 62 57 63 58 64 66 65
REMARK SMILES IDX 59 66 65 67 67 68 64 69 60 70 61 71 62 72 63 73 9 74 10 75
REMARK SMILES IDX 11 76 12 77 13 78 14 79 15 80 16 81 30 82 17 83 19 84 18 85
REMARK SMILES IDX 20 86 21 87 22 88 23 89 24 90 25 91 29 92 26 93 28 94 27 95
REMARK H PARENT 87 26 55 37
REMARK Flexibility Score: inf
ROOT
ATOM      1  C   UNL A   1      31.858  28.700  25.600  1.00  0.00     0.188 C 
ENDROOT
BRANCH   1   2
ATOM      2  C   UNL A   1      31.706  30.126  25.071  1.00  0.00     0.188 C 
BRANCH   2   3
ATOM      3  O   UNL A   1      30.950  30.952  25.969  1.00  0.00    -0.376 OA
BRANCH   3   4
ATOM      4  C   UNL A   1      31.600  32.190  26.272  1.00  0.00     0.202 C 
BRANCH   4   5
ATOM      5  C   UNL A   1      32.270  32.229  27.650  1.00  0.00     0.261 C 
BRANCH   5   6
ATOM      6  O   UNL A   1      33.547  31.583  27.623  1.00  0.00    -0.460 OA
BRANCH   6   7
ATOM      7  C   UNL A   1      34.529  32.070  28.419  1.00  0.00     0.338 C 
ATOM      8  O   UNL A   1      34.474  33.208  28.867  1.00  0.00    -0.246 OA
BRANCH   7   9
ATOM      9  C   UNL A   1      35.801  31.282  28.467  1.00  0.00     0.060 A 
ATOM     10  C   UNL A   1      35.865  29.886  28.503  1.00  0.00     0.016 A 
ATOM     11  C   UNL A   1      36.995  32.008  28.582  1.00  0.00     0.016 A 
ATOM     12  C   UNL A   1      37.079  29.229  28.702  1.00  0.00     0.010 A 
ATOM     13  C   UNL A   1      38.221  31.358  28.741  1.00  0.00     0.010 A 
ATOM     14  C   UNL A   1      38.253  29.964  28.872  1.00  0.00    -0.014 A 
BRANCH  14  15
ATOM     15  C   UNL A   1      39.412  29.298  29.507  1.00  0.00     0.031 A 
ATOM     16  C   UNL A   1      39.817  29.770  30.876  1.00  0.00     0.074 A 
ATOM     17  C   UNL A   1      40.014  28.239  28.942  1.00  0.00     0.049 A 
ATOM     18  N   UNL A   1      40.780  29.352  31.652  1.00  0.00    -0.248 NA
ATOM     19  C   UNL A   1      39.015  30.866  31.444  1.00  0.00     0.031 C 
ATOM     20  C   UNL A   1      39.638  27.641  27.663  1.00  0.00     0.029 A 
ATOM     21  N   UNL A   1      41.063  27.471  29.381  1.00  0.00    -0.354 N 
ATOM     22  C   UNL A   1      40.695  30.131  32.801  1.00  0.00     0.074 A 
ATOM     23  C   UNL A   1      39.635  31.090  32.588  1.00  0.00     0.031 C 
ATOM     24  C   UNL A   1      40.454  26.601  27.422  1.00  0.00     0.029 A 
ATOM     25  C   UNL A   1      41.435  26.492  28.493  1.00  0.00     0.049 A 
ATOM     26  H   UNL A   1      41.506  27.610  30.250  1.00  0.00     0.167 HD
ATOM     27  C   UNL A   1      41.418  30.039  33.943  1.00  0.00     0.034 A 
ATOM     28  C   UNL A   1      42.465  25.623  28.524  1.00  0.00     0.034 A 
ATOM     29  C   UNL A   1      42.487  29.092  34.122  1.00  0.00     0.049 A 
ATOM     30  C   UNL A   1      43.349  25.614  29.743  1.00  0.00     0.074 A 
ATOM     31  C   UNL A   1      43.324  28.923  35.209  1.00  0.00     0.029 A 
ATOM     32  N   UNL A   1      42.876  28.158  33.167  1.00  0.00    -0.354 N 
ATOM     33  N   UNL A   1      43.268  26.362  30.820  1.00  0.00    -0.248 NA
ATOM     34  C   UNL A   1      44.446  24.639  29.765  1.00  0.00     0.031 C 
ATOM     35  C   UNL A   1      44.256  27.928  34.887  1.00  0.00     0.029 A 
ATOM     36  C   UNL A   1      43.960  27.431  33.625  1.00  0.00     0.049 A 
ATOM     37  H   UNL A   1      42.442  28.033  32.292  1.00  0.00     0.167 HD
ATOM     38  C   UNL A   1      44.287  25.929  31.662  1.00  0.00     0.074 A 
ATOM     39  C   UNL A   1      44.969  24.855  30.965  1.00  0.00     0.031 C 
ATOM     40  C   UNL A   1      44.620  26.369  32.901  1.00  0.00     0.034 A 
BRANCH  27  41
ATOM     41  C   UNL A   1      41.096  31.049  35.018  1.00  0.00     0.023 A 
ATOM     42  C   UNL A   1      39.890  30.986  35.743  1.00  0.00     0.031 A 
ATOM     43  C   UNL A   1      41.923  32.166  35.209  1.00  0.00     0.131 A 
ATOM     44  C   UNL A   1      39.490  32.080  36.525  1.00  0.00     0.055 A 
ATOM     45  C   UNL A   1      41.562  33.210  36.064  1.00  0.00     0.041 A 
ATOM     46  F   UNL A   1      43.071  32.293  34.525  1.00  0.00    -0.206 F 
ATOM     47  C   UNL A   1      40.326  33.183  36.708  1.00  0.00     0.022 A 
BRANCH  44  48
ATOM     48  S   UNL A   1      37.772  32.136  37.113  1.00  0.00     0.124 S 
ATOM     49  O   UNL A   1      37.840  33.186  38.126  1.00  0.00    -0.237 OA
ATOM     50  O   UNL A   1      37.034  32.466  35.900  1.00  0.00    -0.237 OA
ATOM     51  O   UNL A   1      37.545  30.791  37.638  1.00  0.00    -0.744 OA
ENDBRANCH  44  48
ENDBRANCH  27  41
BRANCH  28  52
ATOM     52  C   UNL A   1      42.738  24.751  27.345  1.00  0.00     0.023 A 
ATOM     53  C   UNL A   1      42.289  23.423  27.279  1.00  0.00     0.031 A 
ATOM     54  C   UNL A   1      43.464  25.255  26.247  1.00  0.00     0.131 A 
ATOM     55  C   UNL A   1      42.584  22.640  26.149  1.00  0.00     0.055 A 
ATOM     56  C   UNL A   1      43.726  24.484  25.113  1.00  0.00     0.041 A 
ATOM     57  F   UNL A   1      43.911  26.522  26.251  1.00  0.00    -0.206 F 
ATOM     58  C   UNL A   1      43.290  23.165  25.062  1.00  0.00     0.022 A 
BRANCH  55  59
ATOM     59  S   UNL A   1      42.068  20.901  26.129  1.00  0.00     0.124 S 
ATOM     60  O   UNL A   1      43.015  20.318  25.183  1.00  0.00    -0.237 OA
ATOM     61  O   UNL A   1      42.238  20.516  27.526  1.00  0.00    -0.237 OA
ATOM     62  O   UNL A   1      40.683  20.959  25.666  1.00  0.00    -0.744 OA
ENDBRANCH  55  59
ENDBRANCH  28  52
BRANCH  40  63
ATOM     63  C   UNL A   1      45.747  25.656  33.597  1.00  0.00     0.023 A 
ATOM     64  C   UNL A   1      45.509  24.586  34.474  1.00  0.00     0.031 A 
ATOM     65  C   UNL A   1      47.077  26.034  33.346  1.00  0.00     0.131 A 
ATOM     66  C   UNL A   1      46.591  23.944  35.095  1.00  0.00     0.055 A 
ATOM     67  C   UNL A   1      48.151  25.364  33.931  1.00  0.00     0.041 A 
ATOM     68  F   UNL A   1      47.352  27.051  32.513  1.00  0.00    -0.206 F 
ATOM     69  C   UNL A   1      47.910  24.316  34.815  1.00  0.00     0.022 A 
BRANCH  66  70
ATOM     70  S   UNL A   1      46.253  22.637  36.303  1.00  0.00     0.124 S 
ATOM     71  O   UNL A   1      47.399  21.752  36.119  1.00  0.00    -0.237 OA
ATOM     72  O   UNL A   1      46.213  23.375  37.563  1.00  0.00    -0.237 OA
ATOM     73  O   UNL A   1      44.970  22.091  35.867  1.00  0.00    -0.744 OA
ENDBRANCH  66  70
ENDBRANCH  40  63
ENDBRANCH  14  15
ENDBRANCH   7   9
ENDBRANCH   6   7
ENDBRANCH   5   6
ENDBRANCH   4   5
ENDBRANCH   3   4
ENDBRANCH   2   3
ENDBRANCH   1   2
BRANCH   1  74
ATOM     74  O   UNL A   1      31.224  27.684  24.820  1.00  0.00    -0.376 OA
BRANCH  74  75
ATOM     75  C   UNL A   1      31.462  27.715  23.417  1.00  0.00     0.202 C 
BRANCH  75  76
ATOM     76  C   UNL A   1      32.886  27.413  22.933  1.00  0.00     0.261 C 
BRANCH  76  77
ATOM     77  O   UNL A   1      33.367  26.085  23.193  1.00  0.00    -0.458 OA
BRANCH  77  78
ATOM     78  C   UNL A   1      33.116  25.192  22.197  1.00  0.00     0.358 C 
ATOM     79  O   UNL A   1      33.278  25.373  20.999  1.00  0.00    -0.244 OA
BRANCH  78  80
ATOM     80  C   UNL A   1      32.578  23.937  22.754  1.00  0.00     0.170 A 
ATOM     81  C   UNL A   1      32.904  22.741  22.132  1.00  0.00     0.147 A 
ATOM     82  N   UNL A   1      31.979  23.998  23.977  1.00  0.00    -0.203 NA
ATOM     83  N   UNL A   1      32.665  21.545  22.721  1.00  0.00    -0.257 NA
ATOM     84  C   UNL A   1      31.722  22.798  24.539  1.00  0.00     0.233 A 
ATOM     85  C   UNL A   1      32.078  21.599  23.941  1.00  0.00     0.179 A 
BRANCH  84  86
ATOM     86  O   UNL A   1      31.252  22.777  25.828  1.00  0.00    -0.477 OA
BRANCH  86  87
ATOM     87  C   UNL A   1      32.099  23.506  26.722  1.00  0.00     0.232 C 
BRANCH  87  88
ATOM     88  C   UNL A   1      32.713  22.562  27.760  1.00  0.00     0.046 C 
BRANCH  88  89
ATOM     89  C   UNL A   1      34.248  22.574  27.779  1.00  0.00     0.039 C 
BRANCH  89  90
ATOM     90  C   UNL A   1      34.952  22.631  26.438  1.00  0.00    -0.048 A 
ATOM     91  C   UNL A   1      35.265  21.420  25.796  1.00  0.00     0.004 A 
ATOM     92  C   UNL A   1      35.265  23.826  25.781  1.00  0.00     0.004 A 
ATOM     93  C   UNL A   1      35.862  21.405  24.534  1.00  0.00     0.000 A 
ATOM     94  C   UNL A   1      35.890  23.808  24.531  1.00  0.00     0.000 A 
ATOM     95  C   UNL A   1      36.171  22.602  23.899  1.00  0.00     0.000 A 
ENDBRANCH  89  90
ENDBRANCH  88  89
ENDBRANCH  87  88
ENDBRANCH  86  87
ENDBRANCH  84  86
ENDBRANCH  78  80
ENDBRANCH  77  78
ENDBRANCH  76  77
ENDBRANCH  75  76
ENDBRANCH  74  75
ENDBRANCH   1  74
TORSDOF 25
ENDMDL
MODEL 3
REMARK VINA RESULT:     -10.3      5.625     11.524
REMARK SMILES O=C(OCCOCCOCCOC(=O)c1cncc(OCCCc2ccccc2)n1)c1ccc(-c2c3nc(c(-c4cc(S(=O)(=O)[O-])ccc4F)c4ccc([nH]4)c(-c4cc(S(=O)(=O)[O-])ccc4F)c4nc(c(-c5cc(S(=O)(=O)[O-])ccc5F)c5ccc2[nH]5)C=C4)C=C3)cc1
REMARK SMILES IDX 8 1 7 2 6 3 5 4 4 5 3 6 2 7 1 8 31 9 32 10 93 11 33 12 92 13
REMARK SMILES IDX 34 14 35 15 36 16 86 17 37 18 91 19 85 20 87 21 38 22 90 23
REMARK SMILES IDX 84 24 83 25 39 27 71 28 51 29 70 30 52 31 55 32 69 33 88 34
REMARK SMILES IDX 53 35 54 36 68 38 89 39 56 40 40 41 41 42 49 43 42 44 48 45
REMARK SMILES IDX 50 46 47 47 43 48 44 49 45 50 46 51 72 52 73 53 81 54 74 55
REMARK SMILES IDX 80 56 82 57 79 58 75 59 76 60 77 61 78 62 57 63 58 64 66 65
REMARK SMILES IDX 59 66 65 67 67 68 64 69 60 70 61 71 62 72 63 73 9 74 10 75
REMARK SMILES IDX 11 76 12 77 13 78 14 79 15 80 16 81 30 82 17 83 19 84 18 85
REMARK SMILES IDX 20 86 21 87 22 88 23 89 24 90 25 91 29 92 26 93 28 94 27 95
REMARK H PARENT 87 26 55 37
REMARK Flexibility Score: inf
ROOT
ATOM      1  C   UNL A   1      46.197  18.931  25.610  1.00  0.00     0.188 C 
ENDROOT
BRANCH   1   2
ATOM      2  C   UNL A   1      46.361  20.093  24.631  1.00  0.00     0.188 C 
BRANCH   2   3
ATOM      3  O   UNL A   1      46.402  21.359  25.305  1.00  0.00    -0.376 OA
BRANCH   3   4
ATOM      4  C   UNL A   1      45.257  22.174  25.035  1.00  0.00     0.202 C 
BRANCH   4   5
ATOM      5  C   UNL A   1      45.187  23.460  25.866  1.00  0.00     0.261 C 
BRANCH   5   6
ATOM      6  O   UNL A   1      44.808  24.578  25.056  1.00  0.00    -0.460 OA
BRANCH   6   7
ATOM      7  C   UNL A   1      45.642  25.644  25.005  1.00  0.00     0.338 C 
ATOM      8  O   UNL A   1      46.727  25.573  24.441  1.00  0.00    -0.246 OA
BRANCH   7   9
ATOM      9  C   UNL A   1      45.320  26.787  25.917  1.00  0.00     0.060 A 
ATOM     10  C   UNL A   1      46.250  27.423  26.745  1.00  0.00     0.016 A 
ATOM     11  C   UNL A   1      43.974  27.168  26.008  1.00  0.00     0.016 A 
ATOM     12  C   UNL A   1      45.844  28.377  27.677  1.00  0.00     0.010 A 
ATOM     13  C   UNL A   1      43.563  28.153  26.910  1.00  0.00     0.010 A 
ATOM     14  C   UNL A   1      44.494  28.708  27.798  1.00  0.00    -0.014 A 
BRANCH  14  15
ATOM     15  C   UNL A   1      44.040  29.360  29.047  1.00  0.00     0.031 A 
ATOM     16  C   UNL A   1      43.815  30.846  29.011  1.00  0.00     0.074 A 
ATOM     17  C   UNL A   1      43.732  28.647  30.143  1.00  0.00     0.049 A 
ATOM     18  N   UNL A   1      43.411  31.653  29.955  1.00  0.00    -0.248 NA
ATOM     19  C   UNL A   1      44.082  31.507  27.723  1.00  0.00     0.031 C 
ATOM     20  C   UNL A   1      43.823  27.193  30.254  1.00  0.00     0.029 A 
ATOM     21  N   UNL A   1      43.267  29.054  31.368  1.00  0.00    -0.354 N 
ATOM     22  C   UNL A   1      43.371  32.914  29.372  1.00  0.00     0.074 A 
ATOM     23  C   UNL A   1      43.858  32.775  28.019  1.00  0.00     0.031 C 
ATOM     24  C   UNL A   1      43.430  26.834  31.487  1.00  0.00     0.029 A 
ATOM     25  C   UNL A   1      43.114  28.025  32.265  1.00  0.00     0.049 A 
ATOM     26  H   UNL A   1      43.064  29.993  31.584  1.00  0.00     0.167 HD
ATOM     27  C   UNL A   1      42.940  34.083  29.907  1.00  0.00     0.034 A 
ATOM     28  C   UNL A   1      42.782  28.040  33.571  1.00  0.00     0.034 A 
ATOM     29  C   UNL A   1      42.483  34.202  31.266  1.00  0.00     0.049 A 
ATOM     30  C   UNL A   1      42.430  29.362  34.198  1.00  0.00     0.074 A 
ATOM     31  C   UNL A   1      42.062  35.330  31.945  1.00  0.00     0.029 A 
ATOM     32  N   UNL A   1      42.405  33.142  32.164  1.00  0.00    -0.354 N 
ATOM     33  N   UNL A   1      42.405  30.553  33.643  1.00  0.00    -0.248 NA
ATOM     34  C   UNL A   1      42.044  29.348  35.615  1.00  0.00     0.031 C 
ATOM     35  C   UNL A   1      41.787  34.962  33.268  1.00  0.00     0.029 A 
ATOM     36  C   UNL A   1      41.974  33.593  33.399  1.00  0.00     0.049 A 
ATOM     37  H   UNL A   1      42.625  32.206  31.951  1.00  0.00     0.167 HD
ATOM     38  C   UNL A   1      41.974  31.427  34.634  1.00  0.00     0.074 A 
ATOM     39  C   UNL A   1      41.752  30.625  35.823  1.00  0.00     0.031 C 
ATOM     40  C   UNL A   1      41.768  32.767  34.566  1.00  0.00     0.034 A 
BRANCH  27  41
ATOM     41  C   UNL A   1      43.036  35.297  29.018  1.00  0.00     0.023 A 
ATOM     42  C   UNL A   1      44.222  36.052  28.935  1.00  0.00     0.031 A 
ATOM     43  C   UNL A   1      41.892  35.794  28.373  1.00  0.00     0.131 A 
ATOM     44  C   UNL A   1      44.201  37.319  28.333  1.00  0.00     0.055 A 
ATOM     45  C   UNL A   1      41.904  37.013  27.692  1.00  0.00     0.041 A 
ATOM     46  F   UNL A   1      40.727  35.131  28.440  1.00  0.00    -0.206 F 
ATOM     47  C   UNL A   1      43.056  37.797  27.692  1.00  0.00     0.022 A 
BRANCH  44  48
ATOM     48  S   UNL A   1      45.621  38.422  28.596  1.00  0.00     0.124 S 
ATOM     49  O   UNL A   1      45.031  39.474  29.420  1.00  0.00    -0.237 OA
ATOM     50  O   UNL A   1      46.579  37.549  29.264  1.00  0.00    -0.237 OA
ATOM     51  O   UNL A   1      45.989  38.836  27.243  1.00  0.00    -0.744 OA
ENDBRANCH  44  48
ENDBRANCH  27  41
BRANCH  28  52
ATOM     52  C   UNL A   1      42.831  26.778  34.366  1.00  0.00     0.023 A 
ATOM     53  C   UNL A   1      44.043  26.198  34.771  1.00  0.00     0.031 A 
ATOM     54  C   UNL A   1      41.635  26.131  34.738  1.00  0.00     0.131 A 
ATOM     55  C   UNL A   1      44.034  25.001  35.509  1.00  0.00     0.055 A 
ATOM     56  C   UNL A   1      41.630  24.961  35.499  1.00  0.00     0.041 A 
ATOM     57  F   UNL A   1      40.446  26.645  34.385  1.00  0.00    -0.206 F 
ATOM     58  C   UNL A   1      42.836  24.385  35.884  1.00  0.00     0.022 A 
BRANCH  55  59
ATOM     59  S   UNL A   1      45.615  24.227  35.943  1.00  0.00     0.124 S 
ATOM     60  O   UNL A   1      46.251  24.089  34.637  1.00  0.00    -0.237 OA
ATOM     61  O   UNL A   1      46.204  25.216  36.841  1.00  0.00    -0.237 OA
ATOM     62  O   UNL A   1      45.221  22.971  36.579  1.00  0.00    -0.744 OA
ENDBRANCH  55  59
ENDBRANCH  28  52
BRANCH  40  63
ATOM     63  C   UNL A   1      41.235  33.438  35.802  1.00  0.00     0.023 A 
ATOM     64  C   UNL A   1      42.091  34.022  36.749  1.00  0.00     0.031 A 
ATOM     65  C   UNL A   1      39.847  33.524  36.009  1.00  0.00     0.131 A 
ATOM     66  C   UNL A   1      41.549  34.645  37.883  1.00  0.00     0.055 A 
ATOM     67  C   UNL A   1      39.313  34.183  37.116  1.00  0.00     0.041 A 
ATOM     68  F   UNL A   1      38.991  32.980  35.129  1.00  0.00    -0.206 F 
ATOM     69  C   UNL A   1      40.165  34.744  38.062  1.00  0.00     0.022 A 
BRANCH  66  70
ATOM     70  S   UNL A   1      42.677  35.297  39.142  1.00  0.00     0.124 S 
ATOM     71  O   UNL A   1      43.980  34.922  38.603  1.00  0.00    -0.237 OA
ATOM     72  O   UNL A   1      42.369  36.725  39.133  1.00  0.00    -0.237 OA
ATOM     73  O   UNL A   1      42.279  34.588  40.357  1.00  0.00    -0.744 OA
ENDBRANCH  66  70
ENDBRANCH  40  63
ENDBRANCH  14  15
ENDBRANCH   7   9
ENDBRANCH   6   7
ENDBRANCH   5   6
ENDBRANCH   4   5
ENDBRANCH   3   4
ENDBRANCH   2   3
ENDBRANCH   1   2
BRANCH   1  74
ATOM     74  O   UNL A   1      45.075  18.078  25.370  1.00  0.00    -0.376 OA
BRANCH  74  75
ATOM     75  C   UNL A   1      43.892  18.702  24.882  1.00  0.00     0.202 C 
BRANCH  75  76
ATOM     76  C   UNL A   1      42.767  18.973  25.889  1.00  0.00     0.261 C 
BRANCH  76  77
ATOM     77  O   UNL A   1      42.662  20.324  26.363  1.00  0.00    -0.458 OA
BRANCH  77  78
ATOM     78  C   UNL A   1      41.396  20.712  26.678  1.00  0.00     0.358 C 
ATOM     79  O   UNL A   1      40.363  20.128  26.388  1.00  0.00    -0.244 OA
BRANCH  78  80
ATOM     80  C   UNL A   1      41.418  21.987  27.419  1.00  0.00     0.170 A 
ATOM     81  C   UNL A   1      42.547  22.305  28.159  1.00  0.00     0.147 A 
ATOM     82  N   UNL A   1      40.425  22.883  27.157  1.00  0.00    -0.203 NA
ATOM     83  N   UNL A   1      42.745  23.551  28.652  1.00  0.00    -0.257 NA
ATOM     84  C   UNL A   1      40.624  24.112  27.679  1.00  0.00     0.233 A 
ATOM     85  C   UNL A   1      41.766  24.450  28.387  1.00  0.00     0.179 A 
BRANCH  84  86
ATOM     86  O   UNL A   1      39.742  25.107  27.339  1.00  0.00    -0.477 OA
BRANCH  86  87
ATOM     87  C   UNL A   1      40.402  26.357  27.110  1.00  0.00     0.232 C 
BRANCH  87  88
ATOM     88  C   UNL A   1      39.743  27.465  27.936  1.00  0.00     0.046 C 
BRANCH  88  89
ATOM     89  C   UNL A   1      40.165  27.474  29.412  1.00  0.00     0.039 C 
BRANCH  89  90
ATOM     90  C   UNL A   1      39.912  28.750  30.191  1.00  0.00    -0.048 A 
ATOM     91  C   UNL A   1      39.475  28.644  31.523  1.00  0.00     0.004 A 
ATOM     92  C   UNL A   1      40.137  30.029  29.671  1.00  0.00     0.004 A 
ATOM     93  C   UNL A   1      39.278  29.778  32.312  1.00  0.00     0.000 A 
ATOM     94  C   UNL A   1      39.909  31.165  30.453  1.00  0.00     0.000 A 
ATOM     95  C   UNL A   1      39.499  31.042  31.776  1.00  0.00     0.000 A 
ENDBRANCH  89  90
ENDBRANCH  88  89
ENDBRANCH  87  88
ENDBRANCH  86  87
ENDBRANCH  84  86
ENDBRANCH  78  80
ENDBRANCH  77  78
ENDBRANCH  76  77
ENDBRANCH  75  76
ENDBRANCH  74  75
ENDBRANCH   1  74
TORSDOF 25
ENDMDL
