MODEL 1
REMARK VINA RESULT:     -12.7      0.000      0.000
REMARK SMILES Cc1cccc(N2C(=O)/C(=C/c3ccc(C(=O)OCCOCCOCCOC(=O)c4ccc(-c5c6nc(c(-c7cc(S(=O)(=O)[O-])ccc7F)c7ccc([nH]7)c(-c7cc(S(=O)(=O)[O-])ccc7F)c7nc(c(-c8cc(S(=O)(=O)[O-])ccc8F)c8ccc5[nH]8)C=C7)C=C6)cc4)cc3)c3ccccc3C2=O)c1
REMARK SMILES IDX 23 1 22 2 21 3 20 4 19 5 18 6 16 7 17 8 15 9 12 10 13 11
REMARK SMILES IDX 94 12 14 13 93 14 11 15 7 16 8 17 101 18 9 19 10 20 100 21
REMARK SMILES IDX 102 22 95 23 99 24 96 25 98 26 97 27 6 28 1 29 2 30 3 31
REMARK SMILES IDX 103 32 4 33 5 34 24 35 25 36 26 37 27 38 28 39 29 40 30 41
REMARK SMILES IDX 31 42 92 43 32 44 91 45 33 46 34 47 35 48 85 49 36 50 90 51
REMARK SMILES IDX 84 52 86 53 37 54 89 55 83 56 82 57 38 59 70 60 50 61 69 62
REMARK SMILES IDX 51 63 54 64 68 65 87 66 52 67 53 68 67 70 88 71 55 72 39 73
REMARK SMILES IDX 40 74 48 75 41 76 47 77 49 78 46 79 42 80 43 81 44 82 45 83
REMARK SMILES IDX 71 84 72 85 80 86 73 87 79 88 81 89 78 90 74 91 75 92 76 93
REMARK SMILES IDX 77 94 56 95 57 96 65 97 58 98 64 99 66 100 63 101 59 102
REMARK SMILES IDX 60 103 61 104 62 105
REMARK H PARENT 86 58 54 69
REMARK Flexibility Score: inf
ROOT
ATOM      1  C   UNL A   1      35.528  32.221  32.589  1.00  0.00     0.188 C 
ENDROOT
BRANCH   1   2
ATOM      2  C   UNL A   1      36.716  31.267  32.679  1.00  0.00     0.188 C 
BRANCH   2   3
ATOM      3  O   UNL A   1      37.078  30.405  31.574  1.00  0.00    -0.376 OA
BRANCH   3   4
ATOM      4  C   UNL A   1      36.246  30.131  30.453  1.00  0.00     0.202 C 
BRANCH   4   5
ATOM      5  C   UNL A   1      35.936  31.176  29.216  1.00  0.00     0.261 C 
BRANCH   5   6
ATOM      6  O   UNL A   1      34.934  31.154  27.811  1.00  0.00    -0.460 OA
BRANCH   6   7
ATOM      7  C   UNL A   1      33.785  30.490  27.318  1.00  0.00     0.338 C 
ATOM      8  O   UNL A   1      32.772  30.931  26.785  1.00  0.00    -0.246 OA
BRANCH   7   9
ATOM      9  C   UNL A   1      33.526  29.061  27.211  1.00  0.00     0.060 A 
ATOM     10  C   UNL A   1      32.540  26.640  26.222  1.00  0.00    -0.025 A 
ATOM     11  C   UNL A   1      33.702  27.163  25.673  1.00  0.00     0.009 A 
ATOM     12  C   UNL A   1      31.725  27.435  27.041  1.00  0.00     0.009 A 
ATOM     13  C   UNL A   1      34.176  28.375  26.158  1.00  0.00     0.016 A 
ATOM     14  C   UNL A   1      32.223  28.641  27.540  1.00  0.00     0.016 A 
BRANCH  10  15
ATOM     15  C   UNL A   1      32.432  25.185  26.251  1.00  0.00     0.022 C 
ATOM     16  N   UNL A   1      32.748  22.574  24.175  1.00  0.00    -0.242 N 
ATOM     17  C   UNL A   1      31.941  23.086  25.211  1.00  0.00     0.265 C 
ATOM     18  C   UNL A   1      33.116  23.391  23.063  1.00  0.00     0.265 C 
ATOM     19  O   UNL A   1      31.310  22.510  26.091  1.00  0.00    -0.268 OA
ATOM     20  C   UNL A   1      31.881  24.554  25.190  1.00  0.00     0.049 C 
ATOM     21  C   UNL A   1      32.368  24.671  22.859  1.00  0.00     0.048 A 
ATOM     22  O   UNL A   1      33.957  23.143  22.200  1.00  0.00    -0.268 OA
ATOM     23  C   UNL A   1      31.591  25.164  23.896  1.00  0.00    -0.000 A 
ATOM     24  C   UNL A   1      32.456  25.396  21.663  1.00  0.00     0.014 A 
ATOM     25  C   UNL A   1      30.763  26.277  23.695  1.00  0.00     0.010 A 
ATOM     26  C   UNL A   1      31.722  26.577  21.502  1.00  0.00     0.001 A 
ATOM     27  C   UNL A   1      30.852  26.999  22.506  1.00  0.00     0.001 A 
BRANCH  16  28
ATOM     28  C   UNL A   1      33.211  21.192  24.266  1.00  0.00     0.053 A 
ATOM     29  C   UNL A   1      36.473  19.300  24.966  1.00  0.00     0.044 C 
ATOM     30  C   UNL A   1      35.031  19.556  24.639  1.00  0.00    -0.049 A 
ATOM     31  C   UNL A   1      34.145  18.502  24.449  1.00  0.00     0.003 A 
ATOM     32  C   UNL A   1      34.552  20.874  24.559  1.00  0.00     0.030 A 
ATOM     33  C   UNL A   1      32.815  18.773  24.155  1.00  0.00     0.002 A 
ATOM     34  C   UNL A   1      32.360  20.095  24.058  1.00  0.00     0.027 A 
ENDBRANCH  16  28
ENDBRANCH  10  15
ENDBRANCH   7   9
ENDBRANCH   6   7
ENDBRANCH   5   6
ENDBRANCH   4   5
ENDBRANCH   3   4
ENDBRANCH   2   3
ENDBRANCH   1   2
BRANCH   1  35
ATOM     35  O   UNL A   1      35.906  33.477  33.123  1.00  0.00    -0.376 OA
BRANCH  35  36
ATOM     36  C   UNL A   1      37.290  33.725  33.226  1.00  0.00     0.202 C 
BRANCH  36  37
ATOM     37  C   UNL A   1      37.792  34.451  31.976  1.00  0.00     0.261 C 
BRANCH  37  38
ATOM     38  O   UNL A   1      38.711  33.605  31.241  1.00  0.00    -0.460 OA
BRANCH  38  39
ATOM     39  C   UNL A   1      39.180  34.103  30.044  1.00  0.00     0.338 C 
ATOM     40  O   UNL A   1      38.463  34.276  29.071  1.00  0.00    -0.246 OA
BRANCH  39  41
ATOM     41  C   UNL A   1      40.658  34.380  30.128  1.00  0.00     0.060 A 
ATOM     42  C   UNL A   1      41.475  34.347  31.265  1.00  0.00     0.016 A 
ATOM     43  C   UNL A   1      41.207  34.988  29.050  1.00  0.00     0.016 A 
ATOM     44  C   UNL A   1      42.751  35.081  31.339  1.00  0.00     0.010 A 
ATOM     45  C   UNL A   1      42.256  35.881  29.304  1.00  0.00     0.010 A 
ATOM     46  C   UNL A   1      43.178  36.009  30.368  1.00  0.00    -0.014 A 
BRANCH  46  47
ATOM     47  C   UNL A   1      44.355  37.226  30.578  1.00  0.00     0.031 A 
ATOM     48  C   UNL A   1      44.326  38.873  31.066  1.00  0.00     0.074 A 
ATOM     49  C   UNL A   1      45.586  36.962  30.081  1.00  0.00     0.049 A 
ATOM     50  N   UNL A   1      44.794  39.873  30.329  1.00  0.00    -0.248 NA
ATOM     51  C   UNL A   1      43.680  39.525  32.256  1.00  0.00     0.031 C 
ATOM     52  C   UNL A   1      46.780  37.799  30.173  1.00  0.00     0.029 A 
ATOM     53  N   UNL A   1      45.963  35.935  29.226  1.00  0.00    -0.354 N 
ATOM     54  C   UNL A   1      44.544  41.095  30.982  1.00  0.00     0.074 A 
ATOM     55  C   UNL A   1      43.714  40.827  32.075  1.00  0.00     0.031 C 
ATOM     56  C   UNL A   1      47.638  37.428  29.212  1.00  0.00     0.029 A 
ATOM     57  C   UNL A   1      46.993  36.404  28.414  1.00  0.00     0.049 A 
ATOM     58  H   UNL A   1      45.571  35.033  29.198  1.00  0.00     0.167 HD
ATOM     59  C   UNL A   1      45.163  42.288  30.784  1.00  0.00     0.034 A 
ATOM     60  C   UNL A   1      46.914  36.352  27.057  1.00  0.00     0.034 A 
ATOM     61  C   UNL A   1      46.263  42.096  29.900  1.00  0.00     0.049 A 
ATOM     62  C   UNL A   1      47.111  37.697  26.402  1.00  0.00     0.074 A 
ATOM     63  C   UNL A   1      47.576  41.745  30.149  1.00  0.00     0.029 A 
ATOM     64  N   UNL A   1      46.001  41.844  28.575  1.00  0.00    -0.354 N 
ATOM     65  N   UNL A   1      47.067  38.837  27.035  1.00  0.00    -0.248 NA
ATOM     66  C   UNL A   1      47.364  37.867  24.976  1.00  0.00     0.031 C 
ATOM     67  C   UNL A   1      48.113  41.256  28.937  1.00  0.00     0.029 A 
ATOM     68  C   UNL A   1      47.139  41.376  27.963  1.00  0.00     0.049 A 
ATOM     69  H   UNL A   1      45.132  41.976  28.132  1.00  0.00     0.167 HD
ATOM     70  C   UNL A   1      47.220  39.869  26.141  1.00  0.00     0.074 A 
ATOM     71  C   UNL A   1      47.439  39.205  24.872  1.00  0.00     0.031 C 
ATOM     72  C   UNL A   1      47.123  41.175  26.533  1.00  0.00     0.034 A 
BRANCH  59  73
ATOM     73  C   UNL A   1      44.998  43.444  31.764  1.00  0.00     0.023 A 
ATOM     74  C   UNL A   1      45.753  43.461  32.949  1.00  0.00     0.031 A 
ATOM     75  C   UNL A   1      44.041  44.479  31.635  1.00  0.00     0.131 A 
ATOM     76  C   UNL A   1      45.455  44.362  33.990  1.00  0.00     0.055 A 
ATOM     77  C   UNL A   1      43.694  45.329  32.699  1.00  0.00     0.041 A 
ATOM     78  F   UNL A   1      43.363  44.658  30.488  1.00  0.00    -0.206 F 
ATOM     79  C   UNL A   1      44.389  45.256  33.896  1.00  0.00     0.022 A 
BRANCH  76  80
ATOM     80  S   UNL A   1      46.490  44.350  35.478  1.00  0.00     0.124 S 
ATOM     81  O   UNL A   1      45.812  43.371  36.321  1.00  0.00    -0.237 OA
ATOM     82  O   UNL A   1      47.788  43.956  34.942  1.00  0.00    -0.237 OA
ATOM     83  O   UNL A   1      46.415  45.731  35.957  1.00  0.00    -0.744 OA
ENDBRANCH  76  80
ENDBRANCH  59  73
BRANCH  60  84
ATOM     84  C   UNL A   1      46.095  35.218  26.528  1.00  0.00     0.023 A 
ATOM     85  C   UNL A   1      46.725  33.955  26.429  1.00  0.00     0.031 A 
ATOM     86  C   UNL A   1      44.696  35.253  26.447  1.00  0.00     0.131 A 
ATOM     87  C   UNL A   1      45.967  32.776  26.394  1.00  0.00     0.055 A 
ATOM     88  C   UNL A   1      43.941  34.073  26.347  1.00  0.00     0.041 A 
ATOM     89  F   UNL A   1      44.030  36.409  26.582  1.00  0.00    -0.206 F 
ATOM     90  C   UNL A   1      44.573  32.827  26.350  1.00  0.00     0.022 A 
BRANCH  87  91
ATOM     91  S   UNL A   1      46.794  31.184  26.701  1.00  0.00     0.124 S 
ATOM     92  O   UNL A   1      46.360  30.388  25.559  1.00  0.00    -0.237 OA
ATOM     93  O   UNL A   1      48.211  31.543  26.728  1.00  0.00    -0.237 OA
ATOM     94  O   UNL A   1      46.256  30.782  27.998  1.00  0.00    -0.744 OA
ENDBRANCH  87  91
ENDBRANCH  60  84
BRANCH  72  95
ATOM     95  C   UNL A   1      47.021  42.415  25.664  1.00  0.00     0.023 A 
ATOM     96  C   UNL A   1      46.161  42.515  24.570  1.00  0.00     0.031 A 
ATOM     97  C   UNL A   1      47.754  43.598  25.969  1.00  0.00     0.131 A 
ATOM     98  C   UNL A   1      46.096  43.691  23.803  1.00  0.00     0.055 A 
ATOM     99  C   UNL A   1      47.613  44.796  25.267  1.00  0.00     0.041 A 
ATOM    100  F   UNL A   1      48.645  43.653  26.971  1.00  0.00    -0.206 F 
ATOM    101  C   UNL A   1      46.789  44.844  24.160  1.00  0.00     0.022 A 
BRANCH  98 102
ATOM    102  S   UNL A   1      45.156  43.636  22.259  1.00  0.00     0.124 S 
ATOM    103  O   UNL A   1      46.201  43.862  21.264  1.00  0.00    -0.237 OA
ATOM    104  O   UNL A   1      44.588  42.293  22.288  1.00  0.00    -0.237 OA
ATOM    105  O   UNL A   1      44.193  44.727  22.402  1.00  0.00    -0.744 OA
ENDBRANCH  98 102
ENDBRANCH  72  95
ENDBRANCH  46  47
ENDBRANCH  39  41
ENDBRANCH  38  39
ENDBRANCH  37  38
ENDBRANCH  36  37
ENDBRANCH  35  36
ENDBRANCH   1  35
TORSDOF 22
ENDMDL
MODEL 2
REMARK VINA RESULT:     -12.3      8.843     14.089
REMARK SMILES Cc1cccc(N2C(=O)/C(=C/c3ccc(C(=O)OCCOCCOCCOC(=O)c4ccc(-c5c6nc(c(-c7cc(S(=O)(=O)[O-])ccc7F)c7ccc([nH]7)c(-c7cc(S(=O)(=O)[O-])ccc7F)c7nc(c(-c8cc(S(=O)(=O)[O-])ccc8F)c8ccc5[nH]8)C=C7)C=C6)cc4)cc3)c3ccccc3C2=O)c1
REMARK SMILES IDX 23 1 22 2 21 3 20 4 19 5 18 6 16 7 17 8 15 9 12 10 13 11
REMARK SMILES IDX 94 12 14 13 93 14 11 15 7 16 8 17 101 18 9 19 10 20 100 21
REMARK SMILES IDX 102 22 95 23 99 24 96 25 98 26 97 27 6 28 1 29 2 30 3 31
REMARK SMILES IDX 103 32 4 33 5 34 24 35 25 36 26 37 27 38 28 39 29 40 30 41
REMARK SMILES IDX 31 42 92 43 32 44 91 45 33 46 34 47 35 48 85 49 36 50 90 51
REMARK SMILES IDX 84 52 86 53 37 54 89 55 83 56 82 57 38 59 70 60 50 61 69 62
REMARK SMILES IDX 51 63 54 64 68 65 87 66 52 67 53 68 67 70 88 71 55 72 39 73
REMARK SMILES IDX 40 74 48 75 41 76 47 77 49 78 46 79 42 80 43 81 44 82 45 83
REMARK SMILES IDX 71 84 72 85 80 86 73 87 79 88 81 89 78 90 74 91 75 92 76 93
REMARK SMILES IDX 77 94 56 95 57 96 65 97 58 98 64 99 66 100 63 101 59 102
REMARK SMILES IDX 60 103 61 104 62 105
REMARK H PARENT 86 58 54 69
REMARK Flexibility Score: inf
ROOT
ATOM      1  C   UNL A   1      39.047  29.317  27.920  1.00  0.00     0.188 C 
ENDROOT
BRANCH   1   2
ATOM      2  C   UNL A   1      38.887  28.242  28.991  1.00  0.00     0.188 C 
BRANCH   2   3
ATOM      3  O   UNL A   1      39.463  26.924  28.831  1.00  0.00    -0.376 OA
BRANCH   3   4
ATOM      4  C   UNL A   1      39.097  25.998  27.815  1.00  0.00     0.202 C 
BRANCH   4   5
ATOM      5  C   UNL A   1      39.713  24.478  27.643  1.00  0.00     0.261 C 
BRANCH   5   6
ATOM      6  O   UNL A   1      39.512  23.190  26.511  1.00  0.00    -0.460 OA
BRANCH   6   7
ATOM      7  C   UNL A   1      38.513  22.644  25.670  1.00  0.00     0.338 C 
ATOM      8  O   UNL A   1      38.260  21.479  25.379  1.00  0.00    -0.246 OA
BRANCH   7   9
ATOM      9  C   UNL A   1      37.419  23.319  24.984  1.00  0.00     0.060 A 
ATOM     10  C   UNL A   1      34.854  23.819  23.995  1.00  0.00    -0.025 A 
ATOM     11  C   UNL A   1      35.139  24.153  25.311  1.00  0.00     0.009 A 
ATOM     12  C   UNL A   1      35.725  22.992  23.270  1.00  0.00     0.009 A 
ATOM     13  C   UNL A   1      36.412  23.886  25.800  1.00  0.00     0.016 A 
ATOM     14  C   UNL A   1      37.009  22.751  23.763  1.00  0.00     0.016 A 
BRANCH  10  15
ATOM     15  C   UNL A   1      33.879  24.660  23.307  1.00  0.00     0.022 C 
ATOM     16  N   UNL A   1      30.683  25.618  23.619  1.00  0.00    -0.242 N 
ATOM     17  C   UNL A   1      31.636  25.198  22.668  1.00  0.00     0.265 C 
ATOM     18  C   UNL A   1      30.493  24.890  24.834  1.00  0.00     0.265 C 
ATOM     19  O   UNL A   1      31.777  25.504  21.489  1.00  0.00    -0.268 OA
ATOM     20  C   UNL A   1      32.596  24.240  23.234  1.00  0.00     0.049 C 
ATOM     21  C   UNL A   1      31.077  23.516  24.924  1.00  0.00     0.048 A 
ATOM     22  O   UNL A   1      29.848  25.242  25.820  1.00  0.00    -0.268 OA
ATOM     23  C   UNL A   1      32.023  23.128  23.987  1.00  0.00    -0.000 A 
ATOM     24  C   UNL A   1      30.716  22.625  25.943  1.00  0.00     0.014 A 
ATOM     25  C   UNL A   1      32.483  21.805  23.949  1.00  0.00     0.010 A 
ATOM     26  C   UNL A   1      31.267  21.339  25.979  1.00  0.00     0.001 A 
ATOM     27  C   UNL A   1      32.125  20.919  24.964  1.00  0.00     0.001 A 
BRANCH  16  28
ATOM     28  C   UNL A   1      29.901  26.819  23.342  1.00  0.00     0.053 A 
ATOM     29  C   UNL A   1      30.409  30.268  21.742  1.00  0.00     0.044 C 
ATOM     30  C   UNL A   1      29.741  29.118  22.436  1.00  0.00    -0.049 A 
ATOM     31  C   UNL A   1      28.398  29.180  22.789  1.00  0.00     0.003 A 
ATOM     32  C   UNL A   1      30.463  27.942  22.703  1.00  0.00     0.030 A 
ATOM     33  C   UNL A   1      27.807  28.095  23.424  1.00  0.00     0.002 A 
ATOM     34  C   UNL A   1      28.550  26.940  23.701  1.00  0.00     0.027 A 
ENDBRANCH  16  28
ENDBRANCH  10  15
ENDBRANCH   7   9
ENDBRANCH   6   7
ENDBRANCH   5   6
ENDBRANCH   4   5
ENDBRANCH   3   4
ENDBRANCH   2   3
ENDBRANCH   1   2
BRANCH   1  35
ATOM     35  O   UNL A   1      37.827  30.023  27.790  1.00  0.00    -0.376 OA
BRANCH  35  36
ATOM     36  C   UNL A   1      36.763  29.592  28.609  1.00  0.00     0.202 C 
BRANCH  36  37
ATOM     37  C   UNL A   1      35.812  30.756  28.898  1.00  0.00     0.261 C 
BRANCH  37  38
ATOM     38  O   UNL A   1      36.474  31.751  29.718  1.00  0.00    -0.460 OA
BRANCH  38  39
ATOM     39  C   UNL A   1      36.694  31.412  31.037  1.00  0.00     0.338 C 
ATOM     40  O   UNL A   1      35.789  31.177  31.821  1.00  0.00    -0.246 OA
BRANCH  39  41
ATOM     41  C   UNL A   1      38.170  31.387  31.339  1.00  0.00     0.060 A 
ATOM     42  C   UNL A   1      39.192  32.090  30.688  1.00  0.00     0.016 A 
ATOM     43  C   UNL A   1      38.591  30.380  32.138  1.00  0.00     0.016 A 
ATOM     44  C   UNL A   1      40.597  31.647  30.724  1.00  0.00     0.010 A 
ATOM     45  C   UNL A   1      39.869  29.868  31.877  1.00  0.00     0.010 A 
ATOM     46  C   UNL A   1      41.014  30.409  31.250  1.00  0.00    -0.014 A 
BRANCH  46  47
ATOM     47  C   UNL A   1      42.488  29.614  30.922  1.00  0.00     0.031 A 
ATOM     48  C   UNL A   1      42.959  28.285  29.939  1.00  0.00     0.074 A 
ATOM     49  C   UNL A   1      43.529  29.921  31.731  1.00  0.00     0.049 A 
ATOM     50  N   UNL A   1      43.572  27.202  30.400  1.00  0.00    -0.248 NA
ATOM     51  C   UNL A   1      42.672  27.993  28.493  1.00  0.00     0.031 C 
ATOM     52  C   UNL A   1      44.902  29.432  31.637  1.00  0.00     0.029 A 
ATOM     53  N   UNL A   1      43.505  30.621  32.930  1.00  0.00    -0.354 N 
ATOM     54  C   UNL A   1      43.742  26.276  29.353  1.00  0.00     0.074 A 
ATOM     55  C   UNL A   1      43.023  26.750  28.251  1.00  0.00     0.031 C 
ATOM     56  C   UNL A   1      45.497  29.593  32.827  1.00  0.00     0.029 A 
ATOM     57  C   UNL A   1      44.505  30.106  33.751  1.00  0.00     0.049 A 
ATOM     58  H   UNL A   1      42.889  31.353  33.159  1.00  0.00     0.167 HD
ATOM     59  C   UNL A   1      44.621  25.243  29.287  1.00  0.00     0.034 A 
ATOM     60  C   UNL A   1      44.235  29.646  35.003  1.00  0.00     0.034 A 
ATOM     61  C   UNL A   1      45.504  25.318  30.403  1.00  0.00     0.049 A 
ATOM     62  C   UNL A   1      44.691  28.224  35.219  1.00  0.00     0.074 A 
ATOM     63  C   UNL A   1      46.700  25.991  30.569  1.00  0.00     0.029 A 
ATOM     64  N   UNL A   1      45.012  25.015  31.649  1.00  0.00    -0.354 N 
ATOM     65  N   UNL A   1      45.034  27.407  34.262  1.00  0.00    -0.248 NA
ATOM     66  C   UNL A   1      44.789  27.603  36.535  1.00  0.00     0.031 C 
ATOM     67  C   UNL A   1      46.923  26.105  31.960  1.00  0.00     0.029 A 
ATOM     68  C   UNL A   1      45.894  25.447  32.609  1.00  0.00     0.049 A 
ATOM     69  H   UNL A   1      44.157  24.559  31.827  1.00  0.00     0.167 HD
ATOM     70  C   UNL A   1      45.333  26.174  34.790  1.00  0.00     0.074 A 
ATOM     71  C   UNL A   1      45.199  26.362  36.220  1.00  0.00     0.031 C 
ATOM     72  C   UNL A   1      45.637  25.108  33.989  1.00  0.00     0.034 A 
BRANCH  59  73
ATOM     73  C   UNL A   1      44.898  24.513  27.979  1.00  0.00     0.023 A 
ATOM     74  C   UNL A   1      44.027  23.494  27.556  1.00  0.00     0.031 A 
ATOM     75  C   UNL A   1      46.052  24.700  27.180  1.00  0.00     0.131 A 
ATOM     76  C   UNL A   1      44.374  22.631  26.498  1.00  0.00     0.055 A 
ATOM     77  C   UNL A   1      46.434  23.795  26.175  1.00  0.00     0.041 A 
ATOM     78  F   UNL A   1      46.884  25.734  27.394  1.00  0.00    -0.206 F 
ATOM     79  C   UNL A   1      45.601  22.737  25.845  1.00  0.00     0.022 A 
BRANCH  76  80
ATOM     80  S   UNL A   1      43.188  21.360  25.984  1.00  0.00     0.124 S 
ATOM     81  O   UNL A   1      44.056  20.340  25.406  1.00  0.00    -0.237 OA
ATOM     82  O   UNL A   1      42.540  21.021  27.246  1.00  0.00    -0.237 OA
ATOM     83  O   UNL A   1      42.335  22.058  25.022  1.00  0.00    -0.744 OA
ENDBRANCH  76  80
ENDBRANCH  59  73
BRANCH  60  84
ATOM     84  C   UNL A   1      43.084  30.322  35.676  1.00  0.00     0.023 A 
ATOM     85  C   UNL A   1      43.327  31.588  36.259  1.00  0.00     0.031 A 
ATOM     86  C   UNL A   1      41.749  29.946  35.477  1.00  0.00     0.131 A 
ATOM     87  C   UNL A   1      42.274  32.483  36.494  1.00  0.00     0.055 A 
ATOM     88  C   UNL A   1      40.691  30.821  35.774  1.00  0.00     0.041 A 
ATOM     89  F   UNL A   1      41.446  28.781  34.884  1.00  0.00    -0.206 F 
ATOM     90  C   UNL A   1      40.952  32.105  36.256  1.00  0.00     0.022 A 
BRANCH  87  91
ATOM     91  S   UNL A   1      42.658  34.230  36.830  1.00  0.00     0.124 S 
ATOM     92  O   UNL A   1      42.674  34.265  38.288  1.00  0.00    -0.237 OA
ATOM     93  O   UNL A   1      43.949  34.422  36.173  1.00  0.00    -0.237 OA
ATOM     94  O   UNL A   1      41.551  34.937  36.191  1.00  0.00    -0.744 OA
ENDBRANCH  87  91
ENDBRANCH  60  84
BRANCH  72  95
ATOM     95  C   UNL A   1      45.751  23.645  34.373  1.00  0.00     0.023 A 
ATOM     96  C   UNL A   1      46.933  23.062  34.830  1.00  0.00     0.031 A 
ATOM     97  C   UNL A   1      44.615  22.784  34.364  1.00  0.00     0.131 A 
ATOM     98  C   UNL A   1      46.984  21.703  35.185  1.00  0.00     0.055 A 
ATOM     99  C   UNL A   1      44.645  21.462  34.811  1.00  0.00     0.041 A 
ATOM    100  F   UNL A   1      43.413  23.184  33.922  1.00  0.00    -0.206 F 
ATOM    101  C   UNL A   1      45.843  20.905  35.211  1.00  0.00     0.022 A 
BRANCH  98 102
ATOM    102  S   UNL A   1      48.609  20.979  35.510  1.00  0.00     0.124 S 
ATOM    103  O   UNL A   1      49.419  22.167  35.769  1.00  0.00    -0.237 OA
ATOM    104  O   UNL A   1      48.345  20.128  36.666  1.00  0.00    -0.237 OA
ATOM    105  O   UNL A   1      48.925  20.272  34.271  1.00  0.00    -0.744 OA
ENDBRANCH  98 102
ENDBRANCH  72  95
ENDBRANCH  46  47
ENDBRANCH  39  41
ENDBRANCH  38  39
ENDBRANCH  37  38
ENDBRANCH  36  37
ENDBRANCH  35  36
ENDBRANCH   1  35
TORSDOF 22
ENDMDL
MODEL 3
REMARK VINA RESULT:     -12.3     10.937     15.712
REMARK SMILES Cc1cccc(N2C(=O)/C(=C/c3ccc(C(=O)OCCOCCOCCOC(=O)c4ccc(-c5c6nc(c(-c7cc(S(=O)(=O)[O-])ccc7F)c7ccc([nH]7)c(-c7cc(S(=O)(=O)[O-])ccc7F)c7nc(c(-c8cc(S(=O)(=O)[O-])ccc8F)c8ccc5[nH]8)C=C7)C=C6)cc4)cc3)c3ccccc3C2=O)c1
REMARK SMILES IDX 23 1 22 2 21 3 20 4 19 5 18 6 16 7 17 8 15 9 12 10 13 11
REMARK SMILES IDX 94 12 14 13 93 14 11 15 7 16 8 17 101 18 9 19 10 20 100 21
REMARK SMILES IDX 102 22 95 23 99 24 96 25 98 26 97 27 6 28 1 29 2 30 3 31
REMARK SMILES IDX 103 32 4 33 5 34 24 35 25 36 26 37 27 38 28 39 29 40 30 41
REMARK SMILES IDX 31 42 92 43 32 44 91 45 33 46 34 47 35 48 85 49 36 50 90 51
REMARK SMILES IDX 84 52 86 53 37 54 89 55 83 56 82 57 38 59 70 60 50 61 69 62
REMARK SMILES IDX 51 63 54 64 68 65 87 66 52 67 53 68 67 70 88 71 55 72 39 73
REMARK SMILES IDX 40 74 48 75 41 76 47 77 49 78 46 79 42 80 43 81 44 82 45 83
REMARK SMILES IDX 71 84 72 85 80 86 73 87 79 88 81 89 78 90 74 91 75 92 76 93
REMARK SMILES IDX 77 94 56 95 57 96 65 97 58 98 64 99 66 100 63 101 59 102
REMARK SMILES IDX 60 103 61 104 62 105
REMARK H PARENT 86 58 54 69
REMARK Flexibility Score: inf
ROOT
ATOM      1  C   UNL A   1      41.982  28.298  25.943  1.00  0.00     0.188 C 
ENDROOT
BRANCH   1   2
ATOM      2  C   UNL A   1      40.738  27.475  26.267  1.00  0.00     0.188 C 
BRANCH   2   3
ATOM      3  O   UNL A   1      40.808  26.041  26.449  1.00  0.00    -0.376 OA
BRANCH   3   4
ATOM      4  C   UNL A   1      39.843  25.265  27.149  1.00  0.00     0.202 C 
BRANCH   4   5
ATOM      5  C   UNL A   1      39.884  23.626  27.327  1.00  0.00     0.261 C 
BRANCH   5   6
ATOM      6  O   UNL A   1      39.185  22.282  26.500  1.00  0.00    -0.460 OA
BRANCH   6   7
ATOM      7  C   UNL A   1      38.156  22.010  25.567  1.00  0.00     0.338 C 
ATOM      8  O   UNL A   1      37.760  20.947  25.098  1.00  0.00    -0.246 OA
BRANCH   7   9
ATOM      9  C   UNL A   1      37.190  22.924  24.972  1.00  0.00     0.060 A 
ATOM     10  C   UNL A   1      34.747  23.939  24.074  1.00  0.00    -0.025 A 
ATOM     11  C   UNL A   1      35.077  24.079  25.414  1.00  0.00     0.009 A 
ATOM     12  C   UNL A   1      35.474  23.065  23.254  1.00  0.00     0.009 A 
ATOM     13  C   UNL A   1      36.286  23.557  25.856  1.00  0.00     0.016 A 
ATOM     14  C   UNL A   1      36.700  22.565  23.702  1.00  0.00     0.016 A 
BRANCH  10  15
ATOM     15  C   UNL A   1      33.927  24.997  23.492  1.00  0.00     0.022 C 
ATOM     16  N   UNL A   1      31.024  26.568  24.072  1.00  0.00    -0.242 N 
ATOM     17  C   UNL A   1      31.808  26.014  23.039  1.00  0.00     0.265 C 
ATOM     18  C   UNL A   1      30.763  25.830  25.267  1.00  0.00     0.265 C 
ATOM     19  O   UNL A   1      31.935  26.349  21.866  1.00  0.00    -0.268 OA
ATOM     20  C   UNL A   1      32.583  24.853  23.496  1.00  0.00     0.049 C 
ATOM     21  C   UNL A   1      31.054  24.363  25.260  1.00  0.00     0.048 A 
ATOM     22  O   UNL A   1      30.268  26.252  26.311  1.00  0.00    -0.268 OA
ATOM     23  C   UNL A   1      31.840  23.842  24.242  1.00  0.00    -0.000 A 
ATOM     24  C   UNL A   1      30.581  23.510  26.266  1.00  0.00     0.014 A 
ATOM     25  C   UNL A   1      32.013  22.457  24.118  1.00  0.00     0.010 A 
ATOM     26  C   UNL A   1      30.855  22.139  26.211  1.00  0.00     0.001 A 
ATOM     27  C   UNL A   1      31.543  21.609  25.120  1.00  0.00     0.001 A 
BRANCH  16  28
ATOM     28  C   UNL A   1      30.491  27.917  23.900  1.00  0.00     0.053 A 
ATOM     29  C   UNL A   1      30.909  31.387  25.480  1.00  0.00     0.044 C 
ATOM     30  C   UNL A   1      30.405  30.296  24.582  1.00  0.00    -0.049 A 
ATOM     31  C   UNL A   1      29.468  30.562  23.591  1.00  0.00     0.003 A 
ATOM     32  C   UNL A   1      30.909  28.990  24.712  1.00  0.00     0.030 A 
ATOM     33  C   UNL A   1      29.028  29.530  22.771  1.00  0.00     0.002 A 
ATOM     34  C   UNL A   1      29.526  28.230  22.931  1.00  0.00     0.027 A 
ENDBRANCH  16  28
ENDBRANCH  10  15
ENDBRANCH   7   9
ENDBRANCH   6   7
ENDBRANCH   5   6
ENDBRANCH   4   5
ENDBRANCH   3   4
ENDBRANCH   2   3
ENDBRANCH   1   2
BRANCH   1  35
ATOM     35  O   UNL A   1      42.627  27.732  24.817  1.00  0.00    -0.376 OA
BRANCH  35  36
ATOM     36  C   UNL A   1      43.784  26.969  25.074  1.00  0.00     0.202 C 
BRANCH  36  37
ATOM     37  C   UNL A   1      45.030  27.855  25.003  1.00  0.00     0.261 C 
BRANCH  37  38
ATOM     38  O   UNL A   1      46.040  27.374  25.924  1.00  0.00    -0.460 OA
BRANCH  38  39
ATOM     39  C   UNL A   1      47.130  26.741  25.366  1.00  0.00     0.338 C 
ATOM     40  O   UNL A   1      47.208  26.481  24.175  1.00  0.00    -0.246 OA
BRANCH  39  41
ATOM     41  C   UNL A   1      48.161  26.431  26.419  1.00  0.00     0.060 A 
ATOM     42  C   UNL A   1      48.452  25.189  26.996  1.00  0.00     0.016 A 
ATOM     43  C   UNL A   1      48.672  27.499  27.076  1.00  0.00     0.016 A 
ATOM     44  C   UNL A   1      49.102  25.067  28.314  1.00  0.00     0.010 A 
ATOM     45  C   UNL A   1      49.000  27.304  28.424  1.00  0.00     0.010 A 
ATOM     46  C   UNL A   1      49.324  26.155  29.181  1.00  0.00    -0.014 A 
BRANCH  46  47
ATOM     47  C   UNL A   1      49.615  26.069  30.860  1.00  0.00     0.031 A 
ATOM     48  C   UNL A   1      50.687  25.177  31.863  1.00  0.00     0.074 A 
ATOM     49  C   UNL A   1      48.699  26.665  31.659  1.00  0.00     0.049 A 
ATOM     50  N   UNL A   1      50.292  24.384  32.852  1.00  0.00    -0.248 NA
ATOM     51  C   UNL A   1      52.174  24.978  31.765  1.00  0.00     0.031 C 
ATOM     52  C   UNL A   1      48.734  26.787  33.114  1.00  0.00     0.029 A 
ATOM     53  N   UNL A   1      47.441  27.141  31.314  1.00  0.00    -0.354 N 
ATOM     54  C   UNL A   1      51.411  23.744  33.418  1.00  0.00     0.074 A 
ATOM     55  C   UNL A   1      52.513  24.022  32.602  1.00  0.00     0.031 C 
ATOM     56  C   UNL A   1      47.491  27.024  33.555  1.00  0.00     0.029 A 
ATOM     57  C   UNL A   1      46.600  26.975  32.412  1.00  0.00     0.049 A 
ATOM     58  H   UNL A   1      47.187  27.528  30.445  1.00  0.00     0.167 HD
ATOM     59  C   UNL A   1      51.512  23.170  34.645  1.00  0.00     0.034 A 
ATOM     60  C   UNL A   1      45.427  26.292  32.316  1.00  0.00     0.034 A 
ATOM     61  C   UNL A   1      50.329  23.454  35.385  1.00  0.00     0.049 A 
ATOM     62  C   UNL A   1      45.321  25.159  33.308  1.00  0.00     0.074 A 
ATOM     63  C   UNL A   1      50.001  24.525  36.194  1.00  0.00     0.029 A 
ATOM     64  N   UNL A   1      49.163  22.825  35.023  1.00  0.00    -0.354 N 
ATOM     65  N   UNL A   1      46.326  24.676  33.984  1.00  0.00    -0.248 NA
ATOM     66  C   UNL A   1      44.071  24.471  33.611  1.00  0.00     0.031 C 
ATOM     67  C   UNL A   1      48.593  24.544  36.309  1.00  0.00     0.029 A 
ATOM     68  C   UNL A   1      48.097  23.453  35.621  1.00  0.00     0.049 A 
ATOM     69  H   UNL A   1      49.100  22.045  34.424  1.00  0.00     0.167 HD
ATOM     70  C   UNL A   1      45.905  23.613  34.745  1.00  0.00     0.074 A 
ATOM     71  C   UNL A   1      44.478  23.551  34.502  1.00  0.00     0.031 C 
ATOM     72  C   UNL A   1      46.783  22.869  35.483  1.00  0.00     0.034 A 
BRANCH  59  73
ATOM     73  C   UNL A   1      52.863  22.783  35.236  1.00  0.00     0.023 A 
ATOM     74  C   UNL A   1      53.770  23.790  35.609  1.00  0.00     0.031 A 
ATOM     75  C   UNL A   1      53.344  21.457  35.344  1.00  0.00     0.131 A 
ATOM     76  C   UNL A   1      55.109  23.485  35.918  1.00  0.00     0.055 A 
ATOM     77  C   UNL A   1      54.697  21.158  35.580  1.00  0.00     0.041 A 
ATOM     78  F   UNL A   1      52.528  20.404  35.159  1.00  0.00    -0.206 F 
ATOM     79  C   UNL A   1      55.595  22.180  35.846  1.00  0.00     0.022 A 
BRANCH  76  80
ATOM     80  S   UNL A   1      56.216  24.830  36.422  1.00  0.00     0.124 S 
ATOM     81  O   UNL A   1      57.527  24.312  36.045  1.00  0.00    -0.237 OA
ATOM     82  O   UNL A   1      55.711  25.950  35.637  1.00  0.00    -0.237 OA
ATOM     83  O   UNL A   1      55.989  24.936  37.864  1.00  0.00    -0.744 OA
ENDBRANCH  76  80
ENDBRANCH  59  73
BRANCH  60  84
ATOM     84  C   UNL A   1      44.781  26.356  30.969  1.00  0.00     0.023 A 
ATOM     85  C   UNL A   1      45.008  25.271  30.090  1.00  0.00     0.031 A 
ATOM     86  C   UNL A   1      43.729  27.230  30.661  1.00  0.00     0.131 A 
ATOM     87  C   UNL A   1      44.124  25.006  29.035  1.00  0.00     0.055 A 
ATOM     88  C   UNL A   1      42.883  26.998  29.565  1.00  0.00     0.041 A 
ATOM     89  F   UNL A   1      43.426  28.251  31.476  1.00  0.00    -0.206 F 
ATOM     90  C   UNL A   1      43.060  25.867  28.764  1.00  0.00     0.022 A 
BRANCH  87  91
ATOM     91  S   UNL A   1      44.196  23.386  28.208  1.00  0.00     0.124 S 
ATOM     92  O   UNL A   1      45.617  23.262  27.902  1.00  0.00    -0.237 OA
ATOM     93  O   UNL A   1      43.679  22.469  29.221  1.00  0.00    -0.237 OA
ATOM     94  O   UNL A   1      43.313  23.566  27.059  1.00  0.00    -0.744 OA
ENDBRANCH  87  91
ENDBRANCH  60  84
BRANCH  72  95
ATOM     95  C   UNL A   1      46.543  21.540  36.174  1.00  0.00     0.023 A 
ATOM     96  C   UNL A   1      46.650  21.364  37.554  1.00  0.00     0.031 A 
ATOM     97  C   UNL A   1      46.107  20.394  35.449  1.00  0.00     0.131 A 
ATOM     98  C   UNL A   1      46.405  20.113  38.148  1.00  0.00     0.055 A 
ATOM     99  C   UNL A   1      45.768  19.181  36.052  1.00  0.00     0.041 A 
ATOM    100  F   UNL A   1      45.984  20.392  34.113  1.00  0.00    -0.206 F 
ATOM    101  C   UNL A   1      45.933  19.029  37.414  1.00  0.00     0.022 A 
BRANCH  98 102
ATOM    102  S   UNL A   1      46.824  19.917  39.896  1.00  0.00     0.124 S 
ATOM    103  O   UNL A   1      48.040  19.112  39.824  1.00  0.00    -0.237 OA
ATOM    104  O   UNL A   1      47.003  21.299  40.330  1.00  0.00    -0.237 OA
ATOM    105  O   UNL A   1      45.660  19.231  40.454  1.00  0.00    -0.744 OA
ENDBRANCH  98 102
ENDBRANCH  72  95
ENDBRANCH  46  47
ENDBRANCH  39  41
ENDBRANCH  38  39
ENDBRANCH  37  38
ENDBRANCH  36  37
ENDBRANCH  35  36
ENDBRANCH   1  35
TORSDOF 22
ENDMDL
