MODEL 1
REMARK VINA RESULT:     -12.1      0.000      0.000
REMARK SMILES O=C(OCCOCCOCCOC(=O)c1ccc(-c2c3nc(c(-c4cc(S(=O)(=O)[O-])ccc4F)c4ccc([nH]4)c(-c4cc(S(=O)(=O)[O-])ccc4F)c4nc(c(-c5cc(S(=O)(=O)[O-])ccc5F)c5ccc2[nH]5)C=C4)C=C3)cc1)C1=Cc2cc(Cl)c(Cl)cc2O[C@@H]1C(F)(F)F
REMARK SMILES IDX 8 1 7 2 6 3 5 4 4 5 3 6 2 7 1 8 78 9 79 10 89 11 80 12 88 13
REMARK SMILES IDX 81 14 87 15 82 16 86 17 83 18 84 19 85 20 90 21 91 22 92 23
REMARK SMILES IDX 93 24 9 25 10 26 11 27 12 28 13 29 14 30 15 31 16 32 77 33
REMARK SMILES IDX 17 34 76 35 18 36 19 37 20 38 70 39 21 40 75 41 69 42 71 43
REMARK SMILES IDX 22 44 74 45 68 46 67 47 23 49 55 50 35 51 54 52 36 53 39 54
REMARK SMILES IDX 53 55 72 56 37 57 38 58 52 60 73 61 40 62 24 63 25 64 33 65
REMARK SMILES IDX 26 66 32 67 34 68 31 69 27 70 28 71 29 72 30 73 56 74 57 75
REMARK SMILES IDX 65 76 58 77 64 78 66 79 63 80 59 81 60 82 61 83 62 84 41 85
REMARK SMILES IDX 42 86 50 87 43 88 49 89 51 90 48 91 44 92 45 93 46 94 47 95
REMARK H PARENT 71 48 39 59
REMARK Flexibility Score: inf
ROOT
ATOM      1  C   UNL A   1      42.321  20.942  26.963  1.00  0.00     0.188 C 
ENDROOT
BRANCH   1   2
ATOM      2  C   UNL A   1      40.871  21.122  27.445  1.00  0.00     0.188 C 
BRANCH   2   3
ATOM      3  O   UNL A   1      40.200  22.423  27.650  1.00  0.00    -0.376 OA
BRANCH   3   4
ATOM      4  C   UNL A   1      39.466  23.450  26.519  1.00  0.00     0.202 C 
BRANCH   4   5
ATOM      5  C   UNL A   1      37.354  23.516  26.007  1.00  0.00     0.261 C 
BRANCH   5   6
ATOM      6  O   UNL A   1      36.387  22.333  25.993  1.00  0.00    -0.460 OA
BRANCH   6   7
ATOM      7  C   UNL A   1      35.108  22.725  25.923  1.00  0.00     0.338 C 
ATOM      8  O   UNL A   1      34.407  23.186  26.785  1.00  0.00    -0.246 OA
BRANCH   7   9
ATOM      9  C   UNL A   1      34.801  22.042  24.682  1.00  0.00     0.087 C 
ATOM     10  C   UNL A   1      35.458  20.735  24.544  1.00  0.00     0.027 C 
ATOM     11  C   UNL A   1      32.900  22.314  24.825  1.00  0.00     0.316 C 
ATOM     12  C   UNL A   1      34.607  19.159  24.755  1.00  0.00     0.019 A 
ATOM     13  O   UNL A   1      31.984  20.633  25.188  1.00  0.00    -0.475 OA
ATOM     14  C   UNL A   1      35.331  17.998  24.761  1.00  0.00     0.034 A 
ATOM     15  C   UNL A   1      32.921  19.066  25.131  1.00  0.00     0.129 A 
ATOM     16  C   UNL A   1      34.590  16.828  25.040  1.00  0.00     0.060 A 
ATOM     17  C   UNL A   1      32.262  17.894  25.366  1.00  0.00     0.069 A 
ATOM     18  Cl  UNL A   1      35.552  15.369  25.081  1.00  0.00    -0.083 Cl
ATOM     19  C   UNL A   1      33.140  16.777  25.310  1.00  0.00     0.063 A 
ATOM     20  Cl  UNL A   1      32.399  15.222  25.598  1.00  0.00    -0.083 Cl
BRANCH  11  21
ATOM     21  C   UNL A   1      32.838  23.367  23.556  1.00  0.00     0.430 C 
ATOM     22  F   UNL A   1      33.313  24.604  23.685  1.00  0.00    -0.167 F 
ATOM     23  F   UNL A   1      33.583  22.815  22.555  1.00  0.00    -0.167 F 
ATOM     24  F   UNL A   1      31.590  23.486  23.024  1.00  0.00    -0.167 F 
ENDBRANCH  11  21
ENDBRANCH   7   9
ENDBRANCH   6   7
ENDBRANCH   5   6
ENDBRANCH   4   5
ENDBRANCH   3   4
ENDBRANCH   2   3
ENDBRANCH   1   2
BRANCH   1  25
ATOM     25  O   UNL A   1      42.631  21.192  25.615  1.00  0.00    -0.376 OA
BRANCH  25  26
ATOM     26  C   UNL A   1      43.986  20.963  25.252  1.00  0.00     0.202 C 
BRANCH  26  27
ATOM     27  C   UNL A   1      44.856  22.170  24.859  1.00  0.00     0.261 C 
BRANCH  27  28
ATOM     28  O   UNL A   1      44.105  23.390  24.654  1.00  0.00    -0.460 OA
BRANCH  28  29
ATOM     29  C   UNL A   1      44.692  24.545  25.063  1.00  0.00     0.338 C 
ATOM     30  O   UNL A   1      45.765  24.986  24.688  1.00  0.00    -0.246 OA
BRANCH  29  31
ATOM     31  C   UNL A   1      43.765  25.316  25.923  1.00  0.00     0.060 A 
ATOM     32  C   UNL A   1      43.731  26.714  25.802  1.00  0.00     0.016 A 
ATOM     33  C   UNL A   1      42.983  24.676  26.886  1.00  0.00     0.016 A 
ATOM     34  C   UNL A   1      42.914  27.475  26.640  1.00  0.00     0.010 A 
ATOM     35  C   UNL A   1      42.203  25.444  27.759  1.00  0.00     0.010 A 
ATOM     36  C   UNL A   1      42.189  26.847  27.659  1.00  0.00    -0.014 A 
BRANCH  36  37
ATOM     37  C   UNL A   1      41.672  27.670  28.783  1.00  0.00     0.031 A 
ATOM     38  C   UNL A   1      42.456  27.648  30.069  1.00  0.00     0.074 A 
ATOM     39  C   UNL A   1      40.574  28.439  28.669  1.00  0.00     0.049 A 
ATOM     40  N   UNL A   1      42.235  28.273  31.197  1.00  0.00    -0.248 NA
ATOM     41  C   UNL A   1      43.658  26.797  30.078  1.00  0.00     0.031 C 
ATOM     42  C   UNL A   1      39.766  28.587  27.462  1.00  0.00     0.029 A 
ATOM     43  N   UNL A   1      39.952  29.245  29.592  1.00  0.00    -0.354 N 
ATOM     44  C   UNL A   1      43.269  27.890  32.046  1.00  0.00     0.074 A 
ATOM     45  C   UNL A   1      44.088  26.947  31.318  1.00  0.00     0.031 C 
ATOM     46  C   UNL A   1      38.754  29.435  27.718  1.00  0.00     0.029 A 
ATOM     47  C   UNL A   1      38.820  29.864  29.115  1.00  0.00     0.049 A 
ATOM     48  H   UNL A   1      40.286  29.368  30.510  1.00  0.00     0.167 HD
ATOM     49  C   UNL A   1      43.517  28.295  33.316  1.00  0.00     0.034 A 
ATOM     50  C   UNL A   1      37.938  30.671  29.743  1.00  0.00     0.034 A 
ATOM     51  C   UNL A   1      42.668  29.207  34.039  1.00  0.00     0.049 A 
ATOM     52  C   UNL A   1      38.173  31.018  31.198  1.00  0.00     0.074 A 
ATOM     53  C   UNL A   1      42.823  29.689  35.327  1.00  0.00     0.029 A 
ATOM     54  N   UNL A   1      41.489  29.756  33.548  1.00  0.00    -0.354 N 
ATOM     55  N   UNL A   1      39.164  30.669  31.988  1.00  0.00    -0.248 NA
ATOM     56  C   UNL A   1      37.171  31.878  31.844  1.00  0.00     0.031 C 
ATOM     57  C   UNL A   1      41.691  30.446  35.647  1.00  0.00     0.029 A 
ATOM     58  C   UNL A   1      40.884  30.532  34.524  1.00  0.00     0.049 A 
ATOM     59  H   UNL A   1      41.136  29.613  32.641  1.00  0.00     0.167 HD
ATOM     60  C   UNL A   1      38.928  31.309  33.205  1.00  0.00     0.074 A 
ATOM     61  C   UNL A   1      37.707  32.069  33.039  1.00  0.00     0.031 C 
ATOM     62  C   UNL A   1      39.658  31.280  34.350  1.00  0.00     0.034 A 
BRANCH  49  63
ATOM     63  C   UNL A   1      44.711  27.686  34.013  1.00  0.00     0.023 A 
ATOM     64  C   UNL A   1      46.003  28.229  33.887  1.00  0.00     0.031 A 
ATOM     65  C   UNL A   1      44.565  26.510  34.770  1.00  0.00     0.131 A 
ATOM     66  C   UNL A   1      47.104  27.550  34.431  1.00  0.00     0.055 A 
ATOM     67  C   UNL A   1      45.653  25.893  35.390  1.00  0.00     0.041 A 
ATOM     68  F   UNL A   1      43.364  25.926  34.902  1.00  0.00    -0.206 F 
ATOM     69  C   UNL A   1      46.934  26.402  35.206  1.00  0.00     0.022 A 
BRANCH  66  70
ATOM     70  S   UNL A   1      48.771  28.084  33.955  1.00  0.00     0.124 S 
ATOM     71  O   UNL A   1      49.214  28.782  35.161  1.00  0.00    -0.237 OA
ATOM     72  O   UNL A   1      49.439  26.821  33.668  1.00  0.00    -0.237 OA
ATOM     73  O   UNL A   1      48.538  28.945  32.798  1.00  0.00    -0.744 OA
ENDBRANCH  66  70
ENDBRANCH  49  63
BRANCH  50  74
ATOM     74  C   UNL A   1      36.738  31.200  29.027  1.00  0.00     0.023 A 
ATOM     75  C   UNL A   1      35.725  30.339  28.570  1.00  0.00     0.031 A 
ATOM     76  C   UNL A   1      36.623  32.568  28.717  1.00  0.00     0.131 A 
ATOM     77  C   UNL A   1      34.675  30.843  27.786  1.00  0.00     0.055 A 
ATOM     78  C   UNL A   1      35.540  33.074  27.993  1.00  0.00     0.041 A 
ATOM     79  F   UNL A   1      37.568  33.435  29.112  1.00  0.00    -0.206 F 
ATOM     80  C   UNL A   1      34.566  32.207  27.511  1.00  0.00     0.022 A 
BRANCH  77  81
ATOM     81  S   UNL A   1      33.509  29.671  27.035  1.00  0.00     0.124 S 
ATOM     82  O   UNL A   1      33.323  28.708  28.114  1.00  0.00    -0.237 OA
ATOM     83  O   UNL A   1      32.367  30.528  26.734  1.00  0.00    -0.237 OA
ATOM     84  O   UNL A   1      34.235  29.170  25.868  1.00  0.00    -0.744 OA
ENDBRANCH  77  81
ENDBRANCH  50  74
BRANCH  62  85
ATOM     85  C   UNL A   1      39.189  32.148  35.497  1.00  0.00     0.023 A 
ATOM     86  C   UNL A   1      39.601  33.484  35.643  1.00  0.00     0.031 A 
ATOM     87  C   UNL A   1      38.324  31.618  36.474  1.00  0.00     0.131 A 
ATOM     88  C   UNL A   1      39.210  34.218  36.773  1.00  0.00     0.055 A 
ATOM     89  C   UNL A   1      37.871  32.381  37.551  1.00  0.00     0.041 A 
ATOM     90  F   UNL A   1      37.899  30.347  36.394  1.00  0.00    -0.206 F 
ATOM     91  C   UNL A   1      38.329  33.683  37.716  1.00  0.00     0.022 A 
BRANCH  88  92
ATOM     92  S   UNL A   1      39.976  35.836  37.068  1.00  0.00     0.124 S 
ATOM     93  O   UNL A   1      41.382  35.479  37.233  1.00  0.00    -0.237 OA
ATOM     94  O   UNL A   1      39.644  36.566  35.848  1.00  0.00    -0.237 OA
ATOM     95  O   UNL A   1      39.312  36.316  38.277  1.00  0.00    -0.744 OA
ENDBRANCH  88  92
ENDBRANCH  62  85
ENDBRANCH  36  37
ENDBRANCH  29  31
ENDBRANCH  28  29
ENDBRANCH  27  28
ENDBRANCH  26  27
ENDBRANCH  25  26
ENDBRANCH   1  25
TORSDOF 21
ENDMDL
MODEL 2
REMARK VINA RESULT:     -12.0      5.396      8.017
REMARK SMILES O=C(OCCOCCOCCOC(=O)c1ccc(-c2c3nc(c(-c4cc(S(=O)(=O)[O-])ccc4F)c4ccc([nH]4)c(-c4cc(S(=O)(=O)[O-])ccc4F)c4nc(c(-c5cc(S(=O)(=O)[O-])ccc5F)c5ccc2[nH]5)C=C4)C=C3)cc1)C1=Cc2cc(Cl)c(Cl)cc2O[C@@H]1C(F)(F)F
REMARK SMILES IDX 8 1 7 2 6 3 5 4 4 5 3 6 2 7 1 8 78 9 79 10 89 11 80 12 88 13
REMARK SMILES IDX 81 14 87 15 82 16 86 17 83 18 84 19 85 20 90 21 91 22 92 23
REMARK SMILES IDX 93 24 9 25 10 26 11 27 12 28 13 29 14 30 15 31 16 32 77 33
REMARK SMILES IDX 17 34 76 35 18 36 19 37 20 38 70 39 21 40 75 41 69 42 71 43
REMARK SMILES IDX 22 44 74 45 68 46 67 47 23 49 55 50 35 51 54 52 36 53 39 54
REMARK SMILES IDX 53 55 72 56 37 57 38 58 52 60 73 61 40 62 24 63 25 64 33 65
REMARK SMILES IDX 26 66 32 67 34 68 31 69 27 70 28 71 29 72 30 73 56 74 57 75
REMARK SMILES IDX 65 76 58 77 64 78 66 79 63 80 59 81 60 82 61 83 62 84 41 85
REMARK SMILES IDX 42 86 50 87 43 88 49 89 51 90 48 91 44 92 45 93 46 94 47 95
REMARK H PARENT 71 48 39 59
REMARK Flexibility Score: inf
ROOT
ATOM      1  C   UNL A   1      34.461  19.654  25.005  1.00  0.00     0.188 C 
ENDROOT
BRANCH   1   2
ATOM      2  C   UNL A   1      33.185  20.394  24.566  1.00  0.00     0.188 C 
BRANCH   2   3
ATOM      3  O   UNL A   1      32.894  21.818  24.840  1.00  0.00    -0.376 OA
BRANCH   3   4
ATOM      4  C   UNL A   1      31.400  22.603  24.994  1.00  0.00     0.202 C 
BRANCH   4   5
ATOM      5  C   UNL A   1      30.641  24.205  23.734  1.00  0.00     0.261 C 
BRANCH   5   6
ATOM      6  O   UNL A   1      29.961  25.488  24.209  1.00  0.00    -0.460 OA
BRANCH   6   7
ATOM      7  C   UNL A   1      30.612  26.058  25.232  1.00  0.00     0.338 C 
ATOM      8  O   UNL A   1      30.319  26.081  26.399  1.00  0.00    -0.246 OA
BRANCH   7   9
ATOM      9  C   UNL A   1      31.458  26.913  24.424  1.00  0.00     0.087 C 
ATOM     10  C   UNL A   1      30.782  27.479  23.248  1.00  0.00     0.027 C 
ATOM     11  C   UNL A   1      32.115  27.933  25.919  1.00  0.00     0.316 C 
ATOM     12  C   UNL A   1      30.222  29.191  23.142  1.00  0.00     0.019 A 
ATOM     13  O   UNL A   1      31.407  29.748  25.887  1.00  0.00    -0.475 OA
ATOM     14  C   UNL A   1      29.467  29.587  22.073  1.00  0.00     0.034 A 
ATOM     15  C   UNL A   1      30.454  30.316  24.435  1.00  0.00     0.129 A 
ATOM     16  C   UNL A   1      28.987  30.915  22.134  1.00  0.00     0.060 A 
ATOM     17  C   UNL A   1      29.982  31.597  24.416  1.00  0.00     0.069 A 
ATOM     18  Cl  UNL A   1      27.991  31.375  20.774  1.00  0.00    -0.083 Cl
ATOM     19  C   UNL A   1      29.243  31.868  23.231  1.00  0.00     0.063 A 
ATOM     20  Cl  UNL A   1      28.591  33.482  23.103  1.00  0.00    -0.083 Cl
BRANCH  11  21
ATOM     21  C   UNL A   1      33.647  27.331  25.805  1.00  0.00     0.430 C 
ATOM     22  F   UNL A   1      33.868  26.025  25.934  1.00  0.00    -0.167 F 
ATOM     23  F   UNL A   1      34.092  27.632  24.550  1.00  0.00    -0.167 F 
ATOM     24  F   UNL A   1      34.528  27.956  26.635  1.00  0.00    -0.167 F 
ENDBRANCH  11  21
ENDBRANCH   7   9
ENDBRANCH   6   7
ENDBRANCH   5   6
ENDBRANCH   4   5
ENDBRANCH   3   4
ENDBRANCH   2   3
ENDBRANCH   1   2
BRANCH   1  25
ATOM     25  O   UNL A   1      35.673  20.362  25.076  1.00  0.00    -0.376 OA
BRANCH  25  26
ATOM     26  C   UNL A   1      36.798  19.695  24.519  1.00  0.00     0.202 C 
BRANCH  26  27
ATOM     27  C   UNL A   1      38.041  19.484  25.401  1.00  0.00     0.261 C 
BRANCH  27  28
ATOM     28  O   UNL A   1      38.945  20.612  25.415  1.00  0.00    -0.460 OA
BRANCH  28  29
ATOM     29  C   UNL A   1      39.997  20.544  26.273  1.00  0.00     0.338 C 
ATOM     30  O   UNL A   1      40.749  19.596  26.425  1.00  0.00    -0.246 OA
BRANCH  29  31
ATOM     31  C   UNL A   1      40.231  21.862  26.905  1.00  0.00     0.060 A 
ATOM     32  C   UNL A   1      39.517  22.976  26.434  1.00  0.00     0.016 A 
ATOM     33  C   UNL A   1      41.190  22.016  27.906  1.00  0.00     0.016 A 
ATOM     34  C   UNL A   1      39.758  24.244  26.965  1.00  0.00     0.010 A 
ATOM     35  C   UNL A   1      41.467  23.296  28.402  1.00  0.00     0.010 A 
ATOM     36  C   UNL A   1      40.773  24.418  27.913  1.00  0.00    -0.014 A 
BRANCH  36  37
ATOM     37  C   UNL A   1      41.302  25.786  28.155  1.00  0.00     0.031 A 
ATOM     38  C   UNL A   1      42.677  26.096  27.624  1.00  0.00     0.074 A 
ATOM     39  C   UNL A   1      40.586  26.734  28.786  1.00  0.00     0.049 A 
ATOM     40  N   UNL A   1      43.370  27.203  27.689  1.00  0.00    -0.248 NA
ATOM     41  C   UNL A   1      43.362  24.997  26.924  1.00  0.00     0.031 C 
ATOM     42  C   UNL A   1      39.227  26.571  29.293  1.00  0.00     0.029 A 
ATOM     43  N   UNL A   1      40.912  28.030  29.105  1.00  0.00    -0.354 N 
ATOM     44  C   UNL A   1      44.570  26.933  27.039  1.00  0.00     0.074 A 
ATOM     45  C   UNL A   1      44.526  25.547  26.628  1.00  0.00     0.031 C 
ATOM     46  C   UNL A   1      38.833  27.727  29.859  1.00  0.00     0.029 A 
ATOM     47  C   UNL A   1      39.922  28.700  29.787  1.00  0.00     0.049 A 
ATOM     48  H   UNL A   1      41.774  28.442  28.867  1.00  0.00     0.167 HD
ATOM     49  C   UNL A   1      45.612  27.766  26.799  1.00  0.00     0.034 A 
ATOM     50  C   UNL A   1      39.910  29.949  30.300  1.00  0.00     0.034 A 
ATOM     51  C   UNL A   1      45.654  29.134  27.248  1.00  0.00     0.049 A 
ATOM     52  C   UNL A   1      41.132  30.825  30.120  1.00  0.00     0.074 A 
ATOM     53  C   UNL A   1      46.655  30.072  27.060  1.00  0.00     0.029 A 
ATOM     54  N   UNL A   1      44.664  29.755  28.001  1.00  0.00    -0.354 N 
ATOM     55  N   UNL A   1      42.254  30.569  29.484  1.00  0.00    -0.248 NA
ATOM     56  C   UNL A   1      41.079  32.166  30.719  1.00  0.00     0.031 C 
ATOM     57  C   UNL A   1      46.315  31.222  27.781  1.00  0.00     0.029 A 
ATOM     58  C   UNL A   1      45.052  31.046  28.324  1.00  0.00     0.049 A 
ATOM     59  H   UNL A   1      43.813  29.339  28.266  1.00  0.00     0.167 HD
ATOM     60  C   UNL A   1      43.016  31.734  29.567  1.00  0.00     0.074 A 
ATOM     61  C   UNL A   1      42.221  32.694  30.306  1.00  0.00     0.031 C 
ATOM     62  C   UNL A   1      44.253  31.993  29.071  1.00  0.00     0.034 A 
BRANCH  49  63
ATOM     63  C   UNL A   1      46.810  27.186  26.084  1.00  0.00     0.023 A 
ATOM     64  C   UNL A   1      47.814  26.478  26.770  1.00  0.00     0.031 A 
ATOM     65  C   UNL A   1      46.980  27.392  24.704  1.00  0.00     0.131 A 
ATOM     66  C   UNL A   1      48.979  26.083  26.094  1.00  0.00     0.055 A 
ATOM     67  C   UNL A   1      48.096  26.912  24.018  1.00  0.00     0.041 A 
ATOM     68  F   UNL A   1      46.072  28.087  24.000  1.00  0.00    -0.206 F 
ATOM     69  C   UNL A   1      49.113  26.269  24.717  1.00  0.00     0.022 A 
BRANCH  66  70
ATOM     70  S   UNL A   1      50.389  25.492  27.071  1.00  0.00     0.124 S 
ATOM     71  O   UNL A   1      49.827  24.306  27.714  1.00  0.00    -0.237 OA
ATOM     72  O   UNL A   1      51.400  25.245  26.050  1.00  0.00    -0.237 OA
ATOM     73  O   UNL A   1      50.671  26.606  27.973  1.00  0.00    -0.744 OA
ENDBRANCH  66  70
ENDBRANCH  49  63
BRANCH  50  74
ATOM     74  C   UNL A   1      38.723  30.457  31.052  1.00  0.00     0.023 A 
ATOM     75  C   UNL A   1      37.643  31.061  30.384  1.00  0.00     0.031 A 
ATOM     76  C   UNL A   1      38.684  30.419  32.458  1.00  0.00     0.131 A 
ATOM     77  C   UNL A   1      36.602  31.649  31.121  1.00  0.00     0.055 A 
ATOM     78  C   UNL A   1      37.613  30.947  33.183  1.00  0.00     0.041 A 
ATOM     79  F   UNL A   1      39.694  29.869  33.150  1.00  0.00    -0.206 F 
ATOM     80  C   UNL A   1      36.570  31.579  32.515  1.00  0.00     0.022 A 
BRANCH  77  81
ATOM     81  S   UNL A   1      35.341  32.608  30.234  1.00  0.00     0.124 S 
ATOM     82  O   UNL A   1      36.107  33.769  29.796  1.00  0.00    -0.237 OA
ATOM     83  O   UNL A   1      34.931  31.678  29.187  1.00  0.00    -0.237 OA
ATOM     84  O   UNL A   1      34.333  32.875  31.258  1.00  0.00    -0.744 OA
ENDBRANCH  77  81
ENDBRANCH  50  74
BRANCH  62  85
ATOM     85  C   UNL A   1      44.800  33.392  29.254  1.00  0.00     0.023 A 
ATOM     86  C   UNL A   1      44.506  34.434  28.357  1.00  0.00     0.031 A 
ATOM     87  C   UNL A   1      45.645  33.682  30.342  1.00  0.00     0.131 A 
ATOM     88  C   UNL A   1      45.111  35.690  28.521  1.00  0.00     0.055 A 
ATOM     89  C   UNL A   1      46.175  34.956  30.546  1.00  0.00     0.041 A 
ATOM     90  F   UNL A   1      45.968  32.728  31.230  1.00  0.00    -0.206 F 
ATOM     91  C   UNL A   1      45.925  35.964  29.622  1.00  0.00     0.022 A 
BRANCH  88  92
ATOM     92  S   UNL A   1      44.929  36.922  27.201  1.00  0.00     0.124 S 
ATOM     93  O   UNL A   1      45.118  38.173  27.927  1.00  0.00    -0.237 OA
ATOM     94  O   UNL A   1      46.001  36.552  26.281  1.00  0.00    -0.237 OA
ATOM     95  O   UNL A   1      43.576  36.692  26.700  1.00  0.00    -0.744 OA
ENDBRANCH  88  92
ENDBRANCH  62  85
ENDBRANCH  36  37
ENDBRANCH  29  31
ENDBRANCH  28  29
ENDBRANCH  27  28
ENDBRANCH  26  27
ENDBRANCH  25  26
ENDBRANCH   1  25
TORSDOF 21
ENDMDL
MODEL 3
REMARK VINA RESULT:     -11.9      5.683     10.270
REMARK SMILES O=C(OCCOCCOCCOC(=O)c1ccc(-c2c3nc(c(-c4cc(S(=O)(=O)[O-])ccc4F)c4ccc([nH]4)c(-c4cc(S(=O)(=O)[O-])ccc4F)c4nc(c(-c5cc(S(=O)(=O)[O-])ccc5F)c5ccc2[nH]5)C=C4)C=C3)cc1)C1=Cc2cc(Cl)c(Cl)cc2O[C@@H]1C(F)(F)F
REMARK SMILES IDX 8 1 7 2 6 3 5 4 4 5 3 6 2 7 1 8 78 9 79 10 89 11 80 12 88 13
REMARK SMILES IDX 81 14 87 15 82 16 86 17 83 18 84 19 85 20 90 21 91 22 92 23
REMARK SMILES IDX 93 24 9 25 10 26 11 27 12 28 13 29 14 30 15 31 16 32 77 33
REMARK SMILES IDX 17 34 76 35 18 36 19 37 20 38 70 39 21 40 75 41 69 42 71 43
REMARK SMILES IDX 22 44 74 45 68 46 67 47 23 49 55 50 35 51 54 52 36 53 39 54
REMARK SMILES IDX 53 55 72 56 37 57 38 58 52 60 73 61 40 62 24 63 25 64 33 65
REMARK SMILES IDX 26 66 32 67 34 68 31 69 27 70 28 71 29 72 30 73 56 74 57 75
REMARK SMILES IDX 65 76 58 77 64 78 66 79 63 80 59 81 60 82 61 83 62 84 41 85
REMARK SMILES IDX 42 86 50 87 43 88 49 89 51 90 48 91 44 92 45 93 46 94 47 95
REMARK H PARENT 71 48 39 59
REMARK Flexibility Score: inf
ROOT
ATOM      1  C   UNL A   1      36.455  20.672  25.225  1.00  0.00     0.188 C 
ENDROOT
BRANCH   1   2
ATOM      2  C   UNL A   1      35.597  21.758  25.898  1.00  0.00     0.188 C 
BRANCH   2   3
ATOM      3  O   UNL A   1      34.684  21.532  27.039  1.00  0.00    -0.376 OA
BRANCH   3   4
ATOM      4  C   UNL A   1      33.047  21.936  27.206  1.00  0.00     0.202 C 
BRANCH   4   5
ATOM      5  C   UNL A   1      31.568  22.040  25.615  1.00  0.00     0.261 C 
BRANCH   5   6
ATOM      6  O   UNL A   1      30.594  23.188  25.356  1.00  0.00    -0.460 OA
BRANCH   6   7
ATOM      7  C   UNL A   1      31.034  24.349  25.860  1.00  0.00     0.338 C 
ATOM      8  O   UNL A   1      30.828  24.832  26.942  1.00  0.00    -0.246 OA
BRANCH   7   9
ATOM      9  C   UNL A   1      31.427  24.933  24.593  1.00  0.00     0.087 C 
ATOM     10  C   UNL A   1      30.319  25.553  23.853  1.00  0.00     0.027 C 
ATOM     11  C   UNL A   1      32.935  25.881  25.324  1.00  0.00     0.316 C 
ATOM     12  C   UNL A   1      30.060  27.334  23.744  1.00  0.00     0.019 A 
ATOM     13  O   UNL A   1      32.609  27.801  25.335  1.00  0.00    -0.475 OA
ATOM     14  C   UNL A   1      28.918  27.815  23.166  1.00  0.00     0.034 A 
ATOM     15  C   UNL A   1      31.123  28.467  24.506  1.00  0.00     0.129 A 
ATOM     16  C   UNL A   1      28.757  29.218  23.225  1.00  0.00     0.060 A 
ATOM     17  C   UNL A   1      30.918  29.817  24.502  1.00  0.00     0.069 A 
ATOM     18  Cl  UNL A   1      27.268  29.794  22.514  1.00  0.00    -0.083 Cl
ATOM     19  C   UNL A   1      29.708  30.163  23.841  1.00  0.00     0.063 A 
ATOM     20  Cl  UNL A   1      29.346  31.870  23.779  1.00  0.00    -0.083 Cl
BRANCH  11  21
ATOM     21  C   UNL A   1      34.049  24.942  24.548  1.00  0.00     0.430 C 
ATOM     22  F   UNL A   1      33.754  23.688  24.212  1.00  0.00    -0.167 F 
ATOM     23  F   UNL A   1      34.321  25.560  23.362  1.00  0.00    -0.167 F 
ATOM     24  F   UNL A   1      35.248  24.898  25.191  1.00  0.00    -0.167 F 
ENDBRANCH  11  21
ENDBRANCH   7   9
ENDBRANCH   6   7
ENDBRANCH   5   6
ENDBRANCH   4   5
ENDBRANCH   3   4
ENDBRANCH   2   3
ENDBRANCH   1   2
BRANCH   1  25
ATOM     25  O   UNL A   1      37.799  20.951  24.922  1.00  0.00    -0.376 OA
BRANCH  25  26
ATOM     26  C   UNL A   1      38.356  22.065  25.608  1.00  0.00     0.202 C 
BRANCH  26  27
ATOM     27  C   UNL A   1      39.644  21.858  26.424  1.00  0.00     0.261 C 
BRANCH  27  28
ATOM     28  O   UNL A   1      39.968  20.468  26.660  1.00  0.00    -0.460 OA
BRANCH  28  29
ATOM     29  C   UNL A   1      41.230  20.072  26.348  1.00  0.00     0.338 C 
ATOM     30  O   UNL A   1      41.556  19.000  25.866  1.00  0.00    -0.246 OA
BRANCH  29  31
ATOM     31  C   UNL A   1      42.177  21.198  26.513  1.00  0.00     0.060 A 
ATOM     32  C   UNL A   1      42.557  21.580  27.810  1.00  0.00     0.016 A 
ATOM     33  C   UNL A   1      42.636  21.916  25.408  1.00  0.00     0.016 A 
ATOM     34  C   UNL A   1      43.399  22.676  28.004  1.00  0.00     0.010 A 
ATOM     35  C   UNL A   1      43.439  23.046  25.607  1.00  0.00     0.010 A 
ATOM     36  C   UNL A   1      43.799  23.447  26.907  1.00  0.00    -0.014 A 
BRANCH  36  37
ATOM     37  C   UNL A   1      44.326  24.816  27.146  1.00  0.00     0.031 A 
ATOM     38  C   UNL A   1      43.350  25.851  27.642  1.00  0.00     0.074 A 
ATOM     39  C   UNL A   1      45.621  25.132  26.969  1.00  0.00     0.049 A 
ATOM     40  N   UNL A   1      43.542  27.111  27.935  1.00  0.00    -0.248 NA
ATOM     41  C   UNL A   1      41.963  25.394  27.829  1.00  0.00     0.031 C 
ATOM     42  C   UNL A   1      46.668  24.204  26.548  1.00  0.00     0.029 A 
ATOM     43  N   UNL A   1      46.275  26.330  27.127  1.00  0.00    -0.354 N 
ATOM     44  C   UNL A   1      42.303  27.595  28.342  1.00  0.00     0.074 A 
ATOM     45  C   UNL A   1      41.360  26.506  28.213  1.00  0.00     0.031 C 
ATOM     46  C   UNL A   1      47.836  24.870  26.483  1.00  0.00     0.029 A 
ATOM     47  C   UNL A   1      47.616  26.275  26.823  1.00  0.00     0.049 A 
ATOM     48  H   UNL A   1      45.826  27.151  27.430  1.00  0.00     0.167 HD
ATOM     49  C   UNL A   1      41.980  28.834  28.789  1.00  0.00     0.034 A 
ATOM     50  C   UNL A   1      48.547  27.252  26.810  1.00  0.00     0.034 A 
ATOM     51  C   UNL A   1      42.925  29.918  28.875  1.00  0.00     0.049 A 
ATOM     52  C   UNL A   1      48.138  28.657  27.203  1.00  0.00     0.074 A 
ATOM     53  C   UNL A   1      42.712  31.212  29.315  1.00  0.00     0.029 A 
ATOM     54  N   UNL A   1      44.258  29.844  28.487  1.00  0.00    -0.354 N 
ATOM     55  N   UNL A   1      46.968  29.101  27.607  1.00  0.00    -0.248 NA
ATOM     56  C   UNL A   1      49.181  29.690  27.148  1.00  0.00     0.031 C 
ATOM     57  C   UNL A   1      43.885  31.944  29.101  1.00  0.00     0.029 A 
ATOM     58  C   UNL A   1      44.864  31.082  28.633  1.00  0.00     0.049 A 
ATOM     59  H   UNL A   1      44.705  29.032  28.156  1.00  0.00     0.167 HD
ATOM     60  C   UNL A   1      47.151  30.452  27.900  1.00  0.00     0.074 A 
ATOM     61  C   UNL A   1      48.545  30.745  27.634  1.00  0.00     0.031 C 
ATOM     62  C   UNL A   1      46.255  31.365  28.356  1.00  0.00     0.034 A 
BRANCH  49  63
ATOM     63  C   UNL A   1      40.533  29.085  29.140  1.00  0.00     0.023 A 
ATOM     64  C   UNL A   1      40.080  29.088  30.472  1.00  0.00     0.031 A 
ATOM     65  C   UNL A   1      39.579  29.268  28.123  1.00  0.00     0.131 A 
ATOM     66  C   UNL A   1      38.706  29.180  30.745  1.00  0.00     0.055 A 
ATOM     67  C   UNL A   1      38.226  29.456  28.407  1.00  0.00     0.041 A 
ATOM     68  F   UNL A   1      39.943  29.244  26.831  1.00  0.00    -0.206 F 
ATOM     69  C   UNL A   1      37.779  29.394  29.723  1.00  0.00     0.022 A 
BRANCH  66  70
ATOM     70  S   UNL A   1      38.132  28.831  32.430  1.00  0.00     0.124 S 
ATOM     71  O   UNL A   1      36.712  29.162  32.334  1.00  0.00    -0.237 OA
ATOM     72  O   UNL A   1      38.449  27.417  32.586  1.00  0.00    -0.237 OA
ATOM     73  O   UNL A   1      38.922  29.743  33.256  1.00  0.00    -0.744 OA
ENDBRANCH  66  70
ENDBRANCH  49  63
BRANCH  50  74
ATOM     74  C   UNL A   1      49.954  26.966  26.397  1.00  0.00     0.023 A 
ATOM     75  C   UNL A   1      50.401  27.249  25.094  1.00  0.00     0.031 A 
ATOM     76  C   UNL A   1      50.853  26.331  27.273  1.00  0.00     0.131 A 
ATOM     77  C   UNL A   1      51.686  26.851  24.690  1.00  0.00     0.055 A 
ATOM     78  C   UNL A   1      52.153  25.997  26.886  1.00  0.00     0.041 A 
ATOM     79  F   UNL A   1      50.477  26.021  28.524  1.00  0.00    -0.206 F 
ATOM     80  C   UNL A   1      52.571  26.244  25.584  1.00  0.00     0.022 A 
BRANCH  77  81
ATOM     81  S   UNL A   1      52.147  27.037  22.944  1.00  0.00     0.124 S 
ATOM     82  O   UNL A   1      50.863  26.848  22.279  1.00  0.00    -0.237 OA
ATOM     83  O   UNL A   1      52.692  28.390  22.915  1.00  0.00    -0.237 OA
ATOM     84  O   UNL A   1      53.123  25.969  22.734  1.00  0.00    -0.744 OA
ENDBRANCH  77  81
ENDBRANCH  50  74
BRANCH  62  85
ATOM     85  C   UNL A   1      46.770  32.755  28.660  1.00  0.00     0.023 A 
ATOM     86  C   UNL A   1      46.937  33.727  27.659  1.00  0.00     0.031 A 
ATOM     87  C   UNL A   1      47.115  33.106  29.980  1.00  0.00     0.131 A 
ATOM     88  C   UNL A   1      47.504  34.972  27.979  1.00  0.00     0.055 A 
ATOM     89  C   UNL A   1      47.598  34.373  30.305  1.00  0.00     0.041 A 
ATOM     90  F   UNL A   1      46.983  32.219  30.980  1.00  0.00    -0.206 F 
ATOM     91  C   UNL A   1      47.814  35.309  29.299  1.00  0.00     0.022 A 
BRANCH  88  92
ATOM     92  S   UNL A   1      47.958  36.094  26.627  1.00  0.00     0.124 S 
ATOM     93  O   UNL A   1      47.640  35.293  25.450  1.00  0.00    -0.237 OA
ATOM     94  O   UNL A   1      47.090  37.242  26.870  1.00  0.00    -0.237 OA
ATOM     95  O   UNL A   1      49.382  36.336  26.847  1.00  0.00    -0.744 OA
ENDBRANCH  88  92
ENDBRANCH  62  85
ENDBRANCH  36  37
ENDBRANCH  29  31
ENDBRANCH  28  29
ENDBRANCH  27  28
ENDBRANCH  26  27
ENDBRANCH  25  26
ENDBRANCH   1  25
TORSDOF 21
ENDMDL
