MODEL 1
REMARK VINA RESULT:      -9.8      0.000      0.000
REMARK SMILES Cc1cc(C)cc(-c2ccc([C@@H](C)C(=O)OCCOCCOCCOC(=O)c3ccc(-c4c5nc(c(-c6cc(S(=O)(=O)[O-])ccc6F)c6ccc([nH]6)c(-c6cc(S(=O)(=O)[O-])ccc6F)c6nc(c(-c7cc(S(=O)(=O)[O-])ccc7F)c7ccc4[nH]7)C=C6)C=C5)cc3)cc2F)c1
REMARK SMILES IDX 21 1 20 2 19 3 18 4 17 5 16 6 14 7 15 8 12 9 13 10 11 11
REMARK SMILES IDX 8 12 9 13 92 14 10 15 91 16 93 17 7 18 1 19 2 20 3 21 94 22
REMARK SMILES IDX 4 23 5 24 6 25 22 26 23 27 24 28 25 29 26 30 27 31 28 32
REMARK SMILES IDX 29 33 90 34 30 35 89 36 31 37 32 38 33 39 83 40 34 41 88 42
REMARK SMILES IDX 82 43 84 44 35 45 87 46 81 47 80 48 36 50 68 51 48 52 67 53
REMARK SMILES IDX 49 54 52 55 66 56 85 57 50 58 51 59 65 61 86 62 53 63 37 64
REMARK SMILES IDX 38 65 46 66 39 67 45 68 47 69 44 70 40 71 41 72 42 73 43 74
REMARK SMILES IDX 69 75 70 76 78 77 71 78 77 79 79 80 76 81 72 82 73 83 74 84
REMARK SMILES IDX 75 85 54 86 55 87 63 88 56 89 62 90 64 91 61 92 57 93 58 94
REMARK SMILES IDX 59 95 60 96
REMARK H PARENT 84 49 52 60
REMARK Flexibility Score: inf
ROOT
ATOM      1  C   UNL A   1      33.063  36.801  29.969  1.00  0.00     0.188 C 
ENDROOT
BRANCH   1   2
ATOM      2  C   UNL A   1      32.445  36.497  31.342  1.00  0.00     0.188 C 
BRANCH   2   3
ATOM      3  O   UNL A   1      32.671  37.398  32.421  1.00  0.00    -0.376 OA
BRANCH   3   4
ATOM      4  C   UNL A   1      33.673  37.094  33.383  1.00  0.00     0.202 C 
BRANCH   4   5
ATOM      5  C   UNL A   1      34.763  36.072  33.017  1.00  0.00     0.261 C 
BRANCH   5   6
ATOM      6  O   UNL A   1      35.143  35.155  34.069  1.00  0.00    -0.463 OA
BRANCH   6   7
ATOM      7  C   UNL A   1      35.504  33.905  33.679  1.00  0.00     0.313 C 
ATOM      8  O   UNL A   1      35.664  32.980  34.473  1.00  0.00    -0.252 OA
BRANCH   7   9
ATOM      9  C   UNL A   1      35.691  33.685  32.173  1.00  0.00     0.126 C 
ATOM     10  C   UNL A   1      35.071  32.337  31.806  1.00  0.00     0.025 C 
BRANCH   9  11
ATOM     11  C   UNL A   1      37.058  33.828  31.503  1.00  0.00    -0.031 A 
ATOM     12  C   UNL A   1      39.669  34.163  30.354  1.00  0.00     0.017 A 
ATOM     13  C   UNL A   1      38.558  33.782  29.576  1.00  0.00     0.012 A 
ATOM     14  C   UNL A   1      39.441  34.367  31.718  1.00  0.00     0.131 A 
ATOM     15  C   UNL A   1      37.275  33.624  30.135  1.00  0.00     0.005 A 
ATOM     16  C   UNL A   1      38.168  34.216  32.283  1.00  0.00     0.044 A 
ATOM     17  F   UNL A   1      40.448  34.736  32.524  1.00  0.00    -0.206 F 
BRANCH  12  18
ATOM     18  C   UNL A   1      40.989  34.390  29.732  1.00  0.00    -0.015 A 
ATOM     19  C   UNL A   1      42.671  36.531  27.032  1.00  0.00     0.044 C 
ATOM     20  C   UNL A   1      42.456  35.532  28.133  1.00  0.00    -0.050 A 
ATOM     21  C   UNL A   1      43.545  34.784  28.598  1.00  0.00     0.006 A 
ATOM     22  C   UNL A   1      41.185  35.325  28.699  1.00  0.00     0.012 A 
ATOM     23  C   UNL A   1      43.380  33.838  29.613  1.00  0.00    -0.050 A 
ATOM     24  C   UNL A   1      44.554  33.037  30.087  1.00  0.00     0.044 C 
ATOM     25  C   UNL A   1      42.106  33.653  30.170  1.00  0.00     0.012 A 
ENDBRANCH  12  18
ENDBRANCH   9  11
ENDBRANCH   7   9
ENDBRANCH   6   7
ENDBRANCH   5   6
ENDBRANCH   4   5
ENDBRANCH   3   4
ENDBRANCH   2   3
ENDBRANCH   1   2
BRANCH   1  26
ATOM     26  O   UNL A   1      32.848  35.805  28.992  1.00  0.00    -0.376 OA
BRANCH  26  27
ATOM     27  C   UNL A   1      33.962  35.004  28.648  1.00  0.00     0.202 C 
BRANCH  27  28
ATOM     28  C   UNL A   1      33.642  33.608  28.093  1.00  0.00     0.261 C 
BRANCH  28  29
ATOM     29  O   UNL A   1      34.746  32.686  28.013  1.00  0.00    -0.460 OA
BRANCH  29  30
ATOM     30  C   UNL A   1      34.445  31.368  27.974  1.00  0.00     0.338 C 
ATOM     31  O   UNL A   1      33.391  30.877  27.592  1.00  0.00    -0.246 OA
BRANCH  30  32
ATOM     32  C   UNL A   1      35.682  30.602  28.257  1.00  0.00     0.060 A 
ATOM     33  C   UNL A   1      35.706  29.717  29.346  1.00  0.00     0.016 A 
ATOM     34  C   UNL A   1      36.816  30.752  27.454  1.00  0.00     0.016 A 
ATOM     35  C   UNL A   1      36.872  29.012  29.654  1.00  0.00     0.010 A 
ATOM     36  C   UNL A   1      37.990  30.061  27.778  1.00  0.00     0.010 A 
ATOM     37  C   UNL A   1      38.036  29.212  28.899  1.00  0.00    -0.014 A 
BRANCH  37  38
ATOM     38  C   UNL A   1      39.341  28.694  29.392  1.00  0.00     0.031 A 
ATOM     39  C   UNL A   1      39.955  29.341  30.607  1.00  0.00     0.074 A 
ATOM     40  C   UNL A   1      39.958  27.651  28.806  1.00  0.00     0.049 A 
ATOM     41  N   UNL A   1      41.104  29.103  31.184  1.00  0.00    -0.248 NA
ATOM     42  C   UNL A   1      39.163  30.399  31.257  1.00  0.00     0.031 C 
ATOM     43  C   UNL A   1      39.443  26.895  27.666  1.00  0.00     0.029 A 
ATOM     44  N   UNL A   1      41.158  27.044  29.095  1.00  0.00    -0.354 N 
ATOM     45  C   UNL A   1      41.174  29.979  32.262  1.00  0.00     0.074 A 
ATOM     46  C   UNL A   1      39.969  30.778  32.238  1.00  0.00     0.031 C 
ATOM     47  C   UNL A   1      40.319  25.923  27.356  1.00  0.00     0.029 A 
ATOM     48  C   UNL A   1      41.478  26.012  28.245  1.00  0.00     0.049 A 
ATOM     49  H   UNL A   1      41.735  27.323  29.843  1.00  0.00     0.167 HD
ATOM     50  C   UNL A   1      42.150  30.099  33.193  1.00  0.00     0.034 A 
ATOM     51  C   UNL A   1      42.586  25.240  28.174  1.00  0.00     0.034 A 
ATOM     52  C   UNL A   1      43.347  29.298  33.216  1.00  0.00     0.049 A 
ATOM     53  C   UNL A   1      43.710  25.463  29.158  1.00  0.00     0.074 A 
ATOM     54  C   UNL A   1      44.388  29.340  34.127  1.00  0.00     0.029 A 
ATOM     55  N   UNL A   1      43.666  28.318  32.288  1.00  0.00    -0.354 N 
ATOM     56  N   UNL A   1      43.778  26.319  30.151  1.00  0.00    -0.248 NA
ATOM     57  C   UNL A   1      44.908  24.624  29.010  1.00  0.00     0.031 C 
ATOM     58  C   UNL A   1      45.370  28.439  33.708  1.00  0.00     0.029 A 
ATOM     59  C   UNL A   1      44.905  27.775  32.585  1.00  0.00     0.049 A 
ATOM     60  H   UNL A   1      43.097  28.048  31.531  1.00  0.00     0.167 HD
ATOM     61  C   UNL A   1      45.010  26.100  30.761  1.00  0.00     0.074 A 
ATOM     62  C   UNL A   1      45.659  25.036  30.024  1.00  0.00     0.031 C 
ATOM     63  C   UNL A   1      45.549  26.720  31.841  1.00  0.00     0.034 A 
BRANCH  50  64
ATOM     64  C   UNL A   1      41.985  31.158  34.251  1.00  0.00     0.023 A 
ATOM     65  C   UNL A   1      42.461  32.466  34.065  1.00  0.00     0.031 A 
ATOM     66  C   UNL A   1      41.303  30.863  35.444  1.00  0.00     0.131 A 
ATOM     67  C   UNL A   1      42.275  33.425  35.073  1.00  0.00     0.055 A 
ATOM     68  C   UNL A   1      41.066  31.835  36.416  1.00  0.00     0.041 A 
ATOM     69  F   UNL A   1      40.845  29.623  35.679  1.00  0.00    -0.206 F 
ATOM     70  C   UNL A   1      41.558  33.125  36.234  1.00  0.00     0.022 A 
BRANCH  67  71
ATOM     71  S   UNL A   1      43.041  35.056  34.876  1.00  0.00     0.124 S 
ATOM     72  O   UNL A   1      44.152  34.975  35.821  1.00  0.00    -0.237 OA
ATOM     73  O   UNL A   1      43.403  35.069  33.464  1.00  0.00    -0.237 OA
ATOM     74  O   UNL A   1      41.976  35.983  35.256  1.00  0.00    -0.744 OA
ENDBRANCH  67  71
ENDBRANCH  50  64
BRANCH  51  75
ATOM     75  C   UNL A   1      42.704  24.204  27.110  1.00  0.00     0.023 A 
ATOM     76  C   UNL A   1      42.093  22.947  27.247  1.00  0.00     0.031 A 
ATOM     77  C   UNL A   1      43.439  24.456  25.937  1.00  0.00     0.131 A 
ATOM     78  C   UNL A   1      42.241  21.984  26.236  1.00  0.00     0.055 A 
ATOM     79  C   UNL A   1      43.549  23.510  24.917  1.00  0.00     0.041 A 
ATOM     80  F   UNL A   1      44.046  25.640  25.759  1.00  0.00    -0.206 F 
ATOM     81  C   UNL A   1      42.951  22.263  25.066  1.00  0.00     0.022 A 
BRANCH  78  82
ATOM     82  S   UNL A   1      41.513  20.341  26.481  1.00  0.00     0.124 S 
ATOM     83  O   UNL A   1      40.087  20.630  26.381  1.00  0.00    -0.237 OA
ATOM     84  O   UNL A   1      42.093  19.581  25.378  1.00  0.00    -0.237 OA
ATOM     85  O   UNL A   1      41.981  19.955  27.811  1.00  0.00    -0.744 OA
ENDBRANCH  78  82
ENDBRANCH  51  75
BRANCH  63  86
ATOM     86  C   UNL A   1      46.893  26.251  32.335  1.00  0.00     0.023 A 
ATOM     87  C   UNL A   1      47.014  25.197  33.256  1.00  0.00     0.031 A 
ATOM     88  C   UNL A   1      48.070  26.805  31.800  1.00  0.00     0.131 A 
ATOM     89  C   UNL A   1      48.289  24.734  33.621  1.00  0.00     0.055 A 
ATOM     90  C   UNL A   1      49.332  26.313  32.134  1.00  0.00     0.041 A 
ATOM     91  F   UNL A   1      48.007  27.810  30.911  1.00  0.00    -0.206 F 
ATOM     92  C   UNL A   1      49.446  25.272  33.050  1.00  0.00     0.022 A 
BRANCH  89  93
ATOM     93  S   UNL A   1      48.421  23.420  34.864  1.00  0.00     0.124 S 
ATOM     94  O   UNL A   1      48.625  24.184  36.091  1.00  0.00    -0.237 OA
ATOM     95  O   UNL A   1      47.136  22.739  34.743  1.00  0.00    -0.237 OA
ATOM     96  O   UNL A   1      49.575  22.641  34.419  1.00  0.00    -0.744 OA
ENDBRANCH  89  93
ENDBRANCH  63  86
ENDBRANCH  37  38
ENDBRANCH  30  32
ENDBRANCH  29  30
ENDBRANCH  28  29
ENDBRANCH  27  28
ENDBRANCH  26  27
ENDBRANCH   1  26
TORSDOF 22
ENDMDL
MODEL 2
REMARK VINA RESULT:      -9.8      1.445      2.038
REMARK SMILES Cc1cc(C)cc(-c2ccc([C@@H](C)C(=O)OCCOCCOCCOC(=O)c3ccc(-c4c5nc(c(-c6cc(S(=O)(=O)[O-])ccc6F)c6ccc([nH]6)c(-c6cc(S(=O)(=O)[O-])ccc6F)c6nc(c(-c7cc(S(=O)(=O)[O-])ccc7F)c7ccc4[nH]7)C=C6)C=C5)cc3)cc2F)c1
REMARK SMILES IDX 21 1 20 2 19 3 18 4 17 5 16 6 14 7 15 8 12 9 13 10 11 11
REMARK SMILES IDX 8 12 9 13 92 14 10 15 91 16 93 17 7 18 1 19 2 20 3 21 94 22
REMARK SMILES IDX 4 23 5 24 6 25 22 26 23 27 24 28 25 29 26 30 27 31 28 32
REMARK SMILES IDX 29 33 90 34 30 35 89 36 31 37 32 38 33 39 83 40 34 41 88 42
REMARK SMILES IDX 82 43 84 44 35 45 87 46 81 47 80 48 36 50 68 51 48 52 67 53
REMARK SMILES IDX 49 54 52 55 66 56 85 57 50 58 51 59 65 61 86 62 53 63 37 64
REMARK SMILES IDX 38 65 46 66 39 67 45 68 47 69 44 70 40 71 41 72 42 73 43 74
REMARK SMILES IDX 69 75 70 76 78 77 71 78 77 79 79 80 76 81 72 82 73 83 74 84
REMARK SMILES IDX 75 85 54 86 55 87 63 88 56 89 62 90 64 91 61 92 57 93 58 94
REMARK SMILES IDX 59 95 60 96
REMARK H PARENT 84 49 52 60
REMARK Flexibility Score: inf
ROOT
ATOM      1  C   UNL A   1      33.719  36.844  28.860  1.00  0.00     0.188 C 
ENDROOT
BRANCH   1   2
ATOM      2  C   UNL A   1      33.163  36.330  30.196  1.00  0.00     0.188 C 
BRANCH   2   3
ATOM      3  O   UNL A   1      32.730  37.270  31.175  1.00  0.00    -0.376 OA
BRANCH   3   4
ATOM      4  C   UNL A   1      33.634  37.681  32.193  1.00  0.00     0.202 C 
BRANCH   4   5
ATOM      5  C   UNL A   1      34.002  36.681  33.303  1.00  0.00     0.261 C 
BRANCH   5   6
ATOM      6  O   UNL A   1      35.232  35.947  33.105  1.00  0.00    -0.463 OA
BRANCH   6   7
ATOM      7  C   UNL A   1      35.121  34.596  33.014  1.00  0.00     0.313 C 
ATOM      8  O   UNL A   1      34.061  34.031  32.749  1.00  0.00    -0.252 OA
BRANCH   7   9
ATOM      9  C   UNL A   1      36.404  33.788  33.242  1.00  0.00     0.126 C 
ATOM     10  C   UNL A   1      36.784  33.900  34.718  1.00  0.00     0.025 C 
BRANCH   9  11
ATOM     11  C   UNL A   1      37.645  33.985  32.370  1.00  0.00    -0.031 A 
ATOM     12  C   UNL A   1      39.910  34.293  30.632  1.00  0.00     0.017 A 
ATOM     13  C   UNL A   1      40.013  34.474  32.024  1.00  0.00     0.012 A 
ATOM     14  C   UNL A   1      38.648  33.960  30.132  1.00  0.00     0.131 A 
ATOM     15  C   UNL A   1      38.906  34.316  32.880  1.00  0.00     0.005 A 
ATOM     16  C   UNL A   1      37.541  33.798  30.975  1.00  0.00     0.044 A 
ATOM     17  F   UNL A   1      38.470  33.767  28.816  1.00  0.00    -0.206 F 
BRANCH  12  18
ATOM     18  C   UNL A   1      41.101  34.395  29.763  1.00  0.00    -0.015 A 
ATOM     19  C   UNL A   1      44.396  32.583  29.016  1.00  0.00     0.044 C 
ATOM     20  C   UNL A   1      43.271  33.577  28.967  1.00  0.00    -0.050 A 
ATOM     21  C   UNL A   1      43.341  34.643  28.062  1.00  0.00     0.006 A 
ATOM     22  C   UNL A   1      42.153  33.464  29.815  1.00  0.00     0.012 A 
ATOM     23  C   UNL A   1      42.318  35.592  27.996  1.00  0.00    -0.050 A 
ATOM     24  C   UNL A   1      42.418  36.734  27.032  1.00  0.00     0.044 C 
ATOM     25  C   UNL A   1      41.209  35.457  28.844  1.00  0.00     0.012 A 
ENDBRANCH  12  18
ENDBRANCH   9  11
ENDBRANCH   7   9
ENDBRANCH   6   7
ENDBRANCH   5   6
ENDBRANCH   4   5
ENDBRANCH   3   4
ENDBRANCH   2   3
ENDBRANCH   1   2
BRANCH   1  26
ATOM     26  O   UNL A   1      34.354  35.862  28.069  1.00  0.00    -0.376 OA
BRANCH  26  27
ATOM     27  C   UNL A   1      34.780  34.690  28.735  1.00  0.00     0.202 C 
BRANCH  27  28
ATOM     28  C   UNL A   1      34.122  33.379  28.279  1.00  0.00     0.261 C 
BRANCH  28  29
ATOM     29  O   UNL A   1      34.614  32.172  28.893  1.00  0.00    -0.460 OA
BRANCH  29  30
ATOM     30  C   UNL A   1      34.609  31.051  28.137  1.00  0.00     0.338 C 
ATOM     31  O   UNL A   1      33.780  30.755  27.286  1.00  0.00    -0.246 OA
BRANCH  30  32
ATOM     32  C   UNL A   1      35.895  30.344  28.347  1.00  0.00     0.060 A 
ATOM     33  C   UNL A   1      36.073  29.576  29.508  1.00  0.00     0.016 A 
ATOM     34  C   UNL A   1      36.923  30.435  27.405  1.00  0.00     0.016 A 
ATOM     35  C   UNL A   1      37.289  28.931  29.745  1.00  0.00     0.010 A 
ATOM     36  C   UNL A   1      38.149  29.806  27.656  1.00  0.00     0.010 A 
ATOM     37  C   UNL A   1      38.352  29.078  28.842  1.00  0.00    -0.014 A 
BRANCH  37  38
ATOM     38  C   UNL A   1      39.721  28.640  29.227  1.00  0.00     0.031 A 
ATOM     39  C   UNL A   1      40.430  29.392  30.325  1.00  0.00     0.074 A 
ATOM     40  C   UNL A   1      40.317  27.581  28.649  1.00  0.00     0.049 A 
ATOM     41  N   UNL A   1      41.641  29.234  30.791  1.00  0.00    -0.248 NA
ATOM     42  C   UNL A   1      39.667  30.465  30.984  1.00  0.00     0.031 C 
ATOM     43  C   UNL A   1      39.718  26.730  27.623  1.00  0.00     0.029 A 
ATOM     44  N   UNL A   1      41.565  27.037  28.849  1.00  0.00    -0.354 N 
ATOM     45  C   UNL A   1      41.786  30.185  31.796  1.00  0.00     0.074 A 
ATOM     46  C   UNL A   1      40.553  30.939  31.847  1.00  0.00     0.031 C 
ATOM     47  C   UNL A   1      40.598  25.769  27.286  1.00  0.00     0.029 A 
ATOM     48  C   UNL A   1      41.837  25.959  28.039  1.00  0.00     0.049 A 
ATOM     49  H   UNL A   1      42.204  27.387  29.511  1.00  0.00     0.167 HD
ATOM     50  C   UNL A   1      42.847  30.403  32.608  1.00  0.00     0.034 A 
ATOM     51  C   UNL A   1      42.963  25.223  27.902  1.00  0.00     0.034 A 
ATOM     52  C   UNL A   1      44.072  29.647  32.556  1.00  0.00     0.049 A 
ATOM     53  C   UNL A   1      44.172  25.553  28.745  1.00  0.00     0.074 A 
ATOM     54  C   UNL A   1      45.199  29.789  33.347  1.00  0.00     0.029 A 
ATOM     55  N   UNL A   1      44.334  28.616  31.667  1.00  0.00    -0.354 N 
ATOM     56  N   UNL A   1      44.307  26.478  29.666  1.00  0.00    -0.248 NA
ATOM     57  C   UNL A   1      45.383  24.747  28.526  1.00  0.00     0.031 C 
ATOM     58  C   UNL A   1      46.169  28.895  32.887  1.00  0.00     0.029 A 
ATOM     59  C   UNL A   1      45.619  28.138  31.866  1.00  0.00     0.049 A 
ATOM     60  H   UNL A   1      43.701  28.275  30.994  1.00  0.00     0.167 HD
ATOM     61  C   UNL A   1      45.604  26.345  30.155  1.00  0.00     0.074 A 
ATOM     62  C   UNL A   1      46.216  25.255  29.425  1.00  0.00     0.031 C 
ATOM     63  C   UNL A   1      46.225  27.056  31.128  1.00  0.00     0.034 A 
BRANCH  50  64
ATOM     64  C   UNL A   1      42.749  31.528  33.605  1.00  0.00     0.023 A 
ATOM     65  C   UNL A   1      41.992  31.408  34.781  1.00  0.00     0.031 A 
ATOM     66  C   UNL A   1      43.461  32.722  33.393  1.00  0.00     0.131 A 
ATOM     67  C   UNL A   1      41.937  32.477  35.687  1.00  0.00     0.055 A 
ATOM     68  C   UNL A   1      43.454  33.758  34.326  1.00  0.00     0.041 A 
ATOM     69  F   UNL A   1      44.185  32.894  32.275  1.00  0.00    -0.206 F 
ATOM     70  C   UNL A   1      42.684  33.640  35.480  1.00  0.00     0.022 A 
BRANCH  67  71
ATOM     71  S   UNL A   1      40.823  32.357  37.112  1.00  0.00     0.124 S 
ATOM     72  O   UNL A   1      40.304  33.720  37.196  1.00  0.00    -0.237 OA
ATOM     73  O   UNL A   1      39.872  31.337  36.687  1.00  0.00    -0.237 OA
ATOM     74  O   UNL A   1      41.708  31.966  38.208  1.00  0.00    -0.744 OA
ENDBRANCH  67  71
ENDBRANCH  50  64
BRANCH  51  75
ATOM     75  C   UNL A   1      43.013  24.120  26.902  1.00  0.00     0.023 A 
ATOM     76  C   UNL A   1      42.370  22.894  27.138  1.00  0.00     0.031 A 
ATOM     77  C   UNL A   1      43.715  24.275  25.693  1.00  0.00     0.131 A 
ATOM     78  C   UNL A   1      42.454  21.866  26.185  1.00  0.00     0.055 A 
ATOM     79  C   UNL A   1      43.762  23.265  24.731  1.00  0.00     0.041 A 
ATOM     80  F   UNL A   1      44.351  25.426  25.421  1.00  0.00    -0.206 F 
ATOM     81  C   UNL A   1      43.132  22.049  24.977  1.00  0.00     0.022 A 
BRANCH  78  82
ATOM     82  S   UNL A   1      41.686  20.265  26.556  1.00  0.00     0.124 S 
ATOM     83  O   UNL A   1      42.028  19.489  25.370  1.00  0.00    -0.237 OA
ATOM     84  O   UNL A   1      42.360  19.881  27.793  1.00  0.00    -0.237 OA
ATOM     85  O   UNL A   1      40.268  20.593  26.701  1.00  0.00    -0.744 OA
ENDBRANCH  78  82
ENDBRANCH  51  75
BRANCH  63  86
ATOM     86  C   UNL A   1      47.632  26.670  31.508  1.00  0.00     0.023 A 
ATOM     87  C   UNL A   1      47.891  25.694  32.485  1.00  0.00     0.031 A 
ATOM     88  C   UNL A   1      48.723  27.218  30.809  1.00  0.00     0.131 A 
ATOM     89  C   UNL A   1      49.215  25.302  32.743  1.00  0.00     0.055 A 
ATOM     90  C   UNL A   1      50.032  26.794  31.039  1.00  0.00     0.041 A 
ATOM     91  F   UNL A   1      48.526  28.149  29.860  1.00  0.00    -0.206 F 
ATOM     92  C   UNL A   1      50.283  25.830  32.012  1.00  0.00     0.022 A 
BRANCH  89  93
ATOM     93  S   UNL A   1      49.529  24.093  34.057  1.00  0.00     0.124 S 
ATOM     94  O   UNL A   1      48.200  23.532  34.276  1.00  0.00    -0.237 OA
ATOM     95  O   UNL A   1      50.504  23.200  33.439  1.00  0.00    -0.237 OA
ATOM     96  O   UNL A   1      50.048  24.906  35.155  1.00  0.00    -0.744 OA
ENDBRANCH  89  93
ENDBRANCH  63  86
ENDBRANCH  37  38
ENDBRANCH  30  32
ENDBRANCH  29  30
ENDBRANCH  28  29
ENDBRANCH  27  28
ENDBRANCH  26  27
ENDBRANCH   1  26
TORSDOF 22
ENDMDL
MODEL 3
REMARK VINA RESULT:      -9.1      0.857      7.604
REMARK SMILES Cc1cc(C)cc(-c2ccc([C@@H](C)C(=O)OCCOCCOCCOC(=O)c3ccc(-c4c5nc(c(-c6cc(S(=O)(=O)[O-])ccc6F)c6ccc([nH]6)c(-c6cc(S(=O)(=O)[O-])ccc6F)c6nc(c(-c7cc(S(=O)(=O)[O-])ccc7F)c7ccc4[nH]7)C=C6)C=C5)cc3)cc2F)c1
REMARK SMILES IDX 21 1 20 2 19 3 18 4 17 5 16 6 14 7 15 8 12 9 13 10 11 11
REMARK SMILES IDX 8 12 9 13 92 14 10 15 91 16 93 17 7 18 1 19 2 20 3 21 94 22
REMARK SMILES IDX 4 23 5 24 6 25 22 26 23 27 24 28 25 29 26 30 27 31 28 32
REMARK SMILES IDX 29 33 90 34 30 35 89 36 31 37 32 38 33 39 83 40 34 41 88 42
REMARK SMILES IDX 82 43 84 44 35 45 87 46 81 47 80 48 36 50 68 51 48 52 67 53
REMARK SMILES IDX 49 54 52 55 66 56 85 57 50 58 51 59 65 61 86 62 53 63 37 64
REMARK SMILES IDX 38 65 46 66 39 67 45 68 47 69 44 70 40 71 41 72 42 73 43 74
REMARK SMILES IDX 69 75 70 76 78 77 71 78 77 79 79 80 76 81 72 82 73 83 74 84
REMARK SMILES IDX 75 85 54 86 55 87 63 88 56 89 62 90 64 91 61 92 57 93 58 94
REMARK SMILES IDX 59 95 60 96
REMARK H PARENT 84 49 52 60
REMARK Flexibility Score: inf
ROOT
ATOM      1  C   UNL A   1      32.877  36.242  29.868  1.00  0.00     0.188 C 
ENDROOT
BRANCH   1   2
ATOM      2  C   UNL A   1      32.149  36.125  31.216  1.00  0.00     0.188 C 
BRANCH   2   3
ATOM      3  O   UNL A   1      32.612  36.891  32.324  1.00  0.00    -0.376 OA
BRANCH   3   4
ATOM      4  C   UNL A   1      34.011  37.019  32.545  1.00  0.00     0.202 C 
BRANCH   4   5
ATOM      5  C   UNL A   1      34.703  36.027  33.496  1.00  0.00     0.261 C 
BRANCH   5   6
ATOM      6  O   UNL A   1      34.078  34.728  33.613  1.00  0.00    -0.463 OA
BRANCH   6   7
ATOM      7  C   UNL A   1      34.489  33.779  32.732  1.00  0.00     0.313 C 
ATOM      8  O   UNL A   1      33.840  33.469  31.735  1.00  0.00    -0.252 OA
BRANCH   7   9
ATOM      9  C   UNL A   1      35.835  33.107  33.030  1.00  0.00     0.126 C 
ATOM     10  C   UNL A   1      36.111  33.230  34.528  1.00  0.00     0.025 C 
BRANCH   9  11
ATOM     11  C   UNL A   1      37.098  33.452  32.240  1.00  0.00    -0.031 A 
ATOM     12  C   UNL A   1      39.437  34.004  30.667  1.00  0.00     0.017 A 
ATOM     13  C   UNL A   1      39.307  34.465  31.992  1.00  0.00     0.012 A 
ATOM     14  C   UNL A   1      38.368  33.266  30.150  1.00  0.00     0.131 A 
ATOM     15  C   UNL A   1      38.165  34.189  32.768  1.00  0.00     0.005 A 
ATOM     16  C   UNL A   1      37.229  32.984  30.915  1.00  0.00     0.044 A 
ATOM     17  F   UNL A   1      38.419  32.789  28.897  1.00  0.00    -0.206 F 
BRANCH  12  18
ATOM     18  C   UNL A   1      40.675  34.246  29.897  1.00  0.00    -0.015 A 
ATOM     19  C   UNL A   1      42.171  36.722  27.382  1.00  0.00     0.044 C 
ATOM     20  C   UNL A   1      42.013  35.554  28.313  1.00  0.00    -0.050 A 
ATOM     21  C   UNL A   1      43.075  34.656  28.468  1.00  0.00     0.006 A 
ATOM     22  C   UNL A   1      40.818  35.339  29.025  1.00  0.00     0.012 A 
ATOM     23  C   UNL A   1      42.959  33.553  29.318  1.00  0.00    -0.050 A 
ATOM     24  C   UNL A   1      44.102  32.594  29.460  1.00  0.00     0.044 C 
ATOM     25  C   UNL A   1      41.763  33.361  30.024  1.00  0.00     0.012 A 
ENDBRANCH  12  18
ENDBRANCH   9  11
ENDBRANCH   7   9
ENDBRANCH   6   7
ENDBRANCH   5   6
ENDBRANCH   4   5
ENDBRANCH   3   4
ENDBRANCH   2   3
ENDBRANCH   1   2
BRANCH   1  26
ATOM     26  O   UNL A   1      32.671  35.154  28.992  1.00  0.00    -0.376 OA
BRANCH  26  27
ATOM     27  C   UNL A   1      33.827  34.563  28.432  1.00  0.00     0.202 C 
BRANCH  27  28
ATOM     28  C   UNL A   1      33.688  33.098  27.990  1.00  0.00     0.261 C 
BRANCH  28  29
ATOM     29  O   UNL A   1      34.897  32.315  27.991  1.00  0.00    -0.460 OA
BRANCH  29  30
ATOM     30  C   UNL A   1      34.782  31.005  27.680  1.00  0.00     0.338 C 
ATOM     31  O   UNL A   1      33.913  30.500  26.980  1.00  0.00    -0.246 OA
BRANCH  30  32
ATOM     32  C   UNL A   1      36.008  30.309  28.139  1.00  0.00     0.060 A 
ATOM     33  C   UNL A   1      36.047  29.776  29.436  1.00  0.00     0.016 A 
ATOM     34  C   UNL A   1      37.115  30.181  27.297  1.00  0.00     0.016 A 
ATOM     35  C   UNL A   1      37.204  29.148  29.904  1.00  0.00     0.010 A 
ATOM     36  C   UNL A   1      38.282  29.572  27.776  1.00  0.00     0.010 A 
ATOM     37  C   UNL A   1      38.346  29.081  29.093  1.00  0.00    -0.014 A 
BRANCH  37  38
ATOM     38  C   UNL A   1      39.654  28.681  29.679  1.00  0.00     0.031 A 
ATOM     39  C   UNL A   1      40.418  27.560  29.023  1.00  0.00     0.074 A 
ATOM     40  C   UNL A   1      40.177  29.313  30.746  1.00  0.00     0.049 A 
ATOM     41  N   UNL A   1      41.544  27.000  29.384  1.00  0.00    -0.248 NA
ATOM     42  C   UNL A   1      39.833  26.997  27.795  1.00  0.00     0.031 C 
ATOM     43  C   UNL A   1      39.572  30.451  31.435  1.00  0.00     0.029 A 
ATOM     44  N   UNL A   1      41.344  29.085  31.437  1.00  0.00    -0.354 N 
ATOM     45  C   UNL A   1      41.801  26.021  28.430  1.00  0.00     0.074 A 
ATOM     46  C   UNL A   1      40.697  26.038  27.496  1.00  0.00     0.031 C 
ATOM     47  C   UNL A   1      40.376  30.825  32.447  1.00  0.00     0.029 A 
ATOM     48  C   UNL A   1      41.530  29.928  32.508  1.00  0.00     0.049 A 
ATOM     49  H   UNL A   1      41.988  28.382  31.188  1.00  0.00     0.167 HD
ATOM     50  C   UNL A   1      42.866  25.189  28.336  1.00  0.00     0.034 A 
ATOM     51  C   UNL A   1      42.505  29.961  33.443  1.00  0.00     0.034 A 
ATOM     52  C   UNL A   1      43.965  25.178  29.266  1.00  0.00     0.049 A 
ATOM     53  C   UNL A   1      43.629  28.955  33.381  1.00  0.00     0.074 A 
ATOM     54  C   UNL A   1      45.094  24.378  29.247  1.00  0.00     0.029 A 
ATOM     55  N   UNL A   1      44.073  25.995  30.381  1.00  0.00    -0.354 N 
ATOM     56  N   UNL A   1      43.841  28.011  32.493  1.00  0.00    -0.248 NA
ATOM     57  C   UNL A   1      44.640  29.009  34.447  1.00  0.00     0.031 C 
ATOM     58  C   UNL A   1      45.848  24.660  30.389  1.00  0.00     0.029 A 
ATOM     59  C   UNL A   1      45.232  25.693  31.076  1.00  0.00     0.049 A 
ATOM     60  H   UNL A   1      43.423  26.688  30.640  1.00  0.00     0.167 HD
ATOM     61  C   UNL A   1      45.023  27.382  32.877  1.00  0.00     0.074 A 
ATOM     62  C   UNL A   1      45.478  28.047  34.081  1.00  0.00     0.031 C 
ATOM     63  C   UNL A   1      45.675  26.354  32.280  1.00  0.00     0.034 A 
BRANCH  50  64
ATOM     64  C   UNL A   1      42.883  24.195  27.205  1.00  0.00     0.023 A 
ATOM     65  C   UNL A   1      42.197  22.973  27.287  1.00  0.00     0.031 A 
ATOM     66  C   UNL A   1      43.561  24.497  26.011  1.00  0.00     0.131 A 
ATOM     67  C   UNL A   1      42.230  22.081  26.204  1.00  0.00     0.055 A 
ATOM     68  C   UNL A   1      43.540  23.634  24.915  1.00  0.00     0.041 A 
ATOM     69  F   UNL A   1      44.249  25.644  25.888  1.00  0.00    -0.206 F 
ATOM     70  C   UNL A   1      42.875  22.415  25.010  1.00  0.00     0.022 A 
BRANCH  67  71
ATOM     71  S   UNL A   1      41.475  20.444  26.399  1.00  0.00     0.124 S 
ATOM     72  O   UNL A   1      40.084  20.718  26.050  1.00  0.00    -0.237 OA
ATOM     73  O   UNL A   1      42.224  19.633  25.447  1.00  0.00    -0.237 OA
ATOM     74  O   UNL A   1      41.707  20.125  27.807  1.00  0.00    -0.744 OA
ENDBRANCH  67  71
ENDBRANCH  50  64
BRANCH  51  75
ATOM     75  C   UNL A   1      42.446  30.964  34.544  1.00  0.00     0.023 A 
ATOM     76  C   UNL A   1      42.997  32.246  34.391  1.00  0.00     0.031 A 
ATOM     77  C   UNL A   1      41.839  30.649  35.774  1.00  0.00     0.131 A 
ATOM     78  C   UNL A   1      42.944  33.161  35.455  1.00  0.00     0.055 A 
ATOM     79  C   UNL A   1      41.753  31.575  36.814  1.00  0.00     0.041 A 
ATOM     80  F   UNL A   1      41.301  29.435  35.973  1.00  0.00    -0.206 F 
ATOM     81  C   UNL A   1      42.312  32.840  36.659  1.00  0.00     0.022 A 
BRANCH  78  82
ATOM     82  S   UNL A   1      43.741  34.779  35.256  1.00  0.00     0.124 S 
ATOM     83  O   UNL A   1      45.129  34.468  35.574  1.00  0.00    -0.237 OA
ATOM     84  O   UNL A   1      43.455  35.092  33.860  1.00  0.00    -0.237 OA
ATOM     85  O   UNL A   1      43.050  35.621  36.232  1.00  0.00    -0.744 OA
ENDBRANCH  78  82
ENDBRANCH  51  75
BRANCH  63  86
ATOM     86  C   UNL A   1      46.978  25.892  32.879  1.00  0.00     0.023 A 
ATOM     87  C   UNL A   1      47.032  24.838  33.805  1.00  0.00     0.031 A 
ATOM     88  C   UNL A   1      48.191  26.454  32.439  1.00  0.00     0.131 A 
ATOM     89  C   UNL A   1      48.277  24.382  34.269  1.00  0.00     0.055 A 
ATOM     90  C   UNL A   1      49.426  25.968  32.870  1.00  0.00     0.041 A 
ATOM     91  F   UNL A   1      48.193  27.460  31.548  1.00  0.00    -0.206 F 
ATOM     92  C   UNL A   1      49.473  24.926  33.792  1.00  0.00     0.022 A 
BRANCH  89  93
ATOM     93  S   UNL A   1      48.317  23.066  35.517  1.00  0.00     0.124 S 
ATOM     94  O   UNL A   1      49.746  22.780  35.607  1.00  0.00    -0.237 OA
ATOM     95  O   UNL A   1      47.722  23.714  36.681  1.00  0.00    -0.237 OA
ATOM     96  O   UNL A   1      47.509  22.003  34.923  1.00  0.00    -0.744 OA
ENDBRANCH  89  93
ENDBRANCH  63  86
ENDBRANCH  37  38
ENDBRANCH  30  32
ENDBRANCH  29  30
ENDBRANCH  28  29
ENDBRANCH  27  28
ENDBRANCH  26  27
ENDBRANCH   1  26
TORSDOF 22
ENDMDL
