MODEL 1
REMARK VINA RESULT:     -11.6      0.000      0.000
REMARK SMILES Cc1ccccc1-c1c(Cl)ccc2c1C=C(C(=O)OCCOCCOCCOC(=O)c1ccc(-c3c4nc(c(-c5cc(S(=O)(=O)[O-])ccc5F)c5ccc([nH]5)c(-c5cc(S(=O)(=O)[O-])ccc5F)c5nc(c(-c6cc(S(=O)(=O)[O-])ccc6F)c6ccc3[nH]6)C=C5)C=C4)cc1)[C@@H](C(F)(F)F)O2
REMARK SMILES IDX 24 1 23 2 22 3 21 4 20 5 19 6 17 7 18 8 16 9 8 10 9 11 14 12
REMARK SMILES IDX 10 13 11 14 13 15 15 16 12 17 99 18 94 19 7 20 1 21 2 22
REMARK SMILES IDX 3 23 4 24 6 25 5 26 95 27 96 28 97 29 98 30 25 31 26 32
REMARK SMILES IDX 27 33 28 34 29 35 30 36 31 37 32 38 93 39 33 40 92 41 34 42
REMARK SMILES IDX 35 43 36 44 86 45 37 46 91 47 85 48 87 49 38 50 90 51 84 52
REMARK SMILES IDX 83 53 39 55 71 56 51 57 70 58 52 59 55 60 69 61 88 62 53 63
REMARK SMILES IDX 54 64 68 66 89 67 56 68 40 69 41 70 49 71 42 72 48 73 50 74
REMARK SMILES IDX 47 75 43 76 44 77 45 78 46 79 72 80 73 81 81 82 74 83 80 84
REMARK SMILES IDX 82 85 79 86 75 87 76 88 77 89 78 90 57 91 58 92 66 93 59 94
REMARK SMILES IDX 65 95 67 96 64 97 60 98 61 99 62 100 63 101
REMARK H PARENT 87 54 55 65
REMARK Flexibility Score: inf
ROOT
ATOM      1  C   UNL A   1      38.132  29.396  29.071  1.00  0.00     0.188 C 
ENDROOT
BRANCH   1   2
ATOM      2  C   UNL A   1      38.222  27.945  29.475  1.00  0.00     0.188 C 
BRANCH   2   3
ATOM      3  O   UNL A   1      39.344  27.102  29.215  1.00  0.00    -0.376 OA
BRANCH   3   4
ATOM      4  C   UNL A   1      39.654  26.184  28.164  1.00  0.00     0.202 C 
BRANCH   4   5
ATOM      5  C   UNL A   1      38.949  24.789  27.417  1.00  0.00     0.261 C 
BRANCH   5   6
ATOM      6  O   UNL A   1      37.478  24.388  26.526  1.00  0.00    -0.460 OA
BRANCH   6   7
ATOM      7  C   UNL A   1      36.821  23.376  25.770  1.00  0.00     0.338 C 
ATOM      8  O   UNL A   1      37.243  22.831  24.756  1.00  0.00    -0.246 OA
BRANCH   7   9
ATOM      9  C   UNL A   1      35.437  22.909  26.169  1.00  0.00     0.087 C 
ATOM     10  C   UNL A   1      33.268  25.464  24.428  1.00  0.00     0.012 A 
ATOM     11  C   UNL A   1      32.827  25.700  23.099  1.00  0.00     0.049 A 
ATOM     12  C   UNL A   1      33.919  24.231  24.726  1.00  0.00     0.027 A 
ATOM     13  Cl  UNL A   1      32.126  27.212  22.616  1.00  0.00    -0.084 Cl
ATOM     14  C   UNL A   1      32.975  24.731  22.104  1.00  0.00     0.025 A 
ATOM     15  C   UNL A   1      34.050  23.272  23.706  1.00  0.00     0.128 A 
ATOM     16  C   UNL A   1      34.573  23.954  26.053  1.00  0.00     0.028 C 
ATOM     17  C   UNL A   1      33.582  23.517  22.411  1.00  0.00     0.049 A 
ATOM     18  O   UNL A   1      34.689  22.074  23.894  1.00  0.00    -0.475 OA
ATOM     19  C   UNL A   1      35.009  21.722  25.263  1.00  0.00     0.316 C 
BRANCH  10  20
ATOM     20  C   UNL A   1      33.091  26.492  25.473  1.00  0.00    -0.013 A 
ATOM     21  C   UNL A   1      30.798  25.595  26.128  1.00  0.00     0.045 C 
ATOM     22  C   UNL A   1      31.912  26.594  26.236  1.00  0.00    -0.043 A 
ATOM     23  C   UNL A   1      31.757  27.651  27.145  1.00  0.00     0.004 A 
ATOM     24  C   UNL A   1      32.781  28.573  27.347  1.00  0.00     0.000 A 
ATOM     25  C   UNL A   1      34.123  27.418  25.712  1.00  0.00     0.009 A 
ATOM     26  C   UNL A   1      33.974  28.443  26.646  1.00  0.00     0.001 A 
ENDBRANCH  10  20
BRANCH  19  27
ATOM     27  C   UNL A   1      33.824  20.942  25.861  1.00  0.00     0.430 C 
ATOM     28  F   UNL A   1      33.832  19.638  25.491  1.00  0.00    -0.167 F 
ATOM     29  F   UNL A   1      33.866  20.959  27.219  1.00  0.00    -0.167 F 
ATOM     30  F   UNL A   1      32.615  21.443  25.505  1.00  0.00    -0.167 F 
ENDBRANCH  19  27
ENDBRANCH   7   9
ENDBRANCH   6   7
ENDBRANCH   5   6
ENDBRANCH   4   5
ENDBRANCH   3   4
ENDBRANCH   2   3
ENDBRANCH   1   2
BRANCH   1  31
ATOM     31  O   UNL A   1      36.783  29.764  28.847  1.00  0.00    -0.376 OA
BRANCH  31  32
ATOM     32  C   UNL A   1      36.647  30.697  27.790  1.00  0.00     0.202 C 
BRANCH  32  33
ATOM     33  C   UNL A   1      35.481  31.681  27.978  1.00  0.00     0.261 C 
BRANCH  33  34
ATOM     34  O   UNL A   1      35.938  33.049  28.011  1.00  0.00    -0.460 OA
BRANCH  34  35
ATOM     35  C   UNL A   1      35.929  33.662  29.244  1.00  0.00     0.338 C 
ATOM     36  O   UNL A   1      34.911  34.060  29.791  1.00  0.00    -0.246 OA
BRANCH  35  37
ATOM     37  C   UNL A   1      37.293  33.613  29.845  1.00  0.00     0.060 A 
ATOM     38  C   UNL A   1      38.471  34.204  29.409  1.00  0.00     0.016 A 
ATOM     39  C   UNL A   1      37.447  32.796  30.904  1.00  0.00     0.016 A 
ATOM     40  C   UNL A   1      39.796  33.724  29.831  1.00  0.00     0.010 A 
ATOM     41  C   UNL A   1      38.733  32.318  31.199  1.00  0.00     0.010 A 
ATOM     42  C   UNL A   1      40.015  32.580  30.628  1.00  0.00    -0.014 A 
BRANCH  42  43
ATOM     43  C   UNL A   1      41.519  31.660  30.609  1.00  0.00     0.031 A 
ATOM     44  C   UNL A   1      42.226  30.445  29.574  1.00  0.00     0.074 A 
ATOM     45  C   UNL A   1      42.478  32.060  31.509  1.00  0.00     0.049 A 
ATOM     46  N   UNL A   1      43.482  30.041  29.633  1.00  0.00    -0.248 NA
ATOM     47  C   UNL A   1      41.689  29.642  28.408  1.00  0.00     0.031 C 
ATOM     48  C   UNL A   1      43.864  31.601  31.726  1.00  0.00     0.029 A 
ATOM     49  N   UNL A   1      42.343  33.000  32.534  1.00  0.00    -0.354 N 
ATOM     50  C   UNL A   1      43.682  29.026  28.713  1.00  0.00     0.074 A 
ATOM     51  C   UNL A   1      42.736  29.246  27.693  1.00  0.00     0.031 C 
ATOM     52  C   UNL A   1      44.287  31.963  32.945  1.00  0.00     0.029 A 
ATOM     53  C   UNL A   1      43.189  32.634  33.585  1.00  0.00     0.049 A 
ATOM     54  H   UNL A   1      41.752  33.786  32.519  1.00  0.00     0.167 HD
ATOM     55  C   UNL A   1      44.200  27.794  28.982  1.00  0.00     0.034 A 
ATOM     56  C   UNL A   1      42.637  32.312  34.781  1.00  0.00     0.034 A 
ATOM     57  C   UNL A   1      44.608  27.698  30.360  1.00  0.00     0.049 A 
ATOM     58  C   UNL A   1      42.769  30.823  34.991  1.00  0.00     0.074 A 
ATOM     59  C   UNL A   1      45.790  28.034  30.984  1.00  0.00     0.029 A 
ATOM     60  N   UNL A   1      43.638  27.572  31.361  1.00  0.00    -0.354 N 
ATOM     61  N   UNL A   1      42.886  29.935  34.034  1.00  0.00    -0.248 NA
ATOM     62  C   UNL A   1      42.916  30.255  36.321  1.00  0.00     0.031 C 
ATOM     63  C   UNL A   1      45.521  28.158  32.369  1.00  0.00     0.029 A 
ATOM     64  C   UNL A   1      44.193  27.829  32.602  1.00  0.00     0.049 A 
ATOM     65  H   UNL A   1      42.695  27.335  31.206  1.00  0.00     0.167 HD
ATOM     66  C   UNL A   1      43.178  28.716  34.589  1.00  0.00     0.074 A 
ATOM     67  C   UNL A   1      43.176  28.973  36.023  1.00  0.00     0.031 C 
ATOM     68  C   UNL A   1      43.492  27.596  33.864  1.00  0.00     0.034 A 
BRANCH  55  69
ATOM     69  C   UNL A   1      44.349  26.723  27.903  1.00  0.00     0.023 A 
ATOM     70  C   UNL A   1      43.505  25.603  27.936  1.00  0.00     0.031 A 
ATOM     71  C   UNL A   1      45.365  26.681  26.911  1.00  0.00     0.131 A 
ATOM     72  C   UNL A   1      43.743  24.488  27.097  1.00  0.00     0.055 A 
ATOM     73  C   UNL A   1      45.629  25.561  26.111  1.00  0.00     0.041 A 
ATOM     74  F   UNL A   1      46.189  27.715  26.696  1.00  0.00    -0.206 F 
ATOM     75  C   UNL A   1      44.826  24.443  26.217  1.00  0.00     0.022 A 
BRANCH  72  76
ATOM     76  S   UNL A   1      42.654  23.041  27.199  1.00  0.00     0.124 S 
ATOM     77  O   UNL A   1      41.642  23.333  26.190  1.00  0.00    -0.237 OA
ATOM     78  O   UNL A   1      43.574  21.951  26.899  1.00  0.00    -0.237 OA
ATOM     79  O   UNL A   1      42.169  23.078  28.580  1.00  0.00    -0.744 OA
ENDBRANCH  72  76
ENDBRANCH  55  69
BRANCH  56  80
ATOM     80  C   UNL A   1      41.513  33.228  35.156  1.00  0.00     0.023 A 
ATOM     81  C   UNL A   1      40.199  32.774  34.842  1.00  0.00     0.031 A 
ATOM     82  C   UNL A   1      41.625  34.290  36.057  1.00  0.00     0.131 A 
ATOM     83  C   UNL A   1      39.083  33.239  35.546  1.00  0.00     0.055 A 
ATOM     84  C   UNL A   1      40.488  34.826  36.690  1.00  0.00     0.041 A 
ATOM     85  F   UNL A   1      42.829  34.735  36.444  1.00  0.00    -0.206 F 
ATOM     86  C   UNL A   1      39.218  34.285  36.456  1.00  0.00     0.022 A 
BRANCH  83  87
ATOM     87  S   UNL A   1      37.542  32.257  35.526  1.00  0.00     0.124 S 
ATOM     88  O   UNL A   1      37.468  31.775  36.899  1.00  0.00    -0.237 OA
ATOM     89  O   UNL A   1      36.524  33.229  35.133  1.00  0.00    -0.237 OA
ATOM     90  O   UNL A   1      37.813  31.244  34.509  1.00  0.00    -0.744 OA
ENDBRANCH  83  87
ENDBRANCH  56  80
BRANCH  68  91
ATOM     91  C   UNL A   1      43.468  26.189  34.429  1.00  0.00     0.023 A 
ATOM     92  C   UNL A   1      44.628  25.424  34.602  1.00  0.00     0.031 A 
ATOM     93  C   UNL A   1      42.271  25.569  34.862  1.00  0.00     0.131 A 
ATOM     94  C   UNL A   1      44.574  24.078  34.988  1.00  0.00     0.055 A 
ATOM     95  C   UNL A   1      42.224  24.250  35.329  1.00  0.00     0.041 A 
ATOM     96  F   UNL A   1      41.100  26.222  34.881  1.00  0.00    -0.206 F 
ATOM     97  C   UNL A   1      43.376  23.481  35.359  1.00  0.00     0.022 A 
BRANCH  94  98
ATOM     98  S   UNL A   1      46.111  23.130  34.910  1.00  0.00     0.124 S 
ATOM     99  O   UNL A   1      45.663  21.882  34.297  1.00  0.00    -0.237 OA
ATOM    100  O   UNL A   1      46.953  23.976  34.069  1.00  0.00    -0.237 OA
ATOM    101  O   UNL A   1      46.527  23.026  36.306  1.00  0.00    -0.744 OA
ENDBRANCH  94  98
ENDBRANCH  68  91
ENDBRANCH  42  43
ENDBRANCH  35  37
ENDBRANCH  34  35
ENDBRANCH  33  34
ENDBRANCH  32  33
ENDBRANCH  31  32
ENDBRANCH   1  31
TORSDOF 22
ENDMDL
MODEL 2
REMARK VINA RESULT:     -11.0      2.073      3.847
REMARK SMILES Cc1ccccc1-c1c(Cl)ccc2c1C=C(C(=O)OCCOCCOCCOC(=O)c1ccc(-c3c4nc(c(-c5cc(S(=O)(=O)[O-])ccc5F)c5ccc([nH]5)c(-c5cc(S(=O)(=O)[O-])ccc5F)c5nc(c(-c6cc(S(=O)(=O)[O-])ccc6F)c6ccc3[nH]6)C=C5)C=C4)cc1)[C@@H](C(F)(F)F)O2
REMARK SMILES IDX 24 1 23 2 22 3 21 4 20 5 19 6 17 7 18 8 16 9 8 10 9 11 14 12
REMARK SMILES IDX 10 13 11 14 13 15 15 16 12 17 99 18 94 19 7 20 1 21 2 22
REMARK SMILES IDX 3 23 4 24 6 25 5 26 95 27 96 28 97 29 98 30 25 31 26 32
REMARK SMILES IDX 27 33 28 34 29 35 30 36 31 37 32 38 93 39 33 40 92 41 34 42
REMARK SMILES IDX 35 43 36 44 86 45 37 46 91 47 85 48 87 49 38 50 90 51 84 52
REMARK SMILES IDX 83 53 39 55 71 56 51 57 70 58 52 59 55 60 69 61 88 62 53 63
REMARK SMILES IDX 54 64 68 66 89 67 56 68 40 69 41 70 49 71 42 72 48 73 50 74
REMARK SMILES IDX 47 75 43 76 44 77 45 78 46 79 72 80 73 81 81 82 74 83 80 84
REMARK SMILES IDX 82 85 79 86 75 87 76 88 77 89 78 90 57 91 58 92 66 93 59 94
REMARK SMILES IDX 65 95 67 96 64 97 60 98 61 99 62 100 63 101
REMARK H PARENT 87 54 55 65
REMARK Flexibility Score: inf
ROOT
ATOM      1  C   UNL A   1      33.113  30.051  26.055  1.00  0.00     0.188 C 
ENDROOT
BRANCH   1   2
ATOM      2  C   UNL A   1      32.044  29.026  25.762  1.00  0.00     0.188 C 
BRANCH   2   3
ATOM      3  O   UNL A   1      31.807  27.859  26.549  1.00  0.00    -0.376 OA
BRANCH   3   4
ATOM      4  C   UNL A   1      31.116  26.633  26.296  1.00  0.00     0.202 C 
BRANCH   4   5
ATOM      5  C   UNL A   1      31.366  24.936  26.536  1.00  0.00     0.261 C 
BRANCH   5   6
ATOM      6  O   UNL A   1      32.352  23.894  27.566  1.00  0.00    -0.460 OA
BRANCH   6   7
ATOM      7  C   UNL A   1      32.972  22.616  27.666  1.00  0.00     0.338 C 
ATOM      8  O   UNL A   1      32.563  21.654  28.307  1.00  0.00    -0.246 OA
BRANCH   7   9
ATOM      9  C   UNL A   1      34.297  22.360  26.979  1.00  0.00     0.087 C 
ATOM     10  C   UNL A   1      33.227  20.146  24.114  1.00  0.00     0.012 A 
ATOM     11  C   UNL A   1      32.590  20.330  22.859  1.00  0.00     0.049 A 
ATOM     12  C   UNL A   1      33.667  21.294  24.835  1.00  0.00     0.027 A 
ATOM     13  Cl  UNL A   1      31.923  19.002  21.960  1.00  0.00    -0.084 Cl
ATOM     14  C   UNL A   1      32.436  21.601  22.304  1.00  0.00     0.025 A 
ATOM     15  C   UNL A   1      33.503  22.563  24.250  1.00  0.00     0.128 A 
ATOM     16  C   UNL A   1      34.195  21.221  26.243  1.00  0.00     0.028 C 
ATOM     17  C   UNL A   1      32.898  22.715  22.999  1.00  0.00     0.049 A 
ATOM     18  O   UNL A   1      33.867  23.723  24.884  1.00  0.00    -0.475 OA
ATOM     19  C   UNL A   1      34.662  23.578  26.087  1.00  0.00     0.316 C 
BRANCH  10  20
ATOM     20  C   UNL A   1      33.397  18.792  24.681  1.00  0.00    -0.013 A 
ATOM     21  C   UNL A   1      35.917  18.828  24.309  1.00  0.00     0.045 C 
ATOM     22  C   UNL A   1      34.646  18.146  24.724  1.00  0.00    -0.043 A 
ATOM     23  C   UNL A   1      34.733  16.822  25.181  1.00  0.00     0.004 A 
ATOM     24  C   UNL A   1      33.604  16.154  25.647  1.00  0.00     0.000 A 
ATOM     25  C   UNL A   1      32.273  18.109  25.182  1.00  0.00     0.009 A 
ATOM     26  C   UNL A   1      32.377  16.806  25.669  1.00  0.00     0.001 A 
ENDBRANCH  10  20
BRANCH  19  27
ATOM     27  C   UNL A   1      36.152  23.575  25.694  1.00  0.00     0.430 C 
ATOM     28  F   UNL A   1      36.775  22.429  26.060  1.00  0.00    -0.167 F 
ATOM     29  F   UNL A   1      36.299  23.682  24.347  1.00  0.00    -0.167 F 
ATOM     30  F   UNL A   1      36.855  24.597  26.241  1.00  0.00    -0.167 F 
ENDBRANCH  19  27
ENDBRANCH   7   9
ENDBRANCH   6   7
ENDBRANCH   5   6
ENDBRANCH   4   5
ENDBRANCH   3   4
ENDBRANCH   2   3
ENDBRANCH   1   2
BRANCH   1  31
ATOM     31  O   UNL A   1      32.805  30.762  27.239  1.00  0.00    -0.376 OA
BRANCH  31  32
ATOM     32  C   UNL A   1      33.924  31.461  27.754  1.00  0.00     0.202 C 
BRANCH  32  33
ATOM     33  C   UNL A   1      33.618  32.916  28.147  1.00  0.00     0.261 C 
BRANCH  33  34
ATOM     34  O   UNL A   1      34.750  33.544  28.786  1.00  0.00    -0.460 OA
BRANCH  34  35
ATOM     35  C   UNL A   1      35.042  33.116  30.061  1.00  0.00     0.338 C 
ATOM     36  O   UNL A   1      34.211  32.640  30.819  1.00  0.00    -0.246 OA
BRANCH  35  37
ATOM     37  C   UNL A   1      36.515  33.179  30.292  1.00  0.00     0.060 A 
ATOM     38  C   UNL A   1      37.523  33.614  29.443  1.00  0.00     0.016 A 
ATOM     39  C   UNL A   1      36.959  32.640  31.443  1.00  0.00     0.016 A 
ATOM     40  C   UNL A   1      38.928  33.217  29.621  1.00  0.00     0.010 A 
ATOM     41  C   UNL A   1      38.295  32.215  31.510  1.00  0.00     0.010 A 
ATOM     42  C   UNL A   1      39.382  32.297  30.588  1.00  0.00    -0.014 A 
BRANCH  42  43
ATOM     43  C   UNL A   1      40.866  31.360  30.414  1.00  0.00     0.031 A 
ATOM     44  C   UNL A   1      41.414  30.072  29.371  1.00  0.00     0.074 A 
ATOM     45  C   UNL A   1      41.946  31.808  31.137  1.00  0.00     0.049 A 
ATOM     46  N   UNL A   1      42.665  29.659  29.275  1.00  0.00    -0.248 NA
ATOM     47  C   UNL A   1      40.713  29.200  28.351  1.00  0.00     0.031 C 
ATOM     48  C   UNL A   1      43.348  31.348  31.182  1.00  0.00     0.029 A 
ATOM     49  N   UNL A   1      41.963  32.815  32.106  1.00  0.00    -0.354 N 
ATOM     50  C   UNL A   1      42.727  28.583  28.405  1.00  0.00     0.074 A 
ATOM     51  C   UNL A   1      41.644  28.746  27.520  1.00  0.00     0.031 C 
ATOM     52  C   UNL A   1      43.944  31.786  32.300  1.00  0.00     0.029 A 
ATOM     53  C   UNL A   1      42.951  32.510  33.046  1.00  0.00     0.049 A 
ATOM     54  H   UNL A   1      41.376  33.605  32.124  1.00  0.00     0.167 HD
ATOM     55  C   UNL A   1      43.277  27.366  28.678  1.00  0.00     0.034 A 
ATOM     56  C   UNL A   1      42.577  32.273  34.328  1.00  0.00     0.034 A 
ATOM     57  C   UNL A   1      43.880  27.357  29.986  1.00  0.00     0.049 A 
ATOM     58  C   UNL A   1      42.737  30.800  34.616  1.00  0.00     0.074 A 
ATOM     59  C   UNL A   1      45.141  27.720  30.410  1.00  0.00     0.029 A 
ATOM     60  N   UNL A   1      43.065  27.308  31.123  1.00  0.00    -0.354 N 
ATOM     61  N   UNL A   1      42.712  29.850  33.713  1.00  0.00    -0.248 NA
ATOM     62  C   UNL A   1      43.073  30.319  35.945  1.00  0.00     0.031 C 
ATOM     63  C   UNL A   1      45.076  27.937  31.808  1.00  0.00     0.029 A 
ATOM     64  C   UNL A   1      43.795  27.639  32.251  1.00  0.00     0.049 A 
ATOM     65  H   UNL A   1      42.110  27.071  31.122  1.00  0.00     0.167 HD
ATOM     66  C   UNL A   1      43.079  28.666  34.300  1.00  0.00     0.074 A 
ATOM     67  C   UNL A   1      43.285  29.017  35.699  1.00  0.00     0.031 C 
ATOM     68  C   UNL A   1      43.284  27.498  33.614  1.00  0.00     0.034 A 
BRANCH  55  69
ATOM     69  C   UNL A   1      43.267  26.225  27.663  1.00  0.00     0.023 A 
ATOM     70  C   UNL A   1      42.298  25.217  27.783  1.00  0.00     0.031 A 
ATOM     71  C   UNL A   1      44.241  26.005  26.652  1.00  0.00     0.131 A 
ATOM     72  C   UNL A   1      42.378  24.036  27.008  1.00  0.00     0.055 A 
ATOM     73  C   UNL A   1      44.347  24.817  25.916  1.00  0.00     0.041 A 
ATOM     74  F   UNL A   1      45.174  26.920  26.357  1.00  0.00    -0.206 F 
ATOM     75  C   UNL A   1      43.421  23.811  26.108  1.00  0.00     0.022 A 
BRANCH  72  76
ATOM     76  S   UNL A   1      41.130  22.737  27.222  1.00  0.00     0.124 S 
ATOM     77  O   UNL A   1      39.906  23.504  27.423  1.00  0.00    -0.237 OA
ATOM     78  O   UNL A   1      41.238  22.005  25.966  1.00  0.00    -0.237 OA
ATOM     79  O   UNL A   1      41.596  22.010  28.404  1.00  0.00    -0.744 OA
ENDBRANCH  72  76
ENDBRANCH  55  69
BRANCH  56  80
ATOM     80  C   UNL A   1      41.521  33.224  34.800  1.00  0.00     0.023 A 
ATOM     81  C   UNL A   1      40.244  32.657  35.081  1.00  0.00     0.031 A 
ATOM     82  C   UNL A   1      41.773  34.508  35.289  1.00  0.00     0.131 A 
ATOM     83  C   UNL A   1      39.356  33.276  35.968  1.00  0.00     0.055 A 
ATOM     84  C   UNL A   1      40.835  35.172  36.099  1.00  0.00     0.041 A 
ATOM     85  F   UNL A   1      42.971  35.084  35.112  1.00  0.00    -0.206 F 
ATOM     86  C   UNL A   1      39.635  34.547  36.463  1.00  0.00     0.022 A 
BRANCH  83  87
ATOM     87  S   UNL A   1      38.025  32.285  36.734  1.00  0.00     0.124 S 
ATOM     88  O   UNL A   1      38.417  32.277  38.137  1.00  0.00    -0.237 OA
ATOM     89  O   UNL A   1      36.813  33.036  36.412  1.00  0.00    -0.237 OA
ATOM     90  O   UNL A   1      38.127  31.005  36.036  1.00  0.00    -0.744 OA
ENDBRANCH  83  87
ENDBRANCH  56  80
BRANCH  68  91
ATOM     91  C   UNL A   1      43.339  26.131  34.269  1.00  0.00     0.023 A 
ATOM     92  C   UNL A   1      44.525  25.395  34.382  1.00  0.00     0.031 A 
ATOM     93  C   UNL A   1      42.200  25.526  34.852  1.00  0.00     0.131 A 
ATOM     94  C   UNL A   1      44.533  24.076  34.858  1.00  0.00     0.055 A 
ATOM     95  C   UNL A   1      42.222  24.240  35.406  1.00  0.00     0.041 A 
ATOM     96  F   UNL A   1      41.023  26.163  34.938  1.00  0.00    -0.206 F 
ATOM     97  C   UNL A   1      43.387  23.490  35.378  1.00  0.00     0.022 A 
BRANCH  94  98
ATOM     98  S   UNL A   1      46.075  23.146  34.698  1.00  0.00     0.124 S 
ATOM     99  O   UNL A   1      46.887  24.050  33.887  1.00  0.00    -0.237 OA
ATOM    100  O   UNL A   1      46.494  23.002  36.089  1.00  0.00    -0.237 OA
ATOM    101  O   UNL A   1      45.668  21.910  34.036  1.00  0.00    -0.744 OA
ENDBRANCH  94  98
ENDBRANCH  68  91
ENDBRANCH  42  43
ENDBRANCH  35  37
ENDBRANCH  34  35
ENDBRANCH  33  34
ENDBRANCH  32  33
ENDBRANCH  31  32
ENDBRANCH   1  31
TORSDOF 22
ENDMDL
MODEL 3
REMARK VINA RESULT:     -10.8      2.543      4.242
REMARK SMILES Cc1ccccc1-c1c(Cl)ccc2c1C=C(C(=O)OCCOCCOCCOC(=O)c1ccc(-c3c4nc(c(-c5cc(S(=O)(=O)[O-])ccc5F)c5ccc([nH]5)c(-c5cc(S(=O)(=O)[O-])ccc5F)c5nc(c(-c6cc(S(=O)(=O)[O-])ccc6F)c6ccc3[nH]6)C=C5)C=C4)cc1)[C@@H](C(F)(F)F)O2
REMARK SMILES IDX 24 1 23 2 22 3 21 4 20 5 19 6 17 7 18 8 16 9 8 10 9 11 14 12
REMARK SMILES IDX 10 13 11 14 13 15 15 16 12 17 99 18 94 19 7 20 1 21 2 22
REMARK SMILES IDX 3 23 4 24 6 25 5 26 95 27 96 28 97 29 98 30 25 31 26 32
REMARK SMILES IDX 27 33 28 34 29 35 30 36 31 37 32 38 93 39 33 40 92 41 34 42
REMARK SMILES IDX 35 43 36 44 86 45 37 46 91 47 85 48 87 49 38 50 90 51 84 52
REMARK SMILES IDX 83 53 39 55 71 56 51 57 70 58 52 59 55 60 69 61 88 62 53 63
REMARK SMILES IDX 54 64 68 66 89 67 56 68 40 69 41 70 49 71 42 72 48 73 50 74
REMARK SMILES IDX 47 75 43 76 44 77 45 78 46 79 72 80 73 81 81 82 74 83 80 84
REMARK SMILES IDX 82 85 79 86 75 87 76 88 77 89 78 90 57 91 58 92 66 93 59 94
REMARK SMILES IDX 65 95 67 96 64 97 60 98 61 99 62 100 63 101
REMARK H PARENT 87 54 55 65
REMARK Flexibility Score: inf
ROOT
ATOM      1  C   UNL A   1      31.023  28.941  24.163  1.00  0.00     0.188 C 
ENDROOT
BRANCH   1   2
ATOM      2  C   UNL A   1      31.305  27.492  24.472  1.00  0.00     0.188 C 
BRANCH   2   3
ATOM      3  O   UNL A   1      31.093  26.415  23.560  1.00  0.00    -0.376 OA
BRANCH   3   4
ATOM      4  C   UNL A   1      31.958  25.698  22.675  1.00  0.00     0.202 C 
BRANCH   4   5
ATOM      5  C   UNL A   1      33.655  25.422  22.470  1.00  0.00     0.261 C 
BRANCH   5   6
ATOM      6  O   UNL A   1      34.779  24.062  22.567  1.00  0.00    -0.460 OA
BRANCH   6   7
ATOM      7  C   UNL A   1      36.079  23.661  22.984  1.00  0.00     0.338 C 
ATOM      8  O   UNL A   1      37.024  23.376  22.257  1.00  0.00    -0.246 OA
BRANCH   7   9
ATOM      9  C   UNL A   1      36.387  23.501  24.458  1.00  0.00     0.087 C 
ATOM     10  C   UNL A   1      33.910  20.827  25.442  1.00  0.00     0.012 A 
ATOM     11  C   UNL A   1      33.806  19.419  25.290  1.00  0.00     0.049 A 
ATOM     12  C   UNL A   1      35.142  21.463  25.114  1.00  0.00     0.027 A 
ATOM     13  Cl  UNL A   1      32.316  18.570  25.559  1.00  0.00    -0.084 Cl
ATOM     14  C   UNL A   1      34.898  18.652  24.877  1.00  0.00     0.025 A 
ATOM     15  C   UNL A   1      36.227  20.666  24.704  1.00  0.00     0.128 A 
ATOM     16  C   UNL A   1      35.302  22.959  25.075  1.00  0.00     0.028 C 
ATOM     17  C   UNL A   1      36.108  19.278  24.590  1.00  0.00     0.049 A 
ATOM     18  O   UNL A   1      37.437  21.195  24.339  1.00  0.00    -0.475 OA
ATOM     19  C   UNL A   1      37.641  22.600  24.630  1.00  0.00     0.316 C 
BRANCH  10  20
ATOM     20  C   UNL A   1      32.750  21.621  25.895  1.00  0.00    -0.013 A 
ATOM     21  C   UNL A   1      31.882  21.921  23.519  1.00  0.00     0.045 C 
ATOM     22  C   UNL A   1      31.826  22.185  24.995  1.00  0.00    -0.043 A 
ATOM     23  C   UNL A   1      30.800  23.014  25.473  1.00  0.00     0.004 A 
ATOM     24  C   UNL A   1      30.649  23.243  26.839  1.00  0.00     0.000 A 
ATOM     25  C   UNL A   1      32.562  21.844  27.272  1.00  0.00     0.009 A 
ATOM     26  C   UNL A   1      31.516  22.639  27.740  1.00  0.00     0.001 A 
ENDBRANCH  10  20
BRANCH  19  27
ATOM     27  C   UNL A   1      38.250  22.727  26.039  1.00  0.00     0.430 C 
ATOM     28  F   UNL A   1      37.561  23.596  26.817  1.00  0.00    -0.167 F 
ATOM     29  F   UNL A   1      38.233  21.532  26.685  1.00  0.00    -0.167 F 
ATOM     30  F   UNL A   1      39.540  23.144  26.032  1.00  0.00    -0.167 F 
ENDBRANCH  19  27
ENDBRANCH   7   9
ENDBRANCH   6   7
ENDBRANCH   5   6
ENDBRANCH   4   5
ENDBRANCH   3   4
ENDBRANCH   2   3
ENDBRANCH   1   2
BRANCH   1  31
ATOM     31  O   UNL A   1      31.722  29.783  25.061  1.00  0.00    -0.376 OA
BRANCH  31  32
ATOM     32  C   UNL A   1      32.839  29.140  25.647  1.00  0.00     0.202 C 
BRANCH  32  33
ATOM     33  C   UNL A   1      33.102  29.558  27.102  1.00  0.00     0.261 C 
BRANCH  33  34
ATOM     34  O   UNL A   1      34.512  29.723  27.363  1.00  0.00    -0.460 OA
BRANCH  34  35
ATOM     35  C   UNL A   1      34.871  30.847  28.072  1.00  0.00     0.338 C 
ATOM     36  O   UNL A   1      34.114  31.784  28.277  1.00  0.00    -0.246 OA
BRANCH  35  37
ATOM     37  C   UNL A   1      36.230  30.664  28.660  1.00  0.00     0.060 A 
ATOM     38  C   UNL A   1      37.357  31.465  28.543  1.00  0.00     0.016 A 
ATOM     39  C   UNL A   1      36.443  29.507  29.313  1.00  0.00     0.016 A 
ATOM     40  C   UNL A   1      38.714  30.957  28.795  1.00  0.00     0.010 A 
ATOM     41  C   UNL A   1      37.762  29.048  29.448  1.00  0.00     0.010 A 
ATOM     42  C   UNL A   1      39.022  29.610  29.081  1.00  0.00    -0.014 A 
BRANCH  42  43
ATOM     43  C   UNL A   1      40.599  28.888  28.762  1.00  0.00     0.031 A 
ATOM     44  C   UNL A   1      41.181  27.510  27.863  1.00  0.00     0.074 A 
ATOM     45  C   UNL A   1      41.689  29.629  29.154  1.00  0.00     0.049 A 
ATOM     46  N   UNL A   1      42.449  27.275  27.578  1.00  0.00    -0.248 NA
ATOM     47  C   UNL A   1      40.484  26.354  27.177  1.00  0.00     0.031 C 
ATOM     48  C   UNL A   1      43.137  29.400  28.982  1.00  0.00     0.029 A 
ATOM     49  N   UNL A   1      41.691  30.803  29.911  1.00  0.00    -0.354 N 
ATOM     50  C   UNL A   1      42.554  26.066  26.911  1.00  0.00     0.074 A 
ATOM     51  C   UNL A   1      41.320  25.883  26.259  1.00  0.00     0.031 C 
ATOM     52  C   UNL A   1      43.831  30.140  29.858  1.00  0.00     0.029 A 
ATOM     53  C   UNL A   1      42.870  30.846  30.661  1.00  0.00     0.049 A 
ATOM     54  H   UNL A   1      40.981  31.485  29.917  1.00  0.00     0.167 HD
ATOM     55  C   UNL A   1      43.360  25.025  27.267  1.00  0.00     0.034 A 
ATOM     56  C   UNL A   1      42.780  30.823  32.014  1.00  0.00     0.034 A 
ATOM     57  C   UNL A   1      44.177  25.372  28.401  1.00  0.00     0.049 A 
ATOM     58  C   UNL A   1      43.259  29.479  32.509  1.00  0.00     0.074 A 
ATOM     59  C   UNL A   1      45.404  25.996  28.481  1.00  0.00     0.029 A 
ATOM     60  N   UNL A   1      43.601  25.436  29.675  1.00  0.00    -0.354 N 
ATOM     61  N   UNL A   1      43.250  28.372  31.808  1.00  0.00    -0.248 NA
ATOM     62  C   UNL A   1      43.910  29.335  33.801  1.00  0.00     0.031 C 
ATOM     63  C   UNL A   1      45.549  26.482  29.804  1.00  0.00     0.029 A 
ATOM     64  C   UNL A   1      44.446  26.095  30.551  1.00  0.00     0.049 A 
ATOM     65  H   UNL A   1      42.721  25.066  29.914  1.00  0.00     0.167 HD
ATOM     66  C   UNL A   1      43.928  27.401  32.498  1.00  0.00     0.074 A 
ATOM     67  C   UNL A   1      44.312  28.056  33.742  1.00  0.00     0.031 C 
ATOM     68  C   UNL A   1      44.220  26.161  31.994  1.00  0.00     0.034 A 
BRANCH  55  69
ATOM     69  C   UNL A   1      43.381  23.712  26.486  1.00  0.00     0.023 A 
ATOM     70  C   UNL A   1      42.569  22.652  26.918  1.00  0.00     0.031 A 
ATOM     71  C   UNL A   1      44.253  23.401  25.409  1.00  0.00     0.131 A 
ATOM     72  C   UNL A   1      42.711  21.356  26.367  1.00  0.00     0.055 A 
ATOM     73  C   UNL A   1      44.426  22.109  24.894  1.00  0.00     0.041 A 
ATOM     74  F   UNL A   1      45.021  24.332  24.828  1.00  0.00    -0.206 F 
ATOM     75  C   UNL A   1      43.665  21.070  25.389  1.00  0.00     0.022 A 
BRANCH  72  76
ATOM     76  S   UNL A   1      41.673  20.002  26.982  1.00  0.00     0.124 S 
ATOM     77  O   UNL A   1      41.223  19.363  25.751  1.00  0.00    -0.237 OA
ATOM     78  O   UNL A   1      42.615  19.247  27.798  1.00  0.00    -0.237 OA
ATOM     79  O   UNL A   1      40.622  20.693  27.731  1.00  0.00    -0.744 OA
ENDBRANCH  72  76
ENDBRANCH  55  69
BRANCH  56  80
ATOM     80  C   UNL A   1      41.667  31.683  32.527  1.00  0.00     0.023 A 
ATOM     81  C   UNL A   1      40.556  31.000  33.100  1.00  0.00     0.031 A 
ATOM     82  C   UNL A   1      41.780  33.052  32.786  1.00  0.00     0.131 A 
ATOM     83  C   UNL A   1      39.723  31.625  34.035  1.00  0.00     0.055 A 
ATOM     84  C   UNL A   1      40.879  33.702  33.649  1.00  0.00     0.041 A 
ATOM     85  F   UNL A   1      42.828  33.751  32.328  1.00  0.00    -0.206 F 
ATOM     86  C   UNL A   1      39.864  32.985  34.296  1.00  0.00     0.022 A 
BRANCH  83  87
ATOM     87  S   UNL A   1      38.700  30.597  35.147  1.00  0.00     0.124 S 
ATOM     88  O   UNL A   1      37.763  31.572  35.689  1.00  0.00    -0.237 OA
ATOM     89  O   UNL A   1      38.130  29.591  34.253  1.00  0.00    -0.237 OA
ATOM     90  O   UNL A   1      39.679  30.061  36.089  1.00  0.00    -0.744 OA
ENDBRANCH  83  87
ENDBRANCH  56  80
BRANCH  68  91
ATOM     91  C   UNL A   1      44.643  24.979  32.847  1.00  0.00     0.023 A 
ATOM     92  C   UNL A   1      45.528  25.105  33.925  1.00  0.00     0.031 A 
ATOM     93  C   UNL A   1      44.136  23.676  32.636  1.00  0.00     0.131 A 
ATOM     94  C   UNL A   1      46.020  23.985  34.610  1.00  0.00     0.055 A 
ATOM     95  C   UNL A   1      44.562  22.565  33.375  1.00  0.00     0.041 A 
ATOM     96  F   UNL A   1      43.184  23.422  31.727  1.00  0.00    -0.206 F 
ATOM     97  C   UNL A   1      45.539  22.709  34.346  1.00  0.00     0.022 A 
BRANCH  94  98
ATOM     98  S   UNL A   1      47.357  24.260  35.795  1.00  0.00     0.124 S 
ATOM     99  O   UNL A   1      48.515  24.393  34.915  1.00  0.00    -0.237 OA
ATOM    100  O   UNL A   1      46.931  25.486  36.463  1.00  0.00    -0.237 OA
ATOM    101  O   UNL A   1      47.339  23.057  36.624  1.00  0.00    -0.744 OA
ENDBRANCH  94  98
ENDBRANCH  68  91
ENDBRANCH  42  43
ENDBRANCH  35  37
ENDBRANCH  34  35
ENDBRANCH  33  34
ENDBRANCH  32  33
ENDBRANCH  31  32
ENDBRANCH   1  31
TORSDOF 22
ENDMDL
