MODEL 1
REMARK VINA RESULT:      -9.5      0.000      0.000
REMARK SMILES C[C@H](NC(=O)NCCc1ccccc1F)C(=O)OCCOCCOCCOC(=O)c1ccc(-c2c3nc(c(-c4cc(S(=O)(=O)[O-])ccc4F)c4ccc([nH]4)c(-c4cc(S(=O)(=O)[O-])ccc4F)c4nc(c(-c5cc(S(=O)(=O)[O-])ccc5F)c5ccc2[nH]5)C=C4)C=C3)cc1
REMARK SMILES IDX 22 1 21 2 20 3 19 4 18 5 16 6 17 7 2 8 1 9 3 10 4 11 5 13
REMARK SMILES IDX 6 14 7 16 8 17 9 18 10 19 14 20 11 21 13 22 15 23 12 24
REMARK SMILES IDX 23 25 24 26 25 27 26 28 27 29 28 30 29 31 30 32 31 33 92 34
REMARK SMILES IDX 32 35 91 36 33 37 34 38 35 39 85 40 36 41 90 42 84 43 86 44
REMARK SMILES IDX 37 45 89 46 83 47 82 48 38 50 70 51 50 52 69 53 51 54 54 55
REMARK SMILES IDX 68 56 87 57 52 58 53 59 67 61 88 62 55 63 39 64 40 65 48 66
REMARK SMILES IDX 41 67 47 68 49 69 46 70 42 71 43 72 44 73 45 74 71 75 72 76
REMARK SMILES IDX 80 77 73 78 79 79 81 80 78 81 74 82 75 83 76 84 77 85 56 86
REMARK SMILES IDX 57 87 65 88 58 89 64 90 66 91 63 92 59 93 60 94 61 95 62 96
REMARK H PARENT 3 12 6 15 86 49 54 60
REMARK Flexibility Score: inf
ROOT
ATOM      1  C   UNL A   1      33.357  28.430  25.116  1.00  0.00     0.188 C 
ENDROOT
BRANCH   1   2
ATOM      2  O   UNL A   1      32.515  27.328  25.443  1.00  0.00    -0.376 OA
BRANCH   2   3
ATOM      3  C   UNL A   1      31.167  27.351  24.995  1.00  0.00     0.202 C 
BRANCH   3   4
ATOM      4  C   UNL A   1      30.911  27.413  23.486  1.00  0.00     0.261 C 
BRANCH   4   5
ATOM      5  O   UNL A   1      31.542  26.359  22.736  1.00  0.00    -0.462 OA
BRANCH   5   6
ATOM      6  C   UNL A   1      31.117  25.100  23.047  1.00  0.00     0.328 C 
ATOM      7  O   UNL A   1      29.944  24.806  23.263  1.00  0.00    -0.250 OA
BRANCH   6   8
ATOM      8  C   UNL A   1      32.263  24.093  23.251  1.00  0.00     0.190 C 
ATOM      9  C   UNL A   1      33.529  24.730  22.682  1.00  0.00     0.043 C 
BRANCH   8  10
ATOM     10  N   UNL A   1      32.080  22.777  22.639  1.00  0.00    -0.325 N 
ATOM     11  C   UNL A   1      32.126  21.519  23.092  1.00  0.00     0.315 C 
ATOM     12  H   UNL A   1      31.877  22.828  21.676  1.00  0.00     0.166 HD
ATOM     13  O   UNL A   1      32.103  20.610  22.259  1.00  0.00    -0.249 OA
ATOM     14  N   UNL A   1      32.169  21.184  24.385  1.00  0.00    -0.338 N 
ATOM     15  H   UNL A   1      32.310  20.221  24.528  1.00  0.00     0.165 HD
BRANCH  14  16
ATOM     16  C   UNL A   1      32.052  21.931  25.625  1.00  0.00     0.122 C 
BRANCH  16  17
ATOM     17  C   UNL A   1      33.348  21.986  26.433  1.00  0.00     0.060 C 
BRANCH  17  18
ATOM     18  C   UNL A   1      34.652  22.168  25.694  1.00  0.00    -0.010 A 
ATOM     19  C   UNL A   1      35.408  21.078  25.237  1.00  0.00     0.007 A 
ATOM     20  C   UNL A   1      35.218  23.443  25.597  1.00  0.00     0.126 A 
ATOM     21  C   UNL A   1      36.734  21.253  24.826  1.00  0.00     0.000 A 
ATOM     22  C   UNL A   1      36.526  23.629  25.160  1.00  0.00     0.039 A 
ATOM     23  F   UNL A   1      34.499  24.513  25.964  1.00  0.00    -0.207 F 
ATOM     24  C   UNL A   1      37.299  22.526  24.804  1.00  0.00     0.003 A 
ENDBRANCH  17  18
ENDBRANCH  16  17
ENDBRANCH  14  16
ENDBRANCH   8  10
ENDBRANCH   6   8
ENDBRANCH   5   6
ENDBRANCH   4   5
ENDBRANCH   3   4
ENDBRANCH   2   3
ENDBRANCH   1   2
BRANCH   1  25
ATOM     25  C   UNL A   1      33.681  29.486  26.196  1.00  0.00     0.188 C 
BRANCH  25  26
ATOM     26  O   UNL A   1      32.712  30.488  26.396  1.00  0.00    -0.376 OA
BRANCH  26  27
ATOM     27  C   UNL A   1      32.936  31.537  27.317  1.00  0.00     0.202 C 
BRANCH  27  28
ATOM     28  C   UNL A   1      32.168  32.872  27.356  1.00  0.00     0.261 C 
BRANCH  28  29
ATOM     29  O   UNL A   1      32.950  34.064  27.426  1.00  0.00    -0.460 OA
BRANCH  29  30
ATOM     30  C   UNL A   1      33.220  34.506  28.683  1.00  0.00     0.338 C 
ATOM     31  O   UNL A   1      32.618  35.355  29.314  1.00  0.00    -0.246 OA
BRANCH  30  32
ATOM     32  C   UNL A   1      34.399  33.789  29.201  1.00  0.00     0.060 A 
ATOM     33  C   UNL A   1      34.237  32.842  30.206  1.00  0.00     0.016 A 
ATOM     34  C   UNL A   1      35.676  34.096  28.725  1.00  0.00     0.016 A 
ATOM     35  C   UNL A   1      35.355  32.170  30.692  1.00  0.00     0.010 A 
ATOM     36  C   UNL A   1      36.799  33.421  29.235  1.00  0.00     0.010 A 
ATOM     37  C   UNL A   1      36.644  32.441  30.224  1.00  0.00    -0.014 A 
BRANCH  37  38
ATOM     38  C   UNL A   1      37.787  31.745  30.874  1.00  0.00     0.031 A 
ATOM     39  C   UNL A   1      38.151  32.076  32.295  1.00  0.00     0.074 A 
ATOM     40  C   UNL A   1      38.387  30.686  30.293  1.00  0.00     0.049 A 
ATOM     41  N   UNL A   1      39.147  31.633  33.019  1.00  0.00    -0.248 NA
ATOM     42  C   UNL A   1      37.249  32.996  33.001  1.00  0.00     0.031 C 
ATOM     43  C   UNL A   1      38.002  30.091  29.015  1.00  0.00     0.029 A 
ATOM     44  N   UNL A   1      39.426  29.897  30.730  1.00  0.00    -0.354 N 
ATOM     45  C   UNL A   1      38.990  32.211  34.272  1.00  0.00     0.074 A 
ATOM     46  C   UNL A   1      37.806  33.044  34.204  1.00  0.00     0.031 C 
ATOM     47  C   UNL A   1      38.777  29.017  28.785  1.00  0.00     0.029 A 
ATOM     48  C   UNL A   1      39.770  28.897  29.852  1.00  0.00     0.049 A 
ATOM     49  H   UNL A   1      39.881  30.036  31.591  1.00  0.00     0.167 HD
ATOM     50  C   UNL A   1      39.764  32.068  35.375  1.00  0.00     0.034 A 
ATOM     51  C   UNL A   1      40.796  28.018  29.873  1.00  0.00     0.034 A 
ATOM     52  C   UNL A   1      40.963  31.271  35.439  1.00  0.00     0.049 A 
ATOM     53  C   UNL A   1      41.804  28.072  30.996  1.00  0.00     0.074 A 
ATOM     54  C   UNL A   1      41.872  31.167  36.479  1.00  0.00     0.029 A 
ATOM     55  N   UNL A   1      41.425  30.444  34.428  1.00  0.00    -0.354 N 
ATOM     56  N   UNL A   1      41.774  28.778  32.101  1.00  0.00    -0.248 NA
ATOM     57  C   UNL A   1      43.007  27.238  30.853  1.00  0.00     0.031 C 
ATOM     58  C   UNL A   1      42.917  30.333  36.069  1.00  0.00     0.029 A 
ATOM     59  C   UNL A   1      42.623  29.853  34.804  1.00  0.00     0.049 A 
ATOM     60  H   UNL A   1      40.969  30.296  33.568  1.00  0.00     0.167 HD
ATOM     61  C   UNL A   1      42.944  28.462  32.789  1.00  0.00     0.074 A 
ATOM     62  C   UNL A   1      43.661  27.501  31.977  1.00  0.00     0.031 C 
ATOM     63  C   UNL A   1      43.371  28.922  33.992  1.00  0.00     0.034 A 
BRANCH  50  64
ATOM     64  C   UNL A   1      39.383  32.882  36.580  1.00  0.00     0.023 A 
ATOM     65  C   UNL A   1      39.944  34.145  36.827  1.00  0.00     0.031 A 
ATOM     66  C   UNL A   1      38.452  32.371  37.501  1.00  0.00     0.131 A 
ATOM     67  C   UNL A   1      39.592  34.842  37.994  1.00  0.00     0.055 A 
ATOM     68  C   UNL A   1      38.066  33.092  38.629  1.00  0.00     0.041 A 
ATOM     69  F   UNL A   1      37.909  31.157  37.318  1.00  0.00    -0.206 F 
ATOM     70  C   UNL A   1      38.643  34.333  38.885  1.00  0.00     0.022 A 
BRANCH  67  71
ATOM     71  S   UNL A   1      40.471  36.379  38.385  1.00  0.00     0.124 S 
ATOM     72  O   UNL A   1      41.320  36.544  37.208  1.00  0.00    -0.237 OA
ATOM     73  O   UNL A   1      39.381  37.337  38.526  1.00  0.00    -0.237 OA
ATOM     74  O   UNL A   1      41.185  36.059  39.619  1.00  0.00    -0.744 OA
ENDBRANCH  67  71
ENDBRANCH  50  64
BRANCH  51  75
ATOM     75  C   UNL A   1      41.003  27.082  28.733  1.00  0.00     0.023 A 
ATOM     76  C   UNL A   1      41.986  27.316  27.759  1.00  0.00     0.031 A 
ATOM     77  C   UNL A   1      40.175  25.954  28.582  1.00  0.00     0.131 A 
ATOM     78  C   UNL A   1      42.106  26.440  26.668  1.00  0.00     0.055 A 
ATOM     79  C   UNL A   1      40.328  25.062  27.521  1.00  0.00     0.041 A 
ATOM     80  F   UNL A   1      39.207  25.697  29.477  1.00  0.00    -0.206 F 
ATOM     81  C   UNL A   1      41.296  25.306  26.554  1.00  0.00     0.022 A 
BRANCH  78  82
ATOM     82  S   UNL A   1      43.322  26.804  25.370  1.00  0.00     0.124 S 
ATOM     83  O   UNL A   1      43.472  25.500  24.735  1.00  0.00    -0.237 OA
ATOM     84  O   UNL A   1      42.643  27.828  24.584  1.00  0.00    -0.237 OA
ATOM     85  O   UNL A   1      44.486  27.273  26.120  1.00  0.00    -0.744 OA
ENDBRANCH  78  82
ENDBRANCH  51  75
BRANCH  63  86
ATOM     86  C   UNL A   1      44.667  28.376  34.540  1.00  0.00     0.023 A 
ATOM     87  C   UNL A   1      45.897  29.020  34.321  1.00  0.00     0.031 A 
ATOM     88  C   UNL A   1      44.663  27.210  35.329  1.00  0.00     0.131 A 
ATOM     89  C   UNL A   1      47.076  28.482  34.866  1.00  0.00     0.055 A 
ATOM     90  C   UNL A   1      45.830  26.705  35.902  1.00  0.00     0.041 A 
ATOM     91  F   UNL A   1      43.516  26.554  35.569  1.00  0.00    -0.206 F 
ATOM     92  C   UNL A   1      47.046  27.338  35.668  1.00  0.00     0.022 A 
BRANCH  89  93
ATOM     93  S   UNL A   1      48.665  29.273  34.485  1.00  0.00     0.124 S 
ATOM     94  O   UNL A   1      48.361  30.683  34.707  1.00  0.00    -0.237 OA
ATOM     95  O   UNL A   1      49.565  28.655  35.453  1.00  0.00    -0.237 OA
ATOM     96  O   UNL A   1      48.908  28.904  33.092  1.00  0.00    -0.744 OA
ENDBRANCH  89  93
ENDBRANCH  63  86
ENDBRANCH  37  38
ENDBRANCH  30  32
ENDBRANCH  29  30
ENDBRANCH  28  29
ENDBRANCH  27  28
ENDBRANCH  26  27
ENDBRANCH  25  26
ENDBRANCH   1  25
TORSDOF 24
ENDMDL
MODEL 2
REMARK VINA RESULT:      -9.5      2.273      2.619
REMARK SMILES C[C@H](NC(=O)NCCc1ccccc1F)C(=O)OCCOCCOCCOC(=O)c1ccc(-c2c3nc(c(-c4cc(S(=O)(=O)[O-])ccc4F)c4ccc([nH]4)c(-c4cc(S(=O)(=O)[O-])ccc4F)c4nc(c(-c5cc(S(=O)(=O)[O-])ccc5F)c5ccc2[nH]5)C=C4)C=C3)cc1
REMARK SMILES IDX 22 1 21 2 20 3 19 4 18 5 16 6 17 7 2 8 1 9 3 10 4 11 5 13
REMARK SMILES IDX 6 14 7 16 8 17 9 18 10 19 14 20 11 21 13 22 15 23 12 24
REMARK SMILES IDX 23 25 24 26 25 27 26 28 27 29 28 30 29 31 30 32 31 33 92 34
REMARK SMILES IDX 32 35 91 36 33 37 34 38 35 39 85 40 36 41 90 42 84 43 86 44
REMARK SMILES IDX 37 45 89 46 83 47 82 48 38 50 70 51 50 52 69 53 51 54 54 55
REMARK SMILES IDX 68 56 87 57 52 58 53 59 67 61 88 62 55 63 39 64 40 65 48 66
REMARK SMILES IDX 41 67 47 68 49 69 46 70 42 71 43 72 44 73 45 74 71 75 72 76
REMARK SMILES IDX 80 77 73 78 79 79 81 80 78 81 74 82 75 83 76 84 77 85 56 86
REMARK SMILES IDX 57 87 65 88 58 89 64 90 66 91 63 92 59 93 60 94 61 95 62 96
REMARK H PARENT 3 12 6 15 86 49 54 60
REMARK Flexibility Score: inf
ROOT
ATOM      1  C   UNL A   1      33.337  28.287  24.932  1.00  0.00     0.188 C 
ENDROOT
BRANCH   1   2
ATOM      2  O   UNL A   1      32.683  27.085  25.327  1.00  0.00    -0.376 OA
BRANCH   2   3
ATOM      3  C   UNL A   1      31.289  26.961  25.079  1.00  0.00     0.202 C 
BRANCH   3   4
ATOM      4  C   UNL A   1      30.835  26.674  23.645  1.00  0.00     0.261 C 
BRANCH   4   5
ATOM      5  O   UNL A   1      31.119  25.338  23.191  1.00  0.00    -0.462 OA
BRANCH   5   6
ATOM      6  C   UNL A   1      31.080  24.382  24.164  1.00  0.00     0.328 C 
ATOM      7  O   UNL A   1      30.278  24.383  25.095  1.00  0.00    -0.250 OA
BRANCH   6   8
ATOM      8  C   UNL A   1      32.234  23.366  24.079  1.00  0.00     0.190 C 
ATOM      9  C   UNL A   1      32.877  23.530  22.704  1.00  0.00     0.043 C 
BRANCH   8  10
ATOM     10  N   UNL A   1      31.869  21.962  24.267  1.00  0.00    -0.325 N 
ATOM     11  C   UNL A   1      32.072  21.063  25.238  1.00  0.00     0.315 C 
ATOM     12  H   UNL A   1      31.360  21.594  23.508  1.00  0.00     0.166 HD
ATOM     13  O   UNL A   1      31.783  19.889  25.000  1.00  0.00    -0.249 OA
ATOM     14  N   UNL A   1      32.542  21.360  26.454  1.00  0.00    -0.338 N 
ATOM     15  H   UNL A   1      32.730  20.562  26.998  1.00  0.00     0.165 HD
BRANCH  14  16
ATOM     16  C   UNL A   1      32.835  22.602  27.146  1.00  0.00     0.122 C 
BRANCH  16  17
ATOM     17  C   UNL A   1      34.329  22.910  27.250  1.00  0.00     0.060 C 
BRANCH  17  18
ATOM     18  C   UNL A   1      35.214  22.595  26.068  1.00  0.00    -0.010 A 
ATOM     19  C   UNL A   1      35.765  21.320  25.867  1.00  0.00     0.007 A 
ATOM     20  C   UNL A   1      35.638  23.629  25.228  1.00  0.00     0.126 A 
ATOM     21  C   UNL A   1      36.803  21.128  24.949  1.00  0.00     0.000 A 
ATOM     22  C   UNL A   1      36.649  23.440  24.290  1.00  0.00     0.039 A 
ATOM     23  F   UNL A   1      35.085  24.845  25.348  1.00  0.00    -0.207 F 
ATOM     24  C   UNL A   1      37.257  22.192  24.173  1.00  0.00     0.003 A 
ENDBRANCH  17  18
ENDBRANCH  16  17
ENDBRANCH  14  16
ENDBRANCH   8  10
ENDBRANCH   6   8
ENDBRANCH   5   6
ENDBRANCH   4   5
ENDBRANCH   3   4
ENDBRANCH   2   3
ENDBRANCH   1   2
BRANCH   1  25
ATOM     25  C   UNL A   1      33.644  29.369  25.991  1.00  0.00     0.188 C 
BRANCH  25  26
ATOM     26  O   UNL A   1      32.623  30.309  26.234  1.00  0.00    -0.376 OA
BRANCH  26  27
ATOM     27  C   UNL A   1      32.777  31.305  27.226  1.00  0.00     0.202 C 
BRANCH  27  28
ATOM     28  C   UNL A   1      32.047  32.660  27.252  1.00  0.00     0.261 C 
BRANCH  28  29
ATOM     29  O   UNL A   1      32.861  33.832  27.222  1.00  0.00    -0.460 OA
BRANCH  29  30
ATOM     30  C   UNL A   1      33.230  34.313  28.438  1.00  0.00     0.338 C 
ATOM     31  O   UNL A   1      32.698  35.204  29.074  1.00  0.00    -0.246 OA
BRANCH  30  32
ATOM     32  C   UNL A   1      34.421  33.580  28.903  1.00  0.00     0.060 A 
ATOM     33  C   UNL A   1      34.310  32.703  29.977  1.00  0.00     0.016 A 
ATOM     34  C   UNL A   1      35.664  33.803  28.305  1.00  0.00     0.016 A 
ATOM     35  C   UNL A   1      35.439  32.016  30.412  1.00  0.00     0.010 A 
ATOM     36  C   UNL A   1      36.800  33.113  28.764  1.00  0.00     0.010 A 
ATOM     37  C   UNL A   1      36.693  32.203  29.823  1.00  0.00    -0.014 A 
BRANCH  37  38
ATOM     38  C   UNL A   1      37.860  31.500  30.421  1.00  0.00     0.031 A 
ATOM     39  C   UNL A   1      38.246  31.777  31.848  1.00  0.00     0.074 A 
ATOM     40  C   UNL A   1      38.466  30.478  29.784  1.00  0.00     0.049 A 
ATOM     41  N   UNL A   1      39.264  31.321  32.533  1.00  0.00    -0.248 NA
ATOM     42  C   UNL A   1      37.343  32.650  32.610  1.00  0.00     0.031 C 
ATOM     43  C   UNL A   1      38.066  29.931  28.490  1.00  0.00     0.029 A 
ATOM     44  N   UNL A   1      39.527  29.690  30.167  1.00  0.00    -0.354 N 
ATOM     45  C   UNL A   1      39.121  31.842  33.813  1.00  0.00     0.074 A 
ATOM     46  C   UNL A   1      37.922  32.656  33.803  1.00  0.00     0.031 C 
ATOM     47  C   UNL A   1      38.854  28.881  28.199  1.00  0.00     0.029 A 
ATOM     48  C   UNL A   1      39.870  28.734  29.241  1.00  0.00     0.049 A 
ATOM     49  H   UNL A   1      39.996  29.800  31.025  1.00  0.00     0.167 HD
ATOM     50  C   UNL A   1      39.919  31.666  34.894  1.00  0.00     0.034 A 
ATOM     51  C   UNL A   1      40.911  27.874  29.205  1.00  0.00     0.034 A 
ATOM     52  C   UNL A   1      41.133  30.889  34.901  1.00  0.00     0.049 A 
ATOM     53  C   UNL A   1      41.940  27.897  30.310  1.00  0.00     0.074 A 
ATOM     54  C   UNL A   1      42.064  30.756  35.918  1.00  0.00     0.029 A 
ATOM     55  N   UNL A   1      41.588  30.113  33.846  1.00  0.00    -0.354 N 
ATOM     56  N   UNL A   1      41.920  28.555  31.444  1.00  0.00    -0.248 NA
ATOM     57  C   UNL A   1      43.154  27.092  30.108  1.00  0.00     0.031 C 
ATOM     58  C   UNL A   1      43.115  29.959  35.453  1.00  0.00     0.029 A 
ATOM     59  C   UNL A   1      42.803  29.528  34.174  1.00  0.00     0.049 A 
ATOM     60  H   UNL A   1      41.119  29.994  32.990  1.00  0.00     0.167 HD
ATOM     61  C   UNL A   1      43.108  28.230  32.095  1.00  0.00     0.074 A 
ATOM     62  C   UNL A   1      43.825  27.318  31.230  1.00  0.00     0.031 C 
ATOM     63  C   UNL A   1      43.551  28.646  33.309  1.00  0.00     0.034 A 
BRANCH  50  64
ATOM     64  C   UNL A   1      39.548  32.421  36.140  1.00  0.00     0.023 A 
ATOM     65  C   UNL A   1      38.617  31.917  37.061  1.00  0.00     0.031 A 
ATOM     66  C   UNL A   1      40.130  33.675  36.394  1.00  0.00     0.131 A 
ATOM     67  C   UNL A   1      38.267  32.685  38.182  1.00  0.00     0.055 A 
ATOM     68  C   UNL A   1      39.820  34.408  37.538  1.00  0.00     0.041 A 
ATOM     69  F   UNL A   1      41.006  34.208  35.528  1.00  0.00    -0.206 F 
ATOM     70  C   UNL A   1      38.876  33.917  38.437  1.00  0.00     0.022 A 
BRANCH  67  71
ATOM     71  S   UNL A   1      36.926  32.099  39.252  1.00  0.00     0.124 S 
ATOM     72  O   UNL A   1      37.029  30.651  39.091  1.00  0.00    -0.237 OA
ATOM     73  O   UNL A   1      37.311  32.626  40.556  1.00  0.00    -0.237 OA
ATOM     74  O   UNL A   1      35.731  32.700  38.664  1.00  0.00    -0.744 OA
ENDBRANCH  67  71
ENDBRANCH  50  64
BRANCH  51  75
ATOM     75  C   UNL A   1      41.111  26.990  28.022  1.00  0.00     0.023 A 
ATOM     76  C   UNL A   1      40.796  25.623  28.063  1.00  0.00     0.031 A 
ATOM     77  C   UNL A   1      41.673  27.506  26.838  1.00  0.00     0.131 A 
ATOM     78  C   UNL A   1      41.058  24.815  26.944  1.00  0.00     0.055 A 
ATOM     79  C   UNL A   1      41.889  26.709  25.715  1.00  0.00     0.041 A 
ATOM     80  F   UNL A   1      42.008  28.804  26.756  1.00  0.00    -0.206 F 
ATOM     81  C   UNL A   1      41.585  25.354  25.766  1.00  0.00     0.022 A 
BRANCH  78  82
ATOM     82  S   UNL A   1      40.729  23.033  27.043  1.00  0.00     0.124 S 
ATOM     83  O   UNL A   1      41.516  22.526  25.926  1.00  0.00    -0.237 OA
ATOM     84  O   UNL A   1      41.215  22.699  28.378  1.00  0.00    -0.237 OA
ATOM     85  O   UNL A   1      39.279  22.948  26.877  1.00  0.00    -0.744 OA
ENDBRANCH  78  82
ENDBRANCH  51  75
BRANCH  63  86
ATOM     86  C   UNL A   1      44.867  28.101  33.808  1.00  0.00     0.023 A 
ATOM     87  C   UNL A   1      44.938  26.955  34.620  1.00  0.00     0.031 A 
ATOM     88  C   UNL A   1      46.074  28.717  33.428  1.00  0.00     0.131 A 
ATOM     89  C   UNL A   1      46.189  26.476  35.046  1.00  0.00     0.055 A 
ATOM     90  C   UNL A   1      47.314  28.211  33.819  1.00  0.00     0.041 A 
ATOM     91  F   UNL A   1      46.065  29.814  32.654  1.00  0.00    -0.206 F 
ATOM     92  C   UNL A   1      47.377  27.087  34.636  1.00  0.00     0.022 A 
BRANCH  89  93
ATOM     93  S   UNL A   1      46.250  25.058  36.177  1.00  0.00     0.124 S 
ATOM     94  O   UNL A   1      44.835  24.739  36.340  1.00  0.00    -0.237 OA
ATOM     95  O   UNL A   1      47.039  24.088  35.425  1.00  0.00    -0.237 OA
ATOM     96  O   UNL A   1      46.905  25.596  37.369  1.00  0.00    -0.744 OA
ENDBRANCH  89  93
ENDBRANCH  63  86
ENDBRANCH  37  38
ENDBRANCH  30  32
ENDBRANCH  29  30
ENDBRANCH  28  29
ENDBRANCH  27  28
ENDBRANCH  26  27
ENDBRANCH  25  26
ENDBRANCH   1  25
TORSDOF 24
ENDMDL
MODEL 3
REMARK VINA RESULT:      -9.4      1.802      7.507
REMARK SMILES C[C@H](NC(=O)NCCc1ccccc1F)C(=O)OCCOCCOCCOC(=O)c1ccc(-c2c3nc(c(-c4cc(S(=O)(=O)[O-])ccc4F)c4ccc([nH]4)c(-c4cc(S(=O)(=O)[O-])ccc4F)c4nc(c(-c5cc(S(=O)(=O)[O-])ccc5F)c5ccc2[nH]5)C=C4)C=C3)cc1
REMARK SMILES IDX 22 1 21 2 20 3 19 4 18 5 16 6 17 7 2 8 1 9 3 10 4 11 5 13
REMARK SMILES IDX 6 14 7 16 8 17 9 18 10 19 14 20 11 21 13 22 15 23 12 24
REMARK SMILES IDX 23 25 24 26 25 27 26 28 27 29 28 30 29 31 30 32 31 33 92 34
REMARK SMILES IDX 32 35 91 36 33 37 34 38 35 39 85 40 36 41 90 42 84 43 86 44
REMARK SMILES IDX 37 45 89 46 83 47 82 48 38 50 70 51 50 52 69 53 51 54 54 55
REMARK SMILES IDX 68 56 87 57 52 58 53 59 67 61 88 62 55 63 39 64 40 65 48 66
REMARK SMILES IDX 41 67 47 68 49 69 46 70 42 71 43 72 44 73 45 74 71 75 72 76
REMARK SMILES IDX 80 77 73 78 79 79 81 80 78 81 74 82 75 83 76 84 77 85 56 86
REMARK SMILES IDX 57 87 65 88 58 89 64 90 66 91 63 92 59 93 60 94 61 95 62 96
REMARK H PARENT 3 12 6 15 86 49 54 60
REMARK Flexibility Score: inf
ROOT
ATOM      1  C   UNL A   1      33.396  28.431  25.008  1.00  0.00     0.188 C 
ENDROOT
BRANCH   1   2
ATOM      2  O   UNL A   1      32.437  27.461  25.418  1.00  0.00    -0.376 OA
BRANCH   2   3
ATOM      3  C   UNL A   1      31.065  27.710  25.148  1.00  0.00     0.202 C 
BRANCH   3   4
ATOM      4  C   UNL A   1      30.595  27.658  23.692  1.00  0.00     0.261 C 
BRANCH   4   5
ATOM      5  O   UNL A   1      31.318  26.722  22.871  1.00  0.00    -0.462 OA
BRANCH   5   6
ATOM      6  C   UNL A   1      31.024  25.409  23.104  1.00  0.00     0.328 C 
ATOM      7  O   UNL A   1      29.903  24.998  23.392  1.00  0.00    -0.250 OA
BRANCH   6   8
ATOM      8  C   UNL A   1      32.261  24.493  23.121  1.00  0.00     0.190 C 
ATOM      9  C   UNL A   1      33.393  25.252  22.434  1.00  0.00     0.043 C 
BRANCH   8  10
ATOM     10  N   UNL A   1      32.104  23.189  22.475  1.00  0.00    -0.325 N 
ATOM     11  C   UNL A   1      32.104  21.924  22.909  1.00  0.00     0.315 C 
ATOM     12  H   UNL A   1      31.968  23.259  21.502  1.00  0.00     0.166 HD
ATOM     13  O   UNL A   1      32.128  21.029  22.061  1.00  0.00    -0.249 OA
ATOM     14  N   UNL A   1      32.055  21.567  24.196  1.00  0.00    -0.338 N 
ATOM     15  H   UNL A   1      32.175  20.600  24.332  1.00  0.00     0.165 HD
BRANCH  14  16
ATOM     16  C   UNL A   1      31.863  22.295  25.438  1.00  0.00     0.122 C 
BRANCH  16  17
ATOM     17  C   UNL A   1      33.139  22.440  26.268  1.00  0.00     0.060 C 
BRANCH  17  18
ATOM     18  C   UNL A   1      34.470  22.413  25.556  1.00  0.00    -0.010 A 
ATOM     19  C   UNL A   1      35.129  21.212  25.252  1.00  0.00     0.007 A 
ATOM     20  C   UNL A   1      35.156  23.610  25.331  1.00  0.00     0.126 A 
ATOM     21  C   UNL A   1      36.474  21.214  24.867  1.00  0.00     0.000 A 
ATOM     22  C   UNL A   1      36.486  23.622  24.918  1.00  0.00     0.039 A 
ATOM     23  F   UNL A   1      34.535  24.778  25.549  1.00  0.00    -0.207 F 
ATOM     24  C   UNL A   1      37.157  22.419  24.718  1.00  0.00     0.003 A 
ENDBRANCH  17  18
ENDBRANCH  16  17
ENDBRANCH  14  16
ENDBRANCH   8  10
ENDBRANCH   6   8
ENDBRANCH   5   6
ENDBRANCH   4   5
ENDBRANCH   3   4
ENDBRANCH   2   3
ENDBRANCH   1   2
BRANCH   1  25
ATOM     25  C   UNL A   1      33.967  29.421  26.049  1.00  0.00     0.188 C 
BRANCH  25  26
ATOM     26  O   UNL A   1      33.026  30.193  26.755  1.00  0.00    -0.376 OA
BRANCH  26  27
ATOM     27  C   UNL A   1      33.422  31.360  27.450  1.00  0.00     0.202 C 
BRANCH  27  28
ATOM     28  C   UNL A   1      32.643  32.688  27.481  1.00  0.00     0.261 C 
BRANCH  28  29
ATOM     29  O   UNL A   1      33.413  33.884  27.608  1.00  0.00    -0.460 OA
BRANCH  29  30
ATOM     30  C   UNL A   1      33.463  34.410  28.860  1.00  0.00     0.338 C 
ATOM     31  O   UNL A   1      32.695  35.214  29.355  1.00  0.00    -0.246 OA
BRANCH  30  32
ATOM     32  C   UNL A   1      34.629  33.855  29.569  1.00  0.00     0.060 A 
ATOM     33  C   UNL A   1      35.904  34.053  29.049  1.00  0.00     0.016 A 
ATOM     34  C   UNL A   1      34.453  33.089  30.725  1.00  0.00     0.016 A 
ATOM     35  C   UNL A   1      37.001  33.524  29.723  1.00  0.00     0.010 A 
ATOM     36  C   UNL A   1      35.569  32.548  31.388  1.00  0.00     0.010 A 
ATOM     37  C   UNL A   1      36.860  32.769  30.892  1.00  0.00    -0.014 A 
BRANCH  37  38
ATOM     38  C   UNL A   1      38.081  32.161  31.485  1.00  0.00     0.031 A 
ATOM     39  C   UNL A   1      38.747  31.002  30.795  1.00  0.00     0.074 A 
ATOM     40  C   UNL A   1      38.722  32.740  32.520  1.00  0.00     0.049 A 
ATOM     41  N   UNL A   1      39.777  30.291  31.179  1.00  0.00    -0.248 NA
ATOM     42  C   UNL A   1      38.204  30.625  29.483  1.00  0.00     0.031 C 
ATOM     43  C   UNL A   1      38.337  33.995  33.160  1.00  0.00     0.029 A 
ATOM     44  N   UNL A   1      39.863  32.361  33.189  1.00  0.00    -0.354 N 
ATOM     45  C   UNL A   1      40.015  29.386  30.153  1.00  0.00     0.074 A 
ATOM     46  C   UNL A   1      39.014  29.635  29.135  1.00  0.00     0.031 C 
ATOM     47  C   UNL A   1      39.240  34.296  34.109  1.00  0.00     0.029 A 
ATOM     48  C   UNL A   1      40.218  33.213  34.208  1.00  0.00     0.049 A 
ATOM     49  H   UNL A   1      40.378  31.554  32.960  1.00  0.00     0.167 HD
ATOM     50  C   UNL A   1      40.973  28.431  30.069  1.00  0.00     0.034 A 
ATOM     51  C   UNL A   1      41.184  33.112  35.147  1.00  0.00     0.034 A 
ATOM     52  C   UNL A   1      41.947  28.154  31.094  1.00  0.00     0.049 A 
ATOM     53  C   UNL A   1      42.066  31.887  35.185  1.00  0.00     0.074 A 
ATOM     54  C   UNL A   1      42.876  27.127  31.144  1.00  0.00     0.029 A 
ATOM     55  N   UNL A   1      42.124  28.901  32.249  1.00  0.00    -0.354 N 
ATOM     56  N   UNL A   1      42.153  30.904  34.321  1.00  0.00    -0.248 NA
ATOM     57  C   UNL A   1      42.950  31.737  36.351  1.00  0.00     0.031 C 
ATOM     58  C   UNL A   1      43.563  27.212  32.359  1.00  0.00     0.029 A 
ATOM     59  C   UNL A   1      43.120  28.337  33.033  1.00  0.00     0.049 A 
ATOM     60  H   UNL A   1      41.617  29.712  32.479  1.00  0.00     0.167 HD
ATOM     61  C   UNL A   1      43.111  30.031  34.831  1.00  0.00     0.074 A 
ATOM     62  C   UNL A   1      43.575  30.599  36.079  1.00  0.00     0.031 C 
ATOM     63  C   UNL A   1      43.569  28.870  34.299  1.00  0.00     0.034 A 
BRANCH  50  64
ATOM     64  C   UNL A   1      40.940  27.544  28.857  1.00  0.00     0.023 A 
ATOM     65  C   UNL A   1      41.917  27.629  27.852  1.00  0.00     0.031 A 
ATOM     66  C   UNL A   1      39.902  26.610  28.703  1.00  0.00     0.131 A 
ATOM     67  C   UNL A   1      41.812  26.813  26.715  1.00  0.00     0.055 A 
ATOM     68  C   UNL A   1      39.834  25.764  27.598  1.00  0.00     0.041 A 
ATOM     69  F   UNL A   1      38.933  26.511  29.627  1.00  0.00    -0.206 F 
ATOM     70  C   UNL A   1      40.790  25.868  26.591  1.00  0.00     0.022 A 
BRANCH  67  71
ATOM     71  S   UNL A   1      42.974  27.075  25.347  1.00  0.00     0.124 S 
ATOM     72  O   UNL A   1      44.189  27.462  26.060  1.00  0.00    -0.237 OA
ATOM     73  O   UNL A   1      43.001  25.767  24.703  1.00  0.00    -0.237 OA
ATOM     74  O   UNL A   1      42.351  28.143  24.569  1.00  0.00    -0.744 OA
ENDBRANCH  67  71
ENDBRANCH  50  64
BRANCH  51  75
ATOM     75  C   UNL A   1      41.301  34.145  36.214  1.00  0.00     0.023 A 
ATOM     76  C   UNL A   1      42.245  35.180  36.136  1.00  0.00     0.031 A 
ATOM     77  C   UNL A   1      40.487  34.076  37.361  1.00  0.00     0.131 A 
ATOM     78  C   UNL A   1      42.362  36.096  37.194  1.00  0.00     0.055 A 
ATOM     79  C   UNL A   1      40.575  35.015  38.387  1.00  0.00     0.041 A 
ATOM     80  F   UNL A   1      39.580  33.093  37.491  1.00  0.00    -0.206 F 
ATOM     81  C   UNL A   1      41.521  36.030  38.309  1.00  0.00     0.022 A 
BRANCH  78  82
ATOM     82  S   UNL A   1      43.648  37.375  37.119  1.00  0.00     0.124 S 
ATOM     83  O   UNL A   1      43.180  38.321  38.125  1.00  0.00    -0.237 OA
ATOM     84  O   UNL A   1      44.855  36.625  37.453  1.00  0.00    -0.237 OA
ATOM     85  O   UNL A   1      43.578  37.845  35.737  1.00  0.00    -0.744 OA
ENDBRANCH  78  82
ENDBRANCH  51  75
BRANCH  63  86
ATOM     86  C   UNL A   1      44.657  28.131  35.040  1.00  0.00     0.023 A 
ATOM     87  C   UNL A   1      44.397  27.406  36.216  1.00  0.00     0.031 A 
ATOM     88  C   UNL A   1      45.971  28.121  34.535  1.00  0.00     0.131 A 
ATOM     89  C   UNL A   1      45.440  26.721  36.862  1.00  0.00     0.055 A 
ATOM     90  C   UNL A   1      46.994  27.403  35.157  1.00  0.00     0.041 A 
ATOM     91  F   UNL A   1      46.277  28.796  33.416  1.00  0.00    -0.206 F 
ATOM     92  C   UNL A   1      46.732  26.702  36.330  1.00  0.00     0.022 A 
BRANCH  89  93
ATOM     93  S   UNL A   1      45.101  25.878  38.433  1.00  0.00     0.124 S 
ATOM     94  O   UNL A   1      46.265  26.248  39.232  1.00  0.00    -0.237 OA
ATOM     95  O   UNL A   1      43.833  26.472  38.842  1.00  0.00    -0.237 OA
ATOM     96  O   UNL A   1      45.031  24.467  38.059  1.00  0.00    -0.744 OA
ENDBRANCH  89  93
ENDBRANCH  63  86
ENDBRANCH  37  38
ENDBRANCH  30  32
ENDBRANCH  29  30
ENDBRANCH  28  29
ENDBRANCH  27  28
ENDBRANCH  26  27
ENDBRANCH  25  26
ENDBRANCH   1  25
TORSDOF 24
ENDMDL
