MODEL 1
REMARK VINA RESULT:     -10.7      0.000      0.000
REMARK SMILES Cc1ccc(NC(=O)C[C@H]([NH2+]Cc2cccnc2)C(=O)OCCOCCOCCOC(=O)c2ccc(-c3c4nc(c(-c5cc(S(=O)(=O)[O-])ccc5F)c5ccc([nH]5)c(-c5cc(S(=O)(=O)[O-])ccc5F)c5nc(c(-c6cc(S(=O)(=O)[O-])ccc6F)c6ccc3[nH]6)C=C5)C=C4)cc2)cc1Cl
REMARK SMILES IDX 25 1 24 2 23 3 22 4 21 5 19 6 20 7 10 8 9 9 7 10 6 11 8 13
REMARK SMILES IDX 5 14 1 15 2 16 3 17 97 18 4 19 96 20 98 21 11 22 12 25 13 26
REMARK SMILES IDX 14 27 18 28 15 29 17 30 16 31 26 32 27 33 28 34 29 35 30 36
REMARK SMILES IDX 31 37 32 38 33 39 34 40 95 41 35 42 94 43 36 44 37 45 38 46
REMARK SMILES IDX 88 47 39 48 93 49 87 50 89 51 40 52 92 53 86 54 85 55 41 57
REMARK SMILES IDX 73 58 53 59 72 60 54 61 57 62 71 63 90 64 55 65 56 66 70 68
REMARK SMILES IDX 91 69 58 70 42 71 43 72 51 73 44 74 50 75 52 76 49 77 45 78
REMARK SMILES IDX 46 79 47 80 48 81 74 82 75 83 83 84 76 85 82 86 84 87 81 88
REMARK SMILES IDX 77 89 78 90 79 91 80 92 59 93 60 94 68 95 61 96 67 97 69 98
REMARK SMILES IDX 66 99 62 100 63 101 64 102 65 103
REMARK H PARENT 6 12 11 23 11 24 89 56 57 67
REMARK Flexibility Score: inf
ROOT
ATOM      1  C   UNL A   1      38.025  20.316  24.981  1.00  0.00     0.188 C 
ENDROOT
BRANCH   1   2
ATOM      2  O   UNL A   1      36.793  21.015  24.850  1.00  0.00    -0.376 OA
BRANCH   2   3
ATOM      3  C   UNL A   1      36.701  22.364  25.270  1.00  0.00     0.202 C 
BRANCH   3   4
ATOM      4  C   UNL A   1      35.728  22.705  26.411  1.00  0.00     0.261 C 
BRANCH   4   5
ATOM      5  O   UNL A   1      34.694  21.758  26.769  1.00  0.00    -0.459 OA
BRANCH   5   6
ATOM      6  C   UNL A   1      33.499  22.262  27.198  1.00  0.00     0.365 C 
ATOM      7  O   UNL A   1      33.142  22.252  28.371  1.00  0.00    -0.245 OA
BRANCH   6   8
ATOM      8  C   UNL A   1      32.553  22.725  26.049  1.00  0.00     0.303 C 
BRANCH   8   9
ATOM      9  C   UNL A   1      31.135  22.293  26.395  1.00  0.00     0.177 C 
BRANCH   9  10
ATOM     10  C   UNL A   1      29.955  23.155  26.836  1.00  0.00     0.231 C 
ATOM     11  N   UNL A   1      29.682  24.471  26.694  1.00  0.00    -0.326 N 
ATOM     12  H   UNL A   1      28.990  24.736  27.342  1.00  0.00     0.169 HD
ATOM     13  O   UNL A   1      29.164  22.591  27.622  1.00  0.00    -0.274 OA
BRANCH  11  14
ATOM     14  C   UNL A   1      30.058  25.586  25.926  1.00  0.00     0.042 A 
ATOM     15  C   UNL A   1      31.416  29.043  23.648  1.00  0.00     0.046 C 
ATOM     16  C   UNL A   1      30.971  27.837  24.423  1.00  0.00    -0.032 A 
ATOM     17  C   UNL A   1      31.785  27.238  25.389  1.00  0.00     0.007 A 
ATOM     18  C   UNL A   1      29.710  27.290  24.223  1.00  0.00     0.046 A 
ATOM     19  C   UNL A   1      31.340  26.113  26.111  1.00  0.00     0.026 A 
ATOM     20  C   UNL A   1      29.251  26.248  25.034  1.00  0.00     0.047 A 
ATOM     21  Cl  UNL A   1      28.694  27.854  22.946  1.00  0.00    -0.084 Cl
ENDBRANCH  11  14
ENDBRANCH   9  10
ENDBRANCH   8   9
BRANCH   8  22
ATOM     22  N   UNL A   1      33.025  22.510  24.655  1.00  0.00    -0.330 N 
ATOM     23  H   UNL A   1      33.255  21.521  24.551  1.00  0.00     0.347 HD
ATOM     24  H   UNL A   1      33.820  23.137  24.533  1.00  0.00     0.347 HD
BRANCH  22  25
ATOM     25  C   UNL A   1      32.068  22.864  23.590  1.00  0.00     0.299 C 
BRANCH  25  26
ATOM     26  C   UNL A   1      32.405  24.142  22.851  1.00  0.00     0.024 A 
ATOM     27  C   UNL A   1      31.455  24.875  22.137  1.00  0.00     0.013 A 
ATOM     28  C   UNL A   1      33.708  24.649  22.846  1.00  0.00     0.120 A 
ATOM     29  C   UNL A   1      31.822  26.061  21.495  1.00  0.00     0.021 A 
ATOM     30  N   UNL A   1      34.101  25.789  22.221  1.00  0.00    -0.264 NA
ATOM     31  C   UNL A   1      33.141  26.476  21.571  1.00  0.00     0.111 A 
ENDBRANCH  25  26
ENDBRANCH  22  25
ENDBRANCH   8  22
ENDBRANCH   6   8
ENDBRANCH   5   6
ENDBRANCH   4   5
ENDBRANCH   3   4
ENDBRANCH   2   3
ENDBRANCH   1   2
BRANCH   1  32
ATOM     32  C   UNL A   1      39.071  20.828  25.970  1.00  0.00     0.188 C 
BRANCH  32  33
ATOM     33  O   UNL A   1      40.138  19.926  26.184  1.00  0.00    -0.376 OA
BRANCH  33  34
ATOM     34  C   UNL A   1      41.151  20.286  27.103  1.00  0.00     0.202 C 
BRANCH  34  35
ATOM     35  C   UNL A   1      42.273  21.168  26.551  1.00  0.00     0.261 C 
BRANCH  35  36
ATOM     36  O   UNL A   1      41.870  22.091  25.525  1.00  0.00    -0.460 OA
BRANCH  36  37
ATOM     37  C   UNL A   1      42.750  23.059  25.175  1.00  0.00     0.338 C 
ATOM     38  O   UNL A   1      43.557  23.020  24.259  1.00  0.00    -0.246 OA
BRANCH  37  39
ATOM     39  C   UNL A   1      42.449  24.236  26.021  1.00  0.00     0.060 A 
ATOM     40  C   UNL A   1      43.210  25.412  25.918  1.00  0.00     0.016 A 
ATOM     41  C   UNL A   1      41.364  24.174  26.892  1.00  0.00     0.016 A 
ATOM     42  C   UNL A   1      42.888  26.531  26.693  1.00  0.00     0.010 A 
ATOM     43  C   UNL A   1      41.058  25.282  27.681  1.00  0.00     0.010 A 
ATOM     44  C   UNL A   1      41.828  26.458  27.603  1.00  0.00    -0.014 A 
BRANCH  44  45
ATOM     45  C   UNL A   1      41.601  27.511  28.622  1.00  0.00     0.031 A 
ATOM     46  C   UNL A   1      42.416  27.447  29.881  1.00  0.00     0.074 A 
ATOM     47  C   UNL A   1      40.637  28.436  28.479  1.00  0.00     0.049 A 
ATOM     48  N   UNL A   1      42.234  28.050  31.024  1.00  0.00    -0.248 NA
ATOM     49  C   UNL A   1      43.581  26.550  29.843  1.00  0.00     0.031 C 
ATOM     50  C   UNL A   1      39.826  28.634  27.282  1.00  0.00     0.029 A 
ATOM     51  N   UNL A   1      40.148  29.353  29.379  1.00  0.00    -0.354 N 
ATOM     52  C   UNL A   1      43.236  27.572  31.862  1.00  0.00     0.074 A 
ATOM     53  C   UNL A   1      44.006  26.617  31.093  1.00  0.00     0.031 C 
ATOM     54  C   UNL A   1      38.905  29.580  27.536  1.00  0.00     0.029 A 
ATOM     55  C   UNL A   1      39.022  30.004  28.931  1.00  0.00     0.049 A 
ATOM     56  H   UNL A   1      40.561  29.526  30.256  1.00  0.00     0.167 HD
ATOM     57  C   UNL A   1      43.477  27.895  33.157  1.00  0.00     0.034 A 
ATOM     58  C   UNL A   1      38.148  30.794  29.589  1.00  0.00     0.034 A 
ATOM     59  C   UNL A   1      42.679  28.841  33.898  1.00  0.00     0.049 A 
ATOM     60  C   UNL A   1      38.376  31.081  31.056  1.00  0.00     0.074 A 
ATOM     61  C   UNL A   1      42.849  29.277  35.200  1.00  0.00     0.029 A 
ATOM     62  N   UNL A   1      41.544  29.480  33.410  1.00  0.00    -0.354 N 
ATOM     63  N   UNL A   1      39.321  30.630  31.849  1.00  0.00    -0.248 NA
ATOM     64  C   UNL A   1      37.419  31.981  31.717  1.00  0.00     0.031 C 
ATOM     65  C   UNL A   1      41.768  30.100  35.529  1.00  0.00     0.029 A 
ATOM     66  C   UNL A   1      40.980  30.269  34.400  1.00  0.00     0.049 A 
ATOM     67  H   UNL A   1      41.193  29.386  32.495  1.00  0.00     0.167 HD
ATOM     68  C   UNL A   1      39.094  31.220  33.090  1.00  0.00     0.074 A 
ATOM     69  C   UNL A   1      37.919  32.055  32.943  1.00  0.00     0.031 C 
ATOM     70  C   UNL A   1      39.803  31.095  34.242  1.00  0.00     0.034 A 
BRANCH  57  71
ATOM     71  C   UNL A   1      44.589  27.154  33.861  1.00  0.00     0.023 A 
ATOM     72  C   UNL A   1      44.396  25.884  34.432  1.00  0.00     0.031 A 
ATOM     73  C   UNL A   1      45.849  27.759  34.022  1.00  0.00     0.131 A 
ATOM     74  C   UNL A   1      45.405  25.310  35.221  1.00  0.00     0.055 A 
ATOM     75  C   UNL A   1      46.883  27.136  34.722  1.00  0.00     0.041 A 
ATOM     76  F   UNL A   1      46.090  28.983  33.525  1.00  0.00    -0.206 F 
ATOM     77  C   UNL A   1      46.657  25.914  35.346  1.00  0.00     0.022 A 
BRANCH  74  78
ATOM     78  S   UNL A   1      44.987  23.866  36.236  1.00  0.00     0.124 S 
ATOM     79  O   UNL A   1      43.884  24.381  37.045  1.00  0.00    -0.237 OA
ATOM     80  O   UNL A   1      44.630  22.868  35.234  1.00  0.00    -0.237 OA
ATOM     81  O   UNL A   1      46.219  23.598  36.974  1.00  0.00    -0.744 OA
ENDBRANCH  74  78
ENDBRANCH  57  71
BRANCH  58  82
ATOM     82  C   UNL A   1      36.935  31.305  28.886  1.00  0.00     0.023 A 
ATOM     83  C   UNL A   1      35.929  30.435  28.436  1.00  0.00     0.031 A 
ATOM     84  C   UNL A   1      36.771  32.682  28.649  1.00  0.00     0.131 A 
ATOM     85  C   UNL A   1      34.815  30.951  27.753  1.00  0.00     0.055 A 
ATOM     86  C   UNL A   1      35.636  33.195  28.017  1.00  0.00     0.041 A 
ATOM     87  F   UNL A   1      37.707  33.557  29.052  1.00  0.00    -0.206 F 
ATOM     88  C   UNL A   1      34.653  32.325  27.558  1.00  0.00     0.022 A 
BRANCH  85  89
ATOM     89  S   UNL A   1      33.603  29.790  27.064  1.00  0.00     0.124 S 
ATOM     90  O   UNL A   1      33.560  28.760  28.095  1.00  0.00    -0.237 OA
ATOM     91  O   UNL A   1      32.414  30.628  26.942  1.00  0.00    -0.237 OA
ATOM     92  O   UNL A   1      34.205  29.381  25.797  1.00  0.00    -0.744 OA
ENDBRANCH  85  89
ENDBRANCH  58  82
BRANCH  70  93
ATOM     93  C   UNL A   1      39.380  31.934  35.426  1.00  0.00     0.023 A 
ATOM     94  C   UNL A   1      38.604  31.418  36.478  1.00  0.00     0.031 A 
ATOM     95  C   UNL A   1      39.810  33.272  35.517  1.00  0.00     0.131 A 
ATOM     96  C   UNL A   1      38.262  32.244  37.562  1.00  0.00     0.055 A 
ATOM     97  C   UNL A   1      39.518  34.068  36.624  1.00  0.00     0.041 A 
ATOM     98  F   UNL A   1      40.548  33.819  34.537  1.00  0.00    -0.206 F 
ATOM     99  C   UNL A   1      38.733  33.557  37.652  1.00  0.00     0.022 A 
BRANCH  96 100
ATOM    100  S   UNL A   1      37.136  31.604  38.833  1.00  0.00     0.124 S 
ATOM    101  O   UNL A   1      35.966  32.459  38.659  1.00  0.00    -0.237 OA
ATOM    102  O   UNL A   1      36.973  30.210  38.434  1.00  0.00    -0.237 OA
ATOM    103  O   UNL A   1      37.872  31.808  40.080  1.00  0.00    -0.744 OA
ENDBRANCH  96 100
ENDBRANCH  70  93
ENDBRANCH  44  45
ENDBRANCH  37  39
ENDBRANCH  36  37
ENDBRANCH  35  36
ENDBRANCH  34  35
ENDBRANCH  33  34
ENDBRANCH  32  33
ENDBRANCH   1  32
TORSDOF 26
ENDMDL
MODEL 2
REMARK VINA RESULT:     -10.5      5.519      7.325
REMARK SMILES Cc1ccc(NC(=O)C[C@H]([NH2+]Cc2cccnc2)C(=O)OCCOCCOCCOC(=O)c2ccc(-c3c4nc(c(-c5cc(S(=O)(=O)[O-])ccc5F)c5ccc([nH]5)c(-c5cc(S(=O)(=O)[O-])ccc5F)c5nc(c(-c6cc(S(=O)(=O)[O-])ccc6F)c6ccc3[nH]6)C=C5)C=C4)cc2)cc1Cl
REMARK SMILES IDX 25 1 24 2 23 3 22 4 21 5 19 6 20 7 10 8 9 9 7 10 6 11 8 13
REMARK SMILES IDX 5 14 1 15 2 16 3 17 97 18 4 19 96 20 98 21 11 22 12 25 13 26
REMARK SMILES IDX 14 27 18 28 15 29 17 30 16 31 26 32 27 33 28 34 29 35 30 36
REMARK SMILES IDX 31 37 32 38 33 39 34 40 95 41 35 42 94 43 36 44 37 45 38 46
REMARK SMILES IDX 88 47 39 48 93 49 87 50 89 51 40 52 92 53 86 54 85 55 41 57
REMARK SMILES IDX 73 58 53 59 72 60 54 61 57 62 71 63 90 64 55 65 56 66 70 68
REMARK SMILES IDX 91 69 58 70 42 71 43 72 51 73 44 74 50 75 52 76 49 77 45 78
REMARK SMILES IDX 46 79 47 80 48 81 74 82 75 83 83 84 76 85 82 86 84 87 81 88
REMARK SMILES IDX 77 89 78 90 79 91 80 92 59 93 60 94 68 95 61 96 67 97 69 98
REMARK SMILES IDX 66 99 62 100 63 101 64 102 65 103
REMARK H PARENT 6 12 11 23 11 24 89 56 57 67
REMARK Flexibility Score: inf
ROOT
ATOM      1  C   UNL A   1      36.019  20.967  24.729  1.00  0.00     0.188 C 
ENDROOT
BRANCH   1   2
ATOM      2  O   UNL A   1      34.937  21.883  24.834  1.00  0.00    -0.376 OA
BRANCH   2   3
ATOM      3  C   UNL A   1      35.160  23.265  24.620  1.00  0.00     0.202 C 
BRANCH   3   4
ATOM      4  C   UNL A   1      34.008  24.107  24.046  1.00  0.00     0.261 C 
BRANCH   4   5
ATOM      5  O   UNL A   1      32.703  24.042  24.669  1.00  0.00    -0.459 OA
BRANCH   5   6
ATOM      6  C   UNL A   1      31.828  23.104  24.201  1.00  0.00     0.365 C 
ATOM      7  O   UNL A   1      31.272  23.182  23.111  1.00  0.00    -0.245 OA
BRANCH   6   8
ATOM      8  C   UNL A   1      31.476  21.990  25.232  1.00  0.00     0.303 C 
BRANCH   8   9
ATOM      9  C   UNL A   1      31.155  22.656  26.563  1.00  0.00     0.177 C 
BRANCH   9  10
ATOM     10  C   UNL A   1      29.953  23.521  26.931  1.00  0.00     0.231 C 
ATOM     11  N   UNL A   1      29.632  24.804  26.654  1.00  0.00    -0.326 N 
ATOM     12  H   UNL A   1      28.943  25.115  27.284  1.00  0.00     0.169 HD
ATOM     13  O   UNL A   1      29.196  23.020  27.790  1.00  0.00    -0.274 OA
BRANCH  11  14
ATOM     14  C   UNL A   1      29.956  25.841  25.763  1.00  0.00     0.042 A 
ATOM     15  C   UNL A   1      30.797  28.990  22.871  1.00  0.00     0.046 C 
ATOM     16  C   UNL A   1      30.480  27.915  23.869  1.00  0.00    -0.032 A 
ATOM     17  C   UNL A   1      29.454  26.990  23.658  1.00  0.00     0.007 A 
ATOM     18  C   UNL A   1      31.225  27.787  25.034  1.00  0.00     0.046 A 
ATOM     19  C   UNL A   1      29.183  25.984  24.607  1.00  0.00     0.026 A 
ATOM     20  C   UNL A   1      31.011  26.710  25.900  1.00  0.00     0.047 A 
ATOM     21  Cl  UNL A   1      32.406  28.971  25.464  1.00  0.00    -0.084 Cl
ENDBRANCH  11  14
ENDBRANCH   9  10
ENDBRANCH   8   9
BRANCH   8  22
ATOM     22  N   UNL A   1      32.348  20.785  25.250  1.00  0.00    -0.330 N 
ATOM     23  H   UNL A   1      32.105  20.234  26.074  1.00  0.00     0.347 HD
ATOM     24  H   UNL A   1      33.305  21.136  25.251  1.00  0.00     0.347 HD
BRANCH  22  25
ATOM     25  C   UNL A   1      32.249  19.901  24.073  1.00  0.00     0.299 C 
BRANCH  25  26
ATOM     26  C   UNL A   1      32.780  18.501  24.300  1.00  0.00     0.024 A 
ATOM     27  C   UNL A   1      33.507  17.804  23.333  1.00  0.00     0.013 A 
ATOM     28  C   UNL A   1      32.556  17.832  25.506  1.00  0.00     0.120 A 
ATOM     29  C   UNL A   1      33.992  16.522  23.610  1.00  0.00     0.021 A 
ATOM     30  N   UNL A   1      32.999  16.584  25.803  1.00  0.00    -0.264 NA
ATOM     31  C   UNL A   1      33.721  15.963  24.849  1.00  0.00     0.111 A 
ENDBRANCH  25  26
ENDBRANCH  22  25
ENDBRANCH   8  22
ENDBRANCH   6   8
ENDBRANCH   5   6
ENDBRANCH   4   5
ENDBRANCH   3   4
ENDBRANCH   2   3
ENDBRANCH   1   2
BRANCH   1  32
ATOM     32  C   UNL A   1      37.411  21.494  24.383  1.00  0.00     0.188 C 
BRANCH  32  33
ATOM     33  O   UNL A   1      38.395  21.172  25.346  1.00  0.00    -0.376 OA
BRANCH  33  34
ATOM     34  C   UNL A   1      38.861  19.839  25.412  1.00  0.00     0.202 C 
BRANCH  34  35
ATOM     35  C   UNL A   1      40.153  19.620  26.204  1.00  0.00     0.261 C 
BRANCH  35  36
ATOM     36  O   UNL A   1      41.316  19.349  25.405  1.00  0.00    -0.460 OA
BRANCH  36  37
ATOM     37  C   UNL A   1      42.519  19.368  26.025  1.00  0.00     0.338 C 
ATOM     38  O   UNL A   1      43.227  18.407  26.282  1.00  0.00    -0.246 OA
BRANCH  37  39
ATOM     39  C   UNL A   1      42.886  20.791  26.202  1.00  0.00     0.060 A 
ATOM     40  C   UNL A   1      42.933  21.371  27.481  1.00  0.00     0.016 A 
ATOM     41  C   UNL A   1      43.230  21.538  25.078  1.00  0.00     0.016 A 
ATOM     42  C   UNL A   1      43.322  22.705  27.637  1.00  0.00     0.010 A 
ATOM     43  C   UNL A   1      43.595  22.875  25.233  1.00  0.00     0.010 A 
ATOM     44  C   UNL A   1      43.624  23.473  26.507  1.00  0.00    -0.014 A 
BRANCH  44  45
ATOM     45  C   UNL A   1      43.793  24.944  26.586  1.00  0.00     0.031 A 
ATOM     46  C   UNL A   1      45.159  25.502  26.313  1.00  0.00     0.074 A 
ATOM     47  C   UNL A   1      42.794  25.750  26.983  1.00  0.00     0.049 A 
ATOM     48  N   UNL A   1      45.647  26.683  26.579  1.00  0.00    -0.248 NA
ATOM     49  C   UNL A   1      46.111  24.578  25.677  1.00  0.00     0.031 C 
ATOM     50  C   UNL A   1      41.415  25.333  27.217  1.00  0.00     0.029 A 
ATOM     51  N   UNL A   1      42.807  27.086  27.305  1.00  0.00    -0.354 N 
ATOM     52  C   UNL A   1      46.980  26.634  26.185  1.00  0.00     0.074 A 
ATOM     53  C   UNL A   1      47.220  25.299  25.680  1.00  0.00     0.031 C 
ATOM     54  C   UNL A   1      40.721  26.383  27.693  1.00  0.00     0.029 A 
ATOM     55  C   UNL A   1      41.624  27.522  27.857  1.00  0.00     0.049 A 
ATOM     56  H   UNL A   1      43.584  27.672  27.157  1.00  0.00     0.167 HD
ATOM     57  C   UNL A   1      47.915  27.613  26.253  1.00  0.00     0.034 A 
ATOM     58  C   UNL A   1      41.326  28.678  28.484  1.00  0.00     0.034 A 
ATOM     59  C   UNL A   1      47.645  28.930  26.777  1.00  0.00     0.049 A 
ATOM     60  C   UNL A   1      42.399  29.733  28.633  1.00  0.00     0.074 A 
ATOM     61  C   UNL A   1      48.500  30.015  26.861  1.00  0.00     0.029 A 
ATOM     62  N   UNL A   1      46.434  29.335  27.328  1.00  0.00    -0.354 N 
ATOM     63  N   UNL A   1      43.658  29.689  28.261  1.00  0.00    -0.248 NA
ATOM     64  C   UNL A   1      42.012  30.992  29.286  1.00  0.00     0.031 C 
ATOM     65  C   UNL A   1      47.839  31.038  27.548  1.00  0.00     0.029 A 
ATOM     66  C   UNL A   1      46.535  30.635  27.796  1.00  0.00     0.049 A 
ATOM     67  H   UNL A   1      45.624  28.778  27.379  1.00  0.00     0.167 HD
ATOM     68  C   UNL A   1      44.202  30.926  28.602  1.00  0.00     0.074 A 
ATOM     69  C   UNL A   1      43.136  31.692  29.214  1.00  0.00     0.031 C 
ATOM     70  C   UNL A   1      45.465  31.389  28.411  1.00  0.00     0.034 A 
BRANCH  57  71
ATOM     71  C   UNL A   1      49.322  27.260  25.830  1.00  0.00     0.023 A 
ATOM     72  C   UNL A   1      50.307  26.881  26.759  1.00  0.00     0.031 A 
ATOM     73  C   UNL A   1      49.702  27.369  24.481  1.00  0.00     0.131 A 
ATOM     74  C   UNL A   1      51.639  26.728  26.343  1.00  0.00     0.055 A 
ATOM     75  C   UNL A   1      51.008  27.114  24.058  1.00  0.00     0.041 A 
ATOM     76  F   UNL A   1      48.815  27.753  23.548  1.00  0.00    -0.206 F 
ATOM     77  C   UNL A   1      51.991  26.814  24.995  1.00  0.00     0.022 A 
BRANCH  74  78
ATOM     78  S   UNL A   1      52.929  26.611  27.613  1.00  0.00     0.124 S 
ATOM     79  O   UNL A   1      52.138  26.622  28.842  1.00  0.00    -0.237 OA
ATOM     80  O   UNL A   1      53.580  25.347  27.286  1.00  0.00    -0.237 OA
ATOM     81  O   UNL A   1      53.739  27.807  27.391  1.00  0.00    -0.744 OA
ENDBRANCH  74  78
ENDBRANCH  57  71
BRANCH  58  82
ATOM     82  C   UNL A   1      39.974  28.868  29.088  1.00  0.00     0.023 A 
ATOM     83  C   UNL A   1      39.755  28.687  30.462  1.00  0.00     0.031 A 
ATOM     84  C   UNL A   1      38.876  29.229  28.286  1.00  0.00     0.131 A 
ATOM     85  C   UNL A   1      38.463  28.847  30.990  1.00  0.00     0.055 A 
ATOM     86  C   UNL A   1      37.605  29.439  28.824  1.00  0.00     0.041 A 
ATOM     87  F   UNL A   1      39.029  29.407  26.964  1.00  0.00    -0.206 F 
ATOM     88  C   UNL A   1      37.392  29.240  30.184  1.00  0.00     0.022 A 
BRANCH  85  89
ATOM     89  S   UNL A   1      38.186  28.472  32.743  1.00  0.00     0.124 S 
ATOM     90  O   UNL A   1      38.299  27.018  32.756  1.00  0.00    -0.237 OA
ATOM     91  O   UNL A   1      39.271  29.206  33.387  1.00  0.00    -0.237 OA
ATOM     92  O   UNL A   1      36.846  28.996  32.996  1.00  0.00    -0.744 OA
ENDBRANCH  85  89
ENDBRANCH  58  82
BRANCH  70  93
ATOM     93  C   UNL A   1      45.756  32.821  28.798  1.00  0.00     0.023 A 
ATOM     94  C   UNL A   1      45.617  33.890  27.896  1.00  0.00     0.031 A 
ATOM     95  C   UNL A   1      46.137  33.118  30.120  1.00  0.00     0.131 A 
ATOM     96  C   UNL A   1      45.882  35.202  28.324  1.00  0.00     0.055 A 
ATOM     97  C   UNL A   1      46.340  34.427  30.554  1.00  0.00     0.041 A 
ATOM     98  F   UNL A   1      46.292  32.135  31.023  1.00  0.00    -0.206 F 
ATOM     99  C   UNL A   1      46.220  35.478  29.651  1.00  0.00     0.022 A 
BRANCH  96 100
ATOM    100  S   UNL A   1      45.844  36.546  27.106  1.00  0.00     0.124 S 
ATOM    101  O   UNL A   1      46.427  35.907  25.931  1.00  0.00    -0.237 OA
ATOM    102  O   UNL A   1      44.420  36.855  27.024  1.00  0.00    -0.237 OA
ATOM    103  O   UNL A   1      46.669  37.588  27.718  1.00  0.00    -0.744 OA
ENDBRANCH  96 100
ENDBRANCH  70  93
ENDBRANCH  44  45
ENDBRANCH  37  39
ENDBRANCH  36  37
ENDBRANCH  35  36
ENDBRANCH  34  35
ENDBRANCH  33  34
ENDBRANCH  32  33
ENDBRANCH   1  32
TORSDOF 26
ENDMDL
MODEL 3
REMARK VINA RESULT:     -10.1      5.148      7.321
REMARK SMILES Cc1ccc(NC(=O)C[C@H]([NH2+]Cc2cccnc2)C(=O)OCCOCCOCCOC(=O)c2ccc(-c3c4nc(c(-c5cc(S(=O)(=O)[O-])ccc5F)c5ccc([nH]5)c(-c5cc(S(=O)(=O)[O-])ccc5F)c5nc(c(-c6cc(S(=O)(=O)[O-])ccc6F)c6ccc3[nH]6)C=C5)C=C4)cc2)cc1Cl
REMARK SMILES IDX 25 1 24 2 23 3 22 4 21 5 19 6 20 7 10 8 9 9 7 10 6 11 8 13
REMARK SMILES IDX 5 14 1 15 2 16 3 17 97 18 4 19 96 20 98 21 11 22 12 25 13 26
REMARK SMILES IDX 14 27 18 28 15 29 17 30 16 31 26 32 27 33 28 34 29 35 30 36
REMARK SMILES IDX 31 37 32 38 33 39 34 40 95 41 35 42 94 43 36 44 37 45 38 46
REMARK SMILES IDX 88 47 39 48 93 49 87 50 89 51 40 52 92 53 86 54 85 55 41 57
REMARK SMILES IDX 73 58 53 59 72 60 54 61 57 62 71 63 90 64 55 65 56 66 70 68
REMARK SMILES IDX 91 69 58 70 42 71 43 72 51 73 44 74 50 75 52 76 49 77 45 78
REMARK SMILES IDX 46 79 47 80 48 81 74 82 75 83 83 84 76 85 82 86 84 87 81 88
REMARK SMILES IDX 77 89 78 90 79 91 80 92 59 93 60 94 68 95 61 96 67 97 69 98
REMARK SMILES IDX 66 99 62 100 63 101 64 102 65 103
REMARK H PARENT 6 12 11 23 11 24 89 56 57 67
REMARK Flexibility Score: inf
ROOT
ATOM      1  C   UNL A   1      35.673  23.328  25.575  1.00  0.00     0.188 C 
ENDROOT
BRANCH   1   2
ATOM      2  O   UNL A   1      34.460  23.930  25.140  1.00  0.00    -0.376 OA
BRANCH   2   3
ATOM      3  C   UNL A   1      34.450  24.736  23.975  1.00  0.00     0.202 C 
BRANCH   3   4
ATOM      4  C   UNL A   1      33.305  24.542  22.968  1.00  0.00     0.261 C 
BRANCH   4   5
ATOM      5  O   UNL A   1      32.680  23.243  22.844  1.00  0.00    -0.459 OA
BRANCH   5   6
ATOM      6  C   UNL A   1      31.489  23.054  23.484  1.00  0.00     0.365 C 
ATOM      7  O   UNL A   1      30.458  23.644  23.184  1.00  0.00    -0.245 OA
BRANCH   6   8
ATOM      8  C   UNL A   1      31.578  22.127  24.734  1.00  0.00     0.303 C 
BRANCH   8   9
ATOM      9  C   UNL A   1      31.471  22.995  25.980  1.00  0.00     0.177 C 
BRANCH   9  10
ATOM     10  C   UNL A   1      30.266  23.775  26.499  1.00  0.00     0.231 C 
ATOM     11  N   UNL A   1      29.833  25.037  26.284  1.00  0.00    -0.326 N 
ATOM     12  H   UNL A   1      29.202  25.295  26.994  1.00  0.00     0.169 HD
ATOM     13  O   UNL A   1      29.646  23.216  27.429  1.00  0.00    -0.274 OA
BRANCH  11  14
ATOM     14  C   UNL A   1      29.985  26.103  25.381  1.00  0.00     0.042 A 
ATOM     15  C   UNL A   1      30.265  29.351  22.490  1.00  0.00     0.046 C 
ATOM     16  C   UNL A   1      30.144  28.243  23.495  1.00  0.00    -0.032 A 
ATOM     17  C   UNL A   1      29.058  27.362  23.495  1.00  0.00     0.007 A 
ATOM     18  C   UNL A   1      31.132  28.038  24.449  1.00  0.00     0.046 A 
ATOM     19  C   UNL A   1      28.972  26.323  24.443  1.00  0.00     0.026 A 
ATOM     20  C   UNL A   1      31.079  26.930  25.300  1.00  0.00     0.047 A 
ATOM     21  Cl  UNL A   1      32.429  29.163  24.635  1.00  0.00    -0.084 Cl
ENDBRANCH  11  14
ENDBRANCH   9  10
ENDBRANCH   8   9
BRANCH   8  22
ATOM     22  N   UNL A   1      32.616  21.062  24.716  1.00  0.00    -0.330 N 
ATOM     23  H   UNL A   1      32.545  20.538  25.588  1.00  0.00     0.347 HD
ATOM     24  H   UNL A   1      33.506  21.547  24.593  1.00  0.00     0.347 HD
BRANCH  22  25
ATOM     25  C   UNL A   1      32.530  20.098  23.603  1.00  0.00     0.299 C 
BRANCH  25  26
ATOM     26  C   UNL A   1      32.822  18.666  23.997  1.00  0.00     0.024 A 
ATOM     27  C   UNL A   1      33.374  17.736  23.113  1.00  0.00     0.013 A 
ATOM     28  C   UNL A   1      32.542  18.201  25.285  1.00  0.00     0.120 A 
ATOM     29  C   UNL A   1      33.643  16.434  23.543  1.00  0.00     0.021 A 
ATOM     30  N   UNL A   1      32.777  16.941  25.732  1.00  0.00    -0.264 NA
ATOM     31  C   UNL A   1      33.338  16.089  24.849  1.00  0.00     0.111 A 
ENDBRANCH  25  26
ENDBRANCH  22  25
ENDBRANCH   8  22
ENDBRANCH   6   8
ENDBRANCH   5   6
ENDBRANCH   4   5
ENDBRANCH   3   4
ENDBRANCH   2   3
ENDBRANCH   1   2
BRANCH   1  32
ATOM     32  C   UNL A   1      36.508  22.529  24.574  1.00  0.00     0.188 C 
BRANCH  32  33
ATOM     33  O   UNL A   1      37.838  22.305  24.998  1.00  0.00    -0.376 OA
BRANCH  33  34
ATOM     34  C   UNL A   1      38.216  20.993  25.365  1.00  0.00     0.202 C 
BRANCH  34  35
ATOM     35  C   UNL A   1      39.348  20.885  26.388  1.00  0.00     0.261 C 
BRANCH  35  36
ATOM     36  O   UNL A   1      40.322  19.865  26.110  1.00  0.00    -0.460 OA
BRANCH  36  37
ATOM     37  C   UNL A   1      41.479  19.897  26.811  1.00  0.00     0.338 C 
ATOM     38  O   UNL A   1      42.138  18.939  27.185  1.00  0.00    -0.246 OA
BRANCH  37  39
ATOM     39  C   UNL A   1      41.877  21.319  26.914  1.00  0.00     0.060 A 
ATOM     40  C   UNL A   1      42.234  21.882  28.151  1.00  0.00     0.016 A 
ATOM     41  C   UNL A   1      41.936  22.082  25.750  1.00  0.00     0.016 A 
ATOM     42  C   UNL A   1      42.648  23.215  28.225  1.00  0.00     0.010 A 
ATOM     43  C   UNL A   1      42.327  23.419  25.830  1.00  0.00     0.010 A 
ATOM     44  C   UNL A   1      42.665  23.999  27.067  1.00  0.00    -0.014 A 
BRANCH  44  45
ATOM     45  C   UNL A   1      42.847  25.470  27.123  1.00  0.00     0.031 A 
ATOM     46  C   UNL A   1      44.150  26.028  26.628  1.00  0.00     0.074 A 
ATOM     47  C   UNL A   1      41.930  26.275  27.684  1.00  0.00     0.049 A 
ATOM     48  N   UNL A   1      44.677  27.207  26.814  1.00  0.00    -0.248 NA
ATOM     49  C   UNL A   1      44.981  25.106  25.839  1.00  0.00     0.031 C 
ATOM     50  C   UNL A   1      40.608  25.859  28.144  1.00  0.00     0.029 A 
ATOM     51  N   UNL A   1      41.998  27.609  28.005  1.00  0.00    -0.354 N 
ATOM     52  C   UNL A   1      45.925  27.160  26.203  1.00  0.00     0.074 A 
ATOM     53  C   UNL A   1      46.076  25.826  25.659  1.00  0.00     0.031 C 
ATOM     54  C   UNL A   1      40.005  26.907  28.732  1.00  0.00     0.029 A 
ATOM     55  C   UNL A   1      40.925  28.044  28.748  1.00  0.00     0.049 A 
ATOM     56  H   UNL A   1      42.740  28.196  27.732  1.00  0.00     0.167 HD
ATOM     57  C   UNL A   1      46.860  28.138  26.119  1.00  0.00     0.034 A 
ATOM     58  C   UNL A   1      40.737  29.198  29.422  1.00  0.00     0.034 A 
ATOM     59  C   UNL A   1      46.684  29.453  26.686  1.00  0.00     0.049 A 
ATOM     60  C   UNL A   1      41.821  30.251  29.393  1.00  0.00     0.074 A 
ATOM     61  C   UNL A   1      47.542  30.536  26.631  1.00  0.00     0.029 A 
ATOM     62  N   UNL A   1      45.582  29.855  27.433  1.00  0.00    -0.354 N 
ATOM     63  N   UNL A   1      43.001  30.208  28.816  1.00  0.00    -0.248 NA
ATOM     64  C   UNL A   1      41.550  31.508  30.107  1.00  0.00     0.031 C 
ATOM     65  C   UNL A   1      47.007  31.557  27.423  1.00  0.00     0.029 A 
ATOM     66  C   UNL A   1      45.761  31.154  27.883  1.00  0.00     0.049 A 
ATOM     67  H   UNL A   1      44.791  29.299  27.616  1.00  0.00     0.167 HD
ATOM     68  C   UNL A   1      43.596  31.442  29.067  1.00  0.00     0.074 A 
ATOM     69  C   UNL A   1      42.648  32.207  29.852  1.00  0.00     0.031 C 
ATOM     70  C   UNL A   1      44.809  31.906  28.670  1.00  0.00     0.034 A 
BRANCH  57  71
ATOM     71  C   UNL A   1      48.176  27.785  25.466  1.00  0.00     0.023 A 
ATOM     72  C   UNL A   1      48.392  27.950  24.086  1.00  0.00     0.031 A 
ATOM     73  C   UNL A   1      49.210  27.210  26.226  1.00  0.00     0.131 A 
ATOM     74  C   UNL A   1      49.565  27.452  23.497  1.00  0.00     0.055 A 
ATOM     75  C   UNL A   1      50.417  26.811  25.649  1.00  0.00     0.041 A 
ATOM     76  F   UNL A   1      49.057  27.001  27.543  1.00  0.00    -0.206 F 
ATOM     77  C   UNL A   1      50.591  26.909  24.273  1.00  0.00     0.022 A 
BRANCH  74  78
ATOM     78  S   UNL A   1      49.642  27.346  21.687  1.00  0.00     0.124 S 
ATOM     79  O   UNL A   1      50.959  26.746  21.481  1.00  0.00    -0.237 OA
ATOM     80  O   UNL A   1      48.499  26.496  21.372  1.00  0.00    -0.237 OA
ATOM     81  O   UNL A   1      49.525  28.737  21.257  1.00  0.00    -0.744 OA
ENDBRANCH  74  78
ENDBRANCH  57  71
BRANCH  58  82
ATOM     82  C   UNL A   1      39.505  29.386  30.243  1.00  0.00     0.023 A 
ATOM     83  C   UNL A   1      38.483  30.259  29.839  1.00  0.00     0.031 A 
ATOM     84  C   UNL A   1      39.339  28.691  31.455  1.00  0.00     0.131 A 
ATOM     85  C   UNL A   1      37.350  30.431  30.652  1.00  0.00     0.055 A 
ATOM     86  C   UNL A   1      38.187  28.825  32.233  1.00  0.00     0.041 A 
ATOM     87  F   UNL A   1      40.290  27.849  31.892  1.00  0.00    -0.206 F 
ATOM     88  C   UNL A   1      37.187  29.706  31.835  1.00  0.00     0.022 A 
BRANCH  85  89
ATOM     89  S   UNL A   1      36.114  31.668  30.171  1.00  0.00     0.124 S 
ATOM     90  O   UNL A   1      36.907  32.891  30.158  1.00  0.00    -0.237 OA
ATOM     91  O   UNL A   1      35.677  31.172  28.869  1.00  0.00    -0.237 OA
ATOM     92  O   UNL A   1      35.115  31.582  31.233  1.00  0.00    -0.744 OA
ENDBRANCH  85  89
ENDBRANCH  58  82
BRANCH  70  93
ATOM     93  C   UNL A   1      45.164  33.335  29.009  1.00  0.00     0.023 A 
ATOM     94  C   UNL A   1      44.741  34.424  28.227  1.00  0.00     0.031 A 
ATOM     95  C   UNL A   1      45.905  33.609  30.175  1.00  0.00     0.131 A 
ATOM     96  C   UNL A   1      45.085  35.732  28.608  1.00  0.00     0.055 A 
ATOM     97  C   UNL A   1      46.191  34.912  30.580  1.00  0.00     0.041 A 
ATOM     98  F   UNL A   1      46.340  32.607  30.957  1.00  0.00    -0.206 F 
ATOM     99  C   UNL A   1      45.786  35.983  29.790  1.00  0.00     0.022 A 
BRANCH  96 100
ATOM    100  S   UNL A   1      44.659  37.108  27.505  1.00  0.00     0.124 S 
ATOM    101  O   UNL A   1      43.490  36.584  26.805  1.00  0.00    -0.237 OA
ATOM    102  O   UNL A   1      44.408  38.197  28.443  1.00  0.00    -0.237 OA
ATOM    103  O   UNL A   1      45.855  37.267  26.678  1.00  0.00    -0.744 OA
ENDBRANCH  96 100
ENDBRANCH  70  93
ENDBRANCH  44  45
ENDBRANCH  37  39
ENDBRANCH  36  37
ENDBRANCH  35  36
ENDBRANCH  34  35
ENDBRANCH  33  34
ENDBRANCH  32  33
ENDBRANCH   1  32
TORSDOF 26
ENDMDL
