MODEL 1
REMARK VINA RESULT:     -11.2      0.000      0.000
REMARK SMILES Cc1cccc2c1N=CN1C2=[NH+]NC(=O)[C@@H]1CC(=O)OCCOCCOCCOC(=O)c1ccc(-c2c3nc(c(-c4cc(S(=O)(=O)[O-])ccc4F)c4ccc([nH]4)c(-c4cc(S(=O)(=O)[O-])ccc4F)c4nc(c(-c5cc(S(=O)(=O)[O-])ccc5F)c5ccc2[nH]5)C=C4)C=C3)cc1
REMARK SMILES IDX 25 1 24 2 23 3 22 4 21 5 20 6 18 7 19 8 17 9 16 10 1 11 2 12
REMARK SMILES IDX 3 13 7 14 4 15 6 16 8 17 5 18 11 19 9 20 10 21 12 22 13 23
REMARK SMILES IDX 14 25 15 27 26 28 27 29 28 30 29 31 30 32 31 33 32 34 33 35
REMARK SMILES IDX 94 36 34 37 93 38 35 39 36 40 37 41 87 42 38 43 92 44 86 45
REMARK SMILES IDX 88 46 39 47 91 48 85 49 84 50 40 52 72 53 52 54 71 55 53 56
REMARK SMILES IDX 56 57 70 58 89 59 54 60 55 61 69 63 90 64 57 65 41 66 42 67
REMARK SMILES IDX 50 68 43 69 49 70 51 71 48 72 44 73 45 74 46 75 47 76 73 77
REMARK SMILES IDX 74 78 82 79 75 80 81 81 83 82 80 83 76 84 77 85 78 86 79 87
REMARK SMILES IDX 58 88 59 89 67 90 60 91 66 92 68 93 65 94 61 95 62 96 63 97
REMARK SMILES IDX 64 98
REMARK H PARENT 12 24 13 26 88 51 56 62
REMARK Flexibility Score: inf
ROOT
ATOM      1  C   UNL A   1      36.314  22.889  24.960  1.00  0.00     0.188 C 
ENDROOT
BRANCH   1   2
ATOM      2  C   UNL A   1      35.489  24.054  25.512  1.00  0.00     0.188 C 
BRANCH   2   3
ATOM      3  O   UNL A   1      34.869  24.879  24.531  1.00  0.00    -0.376 OA
BRANCH   3   4
ATOM      4  C   UNL A   1      33.982  25.879  25.028  1.00  0.00     0.202 C 
BRANCH   4   5
ATOM      5  C   UNL A   1      33.066  26.537  23.980  1.00  0.00     0.261 C 
BRANCH   5   6
ATOM      6  O   UNL A   1      32.034  25.650  23.479  1.00  0.00    -0.463 OA
BRANCH   6   7
ATOM      7  C   UNL A   1      30.958  25.487  24.284  1.00  0.00     0.310 C 
ATOM      8  O   UNL A   1      30.105  26.347  24.482  1.00  0.00    -0.252 OA
BRANCH   7   9
ATOM      9  C   UNL A   1      30.794  24.082  24.811  1.00  0.00     0.183 C 
BRANCH   9  10
ATOM     10  C   UNL A   1      31.970  23.330  25.432  1.00  0.00     0.286 C 
ATOM     11  C   UNL A   1      32.202  18.124  21.791  1.00  0.00     0.047 C 
ATOM     12  C   UNL A   1      32.469  18.316  23.255  1.00  0.00    -0.024 A 
ATOM     13  C   UNL A   1      32.384  17.224  24.139  1.00  0.00     0.006 A 
ATOM     14  C   UNL A   1      32.732  19.598  23.760  1.00  0.00     0.085 A 
ATOM     15  C   UNL A   1      32.616  17.380  25.506  1.00  0.00     0.001 A 
ATOM     16  C   UNL A   1      32.957  19.729  25.140  1.00  0.00     0.092 A 
ATOM     17  N   UNL A   1      32.630  20.721  22.897  1.00  0.00    -0.215 NA
ATOM     18  C   UNL A   1      32.933  18.632  26.009  1.00  0.00     0.019 A 
ATOM     19  C   UNL A   1      32.871  21.092  25.708  1.00  0.00     0.309 C 
ATOM     20  C   UNL A   1      32.408  21.857  23.480  1.00  0.00     0.317 C 
ATOM     21  N   UNL A   1      32.366  22.056  24.840  1.00  0.00    -0.202 N 
ATOM     22  N   UNL A   1      33.163  21.245  26.967  1.00  0.00    -0.169 N 
ATOM     23  N   UNL A   1      32.717  22.385  27.556  1.00  0.00    -0.193 N 
ATOM     24  H   UNL A   1      33.680  20.572  27.465  1.00  0.00     0.340 HD
ATOM     25  C   UNL A   1      31.793  23.189  26.934  1.00  0.00     0.300 C 
ATOM     26  H   UNL A   1      33.062  22.639  28.443  1.00  0.00     0.216 HD
ATOM     27  O   UNL A   1      30.958  23.816  27.569  1.00  0.00    -0.267 OA
ENDBRANCH   9  10
ENDBRANCH   7   9
ENDBRANCH   6   7
ENDBRANCH   5   6
ENDBRANCH   4   5
ENDBRANCH   3   4
ENDBRANCH   2   3
ENDBRANCH   1   2
BRANCH   1  28
ATOM     28  O   UNL A   1      36.306  21.698  25.755  1.00  0.00    -0.376 OA
BRANCH  28  29
ATOM     29  C   UNL A   1      36.618  20.510  25.023  1.00  0.00     0.202 C 
BRANCH  29  30
ATOM     30  C   UNL A   1      38.094  20.082  25.024  1.00  0.00     0.261 C 
BRANCH  30  31
ATOM     31  O   UNL A   1      38.724  20.347  26.284  1.00  0.00    -0.460 OA
BRANCH  31  32
ATOM     32  C   UNL A   1      40.083  20.487  26.247  1.00  0.00     0.338 C 
ATOM     33  O   UNL A   1      40.888  19.720  25.780  1.00  0.00    -0.246 OA
BRANCH  32  34
ATOM     34  C   UNL A   1      40.395  21.850  26.762  1.00  0.00     0.060 A 
ATOM     35  C   UNL A   1      39.722  22.955  26.221  1.00  0.00     0.016 A 
ATOM     36  C   UNL A   1      41.294  22.029  27.811  1.00  0.00     0.016 A 
ATOM     37  C   UNL A   1      39.937  24.237  26.720  1.00  0.00     0.010 A 
ATOM     38  C   UNL A   1      41.555  23.320  28.278  1.00  0.00     0.010 A 
ATOM     39  C   UNL A   1      40.897  24.427  27.714  1.00  0.00    -0.014 A 
BRANCH  39  40
ATOM     40  C   UNL A   1      41.403  25.790  27.975  1.00  0.00     0.031 A 
ATOM     41  C   UNL A   1      42.785  26.120  27.490  1.00  0.00     0.074 A 
ATOM     42  C   UNL A   1      40.665  26.709  28.620  1.00  0.00     0.049 A 
ATOM     43  N   UNL A   1      43.468  27.223  27.631  1.00  0.00    -0.248 NA
ATOM     44  C   UNL A   1      43.494  25.060  26.751  1.00  0.00     0.031 C 
ATOM     45  C   UNL A   1      39.300  26.515  29.099  1.00  0.00     0.029 A 
ATOM     46  N   UNL A   1      40.979  27.992  28.994  1.00  0.00    -0.354 N 
ATOM     47  C   UNL A   1      44.683  26.992  27.000  1.00  0.00     0.074 A 
ATOM     48  C   UNL A   1      44.660  25.636  26.502  1.00  0.00     0.031 C 
ATOM     49  C   UNL A   1      38.897  27.635  29.724  1.00  0.00     0.029 A 
ATOM     50  C   UNL A   1      39.986  28.615  29.712  1.00  0.00     0.049 A 
ATOM     51  H   UNL A   1      41.834  28.426  28.770  1.00  0.00     0.167 HD
ATOM     52  C   UNL A   1      45.722  27.841  26.841  1.00  0.00     0.034 A 
ATOM     53  C   UNL A   1      39.966  29.828  30.303  1.00  0.00     0.034 A 
ATOM     54  C   UNL A   1      45.747  29.182  27.355  1.00  0.00     0.049 A 
ATOM     55  C   UNL A   1      41.165  30.739  30.168  1.00  0.00     0.074 A 
ATOM     56  C   UNL A   1      46.757  30.119  27.240  1.00  0.00     0.029 A 
ATOM     57  N   UNL A   1      44.726  29.775  28.080  1.00  0.00    -0.354 N 
ATOM     58  N   UNL A   1      42.292  30.529  29.529  1.00  0.00    -0.248 NA
ATOM     59  C   UNL A   1      41.087  32.056  30.818  1.00  0.00     0.031 C 
ATOM     60  C   UNL A   1      46.372  31.259  27.945  1.00  0.00     0.029 A 
ATOM     61  C   UNL A   1      45.089  31.063  28.432  1.00  0.00     0.049 A 
ATOM     62  H   UNL A   1      43.870  29.346  28.309  1.00  0.00     0.167 HD
ATOM     63  C   UNL A   1      43.034  31.700  29.661  1.00  0.00     0.074 A 
ATOM     64  C   UNL A   1      42.231  32.616  30.442  1.00  0.00     0.031 C 
ATOM     65  C   UNL A   1      44.267  31.990  29.172  1.00  0.00     0.034 A 
BRANCH  52  66
ATOM     66  C   UNL A   1      46.927  27.356  26.084  1.00  0.00     0.023 A 
ATOM     67  C   UNL A   1      47.118  27.750  24.748  1.00  0.00     0.031 A 
ATOM     68  C   UNL A   1      47.815  26.422  26.644  1.00  0.00     0.131 A 
ATOM     69  C   UNL A   1      48.151  27.177  24.000  1.00  0.00     0.055 A 
ATOM     70  C   UNL A   1      48.868  25.884  25.904  1.00  0.00     0.041 A 
ATOM     71  F   UNL A   1      47.677  26.029  27.920  1.00  0.00    -0.206 F 
ATOM     72  C   UNL A   1      49.031  26.251  24.571  1.00  0.00     0.022 A 
BRANCH  69  73
ATOM     73  S   UNL A   1      48.361  27.576  22.245  1.00  0.00     0.124 S 
ATOM     74  O   UNL A   1      48.527  26.251  21.651  1.00  0.00    -0.237 OA
ATOM     75  O   UNL A   1      47.103  28.247  21.933  1.00  0.00    -0.237 OA
ATOM     76  O   UNL A   1      49.552  28.418  22.217  1.00  0.00    -0.744 OA
ENDBRANCH  69  73
ENDBRANCH  52  66
BRANCH  53  77
ATOM     77  C   UNL A   1      38.743  30.260  31.035  1.00  0.00     0.023 A 
ATOM     78  C   UNL A   1      37.712  30.955  30.377  1.00  0.00     0.031 A 
ATOM     79  C   UNL A   1      38.624  30.053  32.419  1.00  0.00     0.131 A 
ATOM     80  C   UNL A   1      36.634  31.462  31.114  1.00  0.00     0.055 A 
ATOM     81  C   UNL A   1      37.520  30.509  33.140  1.00  0.00     0.041 A 
ATOM     82  F   UNL A   1      39.587  29.400  33.089  1.00  0.00    -0.206 F 
ATOM     83  C   UNL A   1      36.522  31.229  32.488  1.00  0.00     0.022 A 
BRANCH  80  84
ATOM     84  S   UNL A   1      35.380  32.508  30.326  1.00  0.00     0.124 S 
ATOM     85  O   UNL A   1      34.331  32.551  31.341  1.00  0.00    -0.237 OA
ATOM     86  O   UNL A   1      36.117  33.752  30.127  1.00  0.00    -0.237 OA
ATOM     87  O   UNL A   1      35.041  31.780  29.107  1.00  0.00    -0.744 OA
ENDBRANCH  80  84
ENDBRANCH  53  77
BRANCH  65  88
ATOM     88  C   UNL A   1      44.845  33.367  29.389  1.00  0.00     0.023 A 
ATOM     89  C   UNL A   1      44.608  34.372  28.430  1.00  0.00     0.031 A 
ATOM     90  C   UNL A   1      45.765  33.630  30.416  1.00  0.00     0.131 A 
ATOM     91  C   UNL A   1      45.321  35.574  28.487  1.00  0.00     0.055 A 
ATOM     92  C   UNL A   1      46.440  34.850  30.496  1.00  0.00     0.041 A 
ATOM     93  F   UNL A   1      46.036  32.699  31.344  1.00  0.00    -0.206 F 
ATOM     94  C   UNL A   1      46.231  35.823  29.520  1.00  0.00     0.022 A 
BRANCH  91  95
ATOM     95  S   UNL A   1      45.157  36.821  27.180  1.00  0.00     0.124 S 
ATOM     96  O   UNL A   1      43.766  36.648  26.768  1.00  0.00    -0.237 OA
ATOM     97  O   UNL A   1      45.445  38.060  27.899  1.00  0.00    -0.237 OA
ATOM     98  O   UNL A   1      46.150  36.424  26.187  1.00  0.00    -0.744 OA
ENDBRANCH  91  95
ENDBRANCH  65  88
ENDBRANCH  39  40
ENDBRANCH  32  34
ENDBRANCH  31  32
ENDBRANCH  30  31
ENDBRANCH  29  30
ENDBRANCH  28  29
ENDBRANCH   1  28
TORSDOF 21
ENDMDL
MODEL 2
REMARK VINA RESULT:     -11.1      1.535      7.438
REMARK SMILES Cc1cccc2c1N=CN1C2=[NH+]NC(=O)[C@@H]1CC(=O)OCCOCCOCCOC(=O)c1ccc(-c2c3nc(c(-c4cc(S(=O)(=O)[O-])ccc4F)c4ccc([nH]4)c(-c4cc(S(=O)(=O)[O-])ccc4F)c4nc(c(-c5cc(S(=O)(=O)[O-])ccc5F)c5ccc2[nH]5)C=C4)C=C3)cc1
REMARK SMILES IDX 25 1 24 2 23 3 22 4 21 5 20 6 18 7 19 8 17 9 16 10 1 11 2 12
REMARK SMILES IDX 3 13 7 14 4 15 6 16 8 17 5 18 11 19 9 20 10 21 12 22 13 23
REMARK SMILES IDX 14 25 15 27 26 28 27 29 28 30 29 31 30 32 31 33 32 34 33 35
REMARK SMILES IDX 94 36 34 37 93 38 35 39 36 40 37 41 87 42 38 43 92 44 86 45
REMARK SMILES IDX 88 46 39 47 91 48 85 49 84 50 40 52 72 53 52 54 71 55 53 56
REMARK SMILES IDX 56 57 70 58 89 59 54 60 55 61 69 63 90 64 57 65 41 66 42 67
REMARK SMILES IDX 50 68 43 69 49 70 51 71 48 72 44 73 45 74 46 75 47 76 73 77
REMARK SMILES IDX 74 78 82 79 75 80 81 81 83 82 80 83 76 84 77 85 78 86 79 87
REMARK SMILES IDX 58 88 59 89 67 90 60 91 66 92 68 93 65 94 61 95 62 96 63 97
REMARK SMILES IDX 64 98
REMARK H PARENT 12 24 13 26 88 51 56 62
REMARK Flexibility Score: inf
ROOT
ATOM      1  C   UNL A   1      35.836  23.415  24.434  1.00  0.00     0.188 C 
ENDROOT
BRANCH   1   2
ATOM      2  C   UNL A   1      34.929  24.548  24.921  1.00  0.00     0.188 C 
BRANCH   2   3
ATOM      3  O   UNL A   1      34.041  25.078  23.943  1.00  0.00    -0.376 OA
BRANCH   3   4
ATOM      4  C   UNL A   1      33.621  26.426  24.148  1.00  0.00     0.202 C 
BRANCH   4   5
ATOM      5  C   UNL A   1      32.329  26.840  23.420  1.00  0.00     0.261 C 
BRANCH   5   6
ATOM      6  O   UNL A   1      31.452  25.723  23.125  1.00  0.00    -0.463 OA
BRANCH   6   7
ATOM      7  C   UNL A   1      30.429  25.536  23.991  1.00  0.00     0.310 C 
ATOM      8  O   UNL A   1      29.546  26.360  24.208  1.00  0.00    -0.252 OA
BRANCH   7   9
ATOM      9  C   UNL A   1      30.363  24.143  24.570  1.00  0.00     0.183 C 
BRANCH   9  10
ATOM     10  C   UNL A   1      31.587  23.501  25.221  1.00  0.00     0.286 C 
ATOM     11  C   UNL A   1      32.216  18.200  21.770  1.00  0.00     0.047 C 
ATOM     12  C   UNL A   1      32.460  18.463  23.227  1.00  0.00    -0.024 A 
ATOM     13  C   UNL A   1      32.448  17.399  24.148  1.00  0.00     0.006 A 
ATOM     14  C   UNL A   1      32.626  19.777  23.686  1.00  0.00     0.085 A 
ATOM     15  C   UNL A   1      32.660  17.620  25.510  1.00  0.00     0.001 A 
ATOM     16  C   UNL A   1      32.833  19.973  25.062  1.00  0.00     0.092 A 
ATOM     17  N   UNL A   1      32.449  20.859  22.784  1.00  0.00    -0.215 NA
ATOM     18  C   UNL A   1      32.882  18.908  25.969  1.00  0.00     0.019 A 
ATOM     19  C   UNL A   1      32.645  21.345  25.580  1.00  0.00     0.309 C 
ATOM     20  C   UNL A   1      32.142  21.995  23.325  1.00  0.00     0.317 C 
ATOM     21  N   UNL A   1      32.077  22.239  24.677  1.00  0.00    -0.202 N 
ATOM     22  N   UNL A   1      32.918  21.563  26.834  1.00  0.00    -0.169 N 
ATOM     23  N   UNL A   1      32.387  22.688  27.381  1.00  0.00    -0.193 N 
ATOM     24  H   UNL A   1      33.479  20.947  27.358  1.00  0.00     0.340 HD
ATOM     25  C   UNL A   1      31.411  23.400  26.728  1.00  0.00     0.300 C 
ATOM     26  H   UNL A   1      32.707  22.998  28.259  1.00  0.00     0.216 HD
ATOM     27  O   UNL A   1      30.529  23.988  27.337  1.00  0.00    -0.267 OA
ENDBRANCH   9  10
ENDBRANCH   7   9
ENDBRANCH   6   7
ENDBRANCH   5   6
ENDBRANCH   4   5
ENDBRANCH   3   4
ENDBRANCH   2   3
ENDBRANCH   1   2
BRANCH   1  28
ATOM     28  O   UNL A   1      35.893  22.264  25.284  1.00  0.00    -0.376 OA
BRANCH  28  29
ATOM     29  C   UNL A   1      36.320  21.072  24.619  1.00  0.00     0.202 C 
BRANCH  29  30
ATOM     30  C   UNL A   1      37.750  20.601  24.926  1.00  0.00     0.261 C 
BRANCH  30  31
ATOM     31  O   UNL A   1      38.253  21.181  26.137  1.00  0.00    -0.460 OA
BRANCH  31  32
ATOM     32  C   UNL A   1      39.603  21.075  26.326  1.00  0.00     0.338 C 
ATOM     33  O   UNL A   1      40.317  20.152  26.023  1.00  0.00    -0.246 OA
BRANCH  32  34
ATOM     34  C   UNL A   1      40.073  22.388  26.850  1.00  0.00     0.060 A 
ATOM     35  C   UNL A   1      39.520  23.568  26.331  1.00  0.00     0.016 A 
ATOM     36  C   UNL A   1      41.003  22.454  27.886  1.00  0.00     0.016 A 
ATOM     37  C   UNL A   1      39.885  24.812  26.839  1.00  0.00     0.010 A 
ATOM     38  C   UNL A   1      41.414  23.701  28.361  1.00  0.00     0.010 A 
ATOM     39  C   UNL A   1      40.876  24.882  27.819  1.00  0.00    -0.014 A 
BRANCH  39  40
ATOM     40  C   UNL A   1      41.535  26.177  28.085  1.00  0.00     0.031 A 
ATOM     41  C   UNL A   1      40.732  27.230  28.791  1.00  0.00     0.074 A 
ATOM     42  C   UNL A   1      42.804  26.416  27.714  1.00  0.00     0.049 A 
ATOM     43  N   UNL A   1      41.065  28.454  29.100  1.00  0.00    -0.248 NA
ATOM     44  C   UNL A   1      39.366  26.853  29.200  1.00  0.00     0.031 C 
ATOM     45  C   UNL A   1      43.690  25.457  27.060  1.00  0.00     0.029 A 
ATOM     46  N   UNL A   1      43.559  27.557  27.827  1.00  0.00    -0.354 N 
ATOM     47  C   UNL A   1      39.955  28.992  29.739  1.00  0.00     0.074 A 
ATOM     48  C   UNL A   1      38.928  27.977  29.746  1.00  0.00     0.031 C 
ATOM     49  C   UNL A   1      44.867  26.057  26.811  1.00  0.00     0.029 A 
ATOM     50  C   UNL A   1      44.807  27.449  27.263  1.00  0.00     0.049 A 
ATOM     51  H   UNL A   1      43.238  28.375  28.271  1.00  0.00     0.167 HD
ATOM     52  C   UNL A   1      39.812  30.221  30.279  1.00  0.00     0.034 A 
ATOM     53  C   UNL A   1      45.781  28.372  27.116  1.00  0.00     0.034 A 
ATOM     54  C   UNL A   1      40.831  31.233  30.251  1.00  0.00     0.049 A 
ATOM     55  C   UNL A   1      45.576  29.762  27.671  1.00  0.00     0.074 A 
ATOM     56  C   UNL A   1      40.776  32.510  30.778  1.00  0.00     0.029 A 
ATOM     57  N   UNL A   1      42.079  31.089  29.668  1.00  0.00    -0.354 N 
ATOM     58  N   UNL A   1      44.540  30.248  28.314  1.00  0.00    -0.248 NA
ATOM     59  C   UNL A   1      46.673  30.726  27.498  1.00  0.00     0.031 C 
ATOM     60  C   UNL A   1      41.970  33.159  30.462  1.00  0.00     0.029 A 
ATOM     61  C   UNL A   1      42.799  32.262  29.808  1.00  0.00     0.049 A 
ATOM     62  H   UNL A   1      42.405  30.275  29.221  1.00  0.00     0.167 HD
ATOM     63  C   UNL A   1      44.879  31.555  28.661  1.00  0.00     0.074 A 
ATOM     64  C   UNL A   1      46.215  31.785  28.155  1.00  0.00     0.031 C 
ATOM     65  C   UNL A   1      44.149  32.473  29.342  1.00  0.00     0.034 A 
BRANCH  52  66
ATOM     66  C   UNL A   1      38.508  30.556  30.949  1.00  0.00     0.023 A 
ATOM     67  C   UNL A   1      37.527  31.278  30.247  1.00  0.00     0.031 A 
ATOM     68  C   UNL A   1      38.287  30.264  32.305  1.00  0.00     0.131 A 
ATOM     69  C   UNL A   1      36.384  31.722  30.918  1.00  0.00     0.055 A 
ATOM     70  C   UNL A   1      37.126  30.675  32.959  1.00  0.00     0.041 A 
ATOM     71  F   UNL A   1      39.192  29.565  33.010  1.00  0.00    -0.206 F 
ATOM     72  C   UNL A   1      36.174  31.420  32.268  1.00  0.00     0.022 A 
BRANCH  69  73
ATOM     73  S   UNL A   1      35.149  32.747  30.076  1.00  0.00     0.124 S 
ATOM     74  O   UNL A   1      34.656  31.839  29.043  1.00  0.00    -0.237 OA
ATOM     75  O   UNL A   1      34.210  33.037  31.154  1.00  0.00    -0.237 OA
ATOM     76  O   UNL A   1      35.917  33.885  29.582  1.00  0.00    -0.744 OA
ENDBRANCH  69  73
ENDBRANCH  52  66
BRANCH  53  77
ATOM     77  C   UNL A   1      47.056  27.984  26.450  1.00  0.00     0.023 A 
ATOM     78  C   UNL A   1      47.201  28.075  25.054  1.00  0.00     0.031 A 
ATOM     79  C   UNL A   1      48.119  27.445  27.193  1.00  0.00     0.131 A 
ATOM     80  C   UNL A   1      48.362  27.584  24.441  1.00  0.00     0.055 A 
ATOM     81  C   UNL A   1      49.297  27.011  26.585  1.00  0.00     0.041 A 
ATOM     82  F   UNL A   1      48.022  27.335  28.527  1.00  0.00    -0.206 F 
ATOM     83  C   UNL A   1      49.417  27.068  25.199  1.00  0.00     0.022 A 
BRANCH  80  84
ATOM     84  S   UNL A   1      48.506  27.527  22.635  1.00  0.00     0.124 S 
ATOM     85  O   UNL A   1      47.311  28.249  22.206  1.00  0.00    -0.237 OA
ATOM     86  O   UNL A   1      49.773  28.219  22.419  1.00  0.00    -0.237 OA
ATOM     87  O   UNL A   1      48.515  26.098  22.335  1.00  0.00    -0.744 OA
ENDBRANCH  80  84
ENDBRANCH  53  77
BRANCH  65  88
ATOM     88  C   UNL A   1      44.761  33.816  29.661  1.00  0.00     0.023 A 
ATOM     89  C   UNL A   1      45.356  34.018  30.922  1.00  0.00     0.031 A 
ATOM     90  C   UNL A   1      44.592  34.926  28.819  1.00  0.00     0.131 A 
ATOM     91  C   UNL A   1      45.715  35.309  31.327  1.00  0.00     0.055 A 
ATOM     92  C   UNL A   1      44.994  36.206  29.208  1.00  0.00     0.041 A 
ATOM     93  F   UNL A   1      44.017  34.786  27.614  1.00  0.00    -0.206 F 
ATOM     94  C   UNL A   1      45.543  36.404  30.473  1.00  0.00     0.022 A 
BRANCH  91  95
ATOM     95  S   UNL A   1      46.333  35.626  33.003  1.00  0.00     0.124 S 
ATOM     96  O   UNL A   1      45.550  36.794  33.399  1.00  0.00    -0.237 OA
ATOM     97  O   UNL A   1      45.994  34.384  33.694  1.00  0.00    -0.237 OA
ATOM     98  O   UNL A   1      47.759  35.872  32.813  1.00  0.00    -0.744 OA
ENDBRANCH  91  95
ENDBRANCH  65  88
ENDBRANCH  39  40
ENDBRANCH  32  34
ENDBRANCH  31  32
ENDBRANCH  30  31
ENDBRANCH  29  30
ENDBRANCH  28  29
ENDBRANCH   1  28
TORSDOF 21
ENDMDL
MODEL 3
REMARK VINA RESULT:     -11.0      2.195      8.337
REMARK SMILES Cc1cccc2c1N=CN1C2=[NH+]NC(=O)[C@@H]1CC(=O)OCCOCCOCCOC(=O)c1ccc(-c2c3nc(c(-c4cc(S(=O)(=O)[O-])ccc4F)c4ccc([nH]4)c(-c4cc(S(=O)(=O)[O-])ccc4F)c4nc(c(-c5cc(S(=O)(=O)[O-])ccc5F)c5ccc2[nH]5)C=C4)C=C3)cc1
REMARK SMILES IDX 25 1 24 2 23 3 22 4 21 5 20 6 18 7 19 8 17 9 16 10 1 11 2 12
REMARK SMILES IDX 3 13 7 14 4 15 6 16 8 17 5 18 11 19 9 20 10 21 12 22 13 23
REMARK SMILES IDX 14 25 15 27 26 28 27 29 28 30 29 31 30 32 31 33 32 34 33 35
REMARK SMILES IDX 94 36 34 37 93 38 35 39 36 40 37 41 87 42 38 43 92 44 86 45
REMARK SMILES IDX 88 46 39 47 91 48 85 49 84 50 40 52 72 53 52 54 71 55 53 56
REMARK SMILES IDX 56 57 70 58 89 59 54 60 55 61 69 63 90 64 57 65 41 66 42 67
REMARK SMILES IDX 50 68 43 69 49 70 51 71 48 72 44 73 45 74 46 75 47 76 73 77
REMARK SMILES IDX 74 78 82 79 75 80 81 81 83 82 80 83 76 84 77 85 78 86 79 87
REMARK SMILES IDX 58 88 59 89 67 90 60 91 66 92 68 93 65 94 61 95 62 96 63 97
REMARK SMILES IDX 64 98
REMARK H PARENT 12 24 13 26 88 51 56 62
REMARK Flexibility Score: inf
ROOT
ATOM      1  C   UNL A   1      35.456  23.172  26.039  1.00  0.00     0.188 C 
ENDROOT
BRANCH   1   2
ATOM      2  C   UNL A   1      34.393  22.827  27.085  1.00  0.00     0.188 C 
BRANCH   2   3
ATOM      3  O   UNL A   1      33.391  21.913  26.655  1.00  0.00    -0.376 OA
BRANCH   3   4
ATOM      4  C   UNL A   1      32.045  22.380  26.733  1.00  0.00     0.202 C 
BRANCH   4   5
ATOM      5  C   UNL A   1      31.673  23.506  25.751  1.00  0.00     0.261 C 
BRANCH   5   6
ATOM      6  O   UNL A   1      31.044  23.025  24.536  1.00  0.00    -0.463 OA
BRANCH   6   7
ATOM      7  C   UNL A   1      31.841  22.974  23.443  1.00  0.00     0.310 C 
ATOM      8  O   UNL A   1      32.606  22.050  23.186  1.00  0.00    -0.252 OA
BRANCH   7   9
ATOM      9  C   UNL A   1      31.601  24.093  22.457  1.00  0.00     0.183 C 
BRANCH   9  10
ATOM     10  C   UNL A   1      32.027  25.526  22.772  1.00  0.00     0.286 C 
ATOM     11  C   UNL A   1      26.397  28.361  23.592  1.00  0.00     0.047 C 
ATOM     12  C   UNL A   1      27.676  28.866  22.993  1.00  0.00    -0.024 A 
ATOM     13  C   UNL A   1      27.658  29.953  22.099  1.00  0.00     0.006 A 
ATOM     14  C   UNL A   1      28.886  28.209  23.263  1.00  0.00     0.085 A 
ATOM     15  C   UNL A   1      28.834  30.432  21.520  1.00  0.00     0.001 A 
ATOM     16  C   UNL A   1      30.054  28.708  22.663  1.00  0.00     0.092 A 
ATOM     17  N   UNL A   1      28.872  27.003  24.011  1.00  0.00    -0.215 NA
ATOM     18  C   UNL A   1      30.044  29.827  21.823  1.00  0.00     0.019 A 
ATOM     19  C   UNL A   1      31.236  27.819  22.654  1.00  0.00     0.309 C 
ATOM     20  C   UNL A   1      29.886  26.217  23.826  1.00  0.00     0.317 C 
ATOM     21  N   UNL A   1      30.986  26.510  23.055  1.00  0.00    -0.202 N 
ATOM     22  N   UNL A   1      32.351  28.297  22.183  1.00  0.00    -0.169 N 
ATOM     23  N   UNL A   1      33.294  27.386  21.826  1.00  0.00    -0.193 N 
ATOM     24  H   UNL A   1      32.504  29.265  22.092  1.00  0.00     0.340 HD
ATOM     25  C   UNL A   1      32.986  26.053  21.718  1.00  0.00     0.300 C 
ATOM     26  H   UNL A   1      34.213  27.688  21.640  1.00  0.00     0.216 HD
ATOM     27  O   UNL A   1      33.529  25.333  20.891  1.00  0.00    -0.267 OA
ENDBRANCH   9  10
ENDBRANCH   7   9
ENDBRANCH   6   7
ENDBRANCH   5   6
ENDBRANCH   4   5
ENDBRANCH   3   4
ENDBRANCH   2   3
ENDBRANCH   1   2
BRANCH   1  28
ATOM     28  O   UNL A   1      35.404  22.402  24.833  1.00  0.00    -0.376 OA
BRANCH  28  29
ATOM     29  C   UNL A   1      36.675  22.227  24.202  1.00  0.00     0.202 C 
BRANCH  29  30
ATOM     30  C   UNL A   1      37.585  21.142  24.801  1.00  0.00     0.261 C 
BRANCH  30  31
ATOM     31  O   UNL A   1      38.071  21.512  26.098  1.00  0.00    -0.460 OA
BRANCH  31  32
ATOM     32  C   UNL A   1      39.419  21.381  26.282  1.00  0.00     0.338 C 
ATOM     33  O   UNL A   1      40.119  20.455  25.956  1.00  0.00    -0.246 OA
BRANCH  32  34
ATOM     34  C   UNL A   1      39.909  22.675  26.835  1.00  0.00     0.060 A 
ATOM     35  C   UNL A   1      39.320  23.871  26.400  1.00  0.00     0.016 A 
ATOM     36  C   UNL A   1      40.896  22.704  27.819  1.00  0.00     0.016 A 
ATOM     37  C   UNL A   1      39.705  25.095  26.941  1.00  0.00     0.010 A 
ATOM     38  C   UNL A   1      41.325  23.933  28.325  1.00  0.00     0.010 A 
ATOM     39  C   UNL A   1      40.749  25.131  27.866  1.00  0.00    -0.014 A 
BRANCH  39  40
ATOM     40  C   UNL A   1      41.414  26.419  28.150  1.00  0.00     0.031 A 
ATOM     41  C   UNL A   1      40.603  27.479  28.839  1.00  0.00     0.074 A 
ATOM     42  C   UNL A   1      42.694  26.647  27.811  1.00  0.00     0.049 A 
ATOM     43  N   UNL A   1      40.940  28.699  29.159  1.00  0.00    -0.248 NA
ATOM     44  C   UNL A   1      39.225  27.115  29.213  1.00  0.00     0.031 C 
ATOM     45  C   UNL A   1      43.586  25.681  27.178  1.00  0.00     0.029 A 
ATOM     46  N   UNL A   1      43.456  27.781  27.946  1.00  0.00    -0.354 N 
ATOM     47  C   UNL A   1      39.820  29.246  29.770  1.00  0.00     0.074 A 
ATOM     48  C   UNL A   1      38.783  28.241  29.750  1.00  0.00     0.031 C 
ATOM     49  C   UNL A   1      44.775  26.271  26.959  1.00  0.00     0.029 A 
ATOM     50  C   UNL A   1      44.717  27.662  27.412  1.00  0.00     0.049 A 
ATOM     51  H   UNL A   1      43.132  28.601  28.383  1.00  0.00     0.167 HD
ATOM     52  C   UNL A   1      39.675  30.476  30.310  1.00  0.00     0.034 A 
ATOM     53  C   UNL A   1      45.703  28.576  27.291  1.00  0.00     0.034 A 
ATOM     54  C   UNL A   1      40.704  31.478  30.309  1.00  0.00     0.049 A 
ATOM     55  C   UNL A   1      45.497  29.967  27.844  1.00  0.00     0.074 A 
ATOM     56  C   UNL A   1      40.648  32.755  30.836  1.00  0.00     0.029 A 
ATOM     57  N   UNL A   1      41.965  31.324  29.756  1.00  0.00    -0.354 N 
ATOM     58  N   UNL A   1      44.450  30.462  28.462  1.00  0.00    -0.248 NA
ATOM     59  C   UNL A   1      46.607  30.921  27.700  1.00  0.00     0.031 C 
ATOM     60  C   UNL A   1      41.855  33.394  30.551  1.00  0.00     0.029 A 
ATOM     61  C   UNL A   1      42.692  32.489  29.916  1.00  0.00     0.049 A 
ATOM     62  H   UNL A   1      42.294  30.507  29.316  1.00  0.00     0.167 HD
ATOM     63  C   UNL A   1      44.792  31.764  28.820  1.00  0.00     0.074 A 
ATOM     64  C   UNL A   1      46.143  31.983  28.348  1.00  0.00     0.031 C 
ATOM     65  C   UNL A   1      44.055  32.689  29.485  1.00  0.00     0.034 A 
BRANCH  52  66
ATOM     66  C   UNL A   1      38.358  30.822  30.947  1.00  0.00     0.023 A 
ATOM     67  C   UNL A   1      37.382  31.509  30.206  1.00  0.00     0.031 A 
ATOM     68  C   UNL A   1      38.119  30.576  32.310  1.00  0.00     0.131 A 
ATOM     69  C   UNL A   1      36.224  31.966  30.844  1.00  0.00     0.055 A 
ATOM     70  C   UNL A   1      36.944  30.999  32.932  1.00  0.00     0.041 A 
ATOM     71  F   UNL A   1      39.019  29.911  33.052  1.00  0.00    -0.206 F 
ATOM     72  C   UNL A   1      35.997  31.710  32.201  1.00  0.00     0.022 A 
BRANCH  69  73
ATOM     73  S   UNL A   1      34.994  32.950  29.948  1.00  0.00     0.124 S 
ATOM     74  O   UNL A   1      34.090  33.355  31.023  1.00  0.00    -0.237 OA
ATOM     75  O   UNL A   1      35.812  34.018  29.384  1.00  0.00    -0.237 OA
ATOM     76  O   UNL A   1      34.427  32.011  28.987  1.00  0.00    -0.744 OA
ENDBRANCH  69  73
ENDBRANCH  52  66
BRANCH  53  77
ATOM     77  C   UNL A   1      46.990  28.178  26.656  1.00  0.00     0.023 A 
ATOM     78  C   UNL A   1      47.135  28.166  25.257  1.00  0.00     0.031 A 
ATOM     79  C   UNL A   1      48.068  27.729  27.438  1.00  0.00     0.131 A 
ATOM     80  C   UNL A   1      48.311  27.665  24.684  1.00  0.00     0.055 A 
ATOM     81  C   UNL A   1      49.260  27.285  26.864  1.00  0.00     0.041 A 
ATOM     82  F   UNL A   1      47.971  27.718  28.776  1.00  0.00    -0.206 F 
ATOM     83  C   UNL A   1      49.380  27.240  25.478  1.00  0.00     0.022 A 
BRANCH  80  84
ATOM     84  S   UNL A   1      48.460  27.474  22.886  1.00  0.00     0.124 S 
ATOM     85  O   UNL A   1      47.314  28.236  22.399  1.00  0.00    -0.237 OA
ATOM     86  O   UNL A   1      49.768  28.073  22.635  1.00  0.00    -0.237 OA
ATOM     87  O   UNL A   1      48.385  26.031  22.686  1.00  0.00    -0.744 OA
ENDBRANCH  80  84
ENDBRANCH  53  77
BRANCH  65  88
ATOM     88  C   UNL A   1      44.671  34.025  29.822  1.00  0.00     0.023 A 
ATOM     89  C   UNL A   1      44.548  35.090  28.907  1.00  0.00     0.031 A 
ATOM     90  C   UNL A   1      45.522  34.191  30.926  1.00  0.00     0.131 A 
ATOM     91  C   UNL A   1      45.303  36.254  29.084  1.00  0.00     0.055 A 
ATOM     92  C   UNL A   1      46.239  35.373  31.124  1.00  0.00     0.041 A 
ATOM     93  F   UNL A   1      45.684  33.200  31.817  1.00  0.00    -0.206 F 
ATOM     94  C   UNL A   1      46.143  36.405  30.192  1.00  0.00     0.022 A 
BRANCH  91  95
ATOM     95  S   UNL A   1      45.289  37.576  27.841  1.00  0.00     0.124 S 
ATOM     96  O   UNL A   1      46.606  37.426  27.225  1.00  0.00    -0.237 OA
ATOM     97  O   UNL A   1      44.159  37.192  26.999  1.00  0.00    -0.237 OA
ATOM     98  O   UNL A   1      45.107  38.794  28.623  1.00  0.00    -0.744 OA
ENDBRANCH  91  95
ENDBRANCH  65  88
ENDBRANCH  39  40
ENDBRANCH  32  34
ENDBRANCH  31  32
ENDBRANCH  30  31
ENDBRANCH  29  30
ENDBRANCH  28  29
ENDBRANCH   1  28
TORSDOF 21
ENDMDL
