MODEL 1
REMARK VINA RESULT:     -10.9      0.000      0.000
REMARK SMILES O=C(COC1(Cc2ccccc2)CCCCC1)OCCOCCOCCOC(=O)c1ccc(-c2c3nc(c(-c4cc(S(=O)(=O)[O-])ccc4F)c4ccc([nH]4)c(-c4cc(S(=O)(=O)[O-])ccc4F)c4nc(c(-c5cc(S(=O)(=O)[O-])ccc5F)c5ccc2[nH]5)C=C4)C=C3)cc1
REMARK SMILES IDX 22 1 21 2 20 3 19 4 18 5 2 6 1 7 3 8 4 9 5 10 13 11 17 12
REMARK SMILES IDX 14 13 16 14 15 15 6 16 7 17 8 18 12 19 9 20 11 21 10 22
REMARK SMILES IDX 23 23 24 24 25 25 26 26 27 27 28 28 29 29 30 30 31 31 92 32
REMARK SMILES IDX 32 33 91 34 33 35 34 36 35 37 85 38 36 39 90 40 84 41 86 42
REMARK SMILES IDX 37 43 89 44 83 45 82 46 38 48 70 49 50 50 69 51 51 52 54 53
REMARK SMILES IDX 68 54 87 55 52 56 53 57 67 59 88 60 55 61 39 62 40 63 48 64
REMARK SMILES IDX 41 65 47 66 49 67 46 68 42 69 43 70 44 71 45 72 71 73 72 74
REMARK SMILES IDX 80 75 73 76 79 77 81 78 78 79 74 80 75 81 76 82 77 83 56 84
REMARK SMILES IDX 57 85 65 86 58 87 64 88 66 89 63 90 59 91 60 92 61 93 62 94
REMARK H PARENT 86 47 54 58
REMARK Flexibility Score: inf
ROOT
ATOM      1  C   UNL A   1      33.289  27.716  24.181  1.00  0.00     0.188 C 
ENDROOT
BRANCH   1   2
ATOM      2  O   UNL A   1      33.118  26.310  24.306  1.00  0.00    -0.376 OA
BRANCH   2   3
ATOM      3  C   UNL A   1      33.460  25.784  25.580  1.00  0.00     0.202 C 
BRANCH   3   4
ATOM      4  C   UNL A   1      32.172  25.495  26.343  1.00  0.00     0.261 C 
BRANCH   4   5
ATOM      5  O   UNL A   1      32.031  24.115  26.751  1.00  0.00    -0.462 OA
BRANCH   5   6
ATOM      6  C   UNL A   1      30.912  23.369  26.628  1.00  0.00     0.332 C 
ATOM      7  O   UNL A   1      29.977  23.522  27.413  1.00  0.00    -0.250 OA
BRANCH   6   8
ATOM      8  C   UNL A   1      30.842  22.346  25.496  1.00  0.00     0.283 C 
BRANCH   8   9
ATOM      9  O   UNL A   1      31.691  21.228  25.541  1.00  0.00    -0.363 OA
BRANCH   9  10
ATOM     10  C   UNL A   1      32.818  21.185  24.639  1.00  0.00     0.073 C 
ATOM     11  C   UNL A   1      32.965  22.516  23.844  1.00  0.00     0.036 C 
ATOM     12  C   UNL A   1      34.101  20.843  25.439  1.00  0.00     0.036 C 
ATOM     13  C   UNL A   1      34.303  22.706  23.143  1.00  0.00     0.003 C 
ATOM     14  C   UNL A   1      35.401  21.079  24.681  1.00  0.00     0.003 C 
ATOM     15  C   UNL A   1      35.449  22.493  24.120  1.00  0.00     0.000 C 
BRANCH  10  16
ATOM     16  C   UNL A   1      32.461  20.039  23.632  1.00  0.00     0.071 C 
BRANCH  16  17
ATOM     17  C   UNL A   1      32.844  18.628  24.056  1.00  0.00    -0.045 A 
ATOM     18  C   UNL A   1      33.557  17.799  23.181  1.00  0.00     0.004 A 
ATOM     19  C   UNL A   1      32.483  18.120  25.315  1.00  0.00     0.004 A 
ATOM     20  C   UNL A   1      33.921  16.506  23.567  1.00  0.00     0.000 A 
ATOM     21  C   UNL A   1      32.859  16.834  25.705  1.00  0.00     0.000 A 
ATOM     22  C   UNL A   1      33.581  16.027  24.830  1.00  0.00     0.000 A 
ENDBRANCH  16  17
ENDBRANCH  10  16
ENDBRANCH   9  10
ENDBRANCH   8   9
ENDBRANCH   6   8
ENDBRANCH   5   6
ENDBRANCH   4   5
ENDBRANCH   3   4
ENDBRANCH   2   3
ENDBRANCH   1   2
BRANCH   1  23
ATOM     23  C   UNL A   1      32.008  28.407  23.707  1.00  0.00     0.188 C 
BRANCH  23  24
ATOM     24  O   UNL A   1      31.218  29.122  24.646  1.00  0.00    -0.376 OA
BRANCH  24  25
ATOM     25  C   UNL A   1      31.444  28.920  26.031  1.00  0.00     0.202 C 
BRANCH  25  26
ATOM     26  C   UNL A   1      31.794  30.162  26.858  1.00  0.00     0.261 C 
BRANCH  26  27
ATOM     27  O   UNL A   1      32.974  30.869  26.428  1.00  0.00    -0.460 OA
BRANCH  27  28
ATOM     28  C   UNL A   1      33.490  31.747  27.326  1.00  0.00     0.338 C 
ATOM     29  O   UNL A   1      32.894  32.648  27.888  1.00  0.00    -0.246 OA
BRANCH  28  30
ATOM     30  C   UNL A   1      34.898  31.409  27.640  1.00  0.00     0.060 A 
ATOM     31  C   UNL A   1      35.248  30.064  27.840  1.00  0.00     0.016 A 
ATOM     32  C   UNL A   1      35.830  32.418  27.882  1.00  0.00     0.016 A 
ATOM     33  C   UNL A   1      36.514  29.730  28.338  1.00  0.00     0.010 A 
ATOM     34  C   UNL A   1      37.089  32.083  28.395  1.00  0.00     0.010 A 
ATOM     35  C   UNL A   1      37.425  30.742  28.668  1.00  0.00    -0.014 A 
BRANCH  35  36
ATOM     36  C   UNL A   1      38.631  30.462  29.496  1.00  0.00     0.031 A 
ATOM     37  C   UNL A   1      39.625  29.452  28.987  1.00  0.00     0.074 A 
ATOM     38  C   UNL A   1      38.815  31.024  30.704  1.00  0.00     0.049 A 
ATOM     39  N   UNL A   1      40.616  28.866  29.608  1.00  0.00    -0.248 NA
ATOM     40  C   UNL A   1      39.457  29.038  27.587  1.00  0.00     0.031 C 
ATOM     41  C   UNL A   1      37.970  32.057  31.293  1.00  0.00     0.029 A 
ATOM     42  N   UNL A   1      39.762  30.767  31.667  1.00  0.00    -0.354 N 
ATOM     43  C   UNL A   1      41.176  27.989  28.683  1.00  0.00     0.074 A 
ATOM     44  C   UNL A   1      40.394  28.112  27.470  1.00  0.00     0.031 C 
ATOM     45  C   UNL A   1      38.407  32.315  32.539  1.00  0.00     0.029 A 
ATOM     46  C   UNL A   1      39.529  31.428  32.852  1.00  0.00     0.049 A 
ATOM     47  H   UNL A   1      40.531  30.170  31.524  1.00  0.00     0.167 HD
ATOM     48  C   UNL A   1      42.236  27.156  28.834  1.00  0.00     0.034 A 
ATOM     49  C   UNL A   1      40.110  31.292  34.062  1.00  0.00     0.034 A 
ATOM     50  C   UNL A   1      42.994  27.030  30.056  1.00  0.00     0.049 A 
ATOM     51  C   UNL A   1      41.228  30.292  34.247  1.00  0.00     0.074 A 
ATOM     52  C   UNL A   1      44.094  26.230  30.311  1.00  0.00     0.029 A 
ATOM     53  N   UNL A   1      42.715  27.706  31.237  1.00  0.00    -0.354 N 
ATOM     54  N   UNL A   1      41.746  29.458  33.376  1.00  0.00    -0.248 NA
ATOM     55  C   UNL A   1      41.839  30.215  35.583  1.00  0.00     0.031 C 
ATOM     56  C   UNL A   1      44.431  26.363  31.663  1.00  0.00     0.029 A 
ATOM     57  C   UNL A   1      43.598  27.314  32.232  1.00  0.00     0.049 A 
ATOM     58  H   UNL A   1      41.996  28.368  31.351  1.00  0.00     0.167 HD
ATOM     59  C   UNL A   1      42.763  28.781  34.048  1.00  0.00     0.074 A 
ATOM     60  C   UNL A   1      42.784  29.302  35.399  1.00  0.00     0.031 C 
ATOM     61  C   UNL A   1      43.612  27.829  33.583  1.00  0.00     0.034 A 
BRANCH  48  62
ATOM     62  C   UNL A   1      42.577  26.263  27.663  1.00  0.00     0.023 A 
ATOM     63  C   UNL A   1      41.991  24.995  27.498  1.00  0.00     0.031 A 
ATOM     64  C   UNL A   1      43.561  26.655  26.736  1.00  0.00     0.131 A 
ATOM     65  C   UNL A   1      42.465  24.128  26.503  1.00  0.00     0.055 A 
ATOM     66  C   UNL A   1      43.961  25.824  25.688  1.00  0.00     0.041 A 
ATOM     67  F   UNL A   1      44.173  27.843  26.851  1.00  0.00    -0.206 F 
ATOM     68  C   UNL A   1      43.428  24.543  25.580  1.00  0.00     0.022 A 
BRANCH  65  69
ATOM     69  S   UNL A   1      41.948  22.390  26.555  1.00  0.00     0.124 S 
ATOM     70  O   UNL A   1      42.724  21.819  25.456  1.00  0.00    -0.237 OA
ATOM     71  O   UNL A   1      42.346  21.984  27.898  1.00  0.00    -0.237 OA
ATOM     72  O   UNL A   1      40.507  22.454  26.321  1.00  0.00    -0.744 OA
ENDBRANCH  65  69
ENDBRANCH  48  62
BRANCH  49  73
ATOM     73  C   UNL A   1      39.595  32.074  35.222  1.00  0.00     0.023 A 
ATOM     74  C   UNL A   1      40.023  33.388  35.468  1.00  0.00     0.031 A 
ATOM     75  C   UNL A   1      38.670  31.501  36.115  1.00  0.00     0.131 A 
ATOM     76  C   UNL A   1      39.544  34.078  36.594  1.00  0.00     0.055 A 
ATOM     77  C   UNL A   1      38.164  32.207  37.207  1.00  0.00     0.041 A 
ATOM     78  F   UNL A   1      38.231  30.247  35.924  1.00  0.00    -0.206 F 
ATOM     79  C   UNL A   1      38.607  33.502  37.456  1.00  0.00     0.022 A 
BRANCH  76  80
ATOM     80  S   UNL A   1      40.196  35.733  36.944  1.00  0.00     0.124 S 
ATOM     81  O   UNL A   1      39.693  36.498  35.808  1.00  0.00    -0.237 OA
ATOM     82  O   UNL A   1      39.590  36.032  38.238  1.00  0.00    -0.237 OA
ATOM     83  O   UNL A   1      41.643  35.531  36.970  1.00  0.00    -0.744 OA
ENDBRANCH  76  80
ENDBRANCH  49  73
BRANCH  61  84
ATOM     84  C   UNL A   1      44.687  27.327  34.519  1.00  0.00     0.023 A 
ATOM     85  C   UNL A   1      44.551  26.136  35.253  1.00  0.00     0.031 A 
ATOM     86  C   UNL A   1      45.888  28.050  34.652  1.00  0.00     0.131 A 
ATOM     87  C   UNL A   1      45.584  25.721  36.111  1.00  0.00     0.055 A 
ATOM     88  C   UNL A   1      46.931  27.606  35.466  1.00  0.00     0.041 A 
ATOM     89  F   UNL A   1      46.072  29.196  33.978  1.00  0.00    -0.206 F 
ATOM     90  C   UNL A   1      46.780  26.439  36.207  1.00  0.00     0.022 A 
BRANCH  87  91
ATOM     91  S   UNL A   1      45.327  24.258  37.154  1.00  0.00     0.124 S 
ATOM     92  O   UNL A   1      46.696  23.869  37.473  1.00  0.00    -0.237 OA
ATOM     93  O   UNL A   1      44.541  24.795  38.260  1.00  0.00    -0.237 OA
ATOM     94  O   UNL A   1      44.607  23.333  36.278  1.00  0.00    -0.744 OA
ENDBRANCH  87  91
ENDBRANCH  61  84
ENDBRANCH  35  36
ENDBRANCH  28  30
ENDBRANCH  27  28
ENDBRANCH  26  27
ENDBRANCH  25  26
ENDBRANCH  24  25
ENDBRANCH  23  24
ENDBRANCH   1  23
TORSDOF 24
ENDMDL
MODEL 2
REMARK VINA RESULT:     -10.1      1.579      2.253
REMARK SMILES O=C(COC1(Cc2ccccc2)CCCCC1)OCCOCCOCCOC(=O)c1ccc(-c2c3nc(c(-c4cc(S(=O)(=O)[O-])ccc4F)c4ccc([nH]4)c(-c4cc(S(=O)(=O)[O-])ccc4F)c4nc(c(-c5cc(S(=O)(=O)[O-])ccc5F)c5ccc2[nH]5)C=C4)C=C3)cc1
REMARK SMILES IDX 22 1 21 2 20 3 19 4 18 5 2 6 1 7 3 8 4 9 5 10 13 11 17 12
REMARK SMILES IDX 14 13 16 14 15 15 6 16 7 17 8 18 12 19 9 20 11 21 10 22
REMARK SMILES IDX 23 23 24 24 25 25 26 26 27 27 28 28 29 29 30 30 31 31 92 32
REMARK SMILES IDX 32 33 91 34 33 35 34 36 35 37 85 38 36 39 90 40 84 41 86 42
REMARK SMILES IDX 37 43 89 44 83 45 82 46 38 48 70 49 50 50 69 51 51 52 54 53
REMARK SMILES IDX 68 54 87 55 52 56 53 57 67 59 88 60 55 61 39 62 40 63 48 64
REMARK SMILES IDX 41 65 47 66 49 67 46 68 42 69 43 70 44 71 45 72 71 73 72 74
REMARK SMILES IDX 80 75 73 76 79 77 81 78 78 79 74 80 75 81 76 82 77 83 56 84
REMARK SMILES IDX 57 85 65 86 58 87 64 88 66 89 63 90 59 91 60 92 61 93 62 94
REMARK H PARENT 86 47 54 58
REMARK Flexibility Score: inf
ROOT
ATOM      1  C   UNL A   1      32.936  27.922  24.061  1.00  0.00     0.188 C 
ENDROOT
BRANCH   1   2
ATOM      2  O   UNL A   1      33.002  26.574  24.508  1.00  0.00    -0.376 OA
BRANCH   2   3
ATOM      3  C   UNL A   1      34.138  25.854  24.051  1.00  0.00     0.202 C 
BRANCH   3   4
ATOM      4  C   UNL A   1      34.620  24.949  25.179  1.00  0.00     0.261 C 
BRANCH   4   5
ATOM      5  O   UNL A   1      35.524  23.906  24.747  1.00  0.00    -0.462 OA
BRANCH   5   6
ATOM      6  C   UNL A   1      36.099  22.983  25.548  1.00  0.00     0.332 C 
ATOM      7  O   UNL A   1      37.244  23.150  25.962  1.00  0.00    -0.250 OA
BRANCH   6   8
ATOM      8  C   UNL A   1      35.290  21.743  25.923  1.00  0.00     0.283 C 
BRANCH   8   9
ATOM      9  O   UNL A   1      34.361  21.235  24.998  1.00  0.00    -0.363 OA
BRANCH   9  10
ATOM     10  C   UNL A   1      32.966  21.559  25.178  1.00  0.00     0.073 C 
ATOM     11  C   UNL A   1      32.722  22.315  26.518  1.00  0.00     0.036 C 
ATOM     12  C   UNL A   1      32.466  22.371  23.956  1.00  0.00     0.036 C 
ATOM     13  C   UNL A   1      31.370  23.004  26.636  1.00  0.00     0.003 C 
ATOM     14  C   UNL A   1      31.118  23.050  24.155  1.00  0.00     0.003 C 
ATOM     15  C   UNL A   1      31.119  23.890  25.424  1.00  0.00     0.000 C 
BRANCH  10  16
ATOM     16  C   UNL A   1      32.255  20.165  25.256  1.00  0.00     0.071 C 
BRANCH  16  17
ATOM     17  C   UNL A   1      32.874  19.047  24.428  1.00  0.00    -0.045 A 
ATOM     18  C   UNL A   1      32.321  18.698  23.190  1.00  0.00     0.004 A 
ATOM     19  C   UNL A   1      33.993  18.333  24.887  1.00  0.00     0.004 A 
ATOM     20  C   UNL A   1      32.890  17.680  22.420  1.00  0.00     0.000 A 
ATOM     21  C   UNL A   1      34.570  17.326  24.112  1.00  0.00     0.000 A 
ATOM     22  C   UNL A   1      34.018  17.001  22.876  1.00  0.00     0.000 A 
ENDBRANCH  16  17
ENDBRANCH  10  16
ENDBRANCH   9  10
ENDBRANCH   8   9
ENDBRANCH   6   8
ENDBRANCH   5   6
ENDBRANCH   4   5
ENDBRANCH   3   4
ENDBRANCH   2   3
ENDBRANCH   1   2
BRANCH   1  23
ATOM     23  C   UNL A   1      31.498  28.447  24.042  1.00  0.00     0.188 C 
BRANCH  23  24
ATOM     24  O   UNL A   1      31.091  29.385  25.027  1.00  0.00    -0.376 OA
BRANCH  24  25
ATOM     25  C   UNL A   1      31.720  29.367  26.298  1.00  0.00     0.202 C 
BRANCH  25  26
ATOM     26  C   UNL A   1      32.011  30.728  26.939  1.00  0.00     0.261 C 
BRANCH  26  27
ATOM     27  O   UNL A   1      33.331  31.251  26.690  1.00  0.00    -0.460 OA
BRANCH  27  28
ATOM     28  C   UNL A   1      33.879  31.965  27.707  1.00  0.00     0.338 C 
ATOM     29  O   UNL A   1      33.315  32.790  28.403  1.00  0.00    -0.246 OA
BRANCH  28  30
ATOM     30  C   UNL A   1      35.275  31.537  27.954  1.00  0.00     0.060 A 
ATOM     31  C   UNL A   1      35.543  30.175  28.164  1.00  0.00     0.016 A 
ATOM     32  C   UNL A   1      36.285  32.484  28.127  1.00  0.00     0.016 A 
ATOM     33  C   UNL A   1      36.809  29.763  28.603  1.00  0.00     0.010 A 
ATOM     34  C   UNL A   1      37.543  32.072  28.582  1.00  0.00     0.010 A 
ATOM     35  C   UNL A   1      37.802  30.716  28.865  1.00  0.00    -0.014 A 
BRANCH  35  36
ATOM     36  C   UNL A   1      39.028  30.369  29.636  1.00  0.00     0.031 A 
ATOM     37  C   UNL A   1      39.907  29.262  29.115  1.00  0.00     0.074 A 
ATOM     38  C   UNL A   1      39.328  30.958  30.806  1.00  0.00     0.049 A 
ATOM     39  N   UNL A   1      40.882  28.619  29.704  1.00  0.00    -0.248 NA
ATOM     40  C   UNL A   1      39.623  28.811  27.745  1.00  0.00     0.031 C 
ATOM     41  C   UNL A   1      38.604  32.079  31.398  1.00  0.00     0.029 A 
ATOM     42  N   UNL A   1      40.306  30.661  31.726  1.00  0.00    -0.354 N 
ATOM     43  C   UNL A   1      41.314  27.666  28.787  1.00  0.00     0.074 A 
ATOM     44  C   UNL A   1      40.474  27.807  27.615  1.00  0.00     0.031 C 
ATOM     45  C   UNL A   1      39.134  32.347  32.605  1.00  0.00     0.029 A 
ATOM     46  C   UNL A   1      40.197  31.382  32.892  1.00  0.00     0.049 A 
ATOM     47  H   UNL A   1      41.015  29.997  31.565  1.00  0.00     0.167 HD
ATOM     48  C   UNL A   1      42.310  26.754  28.913  1.00  0.00     0.034 A 
ATOM     49  C   UNL A   1      40.836  31.244  34.074  1.00  0.00     0.034 A 
ATOM     50  C   UNL A   1      43.126  26.611  30.096  1.00  0.00     0.049 A 
ATOM     51  C   UNL A   1      41.879  30.163  34.238  1.00  0.00     0.074 A 
ATOM     52  C   UNL A   1      44.172  25.734  30.322  1.00  0.00     0.029 A 
ATOM     53  N   UNL A   1      42.973  27.352  31.261  1.00  0.00    -0.354 N 
ATOM     54  N   UNL A   1      42.276  29.256  33.375  1.00  0.00    -0.248 NA
ATOM     55  C   UNL A   1      42.559  30.085  35.540  1.00  0.00     0.031 C 
ATOM     56  C   UNL A   1      44.597  25.889  31.647  1.00  0.00     0.029 A 
ATOM     57  C   UNL A   1      43.879  26.925  32.221  1.00  0.00     0.049 A 
ATOM     58  H   UNL A   1      42.317  28.075  31.387  1.00  0.00     0.167 HD
ATOM     59  C   UNL A   1      43.273  28.524  34.017  1.00  0.00     0.074 A 
ATOM     60  C   UNL A   1      43.415  29.091  35.342  1.00  0.00     0.031 C 
ATOM     61  C   UNL A   1      44.013  27.488  33.546  1.00  0.00     0.034 A 
BRANCH  48  62
ATOM     62  C   UNL A   1      42.509  25.792  27.764  1.00  0.00     0.023 A 
ATOM     63  C   UNL A   1      41.854  24.549  27.712  1.00  0.00     0.031 A 
ATOM     64  C   UNL A   1      43.427  26.092  26.740  1.00  0.00     0.131 A 
ATOM     65  C   UNL A   1      42.202  23.615  26.725  1.00  0.00     0.055 A 
ATOM     66  C   UNL A   1      43.697  25.196  25.705  1.00  0.00     0.041 A 
ATOM     67  F   UNL A   1      44.100  27.253  26.745  1.00  0.00    -0.206 F 
ATOM     68  C   UNL A   1      43.099  23.939  25.705  1.00  0.00     0.022 A 
BRANCH  65  69
ATOM     69  S   UNL A   1      41.612  21.909  26.906  1.00  0.00     0.124 S 
ATOM     70  O   UNL A   1      40.400  22.098  27.699  1.00  0.00    -0.237 OA
ATOM     71  O   UNL A   1      41.412  21.497  25.521  1.00  0.00    -0.237 OA
ATOM     72  O   UNL A   1      42.707  21.241  27.606  1.00  0.00    -0.744 OA
ENDBRANCH  65  69
ENDBRANCH  48  62
BRANCH  49  73
ATOM     73  C   UNL A   1      40.454  32.109  35.226  1.00  0.00     0.023 A 
ATOM     74  C   UNL A   1      39.387  31.773  36.073  1.00  0.00     0.031 A 
ATOM     75  C   UNL A   1      41.153  33.303  35.484  1.00  0.00     0.131 A 
ATOM     76  C   UNL A   1      39.033  32.634  37.124  1.00  0.00     0.055 A 
ATOM     77  C   UNL A   1      40.825  34.133  36.557  1.00  0.00     0.041 A 
ATOM     78  F   UNL A   1      42.181  33.670  34.702  1.00  0.00    -0.206 F 
ATOM     79  C   UNL A   1      39.753  33.803  37.381  1.00  0.00     0.022 A 
BRANCH  76  80
ATOM     80  S   UNL A   1      37.583  32.226  38.135  1.00  0.00     0.124 S 
ATOM     81  O   UNL A   1      37.430  30.799  37.872  1.00  0.00    -0.237 OA
ATOM     82  O   UNL A   1      38.035  32.587  39.475  1.00  0.00    -0.237 OA
ATOM     83  O   UNL A   1      36.533  33.080  37.584  1.00  0.00    -0.744 OA
ENDBRANCH  76  80
ENDBRANCH  49  73
BRANCH  61  84
ATOM     84  C   UNL A   1      45.098  26.934  34.441  1.00  0.00     0.023 A 
ATOM     85  C   UNL A   1      44.840  25.964  35.425  1.00  0.00     0.031 A 
ATOM     86  C   UNL A   1      46.426  27.372  34.279  1.00  0.00     0.131 A 
ATOM     87  C   UNL A   1      45.889  25.488  36.230  1.00  0.00     0.055 A 
ATOM     88  C   UNL A   1      47.472  26.858  35.046  1.00  0.00     0.041 A 
ATOM     89  F   UNL A   1      46.731  28.299  33.357  1.00  0.00    -0.206 F 
ATOM     90  C   UNL A   1      47.206  25.916  36.034  1.00  0.00     0.022 A 
BRANCH  87  91
ATOM     91  S   UNL A   1      45.508  24.344  37.586  1.00  0.00     0.124 S 
ATOM     92  O   UNL A   1      45.399  23.069  36.885  1.00  0.00    -0.237 OA
ATOM     93  O   UNL A   1      46.667  24.495  38.460  1.00  0.00    -0.237 OA
ATOM     94  O   UNL A   1      44.253  24.861  38.131  1.00  0.00    -0.744 OA
ENDBRANCH  87  91
ENDBRANCH  61  84
ENDBRANCH  35  36
ENDBRANCH  28  30
ENDBRANCH  27  28
ENDBRANCH  26  27
ENDBRANCH  25  26
ENDBRANCH  24  25
ENDBRANCH  23  24
ENDBRANCH   1  23
TORSDOF 24
ENDMDL
MODEL 3
REMARK VINA RESULT:      -9.9      4.595      8.214
REMARK SMILES O=C(COC1(Cc2ccccc2)CCCCC1)OCCOCCOCCOC(=O)c1ccc(-c2c3nc(c(-c4cc(S(=O)(=O)[O-])ccc4F)c4ccc([nH]4)c(-c4cc(S(=O)(=O)[O-])ccc4F)c4nc(c(-c5cc(S(=O)(=O)[O-])ccc5F)c5ccc2[nH]5)C=C4)C=C3)cc1
REMARK SMILES IDX 22 1 21 2 20 3 19 4 18 5 2 6 1 7 3 8 4 9 5 10 13 11 17 12
REMARK SMILES IDX 14 13 16 14 15 15 6 16 7 17 8 18 12 19 9 20 11 21 10 22
REMARK SMILES IDX 23 23 24 24 25 25 26 26 27 27 28 28 29 29 30 30 31 31 92 32
REMARK SMILES IDX 32 33 91 34 33 35 34 36 35 37 85 38 36 39 90 40 84 41 86 42
REMARK SMILES IDX 37 43 89 44 83 45 82 46 38 48 70 49 50 50 69 51 51 52 54 53
REMARK SMILES IDX 68 54 87 55 52 56 53 57 67 59 88 60 55 61 39 62 40 63 48 64
REMARK SMILES IDX 41 65 47 66 49 67 46 68 42 69 43 70 44 71 45 72 71 73 72 74
REMARK SMILES IDX 80 75 73 76 79 77 81 78 78 79 74 80 75 81 76 82 77 83 56 84
REMARK SMILES IDX 57 85 65 86 58 87 64 88 66 89 63 90 59 91 60 92 61 93 62 94
REMARK H PARENT 86 47 54 58
REMARK Flexibility Score: inf
ROOT
ATOM      1  C   UNL A   1      35.607  22.072  25.585  1.00  0.00     0.188 C 
ENDROOT
BRANCH   1   2
ATOM      2  O   UNL A   1      34.776  21.672  26.667  1.00  0.00    -0.376 OA
BRANCH   2   3
ATOM      3  C   UNL A   1      33.389  21.900  26.464  1.00  0.00     0.202 C 
BRANCH   3   4
ATOM      4  C   UNL A   1      33.088  23.356  26.802  1.00  0.00     0.261 C 
BRANCH   4   5
ATOM      5  O   UNL A   1      31.675  23.663  26.856  1.00  0.00    -0.462 OA
BRANCH   5   6
ATOM      6  C   UNL A   1      30.989  24.371  25.933  1.00  0.00     0.332 C 
ATOM      7  O   UNL A   1      30.471  23.801  24.975  1.00  0.00    -0.250 OA
BRANCH   6   8
ATOM      8  C   UNL A   1      30.874  25.883  26.116  1.00  0.00     0.283 C 
BRANCH   8   9
ATOM      9  O   UNL A   1      31.191  26.722  25.034  1.00  0.00    -0.363 OA
BRANCH   9  10
ATOM     10  C   UNL A   1      32.125  27.801  25.252  1.00  0.00     0.073 C 
ATOM     11  C   UNL A   1      31.400  29.178  25.330  1.00  0.00     0.036 C 
ATOM     12  C   UNL A   1      32.955  27.511  26.530  1.00  0.00     0.036 C 
ATOM     13  C   UNL A   1      32.232  30.316  25.902  1.00  0.00     0.003 C 
ATOM     14  C   UNL A   1      33.743  28.702  27.057  1.00  0.00     0.003 C 
ATOM     15  C   UNL A   1      32.837  29.911  27.239  1.00  0.00     0.000 C 
BRANCH  10  16
ATOM     16  C   UNL A   1      33.034  27.787  23.977  1.00  0.00     0.071 C 
BRANCH  16  17
ATOM     17  C   UNL A   1      33.124  26.465  23.229  1.00  0.00    -0.045 A 
ATOM     18  C   UNL A   1      33.830  25.389  23.782  1.00  0.00     0.004 A 
ATOM     19  C   UNL A   1      32.521  26.294  21.972  1.00  0.00     0.004 A 
ATOM     20  C   UNL A   1      33.908  24.168  23.106  1.00  0.00     0.000 A 
ATOM     21  C   UNL A   1      32.587  25.070  21.303  1.00  0.00     0.000 A 
ATOM     22  C   UNL A   1      33.280  24.006  21.873  1.00  0.00     0.000 A 
ENDBRANCH  16  17
ENDBRANCH  10  16
ENDBRANCH   9  10
ENDBRANCH   8   9
ENDBRANCH   6   8
ENDBRANCH   5   6
ENDBRANCH   4   5
ENDBRANCH   3   4
ENDBRANCH   2   3
ENDBRANCH   1   2
BRANCH   1  23
ATOM     23  C   UNL A   1      37.039  21.557  25.744  1.00  0.00     0.188 C 
BRANCH  23  24
ATOM     24  O   UNL A   1      37.610  20.766  24.711  1.00  0.00    -0.376 OA
BRANCH  24  25
ATOM     25  C   UNL A   1      38.014  19.439  25.003  1.00  0.00     0.202 C 
BRANCH  25  26
ATOM     26  C   UNL A   1      39.441  19.257  25.532  1.00  0.00     0.261 C 
BRANCH  26  27
ATOM     27  O   UNL A   1      39.691  19.839  26.827  1.00  0.00    -0.460 OA
BRANCH  27  28
ATOM     28  C   UNL A   1      40.962  20.266  27.040  1.00  0.00     0.338 C 
ATOM     29  O   UNL A   1      41.984  19.631  26.854  1.00  0.00    -0.246 OA
BRANCH  28  30
ATOM     30  C   UNL A   1      40.974  21.691  27.446  1.00  0.00     0.060 A 
ATOM     31  C   UNL A   1      40.150  22.600  26.766  1.00  0.00     0.016 A 
ATOM     32  C   UNL A   1      41.899  22.151  28.384  1.00  0.00     0.016 A 
ATOM     33  C   UNL A   1      40.288  23.978  26.982  1.00  0.00     0.010 A 
ATOM     34  C   UNL A   1      42.047  23.528  28.585  1.00  0.00     0.010 A 
ATOM     35  C   UNL A   1      41.274  24.453  27.856  1.00  0.00    -0.014 A 
BRANCH  35  36
ATOM     36  C   UNL A   1      41.678  25.886  27.866  1.00  0.00     0.031 A 
ATOM     37  C   UNL A   1      43.037  26.247  27.326  1.00  0.00     0.074 A 
ATOM     38  C   UNL A   1      40.903  26.844  28.406  1.00  0.00     0.049 A 
ATOM     39  N   UNL A   1      43.711  27.363  27.433  1.00  0.00    -0.248 NA
ATOM     40  C   UNL A   1      43.731  25.188  26.582  1.00  0.00     0.031 C 
ATOM     41  C   UNL A   1      39.547  26.650  28.908  1.00  0.00     0.029 A 
ATOM     42  N   UNL A   1      41.173  28.170  28.653  1.00  0.00    -0.354 N 
ATOM     43  C   UNL A   1      44.925  27.134  26.792  1.00  0.00     0.074 A 
ATOM     44  C   UNL A   1      44.894  25.763  26.323  1.00  0.00     0.031 C 
ATOM     45  C   UNL A   1      39.117  27.804  29.449  1.00  0.00     0.029 A 
ATOM     46  C   UNL A   1      40.187  28.801  29.378  1.00  0.00     0.049 A 
ATOM     47  H   UNL A   1      41.990  28.623  28.343  1.00  0.00     0.167 HD
ATOM     48  C   UNL A   1      45.970  27.982  26.618  1.00  0.00     0.034 A 
ATOM     49  C   UNL A   1      40.171  30.016  29.965  1.00  0.00     0.034 A 
ATOM     50  C   UNL A   1      45.995  29.339  27.109  1.00  0.00     0.049 A 
ATOM     51  C   UNL A   1      41.377  30.920  29.848  1.00  0.00     0.074 A 
ATOM     52  C   UNL A   1      46.993  30.288  26.973  1.00  0.00     0.029 A 
ATOM     53  N   UNL A   1      44.982  29.935  27.850  1.00  0.00    -0.354 N 
ATOM     54  N   UNL A   1      42.526  30.695  29.253  1.00  0.00    -0.248 NA
ATOM     55  C   UNL A   1      41.283  32.242  30.486  1.00  0.00     0.031 C 
ATOM     56  C   UNL A   1      46.620  31.426  27.698  1.00  0.00     0.029 A 
ATOM     57  C   UNL A   1      45.349  31.224  28.211  1.00  0.00     0.049 A 
ATOM     58  H   UNL A   1      44.128  29.506  28.085  1.00  0.00     0.167 HD
ATOM     59  C   UNL A   1      43.277  31.858  29.417  1.00  0.00     0.074 A 
ATOM     60  C   UNL A   1      42.453  32.781  30.169  1.00  0.00     0.031 C 
ATOM     61  C   UNL A   1      44.527  32.140  28.970  1.00  0.00     0.034 A 
BRANCH  48  62
ATOM     62  C   UNL A   1      47.198  27.426  25.933  1.00  0.00     0.023 A 
ATOM     63  C   UNL A   1      48.228  26.794  26.652  1.00  0.00     0.031 A 
ATOM     64  C   UNL A   1      47.374  27.598  24.548  1.00  0.00     0.131 A 
ATOM     65  C   UNL A   1      49.426  26.455  26.005  1.00  0.00     0.055 A 
ATOM     66  C   UNL A   1      48.530  27.170  23.893  1.00  0.00     0.041 A 
ATOM     67  F   UNL A   1      46.437  28.213  23.810  1.00  0.00    -0.206 F 
ATOM     68  C   UNL A   1      49.574  26.614  24.625  1.00  0.00     0.022 A 
BRANCH  65  69
ATOM     69  S   UNL A   1      50.853  25.985  27.023  1.00  0.00     0.124 S 
ATOM     70  O   UNL A   1      51.367  24.828  26.294  1.00  0.00    -0.237 OA
ATOM     71  O   UNL A   1      51.678  27.187  26.979  1.00  0.00    -0.237 OA
ATOM     72  O   UNL A   1      50.260  25.679  28.323  1.00  0.00    -0.744 OA
ENDBRANCH  65  69
ENDBRANCH  48  62
BRANCH  49  73
ATOM     73  C   UNL A   1      38.996  30.425  30.785  1.00  0.00     0.023 A 
ATOM     74  C   UNL A   1      37.912  31.116  30.221  1.00  0.00     0.031 A 
ATOM     75  C   UNL A   1      38.953  30.139  32.163  1.00  0.00     0.131 A 
ATOM     76  C   UNL A   1      36.841  31.518  31.035  1.00  0.00     0.055 A 
ATOM     77  C   UNL A   1      37.866  30.503  32.959  1.00  0.00     0.041 A 
ATOM     78  F   UNL A   1      39.966  29.482  32.751  1.00  0.00    -0.206 F 
ATOM     79  C   UNL A   1      36.804  31.204  32.396  1.00  0.00     0.022 A 
BRANCH  76  80
ATOM     80  S   UNL A   1      35.507  32.501  30.299  1.00  0.00     0.124 S 
ATOM     81  O   UNL A   1      35.170  31.709  29.121  1.00  0.00    -0.237 OA
ATOM     82  O   UNL A   1      34.514  32.516  31.368  1.00  0.00    -0.237 OA
ATOM     83  O   UNL A   1      36.143  33.788  30.026  1.00  0.00    -0.744 OA
ENDBRANCH  76  80
ENDBRANCH  49  73
BRANCH  61  84
ATOM     84  C   UNL A   1      45.067  33.529  29.220  1.00  0.00     0.023 A 
ATOM     85  C   UNL A   1      45.004  34.548  28.254  1.00  0.00     0.031 A 
ATOM     86  C   UNL A   1      45.633  33.842  30.471  1.00  0.00     0.131 A 
ATOM     87  C   UNL A   1      45.526  35.820  28.543  1.00  0.00     0.055 A 
ATOM     88  C   UNL A   1      46.103  35.122  30.770  1.00  0.00     0.041 A 
ATOM     89  F   UNL A   1      45.723  32.908  31.432  1.00  0.00    -0.206 F 
ATOM     90  C   UNL A   1      46.058  36.118  29.801  1.00  0.00     0.022 A 
BRANCH  87  91
ATOM     91  S   UNL A   1      45.561  37.076  27.232  1.00  0.00     0.124 S 
ATOM     92  O   UNL A   1      46.479  38.066  27.785  1.00  0.00    -0.237 OA
ATOM     93  O   UNL A   1      46.053  36.319  26.086  1.00  0.00    -0.237 OA
ATOM     94  O   UNL A   1      44.167  37.509  27.133  1.00  0.00    -0.744 OA
ENDBRANCH  87  91
ENDBRANCH  61  84
ENDBRANCH  35  36
ENDBRANCH  28  30
ENDBRANCH  27  28
ENDBRANCH  26  27
ENDBRANCH  25  26
ENDBRANCH  24  25
ENDBRANCH  23  24
ENDBRANCH   1  23
TORSDOF 24
ENDMDL
