MODEL 1
REMARK VINA RESULT:     -10.4      0.000      0.000
REMARK SMILES Cc1nsc(N[C@@H](C)C2CCCC2)c1C(=O)OCCOCCOCCOC(=O)c1ccc(-c2c3nc(c(-c4cc(S(=O)(=O)[O-])ccc4F)c4ccc([nH]4)c(-c4cc(S(=O)(=O)[O-])ccc4F)c4nc(c(-c5cc(S(=O)(=O)[O-])ccc5F)c5ccc2[nH]5)C=C4)C=C3)cc1
REMARK SMILES IDX 21 1 20 2 19 3 18 4 17 5 15 6 16 7 14 8 1 9 2 10 3 11 4 12
REMARK SMILES IDX 5 13 6 14 7 16 8 17 9 18 10 19 13 20 11 21 12 22 22 23 23 24
REMARK SMILES IDX 24 25 25 26 26 27 27 28 28 29 29 30 30 31 91 32 31 33 90 34
REMARK SMILES IDX 32 35 33 36 34 37 84 38 35 39 89 40 83 41 85 42 36 43 88 44
REMARK SMILES IDX 82 45 81 46 37 48 69 49 49 50 68 51 50 52 53 53 67 54 86 55
REMARK SMILES IDX 51 56 52 57 66 59 87 60 54 61 38 62 39 63 47 64 40 65 46 66
REMARK SMILES IDX 48 67 45 68 41 69 42 70 43 71 44 72 70 73 71 74 79 75 72 76
REMARK SMILES IDX 78 77 80 78 77 79 73 80 74 81 75 82 76 83 55 84 56 85 64 86
REMARK SMILES IDX 57 87 63 88 65 89 62 90 58 91 59 92 60 93 61 94
REMARK H PARENT 6 15 85 47 53 58
REMARK Flexibility Score: inf
ROOT
ATOM      1  C   UNL A   1      33.761  30.883  27.348  1.00  0.00     0.188 C 
ENDROOT
BRANCH   1   2
ATOM      2  O   UNL A   1      32.496  30.354  27.000  1.00  0.00    -0.376 OA
BRANCH   2   3
ATOM      3  C   UNL A   1      32.229  29.879  25.693  1.00  0.00     0.202 C 
BRANCH   3   4
ATOM      4  C   UNL A   1      33.274  29.188  24.791  1.00  0.00     0.261 C 
BRANCH   4   5
ATOM      5  O   UNL A   1      33.005  29.172  23.385  1.00  0.00    -0.460 OA
BRANCH   5   6
ATOM      6  C   UNL A   1      32.794  27.952  22.814  1.00  0.00     0.343 C 
ATOM      7  O   UNL A   1      33.629  27.367  22.136  1.00  0.00    -0.246 OA
BRANCH   6   8
ATOM      8  C   UNL A   1      31.539  27.335  23.234  1.00  0.00     0.117 A 
ATOM      9  C   UNL A   1      29.778  29.220  22.639  1.00  0.00     0.069 C 
ATOM     10  C   UNL A   1      30.197  27.869  23.119  1.00  0.00     0.068 A 
ATOM     11  N   UNL A   1      29.218  27.056  23.518  1.00  0.00    -0.195 NA
ATOM     12  S   UNL A   1      29.875  25.715  24.209  1.00  0.00    -0.018 S 
ATOM     13  C   UNL A   1      31.521  26.154  23.986  1.00  0.00     0.124 A 
BRANCH  13  14
ATOM     14  N   UNL A   1      32.606  25.508  24.513  1.00  0.00    -0.372 N 
ATOM     15  H   UNL A   1      33.102  25.976  25.222  1.00  0.00     0.161 HD
BRANCH  14  16
ATOM     16  C   UNL A   1      33.096  24.189  24.121  1.00  0.00     0.080 C 
ATOM     17  C   UNL A   1      34.440  24.418  23.423  1.00  0.00     0.031 C 
BRANCH  16  18
ATOM     18  C   UNL A   1      33.158  23.225  25.335  1.00  0.00     0.011 C 
ATOM     19  C   UNL A   1      34.451  23.335  26.152  1.00  0.00     0.006 C 
ATOM     20  C   UNL A   1      32.084  23.391  26.416  1.00  0.00     0.006 C 
ATOM     21  C   UNL A   1      34.159  22.576  27.439  1.00  0.00     0.000 C 
ATOM     22  C   UNL A   1      32.659  22.725  27.670  1.00  0.00     0.000 C 
ENDBRANCH  16  18
ENDBRANCH  14  16
ENDBRANCH  13  14
ENDBRANCH   6   8
ENDBRANCH   5   6
ENDBRANCH   4   5
ENDBRANCH   3   4
ENDBRANCH   2   3
ENDBRANCH   1   2
BRANCH   1  23
ATOM     23  C   UNL A   1      33.897  32.286  27.972  1.00  0.00     0.188 C 
BRANCH  23  24
ATOM     24  O   UNL A   1      35.119  32.962  27.778  1.00  0.00    -0.376 OA
BRANCH  24  25
ATOM     25  C   UNL A   1      36.109  33.031  28.791  1.00  0.00     0.202 C 
BRANCH  25  26
ATOM     26  C   UNL A   1      36.419  31.943  29.817  1.00  0.00     0.261 C 
BRANCH  26  27
ATOM     27  O   UNL A   1      36.521  30.629  29.323  1.00  0.00    -0.460 OA
BRANCH  27  28
ATOM     28  C   UNL A   1      36.901  29.723  30.253  1.00  0.00     0.338 C 
ATOM     29  O   UNL A   1      36.679  29.761  31.445  1.00  0.00    -0.246 OA
BRANCH  28  30
ATOM     30  C   UNL A   1      37.711  28.703  29.581  1.00  0.00     0.060 A 
ATOM     31  C   UNL A   1      38.308  27.748  30.405  1.00  0.00     0.016 A 
ATOM     32  C   UNL A   1      38.178  28.996  28.294  1.00  0.00     0.016 A 
ATOM     33  C   UNL A   1      39.567  27.320  30.065  1.00  0.00     0.010 A 
ATOM     34  C   UNL A   1      39.450  28.607  27.981  1.00  0.00     0.010 A 
ATOM     35  C   UNL A   1      40.159  27.868  28.923  1.00  0.00    -0.014 A 
BRANCH  35  36
ATOM     36  C   UNL A   1      41.553  27.608  28.672  1.00  0.00     0.031 A 
ATOM     37  C   UNL A   1      41.749  26.339  27.952  1.00  0.00     0.074 A 
ATOM     38  C   UNL A   1      42.517  28.505  28.944  1.00  0.00     0.049 A 
ATOM     39  N   UNL A   1      42.121  25.212  28.456  1.00  0.00    -0.248 NA
ATOM     40  C   UNL A   1      41.212  26.238  26.584  1.00  0.00     0.031 C 
ATOM     41  C   UNL A   1      42.387  29.891  29.401  1.00  0.00     0.029 A 
ATOM     42  N   UNL A   1      43.854  28.376  28.764  1.00  0.00    -0.354 N 
ATOM     43  C   UNL A   1      42.135  24.334  27.383  1.00  0.00     0.074 A 
ATOM     44  C   UNL A   1      41.289  24.922  26.385  1.00  0.00     0.031 C 
ATOM     45  C   UNL A   1      43.568  30.529  29.223  1.00  0.00     0.029 A 
ATOM     46  C   UNL A   1      44.560  29.573  28.752  1.00  0.00     0.049 A 
ATOM     47  H   UNL A   1      44.291  27.502  28.648  1.00  0.00     0.167 HD
ATOM     48  C   UNL A   1      43.101  23.384  27.277  1.00  0.00     0.034 A 
ATOM     49  C   UNL A   1      45.831  29.746  28.289  1.00  0.00     0.034 A 
ATOM     50  C   UNL A   1      43.780  23.197  28.545  1.00  0.00     0.049 A 
ATOM     51  C   UNL A   1      46.471  28.397  28.311  1.00  0.00     0.074 A 
ATOM     52  C   UNL A   1      43.354  22.896  29.827  1.00  0.00     0.029 A 
ATOM     53  N   UNL A   1      45.039  23.742  28.697  1.00  0.00    -0.354 N 
ATOM     54  N   UNL A   1      46.708  27.742  29.417  1.00  0.00    -0.248 NA
ATOM     55  C   UNL A   1      46.340  27.561  27.122  1.00  0.00     0.031 C 
ATOM     56  C   UNL A   1      44.128  23.738  30.679  1.00  0.00     0.029 A 
ATOM     57  C   UNL A   1      45.053  24.428  29.890  1.00  0.00     0.049 A 
ATOM     58  H   UNL A   1      45.791  23.657  28.068  1.00  0.00     0.167 HD
ATOM     59  C   UNL A   1      46.330  26.431  29.156  1.00  0.00     0.074 A 
ATOM     60  C   UNL A   1      46.187  26.364  27.700  1.00  0.00     0.031 C 
ATOM     61  C   UNL A   1      45.862  25.608  30.143  1.00  0.00     0.034 A 
BRANCH  48  62
ATOM     62  C   UNL A   1      43.697  22.928  25.963  1.00  0.00     0.023 A 
ATOM     63  C   UNL A   1      43.739  21.541  25.744  1.00  0.00     0.031 A 
ATOM     64  C   UNL A   1      44.456  23.712  25.060  1.00  0.00     0.131 A 
ATOM     65  C   UNL A   1      44.586  20.990  24.770  1.00  0.00     0.055 A 
ATOM     66  C   UNL A   1      45.241  23.162  24.045  1.00  0.00     0.041 A 
ATOM     67  F   UNL A   1      44.568  25.041  25.148  1.00  0.00    -0.206 F 
ATOM     68  C   UNL A   1      45.339  21.791  23.917  1.00  0.00     0.022 A 
BRANCH  65  69
ATOM     69  S   UNL A   1      44.822  19.198  24.768  1.00  0.00     0.124 S 
ATOM     70  O   UNL A   1      44.991  18.930  23.343  1.00  0.00    -0.237 OA
ATOM     71  O   UNL A   1      46.013  19.055  25.598  1.00  0.00    -0.237 OA
ATOM     72  O   UNL A   1      43.584  18.695  25.357  1.00  0.00    -0.744 OA
ENDBRANCH  65  69
ENDBRANCH  48  62
BRANCH  49  73
ATOM     73  C   UNL A   1      46.347  30.906  27.497  1.00  0.00     0.023 A 
ATOM     74  C   UNL A   1      45.508  31.867  26.885  1.00  0.00     0.031 A 
ATOM     75  C   UNL A   1      47.729  31.213  27.521  1.00  0.00     0.131 A 
ATOM     76  C   UNL A   1      46.059  33.052  26.329  1.00  0.00     0.055 A 
ATOM     77  C   UNL A   1      48.266  32.378  26.969  1.00  0.00     0.041 A 
ATOM     78  F   UNL A   1      48.608  30.428  28.162  1.00  0.00    -0.206 F 
ATOM     79  C   UNL A   1      47.431  33.310  26.378  1.00  0.00     0.022 A 
BRANCH  76  80
ATOM     80  S   UNL A   1      44.987  34.339  25.602  1.00  0.00     0.124 S 
ATOM     81  O   UNL A   1      43.700  34.061  26.230  1.00  0.00    -0.237 OA
ATOM     82  O   UNL A   1      45.654  35.572  26.005  1.00  0.00    -0.237 OA
ATOM     83  O   UNL A   1      45.041  34.058  24.166  1.00  0.00    -0.744 OA
ENDBRANCH  76  80
ENDBRANCH  49  73
BRANCH  61  84
ATOM     84  C   UNL A   1      46.001  26.040  31.593  1.00  0.00     0.023 A 
ATOM     85  C   UNL A   1      47.166  25.887  32.382  1.00  0.00     0.031 A 
ATOM     86  C   UNL A   1      44.938  26.776  32.147  1.00  0.00     0.131 A 
ATOM     87  C   UNL A   1      47.225  26.456  33.673  1.00  0.00     0.055 A 
ATOM     88  C   UNL A   1      45.010  27.357  33.412  1.00  0.00     0.041 A 
ATOM     89  F   UNL A   1      43.812  26.980  31.442  1.00  0.00    -0.206 F 
ATOM     90  C   UNL A   1      46.155  27.196  34.182  1.00  0.00     0.022 A 
BRANCH  87  91
ATOM     91  S   UNL A   1      48.696  26.234  34.727  1.00  0.00     0.124 S 
ATOM     92  O   UNL A   1      48.365  26.981  35.935  1.00  0.00    -0.237 OA
ATOM     93  O   UNL A   1      48.766  24.782  34.870  1.00  0.00    -0.237 OA
ATOM     94  O   UNL A   1      49.777  26.817  33.929  1.00  0.00    -0.744 OA
ENDBRANCH  87  91
ENDBRANCH  61  84
ENDBRANCH  35  36
ENDBRANCH  28  30
ENDBRANCH  27  28
ENDBRANCH  26  27
ENDBRANCH  25  26
ENDBRANCH  24  25
ENDBRANCH  23  24
ENDBRANCH   1  23
TORSDOF 23
ENDMDL
MODEL 2
REMARK VINA RESULT:     -10.1      3.058      7.971
REMARK SMILES Cc1nsc(N[C@@H](C)C2CCCC2)c1C(=O)OCCOCCOCCOC(=O)c1ccc(-c2c3nc(c(-c4cc(S(=O)(=O)[O-])ccc4F)c4ccc([nH]4)c(-c4cc(S(=O)(=O)[O-])ccc4F)c4nc(c(-c5cc(S(=O)(=O)[O-])ccc5F)c5ccc2[nH]5)C=C4)C=C3)cc1
REMARK SMILES IDX 21 1 20 2 19 3 18 4 17 5 15 6 16 7 14 8 1 9 2 10 3 11 4 12
REMARK SMILES IDX 5 13 6 14 7 16 8 17 9 18 10 19 13 20 11 21 12 22 22 23 23 24
REMARK SMILES IDX 24 25 25 26 26 27 27 28 28 29 29 30 30 31 91 32 31 33 90 34
REMARK SMILES IDX 32 35 33 36 34 37 84 38 35 39 89 40 83 41 85 42 36 43 88 44
REMARK SMILES IDX 82 45 81 46 37 48 69 49 49 50 68 51 50 52 53 53 67 54 86 55
REMARK SMILES IDX 51 56 52 57 66 59 87 60 54 61 38 62 39 63 47 64 40 65 46 66
REMARK SMILES IDX 48 67 45 68 41 69 42 70 43 71 44 72 70 73 71 74 79 75 72 76
REMARK SMILES IDX 78 77 80 78 77 79 73 80 74 81 75 82 76 83 55 84 56 85 64 86
REMARK SMILES IDX 57 87 63 88 65 89 62 90 58 91 59 92 60 93 61 94
REMARK H PARENT 6 15 85 47 53 58
REMARK Flexibility Score: inf
ROOT
ATOM      1  C   UNL A   1      39.020  22.886  26.487  1.00  0.00     0.188 C 
ENDROOT
BRANCH   1   2
ATOM      2  O   UNL A   1      37.887  23.301  25.749  1.00  0.00    -0.376 OA
BRANCH   2   3
ATOM      3  C   UNL A   1      36.731  22.489  25.652  1.00  0.00     0.202 C 
BRANCH   3   4
ATOM      4  C   UNL A   1      35.362  22.852  26.265  1.00  0.00     0.261 C 
BRANCH   4   5
ATOM      5  O   UNL A   1      34.786  24.100  25.866  1.00  0.00    -0.460 OA
BRANCH   5   6
ATOM      6  C   UNL A   1      33.800  24.049  24.926  1.00  0.00     0.343 C 
ATOM      7  O   UNL A   1      33.949  24.413  23.766  1.00  0.00    -0.246 OA
BRANCH   6   8
ATOM      8  C   UNL A   1      32.601  23.357  25.392  1.00  0.00     0.117 A 
ATOM      9  C   UNL A   1      32.618  21.168  23.904  1.00  0.00     0.069 C 
ATOM     10  C   UNL A   1      32.096  22.064  24.979  1.00  0.00     0.068 A 
ATOM     11  N   UNL A   1      31.012  21.636  25.626  1.00  0.00    -0.195 NA
ATOM     12  S   UNL A   1      30.459  22.835  26.609  1.00  0.00    -0.018 S 
ATOM     13  C   UNL A   1      31.671  23.991  26.225  1.00  0.00     0.124 A 
BRANCH  13  14
ATOM     14  N   UNL A   1      31.679  25.305  26.604  1.00  0.00    -0.372 N 
ATOM     15  H   UNL A   1      31.788  25.491  27.563  1.00  0.00     0.161 HD
BRANCH  14  16
ATOM     16  C   UNL A   1      31.540  26.457  25.716  1.00  0.00     0.080 C 
ATOM     17  C   UNL A   1      30.064  26.512  25.309  1.00  0.00     0.031 C 
BRANCH  16  18
ATOM     18  C   UNL A   1      32.072  27.752  26.384  1.00  0.00     0.011 C 
ATOM     19  C   UNL A   1      33.589  27.758  26.612  1.00  0.00     0.006 C 
ATOM     20  C   UNL A   1      31.860  29.068  25.626  1.00  0.00     0.006 C 
ATOM     21  C   UNL A   1      33.922  29.205  26.947  1.00  0.00     0.000 C 
ATOM     22  C   UNL A   1      32.886  30.045  26.207  1.00  0.00     0.000 C 
ENDBRANCH  16  18
ENDBRANCH  14  16
ENDBRANCH  13  14
ENDBRANCH   6   8
ENDBRANCH   5   6
ENDBRANCH   4   5
ENDBRANCH   3   4
ENDBRANCH   2   3
ENDBRANCH   1   2
BRANCH   1  23
ATOM     23  C   UNL A   1      39.757  21.574  26.149  1.00  0.00     0.188 C 
BRANCH  23  24
ATOM     24  O   UNL A   1      40.875  21.241  26.941  1.00  0.00    -0.376 OA
BRANCH  24  25
ATOM     25  C   UNL A   1      41.317  19.902  27.092  1.00  0.00     0.202 C 
BRANCH  25  26
ATOM     26  C   UNL A   1      42.535  19.279  26.412  1.00  0.00     0.261 C 
BRANCH  26  27
ATOM     27  O   UNL A   1      42.869  19.785  25.142  1.00  0.00    -0.460 OA
BRANCH  27  28
ATOM     28  C   UNL A   1      44.200  19.830  24.903  1.00  0.00     0.338 C 
ATOM     29  O   UNL A   1      44.957  18.887  24.805  1.00  0.00    -0.246 OA
BRANCH  28  30
ATOM     30  C   UNL A   1      44.602  21.238  24.857  1.00  0.00     0.060 A 
ATOM     31  C   UNL A   1      45.761  21.572  25.557  1.00  0.00     0.016 A 
ATOM     32  C   UNL A   1      43.619  22.177  24.521  1.00  0.00     0.016 A 
ATOM     33  C   UNL A   1      45.781  22.784  26.202  1.00  0.00     0.010 A 
ATOM     34  C   UNL A   1      43.618  23.361  25.202  1.00  0.00     0.010 A 
ATOM     35  C   UNL A   1      44.645  23.592  26.113  1.00  0.00    -0.014 A 
BRANCH  35  36
ATOM     36  C   UNL A   1      44.554  24.755  26.957  1.00  0.00     0.031 A 
ATOM     37  C   UNL A   1      45.704  25.655  26.771  1.00  0.00     0.074 A 
ATOM     38  C   UNL A   1      43.466  25.026  27.702  1.00  0.00     0.049 A 
ATOM     39  N   UNL A   1      46.733  25.765  27.541  1.00  0.00    -0.248 NA
ATOM     40  C   UNL A   1      45.866  26.297  25.455  1.00  0.00     0.031 C 
ATOM     41  C   UNL A   1      42.175  24.337  27.734  1.00  0.00     0.029 A 
ATOM     42  N   UNL A   1      43.265  26.075  28.536  1.00  0.00    -0.354 N 
ATOM     43  C   UNL A   1      47.531  26.718  26.927  1.00  0.00     0.074 A 
ATOM     44  C   UNL A   1      47.114  26.752  25.555  1.00  0.00     0.031 C 
ATOM     45  C   UNL A   1      41.266  25.127  28.355  1.00  0.00     0.029 A 
ATOM     46  C   UNL A   1      41.935  26.318  28.859  1.00  0.00     0.049 A 
ATOM     47  H   UNL A   1      44.004  26.623  28.885  1.00  0.00     0.167 HD
ATOM     48  C   UNL A   1      48.218  27.629  27.666  1.00  0.00     0.034 A 
ATOM     49  C   UNL A   1      41.443  27.464  29.409  1.00  0.00     0.034 A 
ATOM     50  C   UNL A   1      48.297  27.210  29.053  1.00  0.00     0.049 A 
ATOM     51  C   UNL A   1      42.601  28.144  30.063  1.00  0.00     0.074 A 
ATOM     52  C   UNL A   1      48.750  26.067  29.686  1.00  0.00     0.029 A 
ATOM     53  N   UNL A   1      47.476  27.834  29.970  1.00  0.00    -0.354 N 
ATOM     54  N   UNL A   1      43.232  27.639  31.090  1.00  0.00    -0.248 NA
ATOM     55  C   UNL A   1      43.388  29.075  29.261  1.00  0.00     0.031 C 
ATOM     56  C   UNL A   1      47.789  25.806  30.707  1.00  0.00     0.029 A 
ATOM     57  C   UNL A   1      46.863  26.852  30.714  1.00  0.00     0.049 A 
ATOM     58  H   UNL A   1      47.350  28.805  30.074  1.00  0.00     0.167 HD
ATOM     59  C   UNL A   1      44.581  27.834  30.824  1.00  0.00     0.074 A 
ATOM     60  C   UNL A   1      44.612  28.796  29.721  1.00  0.00     0.031 C 
ATOM     61  C   UNL A   1      45.538  26.977  31.296  1.00  0.00     0.034 A 
BRANCH  48  62
ATOM     62  C   UNL A   1      48.457  29.060  27.236  1.00  0.00     0.023 A 
ATOM     63  C   UNL A   1      49.779  29.525  27.320  1.00  0.00     0.031 A 
ATOM     64  C   UNL A   1      47.472  30.054  27.021  1.00  0.00     0.131 A 
ATOM     65  C   UNL A   1      50.062  30.900  27.317  1.00  0.00     0.055 A 
ATOM     66  C   UNL A   1      47.767  31.417  26.945  1.00  0.00     0.041 A 
ATOM     67  F   UNL A   1      46.162  29.798  26.961  1.00  0.00    -0.206 F 
ATOM     68  C   UNL A   1      49.065  31.851  27.130  1.00  0.00     0.022 A 
BRANCH  65  69
ATOM     69  S   UNL A   1      51.738  31.421  27.750  1.00  0.00     0.124 S 
ATOM     70  O   UNL A   1      52.003  30.597  28.925  1.00  0.00    -0.237 OA
ATOM     71  O   UNL A   1      52.477  31.077  26.540  1.00  0.00    -0.237 OA
ATOM     72  O   UNL A   1      51.589  32.851  28.007  1.00  0.00    -0.744 OA
ENDBRANCH  65  69
ENDBRANCH  48  62
BRANCH  49  73
ATOM     73  C   UNL A   1      40.158  28.147  29.060  1.00  0.00     0.023 A 
ATOM     74  C   UNL A   1      39.264  28.666  30.025  1.00  0.00     0.031 A 
ATOM     75  C   UNL A   1      39.896  28.504  27.715  1.00  0.00     0.131 A 
ATOM     76  C   UNL A   1      38.173  29.484  29.629  1.00  0.00     0.055 A 
ATOM     77  C   UNL A   1      38.818  29.305  27.330  1.00  0.00     0.041 A 
ATOM     78  F   UNL A   1      40.731  28.156  26.725  1.00  0.00    -0.206 F 
ATOM     79  C   UNL A   1      37.956  29.807  28.288  1.00  0.00     0.022 A 
BRANCH  76  80
ATOM     80  S   UNL A   1      37.051  30.224  30.866  1.00  0.00     0.124 S 
ATOM     81  O   UNL A   1      37.904  31.223  31.498  1.00  0.00    -0.237 OA
ATOM     82  O   UNL A   1      35.960  30.728  30.040  1.00  0.00    -0.237 OA
ATOM     83  O   UNL A   1      36.694  29.093  31.723  1.00  0.00    -0.744 OA
ENDBRANCH  76  80
ENDBRANCH  49  73
BRANCH  61  84
ATOM     84  C   UNL A   1      45.153  25.945  32.343  1.00  0.00     0.023 A 
ATOM     85  C   UNL A   1      45.031  26.196  33.730  1.00  0.00     0.031 A 
ATOM     86  C   UNL A   1      44.752  24.680  31.877  1.00  0.00     0.131 A 
ATOM     87  C   UNL A   1      44.528  25.194  34.588  1.00  0.00     0.055 A 
ATOM     88  C   UNL A   1      44.233  23.702  32.724  1.00  0.00     0.041 A 
ATOM     89  F   UNL A   1      44.819  24.384  30.568  1.00  0.00    -0.206 F 
ATOM     90  C   UNL A   1      44.122  23.954  34.085  1.00  0.00     0.022 A 
BRANCH  87  91
ATOM     91  S   UNL A   1      44.404  25.476  36.385  1.00  0.00     0.124 S 
ATOM     92  O   UNL A   1      44.787  24.191  36.959  1.00  0.00    -0.237 OA
ATOM     93  O   UNL A   1      45.339  26.577  36.597  1.00  0.00    -0.237 OA
ATOM     94  O   UNL A   1      42.996  25.830  36.577  1.00  0.00    -0.744 OA
ENDBRANCH  87  91
ENDBRANCH  61  84
ENDBRANCH  35  36
ENDBRANCH  28  30
ENDBRANCH  27  28
ENDBRANCH  26  27
ENDBRANCH  25  26
ENDBRANCH  24  25
ENDBRANCH  23  24
ENDBRANCH   1  23
TORSDOF 23
ENDMDL
MODEL 3
REMARK VINA RESULT:     -10.0      2.710      7.866
REMARK SMILES Cc1nsc(N[C@@H](C)C2CCCC2)c1C(=O)OCCOCCOCCOC(=O)c1ccc(-c2c3nc(c(-c4cc(S(=O)(=O)[O-])ccc4F)c4ccc([nH]4)c(-c4cc(S(=O)(=O)[O-])ccc4F)c4nc(c(-c5cc(S(=O)(=O)[O-])ccc5F)c5ccc2[nH]5)C=C4)C=C3)cc1
REMARK SMILES IDX 21 1 20 2 19 3 18 4 17 5 15 6 16 7 14 8 1 9 2 10 3 11 4 12
REMARK SMILES IDX 5 13 6 14 7 16 8 17 9 18 10 19 13 20 11 21 12 22 22 23 23 24
REMARK SMILES IDX 24 25 25 26 26 27 27 28 28 29 29 30 30 31 91 32 31 33 90 34
REMARK SMILES IDX 32 35 33 36 34 37 84 38 35 39 89 40 83 41 85 42 36 43 88 44
REMARK SMILES IDX 82 45 81 46 37 48 69 49 49 50 68 51 50 52 53 53 67 54 86 55
REMARK SMILES IDX 51 56 52 57 66 59 87 60 54 61 38 62 39 63 47 64 40 65 46 66
REMARK SMILES IDX 48 67 45 68 41 69 42 70 43 71 44 72 70 73 71 74 79 75 72 76
REMARK SMILES IDX 78 77 80 78 77 79 73 80 74 81 75 82 76 83 55 84 56 85 64 86
REMARK SMILES IDX 57 87 63 88 65 89 62 90 58 91 59 92 60 93 61 94
REMARK H PARENT 6 15 85 47 53 58
REMARK Flexibility Score: inf
ROOT
ATOM      1  C   UNL A   1      38.225  22.975  26.129  1.00  0.00     0.188 C 
ENDROOT
BRANCH   1   2
ATOM      2  O   UNL A   1      37.772  23.688  24.995  1.00  0.00    -0.376 OA
BRANCH   2   3
ATOM      3  C   UNL A   1      36.621  23.279  24.277  1.00  0.00     0.202 C 
BRANCH   3   4
ATOM      4  C   UNL A   1      35.229  23.928  24.428  1.00  0.00     0.261 C 
BRANCH   4   5
ATOM      5  O   UNL A   1      34.588  24.370  23.228  1.00  0.00    -0.460 OA
BRANCH   5   6
ATOM      6  C   UNL A   1      33.526  23.635  22.792  1.00  0.00     0.343 C 
ATOM      7  O   UNL A   1      33.441  23.168  21.663  1.00  0.00    -0.246 OA
BRANCH   6   8
ATOM      8  C   UNL A   1      32.578  23.315  23.856  1.00  0.00     0.117 A 
ATOM      9  C   UNL A   1      32.672  20.670  23.895  1.00  0.00     0.069 C 
ATOM     10  C   UNL A   1      32.228  22.011  24.380  1.00  0.00     0.068 A 
ATOM     11  N   UNL A   1      31.382  22.014  25.411  1.00  0.00    -0.195 NA
ATOM     12  S   UNL A   1      30.838  23.547  25.662  1.00  0.00    -0.018 S 
ATOM     13  C   UNL A   1      31.736  24.293  24.402  1.00  0.00     0.124 A 
BRANCH  13  14
ATOM     14  N   UNL A   1      31.596  25.581  23.967  1.00  0.00    -0.372 N 
ATOM     15  H   UNL A   1      30.767  25.800  23.483  1.00  0.00     0.161 HD
BRANCH  14  16
ATOM     16  C   UNL A   1      32.561  26.662  24.152  1.00  0.00     0.080 C 
ATOM     17  C   UNL A   1      32.119  27.799  23.225  1.00  0.00     0.031 C 
BRANCH  16  18
ATOM     18  C   UNL A   1      32.683  27.061  25.646  1.00  0.00     0.011 C 
ATOM     19  C   UNL A   1      33.507  28.332  25.886  1.00  0.00     0.006 C 
ATOM     20  C   UNL A   1      31.384  27.379  26.394  1.00  0.00     0.006 C 
ATOM     21  C   UNL A   1      33.217  28.711  27.331  1.00  0.00     0.000 C 
ATOM     22  C   UNL A   1      31.804  28.210  27.611  1.00  0.00     0.000 C 
ENDBRANCH  16  18
ENDBRANCH  14  16
ENDBRANCH  13  14
ENDBRANCH   6   8
ENDBRANCH   5   6
ENDBRANCH   4   5
ENDBRANCH   3   4
ENDBRANCH   2   3
ENDBRANCH   1   2
BRANCH   1  23
ATOM     23  C   UNL A   1      39.010  21.656  25.983  1.00  0.00     0.188 C 
BRANCH  23  24
ATOM     24  O   UNL A   1      40.110  21.463  26.843  1.00  0.00    -0.376 OA
BRANCH  24  25
ATOM     25  C   UNL A   1      40.880  20.272  26.824  1.00  0.00     0.202 C 
BRANCH  25  26
ATOM     26  C   UNL A   1      42.334  20.153  26.373  1.00  0.00     0.261 C 
BRANCH  26  27
ATOM     27  O   UNL A   1      42.757  21.055  25.380  1.00  0.00    -0.460 OA
BRANCH  27  28
ATOM     28  C   UNL A   1      44.087  21.017  25.135  1.00  0.00     0.338 C 
ATOM     29  O   UNL A   1      44.759  20.033  24.901  1.00  0.00    -0.246 OA
BRANCH  28  30
ATOM     30  C   UNL A   1      44.611  22.377  25.278  1.00  0.00     0.060 A 
ATOM     31  C   UNL A   1      45.565  22.569  26.278  1.00  0.00     0.016 A 
ATOM     32  C   UNL A   1      43.843  23.421  24.748  1.00  0.00     0.016 A 
ATOM     33  C   UNL A   1      45.519  23.752  26.974  1.00  0.00     0.010 A 
ATOM     34  C   UNL A   1      43.766  24.578  25.472  1.00  0.00     0.010 A 
ATOM     35  C   UNL A   1      44.525  24.674  26.634  1.00  0.00    -0.014 A 
BRANCH  35  36
ATOM     36  C   UNL A   1      44.315  25.813  27.490  1.00  0.00     0.031 A 
ATOM     37  C   UNL A   1      45.404  26.796  27.365  1.00  0.00     0.074 A 
ATOM     38  C   UNL A   1      43.181  25.993  28.191  1.00  0.00     0.049 A 
ATOM     39  N   UNL A   1      46.389  26.967  28.180  1.00  0.00    -0.248 NA
ATOM     40  C   UNL A   1      45.574  27.470  26.067  1.00  0.00     0.031 C 
ATOM     41  C   UNL A   1      41.943  25.212  28.158  1.00  0.00     0.029 A 
ATOM     42  N   UNL A   1      42.870  27.010  29.030  1.00  0.00    -0.354 N 
ATOM     43  C   UNL A   1      47.141  27.985  27.614  1.00  0.00     0.074 A 
ATOM     44  C   UNL A   1      46.781  28.012  26.226  1.00  0.00     0.031 C 
ATOM     45  C   UNL A   1      40.954  25.924  28.750  1.00  0.00     0.029 A 
ATOM     46  C   UNL A   1      41.514  27.151  29.299  1.00  0.00     0.049 A 
ATOM     47  H   UNL A   1      43.551  27.604  29.418  1.00  0.00     0.167 HD
ATOM     48  C   UNL A   1      47.729  28.930  28.395  1.00  0.00     0.034 A 
ATOM     49  C   UNL A   1      40.917  28.250  29.843  1.00  0.00     0.034 A 
ATOM     50  C   UNL A   1      47.780  28.495  29.777  1.00  0.00     0.049 A 
ATOM     51  C   UNL A   1      41.994  29.000  30.556  1.00  0.00     0.074 A 
ATOM     52  C   UNL A   1      48.288  27.377  30.413  1.00  0.00     0.029 A 
ATOM     53  N   UNL A   1      46.878  29.043  30.667  1.00  0.00    -0.354 N 
ATOM     54  N   UNL A   1      42.617  28.525  31.602  1.00  0.00    -0.248 NA
ATOM     55  C   UNL A   1      42.744  29.998  29.800  1.00  0.00     0.031 C 
ATOM     56  C   UNL A   1      47.307  27.030  31.388  1.00  0.00     0.029 A 
ATOM     57  C   UNL A   1      46.308  28.007  31.370  1.00  0.00     0.049 A 
ATOM     58  H   UNL A   1      46.678  30.001  30.779  1.00  0.00     0.167 HD
ATOM     59  C   UNL A   1      43.958  28.820  31.397  1.00  0.00     0.074 A 
ATOM     60  C   UNL A   1      43.965  29.800  30.309  1.00  0.00     0.031 C 
ATOM     61  C   UNL A   1      44.954  28.027  31.897  1.00  0.00     0.034 A 
BRANCH  48  62
ATOM     62  C   UNL A   1      47.881  30.382  27.995  1.00  0.00     0.023 A 
ATOM     63  C   UNL A   1      46.692  31.105  27.804  1.00  0.00     0.031 A 
ATOM     64  C   UNL A   1      49.061  31.012  27.530  1.00  0.00     0.131 A 
ATOM     65  C   UNL A   1      46.689  32.310  27.085  1.00  0.00     0.055 A 
ATOM     66  C   UNL A   1      49.061  32.247  26.878  1.00  0.00     0.041 A 
ATOM     67  F   UNL A   1      50.272  30.450  27.587  1.00  0.00    -0.206 F 
ATOM     68  C   UNL A   1      47.866  32.888  26.619  1.00  0.00     0.022 A 
BRANCH  65  69
ATOM     69  S   UNL A   1      45.091  33.009  26.610  1.00  0.00     0.124 S 
ATOM     70  O   UNL A   1      45.346  34.439  26.752  1.00  0.00    -0.237 OA
ATOM     71  O   UNL A   1      44.943  32.512  25.246  1.00  0.00    -0.237 OA
ATOM     72  O   UNL A   1      44.169  32.437  27.587  1.00  0.00    -0.744 OA
ENDBRANCH  65  69
ENDBRANCH  48  62
BRANCH  49  73
ATOM     73  C   UNL A   1      39.602  28.844  29.449  1.00  0.00     0.023 A 
ATOM     74  C   UNL A   1      38.726  29.475  30.364  1.00  0.00     0.031 A 
ATOM     75  C   UNL A   1      39.283  28.997  28.078  1.00  0.00     0.131 A 
ATOM     76  C   UNL A   1      37.598  30.201  29.895  1.00  0.00     0.055 A 
ATOM     77  C   UNL A   1      38.170  29.708  27.624  1.00  0.00     0.041 A 
ATOM     78  F   UNL A   1      40.093  28.529  27.117  1.00  0.00    -0.206 F 
ATOM     79  C   UNL A   1      37.326  30.322  28.531  1.00  0.00     0.022 A 
BRANCH  76  80
ATOM     80  S   UNL A   1      36.499  31.085  31.055  1.00  0.00     0.124 S 
ATOM     81  O   UNL A   1      36.155  30.041  32.013  1.00  0.00    -0.237 OA
ATOM     82  O   UNL A   1      37.355  32.160  31.544  1.00  0.00    -0.237 OA
ATOM     83  O   UNL A   1      35.391  31.527  30.207  1.00  0.00    -0.744 OA
ENDBRANCH  76  80
ENDBRANCH  49  73
BRANCH  61  84
ATOM     84  C   UNL A   1      44.602  26.951  32.912  1.00  0.00     0.023 A 
ATOM     85  C   UNL A   1      44.360  27.176  34.287  1.00  0.00     0.031 A 
ATOM     86  C   UNL A   1      44.361  25.657  32.416  1.00  0.00     0.131 A 
ATOM     87  C   UNL A   1      43.901  26.122  35.106  1.00  0.00     0.055 A 
ATOM     88  C   UNL A   1      43.883  24.626  33.222  1.00  0.00     0.041 A 
ATOM     89  F   UNL A   1      44.547  25.382  31.114  1.00  0.00    -0.206 F 
ATOM     90  C   UNL A   1      43.655  24.853  34.574  1.00  0.00     0.022 A 
BRANCH  87  91
ATOM     91  S   UNL A   1      43.625  26.374  36.891  1.00  0.00     0.124 S 
ATOM     92  O   UNL A   1      42.720  25.289  37.253  1.00  0.00    -0.237 OA
ATOM     93  O   UNL A   1      44.978  26.287  37.434  1.00  0.00    -0.237 OA
ATOM     94  O   UNL A   1      43.029  27.710  36.958  1.00  0.00    -0.744 OA
ENDBRANCH  87  91
ENDBRANCH  61  84
ENDBRANCH  35  36
ENDBRANCH  28  30
ENDBRANCH  27  28
ENDBRANCH  26  27
ENDBRANCH  25  26
ENDBRANCH  24  25
ENDBRANCH  23  24
ENDBRANCH   1  23
TORSDOF 23
ENDMDL
