MODEL 1
REMARK VINA RESULT:     -12.4      0.000      0.000
REMARK SMILES Cc1cccc(NC(=O)[C@H]2C=C[C@@H]([NH3+])C2)c1C(=O)OCCOCCOCCOC(=O)c1ccc(-c2c3nc(c(-c4cc(S(=O)(=O)[O-])ccc4F)c4ccc([nH]4)c(-c4cc(S(=O)(=O)[O-])ccc4F)c4nc(c(-c5cc(S(=O)(=O)[O-])ccc5F)c5ccc2[nH]5)C=C4)C=C3)cc1
REMARK SMILES IDX 23 1 22 2 21 3 20 4 19 5 17 6 18 7 16 8 1 9 2 10 3 11 4 12
REMARK SMILES IDX 6 13 5 14 7 15 8 16 9 18 10 19 11 20 15 21 12 22 13 23 14 24
REMARK SMILES IDX 24 28 25 29 26 30 27 31 28 32 29 33 30 34 31 35 32 36 93 37
REMARK SMILES IDX 33 38 92 39 34 40 35 41 36 42 86 43 37 44 91 45 85 46 87 47
REMARK SMILES IDX 38 48 90 49 84 50 83 51 39 53 71 54 51 55 70 56 52 57 55 58
REMARK SMILES IDX 69 59 88 60 53 61 54 62 68 64 89 65 56 66 40 67 41 68 49 69
REMARK SMILES IDX 42 70 48 71 50 72 47 73 43 74 44 75 45 76 46 77 72 78 73 79
REMARK SMILES IDX 81 80 74 81 80 82 82 83 79 84 75 85 76 86 77 87 78 88 57 89
REMARK SMILES IDX 58 90 66 91 59 92 65 93 67 94 64 95 60 96 61 97 62 98 63 99
REMARK H PARENT 7 17 14 25 14 26 14 27 87 52 55 63
REMARK Flexibility Score: inf
ROOT
ATOM      1  C   UNL A   1      34.060  32.862  28.297  1.00  0.00     0.188 C 
ENDROOT
BRANCH   1   2
ATOM      2  O   UNL A   1      34.144  31.741  27.379  1.00  0.00    -0.376 OA
BRANCH   2   3
ATOM      3  C   UNL A   1      33.568  30.429  27.565  1.00  0.00     0.202 C 
BRANCH   3   4
ATOM      4  C   UNL A   1      32.245  29.830  26.673  1.00  0.00     0.261 C 
BRANCH   4   5
ATOM      5  O   UNL A   1      32.143  28.461  25.679  1.00  0.00    -0.460 OA
BRANCH   5   6
ATOM      6  C   UNL A   1      31.591  27.131  25.756  1.00  0.00     0.340 C 
ATOM      7  O   UNL A   1      30.960  26.629  26.682  1.00  0.00    -0.246 OA
BRANCH   6   8
ATOM      8  C   UNL A   1      31.743  26.042  24.768  1.00  0.00     0.086 A 
ATOM      9  C   UNL A   1      34.002  25.572  25.828  1.00  0.00     0.045 C 
ATOM     10  C   UNL A   1      32.928  25.298  24.814  1.00  0.00    -0.034 A 
ATOM     11  C   UNL A   1      33.003  24.128  24.049  1.00  0.00     0.004 A 
ATOM     12  C   UNL A   1      31.941  23.712  23.246  1.00  0.00     0.002 A 
ATOM     13  C   UNL A   1      30.567  25.519  24.046  1.00  0.00     0.056 A 
ATOM     14  C   UNL A   1      30.741  24.412  23.240  1.00  0.00     0.027 A 
BRANCH  13  15
ATOM     15  N   UNL A   1      29.227  25.950  24.324  1.00  0.00    -0.325 N 
ATOM     16  C   UNL A   1      28.299  26.850  23.879  1.00  0.00     0.231 C 
ATOM     17  H   UNL A   1      28.858  25.432  25.074  1.00  0.00     0.169 HD
ATOM     18  O   UNL A   1      27.136  26.634  24.262  1.00  0.00    -0.274 OA
BRANCH  16  19
ATOM     19  C   UNL A   1      28.475  28.120  23.021  1.00  0.00     0.107 C 
ATOM     20  C   UNL A   1      27.309  29.053  22.964  1.00  0.00    -0.012 C 
ATOM     21  C   UNL A   1      29.691  29.030  23.243  1.00  0.00     0.087 C 
ATOM     22  C   UNL A   1      27.700  30.332  22.946  1.00  0.00     0.033 C 
ATOM     23  C   UNL A   1      29.187  30.474  23.025  1.00  0.00     0.205 C 
BRANCH  23  24
ATOM     24  N   UNL A   1      29.562  31.385  24.099  1.00  0.00    -0.352 N 
ATOM     25  H   UNL A   1      30.573  31.354  24.232  1.00  0.00     0.345 HD
ATOM     26  H   UNL A   1      29.097  31.104  24.961  1.00  0.00     0.345 HD
ATOM     27  H   UNL A   1      29.281  32.334  23.854  1.00  0.00     0.345 HD
ENDBRANCH  23  24
ENDBRANCH  16  19
ENDBRANCH  13  15
ENDBRANCH   6   8
ENDBRANCH   5   6
ENDBRANCH   4   5
ENDBRANCH   3   4
ENDBRANCH   2   3
ENDBRANCH   1   2
BRANCH   1  28
ATOM     28  C   UNL A   1      34.148  34.340  27.893  1.00  0.00     0.188 C 
BRANCH  28  29
ATOM     29  O   UNL A   1      34.185  35.196  29.027  1.00  0.00    -0.376 OA
BRANCH  29  30
ATOM     30  C   UNL A   1      32.955  35.831  29.346  1.00  0.00     0.202 C 
BRANCH  30  31
ATOM     31  C   UNL A   1      32.741  36.130  30.849  1.00  0.00     0.261 C 
BRANCH  31  32
ATOM     32  O   UNL A   1      33.054  35.007  31.715  1.00  0.00    -0.460 OA
BRANCH  32  33
ATOM     33  C   UNL A   1      33.992  35.206  32.713  1.00  0.00     0.338 C 
ATOM     34  O   UNL A   1      33.888  36.091  33.551  1.00  0.00    -0.246 OA
BRANCH  33  35
ATOM     35  C   UNL A   1      34.998  34.093  32.754  1.00  0.00     0.060 A 
ATOM     36  C   UNL A   1      35.820  33.649  33.803  1.00  0.00     0.016 A 
ATOM     37  C   UNL A   1      35.232  33.501  31.567  1.00  0.00     0.016 A 
ATOM     38  C   UNL A   1      36.958  32.733  33.583  1.00  0.00     0.010 A 
ATOM     39  C   UNL A   1      36.447  32.848  31.411  1.00  0.00     0.010 A 
ATOM     40  C   UNL A   1      37.366  32.316  32.314  1.00  0.00    -0.014 A 
BRANCH  40  41
ATOM     41  C   UNL A   1      38.711  31.532  31.828  1.00  0.00     0.031 A 
ATOM     42  C   UNL A   1      39.028  30.039  31.091  1.00  0.00     0.074 A 
ATOM     43  C   UNL A   1      39.846  32.218  32.091  1.00  0.00     0.049 A 
ATOM     44  N   UNL A   1      40.185  29.409  31.185  1.00  0.00    -0.248 NA
ATOM     45  C   UNL A   1      38.159  29.116  30.257  1.00  0.00     0.031 C 
ATOM     46  C   UNL A   1      41.214  31.940  31.666  1.00  0.00     0.029 A 
ATOM     47  N   UNL A   1      39.991  33.237  33.031  1.00  0.00    -0.354 N 
ATOM     48  C   UNL A   1      40.174  28.295  30.337  1.00  0.00     0.074 A 
ATOM     49  C   UNL A   1      38.837  28.007  30.049  1.00  0.00     0.031 C 
ATOM     50  C   UNL A   1      42.053  32.490  32.557  1.00  0.00     0.029 A 
ATOM     51  C   UNL A   1      41.245  33.047  33.625  1.00  0.00     0.049 A 
ATOM     52  H   UNL A   1      39.342  33.948  33.237  1.00  0.00     0.167 HD
ATOM     53  C   UNL A   1      41.275  27.742  29.768  1.00  0.00     0.034 A 
ATOM     54  C   UNL A   1      41.318  32.768  34.954  1.00  0.00     0.034 A 
ATOM     55  C   UNL A   1      42.411  28.054  30.593  1.00  0.00     0.049 A 
ATOM     56  C   UNL A   1      41.965  31.420  35.226  1.00  0.00     0.074 A 
ATOM     57  C   UNL A   1      43.458  28.944  30.512  1.00  0.00     0.029 A 
ATOM     58  N   UNL A   1      42.322  27.661  31.923  1.00  0.00    -0.354 N 
ATOM     59  N   UNL A   1      42.379  30.580  34.309  1.00  0.00    -0.248 NA
ATOM     60  C   UNL A   1      42.198  30.914  36.572  1.00  0.00     0.031 C 
ATOM     61  C   UNL A   1      43.874  29.215  31.855  1.00  0.00     0.029 A 
ATOM     62  C   UNL A   1      43.135  28.428  32.727  1.00  0.00     0.049 A 
ATOM     63  H   UNL A   1      41.751  26.929  32.247  1.00  0.00     0.167 HD
ATOM     64  C   UNL A   1      42.774  29.402  34.899  1.00  0.00     0.074 A 
ATOM     65  C   UNL A   1      42.730  29.708  36.318  1.00  0.00     0.031 C 
ATOM     66  C   UNL A   1      43.042  28.262  34.180  1.00  0.00     0.034 A 
BRANCH  53  67
ATOM     67  C   UNL A   1      41.261  26.966  28.442  1.00  0.00     0.023 A 
ATOM     68  C   UNL A   1      41.477  25.574  28.434  1.00  0.00     0.031 A 
ATOM     69  C   UNL A   1      41.176  27.546  27.140  1.00  0.00     0.131 A 
ATOM     70  C   UNL A   1      41.553  24.847  27.216  1.00  0.00     0.055 A 
ATOM     71  C   UNL A   1      41.145  26.812  25.946  1.00  0.00     0.041 A 
ATOM     72  F   UNL A   1      41.215  28.869  26.928  1.00  0.00    -0.206 F 
ATOM     73  C   UNL A   1      41.340  25.450  25.978  1.00  0.00     0.022 A 
BRANCH  70  74
ATOM     74  S   UNL A   1      42.067  23.104  27.236  1.00  0.00     0.124 S 
ATOM     75  O   UNL A   1      42.038  22.797  28.662  1.00  0.00    -0.237 OA
ATOM     76  O   UNL A   1      41.048  22.468  26.411  1.00  0.00    -0.237 OA
ATOM     77  O   UNL A   1      43.406  23.135  26.646  1.00  0.00    -0.744 OA
ENDBRANCH  70  74
ENDBRANCH  53  67
BRANCH  54  78
ATOM     78  C   UNL A   1      40.251  33.471  35.756  1.00  0.00     0.023 A 
ATOM     79  C   UNL A   1      39.230  32.666  36.331  1.00  0.00     0.031 A 
ATOM     80  C   UNL A   1      40.371  34.777  36.244  1.00  0.00     0.131 A 
ATOM     81  C   UNL A   1      38.503  33.099  37.452  1.00  0.00     0.055 A 
ATOM     82  C   UNL A   1      39.584  35.240  37.317  1.00  0.00     0.041 A 
ATOM     83  F   UNL A   1      41.330  35.592  35.786  1.00  0.00    -0.206 F 
ATOM     84  C   UNL A   1      38.674  34.389  37.950  1.00  0.00     0.022 A 
BRANCH  81  85
ATOM     85  S   UNL A   1      37.536  31.899  38.424  1.00  0.00     0.124 S 
ATOM     86  O   UNL A   1      37.532  30.731  37.550  1.00  0.00    -0.237 OA
ATOM     87  O   UNL A   1      38.300  31.762  39.662  1.00  0.00    -0.237 OA
ATOM     88  O   UNL A   1      36.248  32.569  38.593  1.00  0.00    -0.744 OA
ENDBRANCH  81  85
ENDBRANCH  54  78
BRANCH  66  89
ATOM     89  C   UNL A   1      43.213  26.864  34.784  1.00  0.00     0.023 A 
ATOM     90  C   UNL A   1      44.457  26.315  35.121  1.00  0.00     0.031 A 
ATOM     91  C   UNL A   1      42.101  26.038  35.093  1.00  0.00     0.131 A 
ATOM     92  C   UNL A   1      44.582  24.997  35.598  1.00  0.00     0.055 A 
ATOM     93  C   UNL A   1      42.218  24.778  35.696  1.00  0.00     0.041 A 
ATOM     94  F   UNL A   1      40.841  26.409  34.823  1.00  0.00    -0.206 F 
ATOM     95  C   UNL A   1      43.469  24.234  35.923  1.00  0.00     0.022 A 
BRANCH  92  96
ATOM     96  S   UNL A   1      46.236  24.253  35.610  1.00  0.00     0.124 S 
ATOM     97  O   UNL A   1      46.158  23.329  34.480  1.00  0.00    -0.237 OA
ATOM     98  O   UNL A   1      47.105  25.409  35.424  1.00  0.00    -0.237 OA
ATOM     99  O   UNL A   1      46.315  23.613  36.921  1.00  0.00    -0.744 OA
ENDBRANCH  92  96
ENDBRANCH  66  89
ENDBRANCH  40  41
ENDBRANCH  33  35
ENDBRANCH  32  33
ENDBRANCH  31  32
ENDBRANCH  30  31
ENDBRANCH  29  30
ENDBRANCH  28  29
ENDBRANCH   1  28
TORSDOF 23
ENDMDL
MODEL 2
REMARK VINA RESULT:     -12.3      1.414      2.592
REMARK SMILES Cc1cccc(NC(=O)[C@H]2C=C[C@@H]([NH3+])C2)c1C(=O)OCCOCCOCCOC(=O)c1ccc(-c2c3nc(c(-c4cc(S(=O)(=O)[O-])ccc4F)c4ccc([nH]4)c(-c4cc(S(=O)(=O)[O-])ccc4F)c4nc(c(-c5cc(S(=O)(=O)[O-])ccc5F)c5ccc2[nH]5)C=C4)C=C3)cc1
REMARK SMILES IDX 23 1 22 2 21 3 20 4 19 5 17 6 18 7 16 8 1 9 2 10 3 11 4 12
REMARK SMILES IDX 6 13 5 14 7 15 8 16 9 18 10 19 11 20 15 21 12 22 13 23 14 24
REMARK SMILES IDX 24 28 25 29 26 30 27 31 28 32 29 33 30 34 31 35 32 36 93 37
REMARK SMILES IDX 33 38 92 39 34 40 35 41 36 42 86 43 37 44 91 45 85 46 87 47
REMARK SMILES IDX 38 48 90 49 84 50 83 51 39 53 71 54 51 55 70 56 52 57 55 58
REMARK SMILES IDX 69 59 88 60 53 61 54 62 68 64 89 65 56 66 40 67 41 68 49 69
REMARK SMILES IDX 42 70 48 71 50 72 47 73 43 74 44 75 45 76 46 77 72 78 73 79
REMARK SMILES IDX 81 80 74 81 80 82 82 83 79 84 75 85 76 86 77 87 78 88 57 89
REMARK SMILES IDX 58 90 66 91 59 92 65 93 67 94 64 95 60 96 61 97 62 98 63 99
REMARK H PARENT 7 17 14 25 14 26 14 27 87 52 55 63
REMARK Flexibility Score: inf
ROOT
ATOM      1  C   UNL A   1      33.874  33.143  28.309  1.00  0.00     0.188 C 
ENDROOT
BRANCH   1   2
ATOM      2  O   UNL A   1      34.813  32.124  27.877  1.00  0.00    -0.376 OA
BRANCH   2   3
ATOM      3  C   UNL A   1      34.714  30.702  28.119  1.00  0.00     0.202 C 
BRANCH   3   4
ATOM      4  C   UNL A   1      34.338  29.551  26.919  1.00  0.00     0.261 C 
BRANCH   4   5
ATOM      5  O   UNL A   1      33.384  28.154  27.024  1.00  0.00    -0.460 OA
BRANCH   5   6
ATOM      6  C   UNL A   1      31.981  27.829  27.085  1.00  0.00     0.340 C 
ATOM      7  O   UNL A   1      31.264  27.762  28.079  1.00  0.00    -0.246 OA
BRANCH   6   8
ATOM      8  C   UNL A   1      31.111  27.413  25.965  1.00  0.00     0.086 A 
ATOM      9  C   UNL A   1      31.699  29.624  24.860  1.00  0.00     0.045 C 
ATOM     10  C   UNL A   1      30.980  28.304  24.892  1.00  0.00    -0.034 A 
ATOM     11  C   UNL A   1      30.351  27.849  23.728  1.00  0.00     0.004 A 
ATOM     12  C   UNL A   1      29.849  26.550  23.630  1.00  0.00     0.002 A 
ATOM     13  C   UNL A   1      30.725  25.999  25.803  1.00  0.00     0.056 A 
ATOM     14  C   UNL A   1      30.027  25.642  24.666  1.00  0.00     0.027 A 
BRANCH  13  15
ATOM     15  N   UNL A   1      31.237  24.951  26.638  1.00  0.00    -0.325 N 
ATOM     16  C   UNL A   1      32.132  23.918  26.600  1.00  0.00     0.231 C 
ATOM     17  H   UNL A   1      30.808  24.989  27.523  1.00  0.00     0.169 HD
ATOM     18  O   UNL A   1      32.450  23.460  27.711  1.00  0.00    -0.274 OA
BRANCH  16  19
ATOM     19  C   UNL A   1      32.767  23.195  25.393  1.00  0.00     0.107 C 
ATOM     20  C   UNL A   1      31.905  22.202  24.683  1.00  0.00    -0.012 C 
ATOM     21  C   UNL A   1      33.425  24.013  24.273  1.00  0.00     0.087 C 
ATOM     22  C   UNL A   1      32.113  22.226  23.361  1.00  0.00     0.033 C 
ATOM     23  C   UNL A   1      33.116  23.259  22.959  1.00  0.00     0.205 C 
BRANCH  23  24
ATOM     24  N   UNL A   1      32.581  24.120  21.913  1.00  0.00    -0.352 N 
ATOM     25  H   UNL A   1      31.611  24.352  22.127  1.00  0.00     0.345 HD
ATOM     26  H   UNL A   1      32.624  23.634  21.018  1.00  0.00     0.345 HD
ATOM     27  H   UNL A   1      33.132  24.977  21.862  1.00  0.00     0.345 HD
ENDBRANCH  23  24
ENDBRANCH  16  19
ENDBRANCH  13  15
ENDBRANCH   6   8
ENDBRANCH   5   6
ENDBRANCH   4   5
ENDBRANCH   3   4
ENDBRANCH   2   3
ENDBRANCH   1   2
BRANCH   1  28
ATOM     28  C   UNL A   1      34.074  34.655  28.137  1.00  0.00     0.188 C 
BRANCH  28  29
ATOM     29  O   UNL A   1      34.107  35.329  29.387  1.00  0.00    -0.376 OA
BRANCH  29  30
ATOM     30  C   UNL A   1      32.908  36.004  29.742  1.00  0.00     0.202 C 
BRANCH  30  31
ATOM     31  C   UNL A   1      32.720  36.254  31.258  1.00  0.00     0.261 C 
BRANCH  31  32
ATOM     32  O   UNL A   1      33.117  35.128  32.086  1.00  0.00    -0.460 OA
BRANCH  32  33
ATOM     33  C   UNL A   1      34.237  35.279  32.884  1.00  0.00     0.338 C 
ATOM     34  O   UNL A   1      34.358  36.195  33.685  1.00  0.00    -0.246 OA
BRANCH  33  35
ATOM     35  C   UNL A   1      35.145  34.088  32.792  1.00  0.00     0.060 A 
ATOM     36  C   UNL A   1      35.765  33.336  33.804  1.00  0.00     0.016 A 
ATOM     37  C   UNL A   1      35.517  33.759  31.540  1.00  0.00     0.016 A 
ATOM     38  C   UNL A   1      36.856  32.382  33.524  1.00  0.00     0.010 A 
ATOM     39  C   UNL A   1      36.693  33.036  31.394  1.00  0.00     0.010 A 
ATOM     40  C   UNL A   1      37.424  32.222  32.258  1.00  0.00    -0.014 A 
BRANCH  40  41
ATOM     41  C   UNL A   1      38.770  31.434  31.782  1.00  0.00     0.031 A 
ATOM     42  C   UNL A   1      39.091  29.920  31.091  1.00  0.00     0.074 A 
ATOM     43  C   UNL A   1      39.902  32.138  32.007  1.00  0.00     0.049 A 
ATOM     44  N   UNL A   1      40.255  29.304  31.191  1.00  0.00    -0.248 NA
ATOM     45  C   UNL A   1      38.221  28.963  30.298  1.00  0.00     0.031 C 
ATOM     46  C   UNL A   1      41.267  31.858  31.576  1.00  0.00     0.029 A 
ATOM     47  N   UNL A   1      40.049  33.189  32.912  1.00  0.00    -0.354 N 
ATOM     48  C   UNL A   1      40.243  28.162  30.381  1.00  0.00     0.074 A 
ATOM     49  C   UNL A   1      38.906  27.853  30.119  1.00  0.00     0.031 C 
ATOM     50  C   UNL A   1      42.112  32.444  32.438  1.00  0.00     0.029 A 
ATOM     51  C   UNL A   1      41.312  33.029  33.496  1.00  0.00     0.049 A 
ATOM     52  H   UNL A   1      39.396  33.900  33.102  1.00  0.00     0.167 HD
ATOM     53  C   UNL A   1      41.343  27.600  29.817  1.00  0.00     0.034 A 
ATOM     54  C   UNL A   1      41.403  32.795  34.833  1.00  0.00     0.034 A 
ATOM     55  C   UNL A   1      42.486  27.949  30.617  1.00  0.00     0.049 A 
ATOM     56  C   UNL A   1      42.066  31.462  35.141  1.00  0.00     0.074 A 
ATOM     57  C   UNL A   1      43.524  28.845  30.493  1.00  0.00     0.029 A 
ATOM     58  N   UNL A   1      42.416  27.600  31.960  1.00  0.00    -0.354 N 
ATOM     59  N   UNL A   1      42.476  30.596  34.247  1.00  0.00    -0.248 NA
ATOM     60  C   UNL A   1      42.319  31.004  36.500  1.00  0.00     0.031 C 
ATOM     61  C   UNL A   1      43.954  29.164  31.822  1.00  0.00     0.029 A 
ATOM     62  C   UNL A   1      43.232  28.399  32.728  1.00  0.00     0.049 A 
ATOM     63  H   UNL A   1      41.856  26.873  32.315  1.00  0.00     0.167 HD
ATOM     64  C   UNL A   1      42.889  29.442  34.871  1.00  0.00     0.074 A 
ATOM     65  C   UNL A   1      42.859  29.794  36.280  1.00  0.00     0.031 C 
ATOM     66  C   UNL A   1      43.158  28.281  34.186  1.00  0.00     0.034 A 
BRANCH  53  67
ATOM     67  C   UNL A   1      41.319  26.781  28.517  1.00  0.00     0.023 A 
ATOM     68  C   UNL A   1      41.778  25.448  28.512  1.00  0.00     0.031 A 
ATOM     69  C   UNL A   1      40.988  27.284  27.222  1.00  0.00     0.131 A 
ATOM     70  C   UNL A   1      41.846  24.697  27.308  1.00  0.00     0.055 A 
ATOM     71  C   UNL A   1      40.956  26.508  26.055  1.00  0.00     0.041 A 
ATOM     72  F   UNL A   1      40.767  28.584  26.980  1.00  0.00    -0.206 F 
ATOM     73  C   UNL A   1      41.393  25.203  26.092  1.00  0.00     0.022 A 
BRANCH  70  74
ATOM     74  S   UNL A   1      42.662  23.073  27.303  1.00  0.00     0.124 S 
ATOM     75  O   UNL A   1      42.605  22.710  25.892  1.00  0.00    -0.237 OA
ATOM     76  O   UNL A   1      43.980  23.384  27.844  1.00  0.00    -0.237 OA
ATOM     77  O   UNL A   1      41.814  22.261  28.177  1.00  0.00    -0.744 OA
ENDBRANCH  70  74
ENDBRANCH  53  67
BRANCH  54  78
ATOM     78  C   UNL A   1      40.339  33.515  35.624  1.00  0.00     0.023 A 
ATOM     79  C   UNL A   1      39.297  32.727  36.183  1.00  0.00     0.031 A 
ATOM     80  C   UNL A   1      40.479  34.816  36.119  1.00  0.00     0.131 A 
ATOM     81  C   UNL A   1      38.563  33.170  37.296  1.00  0.00     0.055 A 
ATOM     82  C   UNL A   1      39.687  35.290  37.184  1.00  0.00     0.041 A 
ATOM     83  F   UNL A   1      41.458  35.615  35.677  1.00  0.00    -0.206 F 
ATOM     84  C   UNL A   1      38.753  34.454  37.802  1.00  0.00     0.022 A 
BRANCH  81  85
ATOM     85  S   UNL A   1      37.561  31.984  38.250  1.00  0.00     0.124 S 
ATOM     86  O   UNL A   1      36.270  32.658  38.315  1.00  0.00    -0.237 OA
ATOM     87  O   UNL A   1      37.602  30.768  37.440  1.00  0.00    -0.237 OA
ATOM     88  O   UNL A   1      38.286  31.878  39.515  1.00  0.00    -0.744 OA
ENDBRANCH  81  85
ENDBRANCH  54  78
BRANCH  66  89
ATOM     89  C   UNL A   1      43.349  26.905  34.834  1.00  0.00     0.023 A 
ATOM     90  C   UNL A   1      44.488  26.112  34.641  1.00  0.00     0.031 A 
ATOM     91  C   UNL A   1      42.392  26.355  35.727  1.00  0.00     0.131 A 
ATOM     92  C   UNL A   1      44.593  24.819  35.187  1.00  0.00     0.055 A 
ATOM     93  C   UNL A   1      42.560  25.127  36.379  1.00  0.00     0.041 A 
ATOM     94  F   UNL A   1      41.241  26.982  36.011  1.00  0.00    -0.206 F 
ATOM     95  C   UNL A   1      43.653  24.331  36.085  1.00  0.00     0.022 A 
BRANCH  92  96
ATOM     96  S   UNL A   1      45.896  23.732  34.548  1.00  0.00     0.124 S 
ATOM     97  O   UNL A   1      45.181  22.974  33.523  1.00  0.00    -0.237 OA
ATOM     98  O   UNL A   1      46.888  24.682  34.057  1.00  0.00    -0.237 OA
ATOM     99  O   UNL A   1      46.299  22.954  35.718  1.00  0.00    -0.744 OA
ENDBRANCH  92  96
ENDBRANCH  66  89
ENDBRANCH  40  41
ENDBRANCH  33  35
ENDBRANCH  32  33
ENDBRANCH  31  32
ENDBRANCH  30  31
ENDBRANCH  29  30
ENDBRANCH  28  29
ENDBRANCH   1  28
TORSDOF 23
ENDMDL
MODEL 3
REMARK VINA RESULT:     -11.7      1.743      2.403
REMARK SMILES Cc1cccc(NC(=O)[C@H]2C=C[C@@H]([NH3+])C2)c1C(=O)OCCOCCOCCOC(=O)c1ccc(-c2c3nc(c(-c4cc(S(=O)(=O)[O-])ccc4F)c4ccc([nH]4)c(-c4cc(S(=O)(=O)[O-])ccc4F)c4nc(c(-c5cc(S(=O)(=O)[O-])ccc5F)c5ccc2[nH]5)C=C4)C=C3)cc1
REMARK SMILES IDX 23 1 22 2 21 3 20 4 19 5 17 6 18 7 16 8 1 9 2 10 3 11 4 12
REMARK SMILES IDX 6 13 5 14 7 15 8 16 9 18 10 19 11 20 15 21 12 22 13 23 14 24
REMARK SMILES IDX 24 28 25 29 26 30 27 31 28 32 29 33 30 34 31 35 32 36 93 37
REMARK SMILES IDX 33 38 92 39 34 40 35 41 36 42 86 43 37 44 91 45 85 46 87 47
REMARK SMILES IDX 38 48 90 49 84 50 83 51 39 53 71 54 51 55 70 56 52 57 55 58
REMARK SMILES IDX 69 59 88 60 53 61 54 62 68 64 89 65 56 66 40 67 41 68 49 69
REMARK SMILES IDX 42 70 48 71 50 72 47 73 43 74 44 75 45 76 46 77 72 78 73 79
REMARK SMILES IDX 81 80 74 81 80 82 82 83 79 84 75 85 76 86 77 87 78 88 57 89
REMARK SMILES IDX 58 90 66 91 59 92 65 93 67 94 64 95 60 96 61 97 62 98 63 99
REMARK H PARENT 7 17 14 25 14 26 14 27 87 52 55 63
REMARK Flexibility Score: inf
ROOT
ATOM      1  C   UNL A   1      35.134  29.935  27.556  1.00  0.00     0.188 C 
ENDROOT
BRANCH   1   2
ATOM      2  O   UNL A   1      33.806  29.701  27.021  1.00  0.00    -0.376 OA
BRANCH   2   3
ATOM      3  C   UNL A   1      33.169  28.418  26.826  1.00  0.00     0.202 C 
BRANCH   3   4
ATOM      4  C   UNL A   1      33.899  27.099  26.031  1.00  0.00     0.261 C 
BRANCH   4   5
ATOM      5  O   UNL A   1      33.653  25.435  26.249  1.00  0.00    -0.460 OA
BRANCH   5   6
ATOM      6  C   UNL A   1      32.612  24.473  25.990  1.00  0.00     0.340 C 
ATOM      7  O   UNL A   1      31.619  24.234  26.672  1.00  0.00    -0.246 OA
BRANCH   6   8
ATOM      8  C   UNL A   1      32.556  23.493  24.885  1.00  0.00     0.086 A 
ATOM      9  C   UNL A   1      34.205  22.094  26.218  1.00  0.00     0.045 C 
ATOM     10  C   UNL A   1      33.345  22.343  25.011  1.00  0.00    -0.034 A 
ATOM     11  C   UNL A   1      33.143  21.301  24.098  1.00  0.00     0.004 A 
ATOM     12  C   UNL A   1      32.198  21.398  23.077  1.00  0.00     0.002 A 
ATOM     13  C   UNL A   1      31.451  23.529  23.908  1.00  0.00     0.056 A 
ATOM     14  C   UNL A   1      31.371  22.510  22.981  1.00  0.00     0.027 A 
BRANCH  13  15
ATOM     15  N   UNL A   1      30.338  24.428  24.024  1.00  0.00    -0.325 N 
ATOM     16  C   UNL A   1      30.044  25.758  23.906  1.00  0.00     0.231 C 
ATOM     17  H   UNL A   1      29.527  23.925  24.265  1.00  0.00     0.169 HD
ATOM     18  O   UNL A   1      28.832  26.018  23.810  1.00  0.00    -0.274 OA
BRANCH  16  19
ATOM     19  C   UNL A   1      30.973  26.989  23.928  1.00  0.00     0.107 C 
ATOM     20  C   UNL A   1      32.166  26.938  23.028  1.00  0.00    -0.012 C 
ATOM     21  C   UNL A   1      30.388  28.392  23.720  1.00  0.00     0.087 C 
ATOM     22  C   UNL A   1      32.431  28.135  22.493  1.00  0.00     0.033 C 
ATOM     23  C   UNL A   1      31.444  29.178  22.911  1.00  0.00     0.205 C 
BRANCH  23  24
ATOM     24  N   UNL A   1      30.891  29.861  21.750  1.00  0.00    -0.352 N 
ATOM     25  H   UNL A   1      29.972  29.475  21.535  1.00  0.00     0.345 HD
ATOM     26  H   UNL A   1      31.510  29.730  20.951  1.00  0.00     0.345 HD
ATOM     27  H   UNL A   1      30.802  30.857  21.952  1.00  0.00     0.345 HD
ENDBRANCH  23  24
ENDBRANCH  16  19
ENDBRANCH  13  15
ENDBRANCH   6   8
ENDBRANCH   5   6
ENDBRANCH   4   5
ENDBRANCH   3   4
ENDBRANCH   2   3
ENDBRANCH   1   2
BRANCH   1  28
ATOM     28  C   UNL A   1      35.713  31.313  27.908  1.00  0.00     0.188 C 
BRANCH  28  29
ATOM     29  O   UNL A   1      34.877  32.368  27.451  1.00  0.00    -0.376 OA
BRANCH  29  30
ATOM     30  C   UNL A   1      33.738  32.630  28.258  1.00  0.00     0.202 C 
BRANCH  30  31
ATOM     31  C   UNL A   1      33.425  34.128  28.485  1.00  0.00     0.261 C 
BRANCH  31  32
ATOM     32  O   UNL A   1      34.386  34.800  29.342  1.00  0.00    -0.460 OA
BRANCH  32  33
ATOM     33  C   UNL A   1      34.810  34.134  30.478  1.00  0.00     0.338 C 
ATOM     34  O   UNL A   1      34.035  33.725  31.331  1.00  0.00    -0.246 OA
BRANCH  33  35
ATOM     35  C   UNL A   1      36.272  33.805  30.413  1.00  0.00     0.060 A 
ATOM     36  C   UNL A   1      37.261  34.228  29.509  1.00  0.00     0.016 A 
ATOM     37  C   UNL A   1      36.678  32.866  31.290  1.00  0.00     0.016 A 
ATOM     38  C   UNL A   1      38.582  33.576  29.419  1.00  0.00     0.010 A 
ATOM     39  C   UNL A   1      37.833  32.163  30.979  1.00  0.00     0.010 A 
ATOM     40  C   UNL A   1      38.920  32.434  30.149  1.00  0.00    -0.014 A 
BRANCH  40  41
ATOM     41  C   UNL A   1      40.195  31.424  30.026  1.00  0.00     0.031 A 
ATOM     42  C   UNL A   1      40.415  29.832  29.489  1.00  0.00     0.074 A 
ATOM     43  C   UNL A   1      41.347  31.970  30.475  1.00  0.00     0.049 A 
ATOM     44  N   UNL A   1      41.415  29.062  29.878  1.00  0.00    -0.248 NA
ATOM     45  C   UNL A   1      39.599  28.954  28.559  1.00  0.00     0.031 C 
ATOM     46  C   UNL A   1      42.711  31.463  30.378  1.00  0.00     0.029 A 
ATOM     47  N   UNL A   1      41.457  33.055  31.345  1.00  0.00    -0.354 N 
ATOM     48  C   UNL A   1      41.400  27.876  29.135  1.00  0.00     0.074 A 
ATOM     49  C   UNL A   1      40.121  27.745  28.587  1.00  0.00     0.031 C 
ATOM     50  C   UNL A   1      43.429  31.984  31.385  1.00  0.00     0.029 A 
ATOM     51  C   UNL A   1      42.519  32.758  32.208  1.00  0.00     0.049 A 
ATOM     52  H   UNL A   1      40.900  33.866  31.351  1.00  0.00     0.167 HD
ATOM     53  C   UNL A   1      42.493  27.118  28.860  1.00  0.00     0.034 A 
ATOM     54  C   UNL A   1      42.277  32.615  33.538  1.00  0.00     0.034 A 
ATOM     55  C   UNL A   1      43.474  27.356  29.885  1.00  0.00     0.049 A 
ATOM     56  C   UNL A   1      42.636  31.228  34.045  1.00  0.00     0.074 A 
ATOM     57  C   UNL A   1      44.642  28.080  29.965  1.00  0.00     0.029 A 
ATOM     58  N   UNL A   1      43.056  27.124  31.190  1.00  0.00    -0.354 N 
ATOM     59  N   UNL A   1      43.089  30.246  33.305  1.00  0.00    -0.248 NA
ATOM     60  C   UNL A   1      42.508  30.842  35.444  1.00  0.00     0.031 C 
ATOM     61  C   UNL A   1      44.815  28.433  31.342  1.00  0.00     0.029 A 
ATOM     62  C   UNL A   1      43.800  27.853  32.091  1.00  0.00     0.049 A 
ATOM     63  H   UNL A   1      42.323  26.517  31.438  1.00  0.00     0.167 HD
ATOM     64  C   UNL A   1      43.166  29.094  34.053  1.00  0.00     0.074 A 
ATOM     65  C   UNL A   1      42.884  29.553  35.402  1.00  0.00     0.031 C 
ATOM     66  C   UNL A   1      43.390  27.858  33.497  1.00  0.00     0.034 A 
BRANCH  53  67
ATOM     67  C   UNL A   1      42.625  26.214  27.624  1.00  0.00     0.023 A 
ATOM     68  C   UNL A   1      42.134  24.894  27.658  1.00  0.00     0.031 A 
ATOM     69  C   UNL A   1      43.339  26.537  26.430  1.00  0.00     0.131 A 
ATOM     70  C   UNL A   1      42.319  24.011  26.560  1.00  0.00     0.055 A 
ATOM     71  C   UNL A   1      43.427  25.699  25.309  1.00  0.00     0.041 A 
ATOM     72  F   UNL A   1      44.083  27.645  26.303  1.00  0.00    -0.206 F 
ATOM     73  C   UNL A   1      42.918  24.422  25.371  1.00  0.00     0.022 A 
BRANCH  70  74
ATOM     74  S   UNL A   1      41.885  22.255  26.732  1.00  0.00     0.124 S 
ATOM     75  O   UNL A   1      42.697  21.854  27.876  1.00  0.00    -0.237 OA
ATOM     76  O   UNL A   1      40.443  22.309  26.942  1.00  0.00    -0.237 OA
ATOM     77  O   UNL A   1      42.300  21.673  25.454  1.00  0.00    -0.744 OA
ENDBRANCH  70  74
ENDBRANCH  53  67
BRANCH  54  78
ATOM     78  C   UNL A   1      41.194  33.541  34.035  1.00  0.00     0.023 A 
ATOM     79  C   UNL A   1      39.931  32.963  34.339  1.00  0.00     0.031 A 
ATOM     80  C   UNL A   1      41.430  34.830  34.526  1.00  0.00     0.131 A 
ATOM     81  C   UNL A   1      39.042  33.581  35.233  1.00  0.00     0.055 A 
ATOM     82  C   UNL A   1      40.501  35.484  35.359  1.00  0.00     0.041 A 
ATOM     83  F   UNL A   1      42.607  35.434  34.321  1.00  0.00    -0.206 F 
ATOM     84  C   UNL A   1      39.320  34.845  35.747  1.00  0.00     0.022 A 
BRANCH  81  85
ATOM     85  S   UNL A   1      37.657  32.628  35.937  1.00  0.00     0.124 S 
ATOM     86  O   UNL A   1      36.515  33.161  35.203  1.00  0.00    -0.237 OA
ATOM     87  O   UNL A   1      38.009  31.240  35.642  1.00  0.00    -0.237 OA
ATOM     88  O   UNL A   1      37.710  32.964  37.359  1.00  0.00    -0.744 OA
ENDBRANCH  81  85
ENDBRANCH  54  78
BRANCH  66  89
ATOM     89  C   UNL A   1      43.213  26.522  34.227  1.00  0.00     0.023 A 
ATOM     90  C   UNL A   1      44.265  25.629  34.470  1.00  0.00     0.031 A 
ATOM     91  C   UNL A   1      41.961  26.117  34.760  1.00  0.00     0.131 A 
ATOM     92  C   UNL A   1      44.051  24.375  35.071  1.00  0.00     0.055 A 
ATOM     93  C   UNL A   1      41.776  24.930  35.481  1.00  0.00     0.041 A 
ATOM     94  F   UNL A   1      40.851  26.852  34.606  1.00  0.00    -0.206 F 
ATOM     95  C   UNL A   1      42.819  24.031  35.613  1.00  0.00     0.022 A 
BRANCH  92  96
ATOM     96  S   UNL A   1      45.378  23.144  34.963  1.00  0.00     0.124 S 
ATOM     97  O   UNL A   1      46.272  23.751  33.980  1.00  0.00    -0.237 OA
ATOM     98  O   UNL A   1      45.880  23.098  36.332  1.00  0.00    -0.237 OA
ATOM     99  O   UNL A   1      44.691  21.938  34.506  1.00  0.00    -0.744 OA
ENDBRANCH  92  96
ENDBRANCH  66  89
ENDBRANCH  40  41
ENDBRANCH  33  35
ENDBRANCH  32  33
ENDBRANCH  31  32
ENDBRANCH  30  31
ENDBRANCH  29  30
ENDBRANCH  28  29
ENDBRANCH   1  28
TORSDOF 23
ENDMDL
