MODEL 1
REMARK VINA RESULT:     -10.3      0.000      0.000
REMARK SMILES C[C@@H](c1ccccc1)[C@@H]1[NH2+][C@@H](C(=O)OCCOCCOCCOC(=O)c2ccc(-c3c4nc(c(-c5cc(S(=O)(=O)[O-])ccc5F)c5ccc([nH]5)c(-c5cc(S(=O)(=O)[O-])ccc5F)c5nc(c(-c6cc(S(=O)(=O)[O-])ccc6F)c6ccc3[nH]6)C=C5)C=C4)cc2)CS1
REMARK SMILES IDX 19 1 18 2 17 3 16 4 15 5 14 6 12 7 13 8 11 9 9 10 10 11
REMARK SMILES IDX 90 12 89 15 2 16 1 17 3 18 4 19 8 20 5 21 7 22 6 23 20 24
REMARK SMILES IDX 21 25 22 26 23 27 24 28 25 29 26 30 27 31 88 32 28 33 87 34
REMARK SMILES IDX 29 35 30 36 31 37 81 38 32 39 86 40 80 41 82 42 33 43 85 44
REMARK SMILES IDX 79 45 78 46 34 48 66 49 46 50 65 51 47 52 50 53 64 54 83 55
REMARK SMILES IDX 48 56 49 57 63 59 84 60 51 61 35 62 36 63 44 64 37 65 43 66
REMARK SMILES IDX 45 67 42 68 38 69 39 70 40 71 41 72 67 73 68 74 76 75 69 76
REMARK SMILES IDX 75 77 77 78 74 79 70 80 71 81 72 82 73 83 52 84 53 85 61 86
REMARK SMILES IDX 54 87 60 88 62 89 59 90 55 91 56 92 57 93 58 94
REMARK H PARENT 10 13 10 14 82 47 50 58
REMARK Flexibility Score: inf
ROOT
ATOM      1  C   UNL A   1      33.382  19.806  25.220  1.00  0.00     0.188 C 
ENDROOT
BRANCH   1   2
ATOM      2  C   UNL A   1      32.428  20.359  24.142  1.00  0.00     0.188 C 
BRANCH   2   3
ATOM      3  O   UNL A   1      32.267  21.768  24.007  1.00  0.00    -0.376 OA
BRANCH   3   4
ATOM      4  C   UNL A   1      32.545  22.396  22.760  1.00  0.00     0.202 C 
BRANCH   4   5
ATOM      5  C   UNL A   1      33.122  23.819  22.742  1.00  0.00     0.261 C 
BRANCH   5   6
ATOM      6  O   UNL A   1      32.433  24.749  23.595  1.00  0.00    -0.459 OA
BRANCH   6   7
ATOM      7  C   UNL A   1      33.105  25.140  24.716  1.00  0.00     0.365 C 
ATOM      8  O   UNL A   1      34.072  24.561  25.195  1.00  0.00    -0.245 OA
BRANCH   7   9
ATOM      9  C   UNL A   1      32.570  26.482  25.240  1.00  0.00     0.304 C 
ATOM     10  C   UNL A   1      31.568  28.197  23.827  1.00  0.00     0.249 C 
ATOM     11  N   UNL A   1      31.363  26.875  24.452  1.00  0.00    -0.322 N 
ATOM     12  S   UNL A   1      33.366  28.464  23.737  1.00  0.00    -0.092 SA
ATOM     13  H   UNL A   1      31.195  26.181  23.725  1.00  0.00     0.348 HD
ATOM     14  H   UNL A   1      30.560  26.926  25.079  1.00  0.00     0.348 HD
ATOM     15  C   UNL A   1      33.658  27.540  25.243  1.00  0.00     0.153 C 
BRANCH  10  16
ATOM     16  C   UNL A   1      30.738  29.279  24.596  1.00  0.00     0.085 C 
ATOM     17  C   UNL A   1      31.571  30.312  25.372  1.00  0.00     0.020 C 
BRANCH  16  18
ATOM     18  C   UNL A   1      29.781  30.002  23.645  1.00  0.00    -0.038 A 
ATOM     19  C   UNL A   1      29.431  29.425  22.414  1.00  0.00     0.004 A 
ATOM     20  C   UNL A   1      29.238  31.256  23.974  1.00  0.00     0.004 A 
ATOM     21  C   UNL A   1      28.557  30.081  21.544  1.00  0.00     0.000 A 
ATOM     22  C   UNL A   1      28.366  31.910  23.101  1.00  0.00     0.000 A 
ATOM     23  C   UNL A   1      28.025  31.322  21.887  1.00  0.00     0.000 A 
ENDBRANCH  16  18
ENDBRANCH  10  16
ENDBRANCH   7   9
ENDBRANCH   6   7
ENDBRANCH   5   6
ENDBRANCH   4   5
ENDBRANCH   3   4
ENDBRANCH   2   3
ENDBRANCH   1   2
BRANCH   1  24
ATOM     24  O   UNL A   1      34.685  19.542  24.746  1.00  0.00    -0.376 OA
BRANCH  24  25
ATOM     25  C   UNL A   1      35.587  20.638  24.704  1.00  0.00     0.202 C 
BRANCH  25  26
ATOM     26  C   UNL A   1      37.092  20.435  24.981  1.00  0.00     0.261 C 
BRANCH  26  27
ATOM     27  O   UNL A   1      37.729  21.333  25.904  1.00  0.00    -0.460 OA
BRANCH  27  28
ATOM     28  C   UNL A   1      39.036  21.126  26.173  1.00  0.00     0.338 C 
ATOM     29  O   UNL A   1      39.681  20.115  25.907  1.00  0.00    -0.246 OA
BRANCH  28  30
ATOM     30  C   UNL A   1      39.618  22.394  26.658  1.00  0.00     0.060 A 
ATOM     31  C   UNL A   1      39.105  23.611  26.186  1.00  0.00     0.016 A 
ATOM     32  C   UNL A   1      40.670  22.385  27.578  1.00  0.00     0.016 A 
ATOM     33  C   UNL A   1      39.660  24.820  26.613  1.00  0.00     0.010 A 
ATOM     34  C   UNL A   1      41.238  23.597  27.987  1.00  0.00     0.010 A 
ATOM     35  C   UNL A   1      40.757  24.821  27.484  1.00  0.00    -0.014 A 
BRANCH  35  36
ATOM     36  C   UNL A   1      41.528  26.071  27.715  1.00  0.00     0.031 A 
ATOM     37  C   UNL A   1      40.881  27.171  28.512  1.00  0.00     0.074 A 
ATOM     38  C   UNL A   1      42.774  26.233  27.234  1.00  0.00     0.049 A 
ATOM     39  N   UNL A   1      41.319  28.372  28.792  1.00  0.00    -0.248 NA
ATOM     40  C   UNL A   1      39.552  26.870  29.064  1.00  0.00     0.031 C 
ATOM     41  C   UNL A   1      43.534  25.226  26.499  1.00  0.00     0.029 A 
ATOM     42  N   UNL A   1      43.616  27.316  27.292  1.00  0.00    -0.354 N 
ATOM     43  C   UNL A   1      40.314  28.977  29.539  1.00  0.00     0.074 A 
ATOM     44  C   UNL A   1      39.231  28.021  29.633  1.00  0.00     0.031 C 
ATOM     45  C   UNL A   1      44.734  25.740  26.171  1.00  0.00     0.029 A 
ATOM     46  C   UNL A   1      44.808  27.125  26.634  1.00  0.00     0.049 A 
ATOM     47  H   UNL A   1      43.388  28.152  27.760  1.00  0.00     0.167 HD
ATOM     48  C   UNL A   1      40.298  30.212  30.102  1.00  0.00     0.034 A 
ATOM     49  C   UNL A   1      45.830  27.978  26.414  1.00  0.00     0.034 A 
ATOM     50  C   UNL A   1      41.378  31.161  29.984  1.00  0.00     0.049 A 
ATOM     51  C   UNL A   1      45.744  29.389  26.950  1.00  0.00     0.074 A 
ATOM     52  C   UNL A   1      41.477  32.428  30.533  1.00  0.00     0.029 A 
ATOM     53  N   UNL A   1      42.541  30.958  29.249  1.00  0.00    -0.354 N 
ATOM     54  N   UNL A   1      44.796  29.949  27.667  1.00  0.00    -0.248 NA
ATOM     55  C   UNL A   1      46.872  30.281  26.647  1.00  0.00     0.031 C 
ATOM     56  C   UNL A   1      42.654  33.020  30.059  1.00  0.00     0.029 A 
ATOM     57  C   UNL A   1      43.338  32.092  29.292  1.00  0.00     0.049 A 
ATOM     58  H   UNL A   1      42.764  30.129  28.767  1.00  0.00     0.167 HD
ATOM     59  C   UNL A   1      45.236  31.244  27.935  1.00  0.00     0.074 A 
ATOM     60  C   UNL A   1      46.534  31.379  27.307  1.00  0.00     0.031 C 
ATOM     61  C   UNL A   1      44.628  32.227  28.651  1.00  0.00     0.034 A 
BRANCH  48  62
ATOM     62  C   UNL A   1      39.037  30.617  30.831  1.00  0.00     0.023 A 
ATOM     63  C   UNL A   1      38.014  31.349  30.199  1.00  0.00     0.031 A 
ATOM     64  C   UNL A   1      38.884  30.325  32.199  1.00  0.00     0.131 A 
ATOM     65  C   UNL A   1      36.942  31.849  30.954  1.00  0.00     0.055 A 
ATOM     66  C   UNL A   1      37.766  30.744  32.922  1.00  0.00     0.041 A 
ATOM     67  F   UNL A   1      39.834  29.651  32.864  1.00  0.00    -0.206 F 
ATOM     68  C   UNL A   1      36.797  31.530  32.305  1.00  0.00     0.022 A 
BRANCH  65  69
ATOM     69  S   UNL A   1      35.849  33.080  30.190  1.00  0.00     0.124 S 
ATOM     70  O   UNL A   1      34.865  32.228  29.524  1.00  0.00    -0.237 OA
ATOM     71  O   UNL A   1      35.367  33.831  31.343  1.00  0.00    -0.237 OA
ATOM     72  O   UNL A   1      36.734  33.814  29.290  1.00  0.00    -0.744 OA
ENDBRANCH  65  69
ENDBRANCH  48  62
BRANCH  49  73
ATOM     73  C   UNL A   1      47.025  27.542  25.634  1.00  0.00     0.023 A 
ATOM     74  C   UNL A   1      47.176  27.904  24.287  1.00  0.00     0.031 A 
ATOM     75  C   UNL A   1      48.007  26.716  26.210  1.00  0.00     0.131 A 
ATOM     76  C   UNL A   1      48.262  27.410  23.547  1.00  0.00     0.055 A 
ATOM     77  C   UNL A   1      49.113  26.270  25.485  1.00  0.00     0.041 A 
ATOM     78  F   UNL A   1      47.907  26.335  27.493  1.00  0.00    -0.206 F 
ATOM     79  C   UNL A   1      49.240  26.609  24.140  1.00  0.00     0.022 A 
BRANCH  76  80
ATOM     80  S   UNL A   1      48.341  27.775  21.772  1.00  0.00     0.124 S 
ATOM     81  O   UNL A   1      48.583  26.452  21.208  1.00  0.00    -0.237 OA
ATOM     82  O   UNL A   1      47.023  28.348  21.520  1.00  0.00    -0.237 OA
ATOM     83  O   UNL A   1      49.457  28.712  21.666  1.00  0.00    -0.744 OA
ENDBRANCH  76  80
ENDBRANCH  49  73
BRANCH  61  84
ATOM     84  C   UNL A   1      45.389  33.519  28.840  1.00  0.00     0.023 A 
ATOM     85  C   UNL A   1      46.268  33.720  29.918  1.00  0.00     0.031 A 
ATOM     86  C   UNL A   1      45.221  34.574  27.922  1.00  0.00     0.131 A 
ATOM     87  C   UNL A   1      46.901  34.963  30.084  1.00  0.00     0.055 A 
ATOM     88  C   UNL A   1      45.905  35.784  28.055  1.00  0.00     0.041 A 
ATOM     89  F   UNL A   1      44.392  34.443  26.875  1.00  0.00    -0.206 F 
ATOM     90  C   UNL A   1      46.739  35.989  29.149  1.00  0.00     0.022 A 
BRANCH  87  91
ATOM     91  S   UNL A   1      47.863  35.261  31.594  1.00  0.00     0.124 S 
ATOM     92  O   UNL A   1      48.652  36.432  31.226  1.00  0.00    -0.237 OA
ATOM     93  O   UNL A   1      46.819  35.482  32.590  1.00  0.00    -0.237 OA
ATOM     94  O   UNL A   1      48.627  34.027  31.763  1.00  0.00    -0.744 OA
ENDBRANCH  87  91
ENDBRANCH  61  84
ENDBRANCH  35  36
ENDBRANCH  28  30
ENDBRANCH  27  28
ENDBRANCH  26  27
ENDBRANCH  25  26
ENDBRANCH  24  25
ENDBRANCH   1  24
TORSDOF 22
ENDMDL
MODEL 2
REMARK VINA RESULT:      -9.7      3.686      5.914
REMARK SMILES C[C@@H](c1ccccc1)[C@@H]1[NH2+][C@@H](C(=O)OCCOCCOCCOC(=O)c2ccc(-c3c4nc(c(-c5cc(S(=O)(=O)[O-])ccc5F)c5ccc([nH]5)c(-c5cc(S(=O)(=O)[O-])ccc5F)c5nc(c(-c6cc(S(=O)(=O)[O-])ccc6F)c6ccc3[nH]6)C=C5)C=C4)cc2)CS1
REMARK SMILES IDX 19 1 18 2 17 3 16 4 15 5 14 6 12 7 13 8 11 9 9 10 10 11
REMARK SMILES IDX 90 12 89 15 2 16 1 17 3 18 4 19 8 20 5 21 7 22 6 23 20 24
REMARK SMILES IDX 21 25 22 26 23 27 24 28 25 29 26 30 27 31 88 32 28 33 87 34
REMARK SMILES IDX 29 35 30 36 31 37 81 38 32 39 86 40 80 41 82 42 33 43 85 44
REMARK SMILES IDX 79 45 78 46 34 48 66 49 46 50 65 51 47 52 50 53 64 54 83 55
REMARK SMILES IDX 48 56 49 57 63 59 84 60 51 61 35 62 36 63 44 64 37 65 43 66
REMARK SMILES IDX 45 67 42 68 38 69 39 70 40 71 41 72 67 73 68 74 76 75 69 76
REMARK SMILES IDX 75 77 77 78 74 79 70 80 71 81 72 82 73 83 52 84 53 85 61 86
REMARK SMILES IDX 54 87 60 88 62 89 59 90 55 91 56 92 57 93 58 94
REMARK H PARENT 10 13 10 14 82 47 50 58
REMARK Flexibility Score: inf
ROOT
ATOM      1  C   UNL A   1      45.175  18.947  25.070  1.00  0.00     0.188 C 
ENDROOT
BRANCH   1   2
ATOM      2  C   UNL A   1      43.732  18.489  25.365  1.00  0.00     0.188 C 
BRANCH   2   3
ATOM      3  O   UNL A   1      42.657  19.406  25.182  1.00  0.00    -0.376 OA
BRANCH   3   4
ATOM      4  C   UNL A   1      42.266  20.259  26.251  1.00  0.00     0.202 C 
BRANCH   4   5
ATOM      5  C   UNL A   1      40.815  20.226  26.753  1.00  0.00     0.261 C 
BRANCH   5   6
ATOM      6  O   UNL A   1      39.866  20.844  25.867  1.00  0.00    -0.459 OA
BRANCH   6   7
ATOM      7  C   UNL A   1      39.334  22.026  26.293  1.00  0.00     0.365 C 
ATOM      8  O   UNL A   1      39.700  22.645  27.285  1.00  0.00    -0.245 OA
BRANCH   7   9
ATOM      9  C   UNL A   1      38.290  22.553  25.296  1.00  0.00     0.304 C 
ATOM     10  C   UNL A   1      36.078  23.353  25.933  1.00  0.00     0.249 C 
ATOM     11  N   UNL A   1      37.521  23.667  25.927  1.00  0.00    -0.322 N 
ATOM     12  S   UNL A   1      35.931  21.545  25.785  1.00  0.00    -0.092 SA
ATOM     13  H   UNL A   1      37.841  23.796  26.886  1.00  0.00     0.348 HD
ATOM     14  H   UNL A   1      37.673  24.521  25.390  1.00  0.00     0.348 HD
ATOM     15  C   UNL A   1      37.411  21.428  24.784  1.00  0.00     0.153 C 
BRANCH  10  16
ATOM     16  C   UNL A   1      35.349  24.205  24.840  1.00  0.00     0.085 C 
ATOM     17  C   UNL A   1      34.997  23.449  23.549  1.00  0.00     0.020 C 
BRANCH  16  18
ATOM     18  C   UNL A   1      34.087  24.854  25.415  1.00  0.00    -0.038 A 
ATOM     19  C   UNL A   1      33.128  24.077  26.081  1.00  0.00     0.004 A 
ATOM     20  C   UNL A   1      33.856  26.235  25.286  1.00  0.00     0.004 A 
ATOM     21  C   UNL A   1      31.976  24.666  26.610  1.00  0.00     0.000 A 
ATOM     22  C   UNL A   1      32.703  26.821  25.812  1.00  0.00     0.000 A 
ATOM     23  C   UNL A   1      31.764  26.036  26.475  1.00  0.00     0.000 A 
ENDBRANCH  16  18
ENDBRANCH  10  16
ENDBRANCH   7   9
ENDBRANCH   6   7
ENDBRANCH   5   6
ENDBRANCH   4   5
ENDBRANCH   3   4
ENDBRANCH   2   3
ENDBRANCH   1   2
BRANCH   1  24
ATOM     24  O   UNL A   1      45.255  20.029  24.167  1.00  0.00    -0.376 OA
BRANCH  24  25
ATOM     25  C   UNL A   1      46.374  20.894  24.301  1.00  0.00     0.202 C 
BRANCH  25  26
ATOM     26  C   UNL A   1      46.201  22.339  24.816  1.00  0.00     0.261 C 
BRANCH  26  27
ATOM     27  O   UNL A   1      45.032  22.634  25.598  1.00  0.00    -0.460 OA
BRANCH  27  28
ATOM     28  C   UNL A   1      44.041  23.328  24.998  1.00  0.00     0.338 C 
ATOM     29  O   UNL A   1      43.307  22.920  24.101  1.00  0.00    -0.246 OA
BRANCH  28  30
ATOM     30  C   UNL A   1      43.848  24.594  25.736  1.00  0.00     0.060 A 
ATOM     31  C   UNL A   1      43.637  25.781  25.019  1.00  0.00     0.016 A 
ATOM     32  C   UNL A   1      43.874  24.612  27.133  1.00  0.00     0.016 A 
ATOM     33  C   UNL A   1      43.478  26.992  25.698  1.00  0.00     0.010 A 
ATOM     34  C   UNL A   1      43.736  25.830  27.809  1.00  0.00     0.010 A 
ATOM     35  C   UNL A   1      43.567  27.031  27.096  1.00  0.00    -0.014 A 
BRANCH  35  36
ATOM     36  C   UNL A   1      43.688  28.335  27.801  1.00  0.00     0.031 A 
ATOM     37  C   UNL A   1      42.449  28.931  28.413  1.00  0.00     0.074 A 
ATOM     38  C   UNL A   1      44.864  28.978  27.903  1.00  0.00     0.049 A 
ATOM     39  N   UNL A   1      42.283  30.079  29.018  1.00  0.00    -0.248 NA
ATOM     40  C   UNL A   1      41.229  28.116  28.320  1.00  0.00     0.031 C 
ATOM     41  C   UNL A   1      46.146  28.483  27.407  1.00  0.00     0.029 A 
ATOM     42  N   UNL A   1      45.166  30.198  28.459  1.00  0.00    -0.354 N 
ATOM     43  C   UNL A   1      40.938  30.132  29.366  1.00  0.00     0.074 A 
ATOM     44  C   UNL A   1      40.329  28.917  28.867  1.00  0.00     0.031 C 
ATOM     45  C   UNL A   1      47.099  29.393  27.679  1.00  0.00     0.029 A 
ATOM     46  C   UNL A   1      46.488  30.552  28.328  1.00  0.00     0.049 A 
ATOM     47  H   UNL A   1      44.498  30.765  28.907  1.00  0.00     0.167 HD
ATOM     48  C   UNL A   1      40.272  31.100  30.045  1.00  0.00     0.034 A 
ATOM     49  C   UNL A   1      47.125  31.691  28.673  1.00  0.00     0.034 A 
ATOM     50  C   UNL A   1      40.888  32.316  30.521  1.00  0.00     0.049 A 
ATOM     51  C   UNL A   1      46.341  32.807  29.325  1.00  0.00     0.074 A 
ATOM     52  C   UNL A   1      40.315  33.350  31.239  1.00  0.00     0.029 A 
ATOM     53  N   UNL A   1      42.215  32.672  30.306  1.00  0.00    -0.354 N 
ATOM     54  N   UNL A   1      45.072  32.844  29.663  1.00  0.00    -0.248 NA
ATOM     55  C   UNL A   1      47.082  34.035  29.644  1.00  0.00     0.031 C 
ATOM     56  C   UNL A   1      41.268  34.366  31.382  1.00  0.00     0.029 A 
ATOM     57  C   UNL A   1      42.464  33.929  30.837  1.00  0.00     0.049 A 
ATOM     58  H   UNL A   1      42.881  32.113  29.844  1.00  0.00     0.167 HD
ATOM     59  C   UNL A   1      44.876  34.082  30.272  1.00  0.00     0.074 A 
ATOM     60  C   UNL A   1      46.157  34.758  30.258  1.00  0.00     0.031 C 
ATOM     61  C   UNL A   1      43.742  34.605  30.809  1.00  0.00     0.034 A 
BRANCH  48  62
ATOM     62  C   UNL A   1      38.786  30.902  30.243  1.00  0.00     0.023 A 
ATOM     63  C   UNL A   1      37.841  31.387  29.320  1.00  0.00     0.031 A 
ATOM     64  C   UNL A   1      38.303  30.277  31.406  1.00  0.00     0.131 A 
ATOM     65  C   UNL A   1      36.472  31.332  29.624  1.00  0.00     0.055 A 
ATOM     66  C   UNL A   1      36.937  30.138  31.657  1.00  0.00     0.041 A 
ATOM     67  F   UNL A   1      39.152  29.813  32.336  1.00  0.00    -0.206 F 
ATOM     68  C   UNL A   1      36.012  30.687  30.773  1.00  0.00     0.022 A 
BRANCH  65  69
ATOM     69  S   UNL A   1      35.320  32.282  28.594  1.00  0.00     0.124 S 
ATOM     70  O   UNL A   1      36.200  33.302  28.028  1.00  0.00    -0.237 OA
ATOM     71  O   UNL A   1      34.826  31.276  27.662  1.00  0.00    -0.237 OA
ATOM     72  O   UNL A   1      34.337  32.784  29.552  1.00  0.00    -0.744 OA
ENDBRANCH  65  69
ENDBRANCH  48  62
BRANCH  49  73
ATOM     73  C   UNL A   1      48.581  31.856  28.398  1.00  0.00     0.023 A 
ATOM     74  C   UNL A   1      49.026  32.606  27.298  1.00  0.00     0.031 A 
ATOM     75  C   UNL A   1      49.549  31.225  29.201  1.00  0.00     0.131 A 
ATOM     76  C   UNL A   1      50.398  32.675  27.007  1.00  0.00     0.055 A 
ATOM     77  C   UNL A   1      50.915  31.341  28.938  1.00  0.00     0.041 A 
ATOM     78  F   UNL A   1      49.178  30.490  30.261  1.00  0.00    -0.206 F 
ATOM     79  C   UNL A   1      51.346  32.061  27.827  1.00  0.00     0.022 A 
BRANCH  76  80
ATOM     80  S   UNL A   1      50.921  33.526  25.492  1.00  0.00     0.124 S 
ATOM     81  O   UNL A   1      52.010  34.363  25.985  1.00  0.00    -0.237 OA
ATOM     82  O   UNL A   1      51.308  32.411  24.635  1.00  0.00    -0.237 OA
ATOM     83  O   UNL A   1      49.721  34.245  25.074  1.00  0.00    -0.744 OA
ENDBRANCH  76  80
ENDBRANCH  49  73
BRANCH  61  84
ATOM     84  C   UNL A   1      43.852  35.957  31.480  1.00  0.00     0.023 A 
ATOM     85  C   UNL A   1      43.764  37.160  30.759  1.00  0.00     0.031 A 
ATOM     86  C   UNL A   1      44.057  36.035  32.870  1.00  0.00     0.131 A 
ATOM     87  C   UNL A   1      43.937  38.387  31.421  1.00  0.00     0.055 A 
ATOM     88  C   UNL A   1      44.162  37.260  33.533  1.00  0.00     0.041 A 
ATOM     89  F   UNL A   1      44.154  34.920  33.612  1.00  0.00    -0.206 F 
ATOM     90  C   UNL A   1      44.117  38.445  32.805  1.00  0.00     0.022 A 
BRANCH  87  91
ATOM     91  S   UNL A   1      44.027  39.907  30.434  1.00  0.00     0.124 S 
ATOM     92  O   UNL A   1      45.463  40.038  30.207  1.00  0.00    -0.237 OA
ATOM     93  O   UNL A   1      43.225  39.568  29.263  1.00  0.00    -0.237 OA
ATOM     94  O   UNL A   1      43.444  40.921  31.311  1.00  0.00    -0.744 OA
ENDBRANCH  87  91
ENDBRANCH  61  84
ENDBRANCH  35  36
ENDBRANCH  28  30
ENDBRANCH  27  28
ENDBRANCH  26  27
ENDBRANCH  25  26
ENDBRANCH  24  25
ENDBRANCH   1  24
TORSDOF 22
ENDMDL
MODEL 3
REMARK VINA RESULT:      -9.5      2.235      7.738
REMARK SMILES C[C@@H](c1ccccc1)[C@@H]1[NH2+][C@@H](C(=O)OCCOCCOCCOC(=O)c2ccc(-c3c4nc(c(-c5cc(S(=O)(=O)[O-])ccc5F)c5ccc([nH]5)c(-c5cc(S(=O)(=O)[O-])ccc5F)c5nc(c(-c6cc(S(=O)(=O)[O-])ccc6F)c6ccc3[nH]6)C=C5)C=C4)cc2)CS1
REMARK SMILES IDX 19 1 18 2 17 3 16 4 15 5 14 6 12 7 13 8 11 9 9 10 10 11
REMARK SMILES IDX 90 12 89 15 2 16 1 17 3 18 4 19 8 20 5 21 7 22 6 23 20 24
REMARK SMILES IDX 21 25 22 26 23 27 24 28 25 29 26 30 27 31 88 32 28 33 87 34
REMARK SMILES IDX 29 35 30 36 31 37 81 38 32 39 86 40 80 41 82 42 33 43 85 44
REMARK SMILES IDX 79 45 78 46 34 48 66 49 46 50 65 51 47 52 50 53 64 54 83 55
REMARK SMILES IDX 48 56 49 57 63 59 84 60 51 61 35 62 36 63 44 64 37 65 43 66
REMARK SMILES IDX 45 67 42 68 38 69 39 70 40 71 41 72 67 73 68 74 76 75 69 76
REMARK SMILES IDX 75 77 77 78 74 79 70 80 71 81 72 82 73 83 52 84 53 85 61 86
REMARK SMILES IDX 54 87 60 88 62 89 59 90 55 91 56 92 57 93 58 94
REMARK H PARENT 10 13 10 14 82 47 50 58
REMARK Flexibility Score: inf
ROOT
ATOM      1  C   UNL A   1      34.448  21.920  27.240  1.00  0.00     0.188 C 
ENDROOT
BRANCH   1   2
ATOM      2  C   UNL A   1      33.042  22.507  27.477  1.00  0.00     0.188 C 
BRANCH   2   3
ATOM      3  O   UNL A   1      32.655  23.693  26.788  1.00  0.00    -0.376 OA
BRANCH   3   4
ATOM      4  C   UNL A   1      33.311  24.053  25.578  1.00  0.00     0.202 C 
BRANCH   4   5
ATOM      5  C   UNL A   1      33.986  25.428  25.463  1.00  0.00     0.261 C 
BRANCH   5   6
ATOM      6  O   UNL A   1      33.436  26.276  24.439  1.00  0.00    -0.459 OA
BRANCH   6   7
ATOM      7  C   UNL A   1      33.140  25.664  23.256  1.00  0.00     0.365 C 
ATOM      8  O   UNL A   1      33.896  24.927  22.636  1.00  0.00    -0.245 OA
BRANCH   7   9
ATOM      9  C   UNL A   1      31.679  25.920  22.854  1.00  0.00     0.304 C 
ATOM     10  C   UNL A   1      30.266  27.631  23.865  1.00  0.00     0.249 C 
ATOM     11  N   UNL A   1      31.392  27.384  22.941  1.00  0.00    -0.322 N 
ATOM     12  S   UNL A   1      30.156  26.182  24.960  1.00  0.00    -0.092 SA
ATOM     13  H   UNL A   1      32.220  27.870  23.281  1.00  0.00     0.348 HD
ATOM     14  H   UNL A   1      31.141  27.728  22.013  1.00  0.00     0.348 HD
ATOM     15  C   UNL A   1      30.730  25.071  23.679  1.00  0.00     0.153 C 
BRANCH  10  16
ATOM     16  C   UNL A   1      28.980  27.987  23.046  1.00  0.00     0.085 C 
ATOM     17  C   UNL A   1      27.678  27.359  23.568  1.00  0.00     0.020 C 
BRANCH  16  18
ATOM     18  C   UNL A   1      28.812  29.505  22.940  1.00  0.00    -0.038 A 
ATOM     19  C   UNL A   1      29.487  30.359  23.826  1.00  0.00     0.004 A 
ATOM     20  C   UNL A   1      27.977  30.078  21.965  1.00  0.00     0.004 A 
ATOM     21  C   UNL A   1      29.338  31.745  23.731  1.00  0.00     0.000 A 
ATOM     22  C   UNL A   1      27.827  31.464  21.875  1.00  0.00     0.000 A 
ATOM     23  C   UNL A   1      28.508  32.297  22.757  1.00  0.00     0.000 A 
ENDBRANCH  16  18
ENDBRANCH  10  16
ENDBRANCH   7   9
ENDBRANCH   6   7
ENDBRANCH   5   6
ENDBRANCH   4   5
ENDBRANCH   3   4
ENDBRANCH   2   3
ENDBRANCH   1   2
BRANCH   1  24
ATOM     24  O   UNL A   1      34.557  21.166  26.051  1.00  0.00    -0.376 OA
BRANCH  24  25
ATOM     25  C   UNL A   1      35.547  21.578  25.119  1.00  0.00     0.202 C 
BRANCH  25  26
ATOM     26  C   UNL A   1      37.047  21.356  25.408  1.00  0.00     0.261 C 
BRANCH  26  27
ATOM     27  O   UNL A   1      37.779  22.435  26.009  1.00  0.00    -0.460 OA
BRANCH  27  28
ATOM     28  C   UNL A   1      39.058  22.195  26.369  1.00  0.00     0.338 C 
ATOM     29  O   UNL A   1      39.658  21.129  26.255  1.00  0.00    -0.246 OA
BRANCH  28  30
ATOM     30  C   UNL A   1      39.687  23.481  26.736  1.00  0.00     0.060 A 
ATOM     31  C   UNL A   1      40.286  23.617  27.997  1.00  0.00     0.016 A 
ATOM     32  C   UNL A   1      39.688  24.552  25.839  1.00  0.00     0.016 A 
ATOM     33  C   UNL A   1      40.863  24.833  28.373  1.00  0.00     0.010 A 
ATOM     34  C   UNL A   1      40.247  25.775  26.226  1.00  0.00     0.010 A 
ATOM     35  C   UNL A   1      40.811  25.933  27.506  1.00  0.00    -0.014 A 
BRANCH  35  36
ATOM     36  C   UNL A   1      41.158  27.292  28.001  1.00  0.00     0.031 A 
ATOM     37  C   UNL A   1      42.608  27.693  28.025  1.00  0.00     0.074 A 
ATOM     38  C   UNL A   1      40.215  28.156  28.418  1.00  0.00     0.049 A 
ATOM     39  N   UNL A   1      43.167  28.789  28.469  1.00  0.00    -0.248 NA
ATOM     40  C   UNL A   1      43.556  26.713  27.474  1.00  0.00     0.031 C 
ATOM     41  C   UNL A   1      38.775  27.914  28.392  1.00  0.00     0.029 A 
ATOM     42  N   UNL A   1      40.336  29.415  28.952  1.00  0.00    -0.354 N 
ATOM     43  C   UNL A   1      44.533  28.627  28.266  1.00  0.00     0.074 A 
ATOM     44  C   UNL A   1      44.716  27.309  27.695  1.00  0.00     0.031 C 
ATOM     45  C   UNL A   1      38.143  28.992  28.891  1.00  0.00     0.029 A 
ATOM     46  C   UNL A   1      39.135  29.980  29.312  1.00  0.00     0.049 A 
ATOM     47  H   UNL A   1      41.201  29.870  29.068  1.00  0.00     0.167 HD
ATOM     48  C   UNL A   1      45.541  29.498  28.524  1.00  0.00     0.034 A 
ATOM     49  C   UNL A   1      38.871  31.151  29.929  1.00  0.00     0.034 A 
ATOM     50  C   UNL A   1      45.345  30.801  29.111  1.00  0.00     0.049 A 
ATOM     51  C   UNL A   1      40.018  32.057  30.315  1.00  0.00     0.074 A 
ATOM     52  C   UNL A   1      46.290  31.772  29.392  1.00  0.00     0.029 A 
ATOM     53  N   UNL A   1      44.120  31.311  29.528  1.00  0.00    -0.354 N 
ATOM     54  N   UNL A   1      41.306  31.903  30.107  1.00  0.00    -0.248 NA
ATOM     55  C   UNL A   1      39.669  33.301  31.016  1.00  0.00     0.031 C 
ATOM     56  C   UNL A   1      45.652  32.826  30.057  1.00  0.00     0.029 A 
ATOM     57  C   UNL A   1      44.294  32.559  30.106  1.00  0.00     0.049 A 
ATOM     58  H   UNL A   1      43.255  30.851  29.428  1.00  0.00     0.167 HD
ATOM     59  C   UNL A   1      41.914  33.050  30.615  1.00  0.00     0.074 A 
ATOM     60  C   UNL A   1      40.852  33.886  31.134  1.00  0.00     0.031 C 
ATOM     61  C   UNL A   1      43.231  33.386  30.635  1.00  0.00     0.034 A 
BRANCH  48  62
ATOM     62  C   UNL A   1      46.948  29.024  28.234  1.00  0.00     0.023 A 
ATOM     63  C   UNL A   1      47.413  28.833  26.920  1.00  0.00     0.031 A 
ATOM     64  C   UNL A   1      47.816  28.694  29.291  1.00  0.00     0.131 A 
ATOM     65  C   UNL A   1      48.663  28.234  26.699  1.00  0.00     0.055 A 
ATOM     66  C   UNL A   1      49.097  28.188  29.062  1.00  0.00     0.041 A 
ATOM     67  F   UNL A   1      47.424  28.832  30.567  1.00  0.00    -0.206 F 
ATOM     68  C   UNL A   1      49.519  27.934  27.761  1.00  0.00     0.022 A 
BRANCH  65  69
ATOM     69  S   UNL A   1      49.068  27.675  25.022  1.00  0.00     0.124 S 
ATOM     70  O   UNL A   1      50.389  28.269  24.823  1.00  0.00    -0.237 OA
ATOM     71  O   UNL A   1      49.035  26.224  25.156  1.00  0.00    -0.237 OA
ATOM     72  O   UNL A   1      48.006  28.253  24.201  1.00  0.00    -0.744 OA
ENDBRANCH  65  69
ENDBRANCH  48  62
BRANCH  49  73
ATOM     73  C   UNL A   1      37.466  31.539  30.246  1.00  0.00     0.023 A 
ATOM     74  C   UNL A   1      36.657  32.161  29.283  1.00  0.00     0.031 A 
ATOM     75  C   UNL A   1      36.930  31.341  31.531  1.00  0.00     0.131 A 
ATOM     76  C   UNL A   1      35.368  32.598  29.629  1.00  0.00     0.055 A 
ATOM     77  C   UNL A   1      35.629  31.730  31.855  1.00  0.00     0.041 A 
ATOM     78  F   UNL A   1      37.664  30.757  32.492  1.00  0.00    -0.206 F 
ATOM     79  C   UNL A   1      34.843  32.373  30.903  1.00  0.00     0.022 A 
BRANCH  76  80
ATOM     80  S   UNL A   1      34.410  33.532  28.403  1.00  0.00     0.124 S 
ATOM     81  O   UNL A   1      33.835  34.593  29.223  1.00  0.00    -0.237 OA
ATOM     82  O   UNL A   1      35.443  33.941  27.457  1.00  0.00    -0.237 OA
ATOM     83  O   UNL A   1      33.457  32.548  27.895  1.00  0.00    -0.744 OA
ENDBRANCH  76  80
ENDBRANCH  49  73
BRANCH  61  84
ATOM     84  C   UNL A   1      43.590  34.747  31.189  1.00  0.00     0.023 A 
ATOM     85  C   UNL A   1      43.818  34.962  32.559  1.00  0.00     0.031 A 
ATOM     86  C   UNL A   1      43.698  35.850  30.321  1.00  0.00     0.131 A 
ATOM     87  C   UNL A   1      44.085  36.259  33.029  1.00  0.00     0.055 A 
ATOM     88  C   UNL A   1      44.030  37.124  30.786  1.00  0.00     0.041 A 
ATOM     89  F   UNL A   1      43.488  35.708  29.003  1.00  0.00    -0.206 F 
ATOM     90  C   UNL A   1      44.211  37.337  32.149  1.00  0.00     0.022 A 
BRANCH  87  91
ATOM     91  S   UNL A   1      44.166  36.540  34.820  1.00  0.00     0.124 S 
ATOM     92  O   UNL A   1      43.407  37.777  34.968  1.00  0.00    -0.237 OA
ATOM     93  O   UNL A   1      43.536  35.337  35.354  1.00  0.00    -0.237 OA
ATOM     94  O   UNL A   1      45.599  36.656  35.085  1.00  0.00    -0.744 OA
ENDBRANCH  87  91
ENDBRANCH  61  84
ENDBRANCH  35  36
ENDBRANCH  28  30
ENDBRANCH  27  28
ENDBRANCH  26  27
ENDBRANCH  25  26
ENDBRANCH  24  25
ENDBRANCH   1  24
TORSDOF 22
ENDMDL
