MODEL 1
REMARK VINA RESULT:     -10.6      0.000      0.000
REMARK SMILES Cc1nc(C)c(C(=O)N2CCC([C@H](C)C(=O)OCCOCCOCCOC(=O)c3ccc(-c4c5nc(c(-c6cc(S(=O)(=O)[O-])ccc6F)c6ccc([nH]6)c(-c6cc(S(=O)(=O)[O-])ccc6F)c6nc(c(-c7cc(S(=O)(=O)[O-])ccc7F)c7ccc4[nH]7)C=C6)C=C5)cc3)CC2)s1
REMARK SMILES IDX 22 1 21 2 20 3 19 4 18 5 17 6 15 7 16 8 13 9 14 10 12 11
REMARK SMILES IDX 7 12 8 13 9 14 10 15 93 16 11 17 92 18 6 19 1 20 2 21 3 22
REMARK SMILES IDX 94 23 4 24 5 25 23 26 24 27 25 28 26 29 27 30 28 31 29 32
REMARK SMILES IDX 30 33 91 34 31 35 90 36 32 37 33 38 34 39 84 40 35 41 89 42
REMARK SMILES IDX 83 43 85 44 36 45 88 46 82 47 81 48 37 50 69 51 49 52 68 53
REMARK SMILES IDX 50 54 53 55 67 56 86 57 51 58 52 59 66 61 87 62 54 63 38 64
REMARK SMILES IDX 39 65 47 66 40 67 46 68 48 69 45 70 41 71 42 72 43 73 44 74
REMARK SMILES IDX 70 75 71 76 79 77 72 78 78 79 80 80 77 81 73 82 74 83 75 84
REMARK SMILES IDX 76 85 55 86 56 87 64 88 57 89 63 90 65 91 62 92 58 93 59 94
REMARK SMILES IDX 60 95 61 96
REMARK H PARENT 85 49 53 60
REMARK Flexibility Score: inf
ROOT
ATOM      1  C   UNL A   1      38.932  23.072  26.368  1.00  0.00     0.188 C 
ENDROOT
BRANCH   1   2
ATOM      2  C   UNL A   1      37.515  22.739  25.889  1.00  0.00     0.188 C 
BRANCH   2   3
ATOM      3  O   UNL A   1      36.571  23.798  25.764  1.00  0.00    -0.376 OA
BRANCH   3   4
ATOM      4  C   UNL A   1      35.185  23.531  25.927  1.00  0.00     0.202 C 
BRANCH   4   5
ATOM      5  C   UNL A   1      34.772  22.111  26.326  1.00  0.00     0.261 C 
BRANCH   5   6
ATOM      6  O   UNL A   1      34.773  21.131  25.264  1.00  0.00    -0.463 OA
BRANCH   6   7
ATOM      7  C   UNL A   1      33.623  20.418  25.097  1.00  0.00     0.309 C 
ATOM      8  O   UNL A   1      33.198  19.596  25.899  1.00  0.00    -0.252 OA
BRANCH   7   9
ATOM      9  C   UNL A   1      32.964  20.638  23.731  1.00  0.00     0.099 C 
ATOM     10  C   UNL A   1      32.285  19.398  23.141  1.00  0.00     0.020 C 
BRANCH   9  11
ATOM     11  C   UNL A   1      32.125  21.949  23.681  1.00  0.00     0.006 C 
ATOM     12  C   UNL A   1      31.438  25.959  24.836  1.00  0.00     0.265 C 
ATOM     13  O   UNL A   1      31.477  26.073  26.062  1.00  0.00    -0.268 OA
ATOM     14  N   UNL A   1      31.391  24.700  24.241  1.00  0.00    -0.338 N 
ATOM     15  C   UNL A   1      30.686  23.631  24.918  1.00  0.00     0.120 C 
ATOM     16  C   UNL A   1      31.961  24.374  22.937  1.00  0.00     0.120 C 
ATOM     17  C   UNL A   1      31.537  22.379  25.040  1.00  0.00     0.026 C 
ATOM     18  C   UNL A   1      32.858  23.146  23.041  1.00  0.00     0.026 C 
BRANCH  12  19
ATOM     19  C   UNL A   1      31.369  27.119  23.968  1.00  0.00     0.115 A 
ATOM     20  C   UNL A   1      29.839  29.965  21.826  1.00  0.00     0.079 C 
ATOM     21  C   UNL A   1      30.639  28.999  22.622  1.00  0.00     0.091 A 
ATOM     22  N   UNL A   1      31.944  29.053  22.784  1.00  0.00    -0.246 NA
ATOM     23  S   UNL A   1      29.849  27.728  23.441  1.00  0.00    -0.113 S 
ATOM     24  C   UNL A   1      32.370  27.998  23.588  1.00  0.00     0.061 A 
ATOM     25  C   UNL A   1      33.810  27.941  23.953  1.00  0.00     0.068 C 
ENDBRANCH  12  19
ENDBRANCH   9  11
ENDBRANCH   7   9
ENDBRANCH   6   7
ENDBRANCH   5   6
ENDBRANCH   4   5
ENDBRANCH   3   4
ENDBRANCH   2   3
ENDBRANCH   1   2
BRANCH   1  26
ATOM     26  O   UNL A   1      39.746  21.942  26.607  1.00  0.00    -0.376 OA
BRANCH  26  27
ATOM     27  C   UNL A   1      39.533  20.820  25.771  1.00  0.00     0.202 C 
BRANCH  27  28
ATOM     28  C   UNL A   1      40.263  19.555  26.232  1.00  0.00     0.261 C 
BRANCH  28  29
ATOM     29  O   UNL A   1      41.344  19.122  25.383  1.00  0.00    -0.460 OA
BRANCH  29  30
ATOM     30  C   UNL A   1      42.598  19.190  25.880  1.00  0.00     0.338 C 
ATOM     31  O   UNL A   1      43.433  18.290  25.871  1.00  0.00    -0.246 OA
BRANCH  30  32
ATOM     32  C   UNL A   1      42.882  20.606  26.206  1.00  0.00     0.060 A 
ATOM     33  C   UNL A   1      43.080  21.524  25.162  1.00  0.00     0.016 A 
ATOM     34  C   UNL A   1      42.910  21.040  27.534  1.00  0.00     0.016 A 
ATOM     35  C   UNL A   1      43.335  22.869  25.447  1.00  0.00     0.010 A 
ATOM     36  C   UNL A   1      43.185  22.382  27.817  1.00  0.00     0.010 A 
ATOM     37  C   UNL A   1      43.429  23.298  26.778  1.00  0.00    -0.014 A 
BRANCH  37  38
ATOM     38  C   UNL A   1      44.003  24.631  27.098  1.00  0.00     0.031 A 
ATOM     39  C   UNL A   1      43.066  25.692  27.613  1.00  0.00     0.074 A 
ATOM     40  C   UNL A   1      45.310  24.908  26.935  1.00  0.00     0.049 A 
ATOM     41  N   UNL A   1      43.292  26.955  27.867  1.00  0.00    -0.248 NA
ATOM     42  C   UNL A   1      41.682  25.262  27.868  1.00  0.00     0.031 C 
ATOM     43  C   UNL A   1      46.329  23.959  26.495  1.00  0.00     0.029 A 
ATOM     44  N   UNL A   1      45.999  26.085  27.110  1.00  0.00    -0.354 N 
ATOM     45  C   UNL A   1      42.078  27.473  28.305  1.00  0.00     0.074 A 
ATOM     46  C   UNL A   1      41.114  26.395  28.247  1.00  0.00     0.031 C 
ATOM     47  C   UNL A   1      47.511  24.597  26.416  1.00  0.00     0.029 A 
ATOM     48  C   UNL A   1      47.327  26.007  26.759  1.00  0.00     0.049 A 
ATOM     49  H   UNL A   1      45.581  26.907  27.455  1.00  0.00     0.167 HD
ATOM     50  C   UNL A   1      41.792  28.730  28.725  1.00  0.00     0.034 A 
ATOM     51  C   UNL A   1      48.271  26.969  26.689  1.00  0.00     0.034 A 
ATOM     52  C   UNL A   1      42.754  29.803  28.756  1.00  0.00     0.049 A 
ATOM     53  C   UNL A   1      47.907  28.391  27.062  1.00  0.00     0.074 A 
ATOM     54  C   UNL A   1      42.570  31.114  29.162  1.00  0.00     0.029 A 
ATOM     55  N   UNL A   1      44.079  29.696  28.351  1.00  0.00    -0.354 N 
ATOM     56  N   UNL A   1      46.756  28.871  27.475  1.00  0.00    -0.248 NA
ATOM     57  C   UNL A   1      48.973  29.398  26.961  1.00  0.00     0.031 C 
ATOM     58  C   UNL A   1      43.759  31.814  28.934  1.00  0.00     0.029 A 
ATOM     59  C   UNL A   1      44.712  30.924  28.466  1.00  0.00     0.049 A 
ATOM     60  H   UNL A   1      44.505  28.869  28.030  1.00  0.00     0.167 HD
ATOM     61  C   UNL A   1      46.971  30.227  27.714  1.00  0.00     0.074 A 
ATOM     62  C   UNL A   1      48.364  30.486  27.411  1.00  0.00     0.031 C 
ATOM     63  C   UNL A   1      46.101  31.172  28.154  1.00  0.00     0.034 A 
BRANCH  50  64
ATOM     64  C   UNL A   1      40.364  29.014  29.122  1.00  0.00     0.023 A 
ATOM     65  C   UNL A   1      39.955  29.002  30.469  1.00  0.00     0.031 A 
ATOM     66  C   UNL A   1      39.388  29.257  28.140  1.00  0.00     0.131 A 
ATOM     67  C   UNL A   1      38.598  29.153  30.788  1.00  0.00     0.055 A 
ATOM     68  C   UNL A   1      38.053  29.489  28.471  1.00  0.00     0.041 A 
ATOM     69  F   UNL A   1      39.715  29.254  26.838  1.00  0.00    -0.206 F 
ATOM     70  C   UNL A   1      37.648  29.422  29.801  1.00  0.00     0.022 A 
BRANCH  67  71
ATOM     71  S   UNL A   1      38.070  28.841  32.495  1.00  0.00     0.124 S 
ATOM     72  O   UNL A   1      39.049  29.617  33.253  1.00  0.00    -0.237 OA
ATOM     73  O   UNL A   1      36.705  29.354  32.502  1.00  0.00    -0.237 OA
ATOM     74  O   UNL A   1      38.193  27.391  32.633  1.00  0.00    -0.744 OA
ENDBRANCH  67  71
ENDBRANCH  50  64
BRANCH  51  75
ATOM     75  C   UNL A   1      49.646  26.653  26.197  1.00  0.00     0.023 A 
ATOM     76  C   UNL A   1      50.084  27.071  24.929  1.00  0.00     0.031 A 
ATOM     77  C   UNL A   1      50.519  25.861  26.965  1.00  0.00     0.131 A 
ATOM     78  C   UNL A   1      51.337  26.657  24.448  1.00  0.00     0.055 A 
ATOM     79  C   UNL A   1      51.786  25.498  26.506  1.00  0.00     0.041 A 
ATOM     80  F   UNL A   1      50.149  25.426  28.180  1.00  0.00    -0.206 F 
ATOM     81  C   UNL A   1      52.197  25.886  25.234  1.00  0.00     0.022 A 
BRANCH  78  82
ATOM     82  S   UNL A   1      51.794  27.066  22.740  1.00  0.00     0.124 S 
ATOM     83  O   UNL A   1      50.524  26.890  22.043  1.00  0.00    -0.237 OA
ATOM     84  O   UNL A   1      52.268  28.440  22.875  1.00  0.00    -0.237 OA
ATOM     85  O   UNL A   1      52.826  26.083  22.418  1.00  0.00    -0.744 OA
ENDBRANCH  78  82
ENDBRANCH  51  75
BRANCH  63  86
ATOM     86  C   UNL A   1      46.644  32.564  28.386  1.00  0.00     0.023 A 
ATOM     87  C   UNL A   1      46.820  33.481  27.336  1.00  0.00     0.031 A 
ATOM     88  C   UNL A   1      46.989  32.976  29.687  1.00  0.00     0.131 A 
ATOM     89  C   UNL A   1      47.375  34.745  27.597  1.00  0.00     0.055 A 
ATOM     90  C   UNL A   1      47.482  34.254  29.949  1.00  0.00     0.041 A 
ATOM     91  F   UNL A   1      46.844  32.142  30.730  1.00  0.00    -0.206 F 
ATOM     92  C   UNL A   1      47.690  35.143  28.898  1.00  0.00     0.022 A 
BRANCH  89  93
ATOM     93  S   UNL A   1      47.764  35.834  26.199  1.00  0.00     0.124 S 
ATOM     94  O   UNL A   1      47.838  34.889  25.089  1.00  0.00    -0.237 OA
ATOM     95  O   UNL A   1      46.624  36.745  26.186  1.00  0.00    -0.237 OA
ATOM     96  O   UNL A   1      49.037  36.443  26.581  1.00  0.00    -0.744 OA
ENDBRANCH  89  93
ENDBRANCH  63  86
ENDBRANCH  37  38
ENDBRANCH  30  32
ENDBRANCH  29  30
ENDBRANCH  28  29
ENDBRANCH  27  28
ENDBRANCH  26  27
ENDBRANCH   1  26
TORSDOF 22
ENDMDL
MODEL 2
REMARK VINA RESULT:     -10.2      2.161      3.058
REMARK SMILES Cc1nc(C)c(C(=O)N2CCC([C@H](C)C(=O)OCCOCCOCCOC(=O)c3ccc(-c4c5nc(c(-c6cc(S(=O)(=O)[O-])ccc6F)c6ccc([nH]6)c(-c6cc(S(=O)(=O)[O-])ccc6F)c6nc(c(-c7cc(S(=O)(=O)[O-])ccc7F)c7ccc4[nH]7)C=C6)C=C5)cc3)CC2)s1
REMARK SMILES IDX 22 1 21 2 20 3 19 4 18 5 17 6 15 7 16 8 13 9 14 10 12 11
REMARK SMILES IDX 7 12 8 13 9 14 10 15 93 16 11 17 92 18 6 19 1 20 2 21 3 22
REMARK SMILES IDX 94 23 4 24 5 25 23 26 24 27 25 28 26 29 27 30 28 31 29 32
REMARK SMILES IDX 30 33 91 34 31 35 90 36 32 37 33 38 34 39 84 40 35 41 89 42
REMARK SMILES IDX 83 43 85 44 36 45 88 46 82 47 81 48 37 50 69 51 49 52 68 53
REMARK SMILES IDX 50 54 53 55 67 56 86 57 51 58 52 59 66 61 87 62 54 63 38 64
REMARK SMILES IDX 39 65 47 66 40 67 46 68 48 69 45 70 41 71 42 72 43 73 44 74
REMARK SMILES IDX 70 75 71 76 79 77 72 78 78 79 80 80 77 81 73 82 74 83 75 84
REMARK SMILES IDX 76 85 55 86 56 87 64 88 57 89 63 90 65 91 62 92 58 93 59 94
REMARK SMILES IDX 60 95 61 96
REMARK H PARENT 85 49 53 60
REMARK Flexibility Score: inf
ROOT
ATOM      1  C   UNL A   1      35.308  20.699  24.633  1.00  0.00     0.188 C 
ENDROOT
BRANCH   1   2
ATOM      2  C   UNL A   1      34.075  19.795  24.729  1.00  0.00     0.188 C 
BRANCH   2   3
ATOM      3  O   UNL A   1      32.922  20.131  23.963  1.00  0.00    -0.376 OA
BRANCH   3   4
ATOM      4  C   UNL A   1      32.591  21.496  23.747  1.00  0.00     0.202 C 
BRANCH   4   5
ATOM      5  C   UNL A   1      31.712  22.192  24.791  1.00  0.00     0.261 C 
BRANCH   5   6
ATOM      6  O   UNL A   1      32.235  22.224  26.138  1.00  0.00    -0.463 OA
BRANCH   6   7
ATOM      7  C   UNL A   1      32.064  23.387  26.827  1.00  0.00     0.309 C 
ATOM      8  O   UNL A   1      31.045  23.683  27.438  1.00  0.00    -0.252 OA
BRANCH   7   9
ATOM      9  C   UNL A   1      33.227  24.370  26.660  1.00  0.00     0.099 C 
ATOM     10  C   UNL A   1      34.572  23.720  26.318  1.00  0.00     0.020 C 
BRANCH   9  11
ATOM     11  C   UNL A   1      32.839  25.604  25.791  1.00  0.00     0.006 C 
ATOM     12  C   UNL A   1      30.726  27.361  22.577  1.00  0.00     0.265 C 
ATOM     13  O   UNL A   1      30.915  26.732  21.535  1.00  0.00    -0.268 OA
ATOM     14  N   UNL A   1      31.506  27.118  23.705  1.00  0.00    -0.338 N 
ATOM     15  C   UNL A   1      32.896  26.746  23.528  1.00  0.00     0.120 C 
ATOM     16  C   UNL A   1      31.047  27.260  25.083  1.00  0.00     0.120 C 
ATOM     17  C   UNL A   1      33.251  25.493  24.310  1.00  0.00     0.026 C 
ATOM     18  C   UNL A   1      31.350  25.997  25.879  1.00  0.00     0.026 C 
BRANCH  12  19
ATOM     19  C   UNL A   1      29.738  28.421  22.656  1.00  0.00     0.115 A 
ATOM     20  C   UNL A   1      28.060  31.869  22.090  1.00  0.00     0.079 C 
ATOM     21  C   UNL A   1      28.480  30.476  22.392  1.00  0.00     0.091 A 
ATOM     22  N   UNL A   1      27.731  29.575  22.989  1.00  0.00    -0.246 NA
ATOM     23  S   UNL A   1      30.029  29.944  21.912  1.00  0.00    -0.113 S 
ATOM     24  C   UNL A   1      28.430  28.376  23.111  1.00  0.00     0.061 A 
ATOM     25  C   UNL A   1      27.713  27.209  23.689  1.00  0.00     0.068 C 
ENDBRANCH  12  19
ENDBRANCH   9  11
ENDBRANCH   7   9
ENDBRANCH   6   7
ENDBRANCH   5   6
ENDBRANCH   4   5
ENDBRANCH   3   4
ENDBRANCH   2   3
ENDBRANCH   1   2
BRANCH   1  26
ATOM     26  O   UNL A   1      36.487  20.133  25.169  1.00  0.00    -0.376 OA
BRANCH  26  27
ATOM     27  C   UNL A   1      37.594  21.000  25.320  1.00  0.00     0.202 C 
BRANCH  27  28
ATOM     28  C   UNL A   1      38.952  20.310  25.154  1.00  0.00     0.261 C 
BRANCH  28  29
ATOM     29  O   UNL A   1      39.777  20.279  26.335  1.00  0.00    -0.460 OA
BRANCH  29  30
ATOM     30  C   UNL A   1      41.080  19.953  26.181  1.00  0.00     0.338 C 
ATOM     31  O   UNL A   1      41.517  18.906  25.714  1.00  0.00    -0.246 OA
BRANCH  30  32
ATOM     32  C   UNL A   1      41.885  21.171  26.433  1.00  0.00     0.060 A 
ATOM     33  C   UNL A   1      42.290  21.466  27.744  1.00  0.00     0.016 A 
ATOM     34  C   UNL A   1      42.278  21.996  25.376  1.00  0.00     0.016 A 
ATOM     35  C   UNL A   1      43.064  22.603  28.001  1.00  0.00     0.010 A 
ATOM     36  C   UNL A   1      43.033  23.143  25.638  1.00  0.00     0.010 A 
ATOM     37  C   UNL A   1      43.405  23.470  26.955  1.00  0.00    -0.014 A 
BRANCH  37  38
ATOM     38  C   UNL A   1      43.945  24.824  27.248  1.00  0.00     0.031 A 
ATOM     39  C   UNL A   1      42.988  25.860  27.777  1.00  0.00     0.074 A 
ATOM     40  C   UNL A   1      45.238  25.140  27.048  1.00  0.00     0.049 A 
ATOM     41  N   UNL A   1      43.180  27.132  28.013  1.00  0.00    -0.248 NA
ATOM     42  C   UNL A   1      41.626  25.389  28.071  1.00  0.00     0.031 C 
ATOM     43  C   UNL A   1      46.275  24.220  26.590  1.00  0.00     0.029 A 
ATOM     44  N   UNL A   1      45.893  26.340  27.195  1.00  0.00    -0.354 N 
ATOM     45  C   UNL A   1      41.962  27.616  28.478  1.00  0.00     0.074 A 
ATOM     46  C   UNL A   1      41.031  26.507  28.454  1.00  0.00     0.031 C 
ATOM     47  C   UNL A   1      47.434  24.894  26.475  1.00  0.00     0.029 A 
ATOM     48  C   UNL A   1      47.214  26.301  26.810  1.00  0.00     0.049 A 
ATOM     49  H   UNL A   1      45.458  27.152  27.543  1.00  0.00     0.167 HD
ATOM     50  C   UNL A   1      41.647  28.867  28.893  1.00  0.00     0.034 A 
ATOM     51  C   UNL A   1      48.125  27.292  26.707  1.00  0.00     0.034 A 
ATOM     52  C   UNL A   1      42.575  29.970  28.889  1.00  0.00     0.049 A 
ATOM     53  C   UNL A   1      47.725  28.704  27.076  1.00  0.00     0.074 A 
ATOM     54  C   UNL A   1      42.360  31.278  29.288  1.00  0.00     0.029 A 
ATOM     55  N   UNL A   1      43.891  29.901  28.452  1.00  0.00    -0.354 N 
ATOM     56  N   UNL A   1      46.570  29.152  27.514  1.00  0.00    -0.248 NA
ATOM     57  C   UNL A   1      48.756  29.744  26.939  1.00  0.00     0.031 C 
ATOM     58  C   UNL A   1      43.520  32.014  29.023  1.00  0.00     0.029 A 
ATOM     59  C   UNL A   1      44.488  31.149  28.539  1.00  0.00     0.049 A 
ATOM     60  H   UNL A   1      44.335  29.085  28.127  1.00  0.00     0.167 HD
ATOM     61  C   UNL A   1      46.749  30.517  27.736  1.00  0.00     0.074 A 
ATOM     62  C   UNL A   1      48.124  30.816  27.395  1.00  0.00     0.031 C 
ATOM     63  C   UNL A   1      45.860  31.438  28.189  1.00  0.00     0.034 A 
BRANCH  50  64
ATOM     64  C   UNL A   1      40.221  29.110  29.325  1.00  0.00     0.023 A 
ATOM     65  C   UNL A   1      39.846  29.092  30.681  1.00  0.00     0.031 A 
ATOM     66  C   UNL A   1      39.215  29.319  28.366  1.00  0.00     0.131 A 
ATOM     67  C   UNL A   1      38.493  29.203  31.033  1.00  0.00     0.055 A 
ATOM     68  C   UNL A   1      37.882  29.512  28.729  1.00  0.00     0.041 A 
ATOM     69  F   UNL A   1      39.509  29.321  27.057  1.00  0.00    -0.206 F 
ATOM     70  C   UNL A   1      37.511  29.439  30.069  1.00  0.00     0.022 A 
BRANCH  67  71
ATOM     71  S   UNL A   1      38.017  28.882  32.754  1.00  0.00     0.124 S 
ATOM     72  O   UNL A   1      37.998  27.421  32.787  1.00  0.00    -0.237 OA
ATOM     73  O   UNL A   1      39.090  29.523  33.504  1.00  0.00    -0.237 OA
ATOM     74  O   UNL A   1      36.707  29.518  32.871  1.00  0.00    -0.744 OA
ENDBRANCH  67  71
ENDBRANCH  50  64
BRANCH  51  75
ATOM     75  C   UNL A   1      49.496  27.014  26.182  1.00  0.00     0.023 A 
ATOM     76  C   UNL A   1      50.573  26.759  27.049  1.00  0.00     0.031 A 
ATOM     77  C   UNL A   1      49.763  27.071  24.802  1.00  0.00     0.131 A 
ATOM     78  C   UNL A   1      51.870  26.619  26.531  1.00  0.00     0.055 A 
ATOM     79  C   UNL A   1      51.045  26.876  24.288  1.00  0.00     0.041 A 
ATOM     80  F   UNL A   1      48.773  27.321  23.930  1.00  0.00    -0.206 F 
ATOM     81  C   UNL A   1      52.112  26.660  25.155  1.00  0.00     0.022 A 
BRANCH  78  82
ATOM     82  S   UNL A   1      53.260  26.468  27.689  1.00  0.00     0.124 S 
ATOM     83  O   UNL A   1      52.567  26.302  28.962  1.00  0.00    -0.237 OA
ATOM     84  O   UNL A   1      53.954  25.291  27.177  1.00  0.00    -0.237 OA
ATOM     85  O   UNL A   1      53.977  27.731  27.527  1.00  0.00    -0.744 OA
ENDBRANCH  78  82
ENDBRANCH  51  75
BRANCH  63  86
ATOM     86  C   UNL A   1      46.365  32.848  28.394  1.00  0.00     0.023 A 
ATOM     87  C   UNL A   1      46.861  33.291  29.633  1.00  0.00     0.031 A 
ATOM     88  C   UNL A   1      46.348  33.763  27.325  1.00  0.00     0.131 A 
ATOM     89  C   UNL A   1      47.271  34.626  29.785  1.00  0.00     0.055 A 
ATOM     90  C   UNL A   1      46.814  35.071  27.466  1.00  0.00     0.041 A 
ATOM     91  F   UNL A   1      45.884  33.398  26.119  1.00  0.00    -0.206 F 
ATOM     92  C   UNL A   1      47.268  35.512  28.705  1.00  0.00     0.022 A 
BRANCH  89  93
ATOM     93  S   UNL A   1      47.728  35.216  31.438  1.00  0.00     0.124 S 
ATOM     94  O   UNL A   1      47.496  36.653  31.324  1.00  0.00    -0.237 OA
ATOM     95  O   UNL A   1      46.802  34.487  32.298  1.00  0.00    -0.237 OA
ATOM     96  O   UNL A   1      49.131  34.824  31.568  1.00  0.00    -0.744 OA
ENDBRANCH  89  93
ENDBRANCH  63  86
ENDBRANCH  37  38
ENDBRANCH  30  32
ENDBRANCH  29  30
ENDBRANCH  28  29
ENDBRANCH  27  28
ENDBRANCH  26  27
ENDBRANCH   1  26
TORSDOF 22
ENDMDL
MODEL 3
REMARK VINA RESULT:     -10.1      1.987      3.847
REMARK SMILES Cc1nc(C)c(C(=O)N2CCC([C@H](C)C(=O)OCCOCCOCCOC(=O)c3ccc(-c4c5nc(c(-c6cc(S(=O)(=O)[O-])ccc6F)c6ccc([nH]6)c(-c6cc(S(=O)(=O)[O-])ccc6F)c6nc(c(-c7cc(S(=O)(=O)[O-])ccc7F)c7ccc4[nH]7)C=C6)C=C5)cc3)CC2)s1
REMARK SMILES IDX 22 1 21 2 20 3 19 4 18 5 17 6 15 7 16 8 13 9 14 10 12 11
REMARK SMILES IDX 7 12 8 13 9 14 10 15 93 16 11 17 92 18 6 19 1 20 2 21 3 22
REMARK SMILES IDX 94 23 4 24 5 25 23 26 24 27 25 28 26 29 27 30 28 31 29 32
REMARK SMILES IDX 30 33 91 34 31 35 90 36 32 37 33 38 34 39 84 40 35 41 89 42
REMARK SMILES IDX 83 43 85 44 36 45 88 46 82 47 81 48 37 50 69 51 49 52 68 53
REMARK SMILES IDX 50 54 53 55 67 56 86 57 51 58 52 59 66 61 87 62 54 63 38 64
REMARK SMILES IDX 39 65 47 66 40 67 46 68 48 69 45 70 41 71 42 72 43 73 44 74
REMARK SMILES IDX 70 75 71 76 79 77 72 78 78 79 80 80 77 81 73 82 74 83 75 84
REMARK SMILES IDX 76 85 55 86 56 87 64 88 57 89 63 90 65 91 62 92 58 93 59 94
REMARK SMILES IDX 60 95 61 96
REMARK H PARENT 85 49 53 60
REMARK Flexibility Score: inf
ROOT
ATOM      1  C   UNL A   1      36.813  23.702  25.181  1.00  0.00     0.188 C 
ENDROOT
BRANCH   1   2
ATOM      2  C   UNL A   1      35.538  24.290  25.795  1.00  0.00     0.188 C 
BRANCH   2   3
ATOM      3  O   UNL A   1      34.786  25.230  25.033  1.00  0.00    -0.376 OA
BRANCH   3   4
ATOM      4  C   UNL A   1      33.698  25.919  25.635  1.00  0.00     0.202 C 
BRANCH   4   5
ATOM      5  C   UNL A   1      33.370  27.324  25.121  1.00  0.00     0.261 C 
BRANCH   5   6
ATOM      6  O   UNL A   1      31.997  27.748  25.275  1.00  0.00    -0.463 OA
BRANCH   6   7
ATOM      7  C   UNL A   1      31.230  27.734  24.149  1.00  0.00     0.309 C 
ATOM      8  O   UNL A   1      31.416  28.457  23.178  1.00  0.00    -0.252 OA
BRANCH   7   9
ATOM      9  C   UNL A   1      30.009  26.815  24.256  1.00  0.00     0.099 C 
ATOM     10  C   UNL A   1      28.749  27.339  23.558  1.00  0.00     0.020 C 
BRANCH   9  11
ATOM     11  C   UNL A   1      30.362  25.324  23.971  1.00  0.00     0.006 C 
ATOM     12  C   UNL A   1      33.102  22.103  23.935  1.00  0.00     0.265 C 
ATOM     13  O   UNL A   1      34.143  22.423  23.360  1.00  0.00    -0.268 OA
ATOM     14  N   UNL A   1      31.970  22.912  23.857  1.00  0.00    -0.338 N 
ATOM     15  C   UNL A   1      31.722  23.653  22.636  1.00  0.00     0.120 C 
ATOM     16  C   UNL A   1      30.962  23.038  24.904  1.00  0.00     0.120 C 
ATOM     17  C   UNL A   1      31.460  25.124  22.909  1.00  0.00     0.026 C 
ATOM     18  C   UNL A   1      30.713  24.506  25.230  1.00  0.00     0.026 C 
BRANCH  12  19
ATOM     19  C   UNL A   1      32.987  20.851  24.656  1.00  0.00     0.115 A 
ATOM     20  C   UNL A   1      32.423  17.069  25.297  1.00  0.00     0.079 C 
ATOM     21  C   UNL A   1      32.728  18.523  25.284  1.00  0.00     0.091 A 
ATOM     22  N   UNL A   1      33.151  19.214  26.321  1.00  0.00    -0.246 NA
ATOM     23  S   UNL A   1      32.571  19.401  23.829  1.00  0.00    -0.113 S 
ATOM     24  C   UNL A   1      33.341  20.547  25.961  1.00  0.00     0.061 A 
ATOM     25  C   UNL A   1      33.899  21.470  26.985  1.00  0.00     0.068 C 
ENDBRANCH  12  19
ENDBRANCH   9  11
ENDBRANCH   7   9
ENDBRANCH   6   7
ENDBRANCH   5   6
ENDBRANCH   4   5
ENDBRANCH   3   4
ENDBRANCH   2   3
ENDBRANCH   1   2
BRANCH   1  26
ATOM     26  O   UNL A   1      37.494  22.789  26.019  1.00  0.00    -0.376 OA
BRANCH  26  27
ATOM     27  C   UNL A   1      38.156  21.715  25.379  1.00  0.00     0.202 C 
BRANCH  27  28
ATOM     28  C   UNL A   1      39.306  21.119  26.197  1.00  0.00     0.261 C 
BRANCH  28  29
ATOM     29  O   UNL A   1      40.240  20.314  25.451  1.00  0.00    -0.460 OA
BRANCH  29  30
ATOM     30  C   UNL A   1      41.369  19.918  26.080  1.00  0.00     0.338 C 
ATOM     31  O   UNL A   1      41.772  18.765  26.193  1.00  0.00    -0.246 OA
BRANCH  30  32
ATOM     32  C   UNL A   1      42.166  21.129  26.387  1.00  0.00     0.060 A 
ATOM     33  C   UNL A   1      42.458  21.436  27.725  1.00  0.00     0.016 A 
ATOM     34  C   UNL A   1      42.661  21.935  25.360  1.00  0.00     0.016 A 
ATOM     35  C   UNL A   1      43.221  22.566  28.037  1.00  0.00     0.010 A 
ATOM     36  C   UNL A   1      43.406  23.076  25.674  1.00  0.00     0.010 A 
ATOM     37  C   UNL A   1      43.666  23.415  27.014  1.00  0.00    -0.014 A 
BRANCH  37  38
ATOM     38  C   UNL A   1      44.196  24.766  27.337  1.00  0.00     0.031 A 
ATOM     39  C   UNL A   1      43.221  25.802  27.829  1.00  0.00     0.074 A 
ATOM     40  C   UNL A   1      45.498  25.078  27.196  1.00  0.00     0.049 A 
ATOM     41  N   UNL A   1      43.406  27.072  28.080  1.00  0.00    -0.248 NA
ATOM     42  C   UNL A   1      41.845  25.334  28.061  1.00  0.00     0.031 C 
ATOM     43  C   UNL A   1      46.551  24.157  26.780  1.00  0.00     0.029 A 
ATOM     44  N   UNL A   1      46.150  26.275  27.378  1.00  0.00    -0.354 N 
ATOM     45  C   UNL A   1      42.170  27.558  28.493  1.00  0.00     0.074 A 
ATOM     46  C   UNL A   1      41.238  26.453  28.423  1.00  0.00     0.031 C 
ATOM     47  C   UNL A   1      47.716  24.827  26.719  1.00  0.00     0.029 A 
ATOM     48  C   UNL A   1      47.486  26.233  27.051  1.00  0.00     0.049 A 
ATOM     49  H   UNL A   1      45.702  27.087  27.710  1.00  0.00     0.167 HD
ATOM     50  C   UNL A   1      41.841  28.808  28.901  1.00  0.00     0.034 A 
ATOM     51  C   UNL A   1      48.404  27.221  26.993  1.00  0.00     0.034 A 
ATOM     52  C   UNL A   1      42.772  29.908  28.943  1.00  0.00     0.049 A 
ATOM     53  C   UNL A   1      47.993  28.634  27.351  1.00  0.00     0.074 A 
ATOM     54  C   UNL A   1      42.544  31.215  29.339  1.00  0.00     0.029 A 
ATOM     55  N   UNL A   1      44.106  29.837  28.563  1.00  0.00    -0.354 N 
ATOM     56  N   UNL A   1      46.821  29.083  27.740  1.00  0.00    -0.248 NA
ATOM     57  C   UNL A   1      49.032  29.670  27.265  1.00  0.00     0.031 C 
ATOM     58  C   UNL A   1      43.717  31.948  29.129  1.00  0.00     0.029 A 
ATOM     59  C   UNL A   1      44.703  31.082  28.683  1.00  0.00     0.049 A 
ATOM     60  H   UNL A   1      44.561  29.021  28.254  1.00  0.00     0.167 HD
ATOM     61  C   UNL A   1      46.994  30.446  27.977  1.00  0.00     0.074 A 
ATOM     62  C   UNL A   1      48.384  30.742  27.698  1.00  0.00     0.031 C 
ATOM     63  C   UNL A   1      46.090  31.368  28.395  1.00  0.00     0.034 A 
BRANCH  50  64
ATOM     64  C   UNL A   1      40.399  29.054  29.271  1.00  0.00     0.023 A 
ATOM     65  C   UNL A   1      39.965  29.034  30.609  1.00  0.00     0.031 A 
ATOM     66  C   UNL A   1      39.435  29.267  28.269  1.00  0.00     0.131 A 
ATOM     67  C   UNL A   1      38.599  29.148  30.903  1.00  0.00     0.055 A 
ATOM     68  C   UNL A   1      38.088  29.463  28.575  1.00  0.00     0.041 A 
ATOM     69  F   UNL A   1      39.786  29.270  26.974  1.00  0.00    -0.206 F 
ATOM     70  C   UNL A   1      37.660  29.388  29.897  1.00  0.00     0.022 A 
BRANCH  67  71
ATOM     71  S   UNL A   1      38.047  28.826  32.600  1.00  0.00     0.124 S 
ATOM     72  O   UNL A   1      38.975  29.650  33.373  1.00  0.00    -0.237 OA
ATOM     73  O   UNL A   1      36.662  29.280  32.574  1.00  0.00    -0.237 OA
ATOM     74  O   UNL A   1      38.230  27.385  32.753  1.00  0.00    -0.744 OA
ENDBRANCH  67  71
ENDBRANCH  50  64
BRANCH  51  75
ATOM     75  C   UNL A   1      49.796  26.941  26.528  1.00  0.00     0.023 A 
ATOM     76  C   UNL A   1      50.855  26.789  27.439  1.00  0.00     0.031 A 
ATOM     77  C   UNL A   1      50.099  26.894  25.154  1.00  0.00     0.131 A 
ATOM     78  C   UNL A   1      52.169  26.644  26.967  1.00  0.00     0.055 A 
ATOM     79  C   UNL A   1      51.400  26.695  24.690  1.00  0.00     0.041 A 
ATOM     80  F   UNL A   1      49.127  27.044  24.240  1.00  0.00    -0.206 F 
ATOM     81  C   UNL A   1      52.447  26.581  25.599  1.00  0.00     0.022 A 
BRANCH  78  82
ATOM     82  S   UNL A   1      53.530  26.629  28.168  1.00  0.00     0.124 S 
ATOM     83  O   UNL A   1      52.812  26.459  29.427  1.00  0.00    -0.237 OA
ATOM     84  O   UNL A   1      54.317  25.485  27.719  1.00  0.00    -0.237 OA
ATOM     85  O   UNL A   1      54.165  27.931  27.981  1.00  0.00    -0.744 OA
ENDBRANCH  78  82
ENDBRANCH  51  75
BRANCH  63  86
ATOM     86  C   UNL A   1      46.589  32.776  28.629  1.00  0.00     0.023 A 
ATOM     87  C   UNL A   1      46.597  33.745  27.611  1.00  0.00     0.031 A 
ATOM     88  C   UNL A   1      47.063  33.151  29.900  1.00  0.00     0.131 A 
ATOM     89  C   UNL A   1      47.117  35.024  27.866  1.00  0.00     0.055 A 
ATOM     90  C   UNL A   1      47.522  34.442  30.165  1.00  0.00     0.041 A 
ATOM     91  F   UNL A   1      47.081  32.268  30.912  1.00  0.00    -0.206 F 
ATOM     92  C   UNL A   1      47.562  35.383  29.141  1.00  0.00     0.022 A 
BRANCH  89  93
ATOM     93  S   UNL A   1      47.287  36.189  26.487  1.00  0.00     0.124 S 
ATOM     94  O   UNL A   1      47.623  35.301  25.378  1.00  0.00    -0.237 OA
ATOM     95  O   UNL A   1      45.966  36.805  26.433  1.00  0.00    -0.237 OA
ATOM     96  O   UNL A   1      48.366  37.077  26.917  1.00  0.00    -0.744 OA
ENDBRANCH  89  93
ENDBRANCH  63  86
ENDBRANCH  37  38
ENDBRANCH  30  32
ENDBRANCH  29  30
ENDBRANCH  28  29
ENDBRANCH  27  28
ENDBRANCH  26  27
ENDBRANCH   1  26
TORSDOF 22
ENDMDL
