MODEL 1
REMARK VINA RESULT:      -9.9      0.000      0.000
REMARK SMILES COc1cc(/C=C/C(=O)OCCOCCOCCOC(=O)c2ccc(-c3c4nc(c(-c5cc(S(=O)(=O)[O-])ccc5F)c5ccc([nH]5)c(-c5cc(S(=O)(=O)[O-])ccc5F)c5nc(c(-c6cc(S(=O)(=O)[O-])ccc6F)c6ccc3[nH]6)C=C5)C=C4)cc2)cc(OC)c1O
REMARK SMILES IDX 15 1 14 2 13 3 12 4 11 5 10 6 8 7 9 8 7 9 6 10 5 11 3 12
REMARK SMILES IDX 4 13 89 14 86 15 85 16 2 17 1 18 90 19 87 21 88 22 16 23
REMARK SMILES IDX 17 24 18 25 19 26 20 27 21 28 22 29 23 30 84 31 24 32 83 33
REMARK SMILES IDX 25 34 26 35 27 36 77 37 28 38 82 39 76 40 78 41 29 42 81 43
REMARK SMILES IDX 75 44 74 45 30 47 62 48 42 49 61 50 43 51 46 52 60 53 79 54
REMARK SMILES IDX 44 55 45 56 59 58 80 59 47 60 31 61 32 62 40 63 33 64 39 65
REMARK SMILES IDX 41 66 38 67 34 68 35 69 36 70 37 71 63 72 64 73 72 74 65 75
REMARK SMILES IDX 71 76 73 77 70 78 66 79 67 80 68 81 69 82 48 83 49 84 57 85
REMARK SMILES IDX 50 86 56 87 58 88 55 89 51 90 52 91 53 92 54 93
REMARK H PARENT 90 20 78 46 46 57
REMARK Flexibility Score: inf
ROOT
ATOM      1  C   UNL A   1      32.276  29.494  25.274  1.00  0.00     0.188 C 
ENDROOT
BRANCH   1   2
ATOM      2  C   UNL A   1      32.320  28.792  23.900  1.00  0.00     0.188 C 
BRANCH   2   3
ATOM      3  O   UNL A   1      33.431  27.974  23.561  1.00  0.00    -0.376 OA
BRANCH   3   4
ATOM      4  C   UNL A   1      33.552  27.452  22.246  1.00  0.00     0.202 C 
BRANCH   4   5
ATOM      5  C   UNL A   1      32.994  26.066  21.886  1.00  0.00     0.261 C 
BRANCH   5   6
ATOM      6  O   UNL A   1      31.565  25.930  21.954  1.00  0.00    -0.460 OA
BRANCH   6   7
ATOM      7  C   UNL A   1      31.102  25.240  23.024  1.00  0.00     0.330 C 
ATOM      8  O   UNL A   1      29.991  25.344  23.524  1.00  0.00    -0.247 OA
BRANCH   7   9
ATOM      9  C   UNL A   1      32.057  24.222  23.511  1.00  0.00     0.094 C 
ATOM     10  C   UNL A   1      32.020  22.904  23.257  1.00  0.00     0.016 C 
BRANCH  10  11
ATOM     11  C   UNL A   1      33.047  21.973  23.759  1.00  0.00    -0.018 A 
ATOM     12  C   UNL A   1      33.763  19.756  24.516  1.00  0.00     0.165 A 
ATOM     13  C   UNL A   1      32.781  20.621  24.007  1.00  0.00     0.058 A 
ATOM     14  C   UNL A   1      35.054  20.250  24.755  1.00  0.00     0.200 A 
ATOM     15  C   UNL A   1      35.352  21.598  24.489  1.00  0.00     0.165 A 
ATOM     16  C   UNL A   1      34.347  22.436  23.979  1.00  0.00     0.058 A 
BRANCH  12  17
ATOM     17  O   UNL A   1      33.303  18.476  24.670  1.00  0.00    -0.493 OA
ATOM     18  C   UNL A   1      32.688  18.083  25.888  1.00  0.00     0.278 C 
ENDBRANCH  12  17
BRANCH  14  19
ATOM     19  O   UNL A   1      36.048  19.412  25.179  1.00  0.00    -0.502 OA
ATOM     20  H   UNL A   1      35.833  18.620  25.630  1.00  0.00     0.293 HD
ENDBRANCH  14  19
BRANCH  15  21
ATOM     21  O   UNL A   1      36.553  22.246  24.622  1.00  0.00    -0.493 OA
ATOM     22  C   UNL A   1      36.956  22.676  25.914  1.00  0.00     0.278 C 
ENDBRANCH  15  21
ENDBRANCH  10  11
ENDBRANCH   7   9
ENDBRANCH   6   7
ENDBRANCH   5   6
ENDBRANCH   4   5
ENDBRANCH   3   4
ENDBRANCH   2   3
ENDBRANCH   1   2
BRANCH   1  23
ATOM     23  O   UNL A   1      31.407  30.602  25.342  1.00  0.00    -0.376 OA
BRANCH  23  24
ATOM     24  C   UNL A   1      31.231  31.288  26.570  1.00  0.00     0.202 C 
BRANCH  24  25
ATOM     25  C   UNL A   1      31.538  32.780  26.817  1.00  0.00     0.261 C 
BRANCH  25  26
ATOM     26  O   UNL A   1      32.891  33.228  26.736  1.00  0.00    -0.460 OA
BRANCH  26  27
ATOM     27  C   UNL A   1      33.393  33.827  27.839  1.00  0.00     0.338 C 
ATOM     28  O   UNL A   1      32.897  34.764  28.457  1.00  0.00    -0.246 OA
BRANCH  27  29
ATOM     29  C   UNL A   1      34.568  33.064  28.288  1.00  0.00     0.060 A 
ATOM     30  C   UNL A   1      34.412  31.716  28.634  1.00  0.00     0.016 A 
ATOM     31  C   UNL A   1      35.818  33.681  28.379  1.00  0.00     0.016 A 
ATOM     32  C   UNL A   1      35.509  30.982  29.089  1.00  0.00     0.010 A 
ATOM     33  C   UNL A   1      36.911  32.948  28.852  1.00  0.00     0.010 A 
ATOM     34  C   UNL A   1      36.758  31.602  29.231  1.00  0.00    -0.014 A 
BRANCH  34  35
ATOM     35  C   UNL A   1      37.866  30.897  29.923  1.00  0.00     0.031 A 
ATOM     36  C   UNL A   1      38.145  31.234  31.361  1.00  0.00     0.074 A 
ATOM     37  C   UNL A   1      38.605  29.970  29.286  1.00  0.00     0.049 A 
ATOM     38  N   UNL A   1      39.100  30.807  32.146  1.00  0.00    -0.248 NA
ATOM     39  C   UNL A   1      37.223  32.188  31.995  1.00  0.00     0.031 C 
ATOM     40  C   UNL A   1      38.399  29.525  27.910  1.00  0.00     0.029 A 
ATOM     41  N   UNL A   1      39.689  29.244  29.717  1.00  0.00    -0.354 N 
ATOM     42  C   UNL A   1      38.898  31.444  33.366  1.00  0.00     0.074 A 
ATOM     43  C   UNL A   1      37.752  32.313  33.202  1.00  0.00     0.031 C 
ATOM     44  C   UNL A   1      39.336  28.611  27.603  1.00  0.00     0.029 A 
ATOM     45  C   UNL A   1      40.233  28.437  28.744  1.00  0.00     0.049 A 
ATOM     46  H   UNL A   1      40.042  29.296  30.633  1.00  0.00     0.167 HD
ATOM     47  C   UNL A   1      39.600  31.309  34.518  1.00  0.00     0.034 A 
ATOM     48  C   UNL A   1      41.347  27.674  28.765  1.00  0.00     0.034 A 
ATOM     49  C   UNL A   1      40.752  30.451  34.658  1.00  0.00     0.049 A 
ATOM     50  C   UNL A   1      42.173  27.616  30.030  1.00  0.00     0.074 A 
ATOM     51  C   UNL A   1      41.531  30.232  35.782  1.00  0.00     0.029 A 
ATOM     52  N   UNL A   1      41.303  29.684  33.640  1.00  0.00    -0.354 N 
ATOM     53  N   UNL A   1      41.969  28.216  31.181  1.00  0.00    -0.248 NA
ATOM     54  C   UNL A   1      43.376  26.774  29.999  1.00  0.00     0.031 C 
ATOM     55  C   UNL A   1      42.595  29.398  35.422  1.00  0.00     0.029 A 
ATOM     56  C   UNL A   1      42.431  29.021  34.099  1.00  0.00     0.049 A 
ATOM     57  H   UNL A   1      40.945  29.620  32.725  1.00  0.00     0.167 HD
ATOM     58  C   UNL A   1      42.998  27.790  32.020  1.00  0.00     0.074 A 
ATOM     59  C   UNL A   1      43.814  26.878  31.245  1.00  0.00     0.031 C 
ATOM     60  C   UNL A   1      43.241  28.116  33.315  1.00  0.00     0.034 A 
BRANCH  47  61
ATOM     61  C   UNL A   1      39.172  32.153  35.693  1.00  0.00     0.023 A 
ATOM     62  C   UNL A   1      39.587  33.489  35.837  1.00  0.00     0.031 A 
ATOM     63  C   UNL A   1      38.358  31.606  36.701  1.00  0.00     0.131 A 
ATOM     64  C   UNL A   1      39.249  34.207  36.994  1.00  0.00     0.055 A 
ATOM     65  C   UNL A   1      37.957  32.352  37.811  1.00  0.00     0.041 A 
ATOM     66  F   UNL A   1      37.951  30.329  36.632  1.00  0.00    -0.206 F 
ATOM     67  C   UNL A   1      38.414  33.656  37.970  1.00  0.00     0.022 A 
BRANCH  64  68
ATOM     68  S   UNL A   1      40.035  35.817  37.276  1.00  0.00     0.124 S 
ATOM     69  O   UNL A   1      41.445  35.447  37.361  1.00  0.00    -0.237 OA
ATOM     70  O   UNL A   1      39.641  36.572  36.092  1.00  0.00    -0.237 OA
ATOM     71  O   UNL A   1      39.441  36.274  38.532  1.00  0.00    -0.744 OA
ENDBRANCH  64  68
ENDBRANCH  47  61
BRANCH  48  72
ATOM     72  C   UNL A   1      41.780  26.933  27.545  1.00  0.00     0.023 A 
ATOM     73  C   UNL A   1      41.603  25.545  27.434  1.00  0.00     0.031 A 
ATOM     74  C   UNL A   1      42.440  27.597  26.494  1.00  0.00     0.131 A 
ATOM     75  C   UNL A   1      42.122  24.858  26.324  1.00  0.00     0.055 A 
ATOM     76  C   UNL A   1      42.903  26.919  25.366  1.00  0.00     0.041 A 
ATOM     77  F   UNL A   1      42.645  28.923  26.551  1.00  0.00    -0.206 F 
ATOM     78  C   UNL A   1      42.756  25.538  25.283  1.00  0.00     0.022 A 
BRANCH  75  79
ATOM     79  S   UNL A   1      42.041  23.046  26.310  1.00  0.00     0.124 S 
ATOM     80  O   UNL A   1      42.618  22.734  25.008  1.00  0.00    -0.237 OA
ATOM     81  O   UNL A   1      42.850  22.697  27.472  1.00  0.00    -0.237 OA
ATOM     82  O   UNL A   1      40.612  22.769  26.442  1.00  0.00    -0.744 OA
ENDBRANCH  75  79
ENDBRANCH  48  72
BRANCH  60  83
ATOM     83  C   UNL A   1      44.405  27.433  33.997  1.00  0.00     0.023 A 
ATOM     84  C   UNL A   1      44.273  26.183  34.627  1.00  0.00     0.031 A 
ATOM     85  C   UNL A   1      45.670  28.047  34.009  1.00  0.00     0.131 A 
ATOM     86  C   UNL A   1      45.374  25.614  35.287  1.00  0.00     0.055 A 
ATOM     87  C   UNL A   1      46.777  27.446  34.612  1.00  0.00     0.041 A 
ATOM     88  F   UNL A   1      45.856  29.242  33.425  1.00  0.00    -0.206 F 
ATOM     89  C   UNL A   1      46.628  26.228  35.268  1.00  0.00     0.022 A 
BRANCH  86  90
ATOM     90  S   UNL A   1      45.125  24.098  36.252  1.00  0.00     0.124 S 
ATOM     91  O   UNL A   1      45.086  24.610  37.618  1.00  0.00    -0.237 OA
ATOM     92  O   UNL A   1      43.862  23.594  35.724  1.00  0.00    -0.237 OA
ATOM     93  O   UNL A   1      46.298  23.288  35.928  1.00  0.00    -0.744 OA
ENDBRANCH  86  90
ENDBRANCH  60  83
ENDBRANCH  34  35
ENDBRANCH  27  29
ENDBRANCH  26  27
ENDBRANCH  25  26
ENDBRANCH  24  25
ENDBRANCH  23  24
ENDBRANCH   1  23
TORSDOF 24
ENDMDL
MODEL 2
REMARK VINA RESULT:      -9.4      1.398      2.083
REMARK SMILES COc1cc(/C=C/C(=O)OCCOCCOCCOC(=O)c2ccc(-c3c4nc(c(-c5cc(S(=O)(=O)[O-])ccc5F)c5ccc([nH]5)c(-c5cc(S(=O)(=O)[O-])ccc5F)c5nc(c(-c6cc(S(=O)(=O)[O-])ccc6F)c6ccc3[nH]6)C=C5)C=C4)cc2)cc(OC)c1O
REMARK SMILES IDX 15 1 14 2 13 3 12 4 11 5 10 6 8 7 9 8 7 9 6 10 5 11 3 12
REMARK SMILES IDX 4 13 89 14 86 15 85 16 2 17 1 18 90 19 87 21 88 22 16 23
REMARK SMILES IDX 17 24 18 25 19 26 20 27 21 28 22 29 23 30 84 31 24 32 83 33
REMARK SMILES IDX 25 34 26 35 27 36 77 37 28 38 82 39 76 40 78 41 29 42 81 43
REMARK SMILES IDX 75 44 74 45 30 47 62 48 42 49 61 50 43 51 46 52 60 53 79 54
REMARK SMILES IDX 44 55 45 56 59 58 80 59 47 60 31 61 32 62 40 63 33 64 39 65
REMARK SMILES IDX 41 66 38 67 34 68 35 69 36 70 37 71 63 72 64 73 72 74 65 75
REMARK SMILES IDX 71 76 73 77 70 78 66 79 67 80 68 81 69 82 48 83 49 84 57 85
REMARK SMILES IDX 50 86 56 87 58 88 55 89 51 90 52 91 53 92 54 93
REMARK H PARENT 90 20 78 46 46 57
REMARK Flexibility Score: inf
ROOT
ATOM      1  C   UNL A   1      32.180  29.436  25.404  1.00  0.00     0.188 C 
ENDROOT
BRANCH   1   2
ATOM      2  C   UNL A   1      32.230  28.671  24.064  1.00  0.00     0.188 C 
BRANCH   2   3
ATOM      3  O   UNL A   1      33.238  27.694  23.847  1.00  0.00    -0.376 OA
BRANCH   3   4
ATOM      4  C   UNL A   1      33.590  27.320  22.522  1.00  0.00     0.202 C 
BRANCH   4   5
ATOM      5  C   UNL A   1      33.068  26.014  21.900  1.00  0.00     0.261 C 
BRANCH   5   6
ATOM      6  O   UNL A   1      31.646  25.821  21.952  1.00  0.00    -0.460 OA
BRANCH   6   7
ATOM      7  C   UNL A   1      31.199  25.110  23.017  1.00  0.00     0.330 C 
ATOM      8  O   UNL A   1      30.118  25.242  23.570  1.00  0.00    -0.247 OA
BRANCH   7   9
ATOM      9  C   UNL A   1      32.130  24.036  23.424  1.00  0.00     0.094 C 
ATOM     10  C   UNL A   1      31.812  22.756  23.673  1.00  0.00     0.016 C 
BRANCH  10  11
ATOM     11  C   UNL A   1      32.824  21.746  24.035  1.00  0.00    -0.018 A 
ATOM     12  C   UNL A   1      35.123  21.094  24.576  1.00  0.00     0.165 A 
ATOM     13  C   UNL A   1      34.166  22.073  24.265  1.00  0.00     0.058 A 
ATOM     14  C   UNL A   1      34.720  19.755  24.692  1.00  0.00     0.200 A 
ATOM     15  C   UNL A   1      33.374  19.406  24.491  1.00  0.00     0.165 A 
ATOM     16  C   UNL A   1      32.441  20.410  24.182  1.00  0.00     0.058 A 
BRANCH  12  17
ATOM     17  O   UNL A   1      36.368  21.625  24.778  1.00  0.00    -0.493 OA
ATOM     18  C   UNL A   1      36.615  22.449  25.908  1.00  0.00     0.278 C 
ENDBRANCH  12  17
BRANCH  14  19
ATOM     19  O   UNL A   1      35.616  18.793  25.067  1.00  0.00    -0.502 OA
ATOM     20  H   UNL A   1      36.334  19.014  25.627  1.00  0.00     0.293 HD
ENDBRANCH  14  19
BRANCH  15  21
ATOM     21  O   UNL A   1      32.790  18.169  24.597  1.00  0.00    -0.493 OA
ATOM     22  C   UNL A   1      33.254  17.123  23.756  1.00  0.00     0.278 C 
ENDBRANCH  15  21
ENDBRANCH  10  11
ENDBRANCH   7   9
ENDBRANCH   6   7
ENDBRANCH   5   6
ENDBRANCH   4   5
ENDBRANCH   3   4
ENDBRANCH   2   3
ENDBRANCH   1   2
BRANCH   1  23
ATOM     23  O   UNL A   1      31.452  30.642  25.368  1.00  0.00    -0.376 OA
BRANCH  23  24
ATOM     24  C   UNL A   1      31.139  31.316  26.574  1.00  0.00     0.202 C 
BRANCH  24  25
ATOM     25  C   UNL A   1      31.526  32.770  26.918  1.00  0.00     0.261 C 
BRANCH  25  26
ATOM     26  O   UNL A   1      32.886  33.176  26.762  1.00  0.00    -0.460 OA
BRANCH  26  27
ATOM     27  C   UNL A   1      33.440  33.833  27.805  1.00  0.00     0.338 C 
ATOM     28  O   UNL A   1      32.979  34.809  28.388  1.00  0.00    -0.246 OA
BRANCH  27  29
ATOM     29  C   UNL A   1      34.628  33.085  28.246  1.00  0.00     0.060 A 
ATOM     30  C   UNL A   1      34.487  31.743  28.621  1.00  0.00     0.016 A 
ATOM     31  C   UNL A   1      35.876  33.710  28.300  1.00  0.00     0.016 A 
ATOM     32  C   UNL A   1      35.597  31.024  29.068  1.00  0.00     0.010 A 
ATOM     33  C   UNL A   1      36.983  32.993  28.765  1.00  0.00     0.010 A 
ATOM     34  C   UNL A   1      36.845  31.654  29.174  1.00  0.00    -0.014 A 
BRANCH  34  35
ATOM     35  C   UNL A   1      37.970  30.968  29.857  1.00  0.00     0.031 A 
ATOM     36  C   UNL A   1      38.269  31.327  31.286  1.00  0.00     0.074 A 
ATOM     37  C   UNL A   1      38.709  30.040  29.222  1.00  0.00     0.049 A 
ATOM     38  N   UNL A   1      39.239  30.919  32.062  1.00  0.00    -0.248 NA
ATOM     39  C   UNL A   1      37.347  32.281  31.922  1.00  0.00     0.031 C 
ATOM     40  C   UNL A   1      38.486  29.575  27.855  1.00  0.00     0.029 A 
ATOM     41  N   UNL A   1      39.806  29.330  29.645  1.00  0.00    -0.354 N 
ATOM     42  C   UNL A   1      39.051  31.570  33.277  1.00  0.00     0.074 A 
ATOM     43  C   UNL A   1      37.894  32.427  33.120  1.00  0.00     0.031 C 
ATOM     44  C   UNL A   1      39.427  28.666  27.546  1.00  0.00     0.029 A 
ATOM     45  C   UNL A   1      40.343  28.516  28.674  1.00  0.00     0.049 A 
ATOM     46  H   UNL A   1      40.173  29.398  30.555  1.00  0.00     0.167 HD
ATOM     47  C   UNL A   1      39.771  31.457  34.420  1.00  0.00     0.034 A 
ATOM     48  C   UNL A   1      41.464  27.764  28.688  1.00  0.00     0.034 A 
ATOM     49  C   UNL A   1      40.934  30.613  34.553  1.00  0.00     0.049 A 
ATOM     50  C   UNL A   1      42.311  27.731  29.940  1.00  0.00     0.074 A 
ATOM     51  C   UNL A   1      41.732  30.416  35.667  1.00  0.00     0.029 A 
ATOM     52  N   UNL A   1      41.476  29.838  33.536  1.00  0.00    -0.354 N 
ATOM     53  N   UNL A   1      42.119  28.343  31.086  1.00  0.00    -0.248 NA
ATOM     54  C   UNL A   1      43.522  26.900  29.902  1.00  0.00     0.031 C 
ATOM     55  C   UNL A   1      42.798  29.587  35.302  1.00  0.00     0.029 A 
ATOM     56  C   UNL A   1      42.618  29.191  33.986  1.00  0.00     0.049 A 
ATOM     57  H   UNL A   1      41.105  29.758  32.627  1.00  0.00     0.167 HD
ATOM     58  C   UNL A   1      43.165  27.939  31.915  1.00  0.00     0.074 A 
ATOM     59  C   UNL A   1      43.977  27.025  31.139  1.00  0.00     0.031 C 
ATOM     60  C   UNL A   1      43.425  28.284  33.202  1.00  0.00     0.034 A 
BRANCH  47  61
ATOM     61  C   UNL A   1      39.353  32.313  35.590  1.00  0.00     0.023 A 
ATOM     62  C   UNL A   1      39.759  33.654  35.711  1.00  0.00     0.031 A 
ATOM     63  C   UNL A   1      38.558  31.772  36.617  1.00  0.00     0.131 A 
ATOM     64  C   UNL A   1      39.432  34.383  36.864  1.00  0.00     0.055 A 
ATOM     65  C   UNL A   1      38.167  32.529  37.722  1.00  0.00     0.041 A 
ATOM     66  F   UNL A   1      38.161  30.491  36.570  1.00  0.00    -0.206 F 
ATOM     67  C   UNL A   1      38.616  33.839  37.858  1.00  0.00     0.022 A 
BRANCH  64  68
ATOM     68  S   UNL A   1      40.208  36.003  37.114  1.00  0.00     0.124 S 
ATOM     69  O   UNL A   1      39.831  36.705  35.891  1.00  0.00    -0.237 OA
ATOM     70  O   UNL A   1      39.573  36.471  38.341  1.00  0.00    -0.237 OA
ATOM     71  O   UNL A   1      41.631  35.689  37.230  1.00  0.00    -0.744 OA
ENDBRANCH  64  68
ENDBRANCH  47  61
BRANCH  48  72
ATOM     72  C   UNL A   1      41.886  27.011  27.471  1.00  0.00     0.023 A 
ATOM     73  C   UNL A   1      41.724  25.620  27.382  1.00  0.00     0.031 A 
ATOM     74  C   UNL A   1      42.520  27.669  26.400  1.00  0.00     0.131 A 
ATOM     75  C   UNL A   1      42.233  24.924  26.274  1.00  0.00     0.055 A 
ATOM     76  C   UNL A   1      42.972  26.980  25.273  1.00  0.00     0.041 A 
ATOM     77  F   UNL A   1      42.709  28.997  26.435  1.00  0.00    -0.206 F 
ATOM     78  C   UNL A   1      42.841  25.596  25.212  1.00  0.00     0.022 A 
BRANCH  75  79
ATOM     79  S   UNL A   1      42.174  23.111  26.285  1.00  0.00     0.124 S 
ATOM     80  O   UNL A   1      42.657  22.790  24.948  1.00  0.00    -0.237 OA
ATOM     81  O   UNL A   1      43.071  22.785  27.389  1.00  0.00    -0.237 OA
ATOM     82  O   UNL A   1      40.762  22.819  26.527  1.00  0.00    -0.744 OA
ENDBRANCH  75  79
ENDBRANCH  48  72
BRANCH  60  83
ATOM     83  C   UNL A   1      44.605  27.621  33.874  1.00  0.00     0.023 A 
ATOM     84  C   UNL A   1      45.883  28.206  33.888  1.00  0.00     0.031 A 
ATOM     85  C   UNL A   1      44.441  26.380  34.516  1.00  0.00     0.131 A 
ATOM     86  C   UNL A   1      46.957  27.526  34.485  1.00  0.00     0.055 A 
ATOM     87  C   UNL A   1      45.499  25.738  35.163  1.00  0.00     0.041 A 
ATOM     88  F   UNL A   1      43.245  25.771  34.533  1.00  0.00    -0.206 F 
ATOM     89  C   UNL A   1      46.770  26.306  35.138  1.00  0.00     0.022 A 
BRANCH  86  90
ATOM     90  S   UNL A   1      48.627  28.215  34.319  1.00  0.00     0.124 S 
ATOM     91  O   UNL A   1      48.991  27.808  32.966  1.00  0.00    -0.237 OA
ATOM     92  O   UNL A   1      48.398  29.643  34.515  1.00  0.00    -0.237 OA
ATOM     93  O   UNL A   1      49.377  27.556  35.387  1.00  0.00    -0.744 OA
ENDBRANCH  86  90
ENDBRANCH  60  83
ENDBRANCH  34  35
ENDBRANCH  27  29
ENDBRANCH  26  27
ENDBRANCH  25  26
ENDBRANCH  24  25
ENDBRANCH  23  24
ENDBRANCH   1  23
TORSDOF 24
ENDMDL
MODEL 3
REMARK VINA RESULT:      -9.4      5.744      9.686
REMARK SMILES COc1cc(/C=C/C(=O)OCCOCCOCCOC(=O)c2ccc(-c3c4nc(c(-c5cc(S(=O)(=O)[O-])ccc5F)c5ccc([nH]5)c(-c5cc(S(=O)(=O)[O-])ccc5F)c5nc(c(-c6cc(S(=O)(=O)[O-])ccc6F)c6ccc3[nH]6)C=C5)C=C4)cc2)cc(OC)c1O
REMARK SMILES IDX 15 1 14 2 13 3 12 4 11 5 10 6 8 7 9 8 7 9 6 10 5 11 3 12
REMARK SMILES IDX 4 13 89 14 86 15 85 16 2 17 1 18 90 19 87 21 88 22 16 23
REMARK SMILES IDX 17 24 18 25 19 26 20 27 21 28 22 29 23 30 84 31 24 32 83 33
REMARK SMILES IDX 25 34 26 35 27 36 77 37 28 38 82 39 76 40 78 41 29 42 81 43
REMARK SMILES IDX 75 44 74 45 30 47 62 48 42 49 61 50 43 51 46 52 60 53 79 54
REMARK SMILES IDX 44 55 45 56 59 58 80 59 47 60 31 61 32 62 40 63 33 64 39 65
REMARK SMILES IDX 41 66 38 67 34 68 35 69 36 70 37 71 63 72 64 73 72 74 65 75
REMARK SMILES IDX 71 76 73 77 70 78 66 79 67 80 68 81 69 82 48 83 49 84 57 85
REMARK SMILES IDX 50 86 56 87 58 88 55 89 51 90 52 91 53 92 54 93
REMARK H PARENT 90 20 78 46 46 57
REMARK Flexibility Score: inf
ROOT
ATOM      1  C   UNL A   1      36.622  23.287  25.008  1.00  0.00     0.188 C 
ENDROOT
BRANCH   1   2
ATOM      2  C   UNL A   1      35.443  24.064  25.630  1.00  0.00     0.188 C 
BRANCH   2   3
ATOM      3  O   UNL A   1      34.415  23.360  26.312  1.00  0.00    -0.376 OA
BRANCH   3   4
ATOM      4  C   UNL A   1      33.268  22.915  25.602  1.00  0.00     0.202 C 
BRANCH   4   5
ATOM      5  C   UNL A   1      33.399  22.215  24.239  1.00  0.00     0.261 C 
BRANCH   5   6
ATOM      6  O   UNL A   1      32.501  22.670  23.214  1.00  0.00    -0.460 OA
BRANCH   6   7
ATOM      7  C   UNL A   1      33.029  23.559  22.337  1.00  0.00     0.330 C 
ATOM      8  O   UNL A   1      33.683  23.288  21.341  1.00  0.00    -0.247 OA
BRANCH   7   9
ATOM      9  C   UNL A   1      32.652  24.956  22.637  1.00  0.00     0.094 C 
ATOM     10  C   UNL A   1      31.463  25.384  23.090  1.00  0.00     0.016 C 
BRANCH  10  11
ATOM     11  C   UNL A   1      31.198  26.802  23.398  1.00  0.00    -0.018 A 
ATOM     12  C   UNL A   1      31.628  28.849  24.674  1.00  0.00     0.165 A 
ATOM     13  C   UNL A   1      31.917  27.509  24.370  1.00  0.00     0.058 A 
ATOM     14  C   UNL A   1      30.613  29.509  23.965  1.00  0.00     0.200 A 
ATOM     15  C   UNL A   1      29.895  28.827  22.967  1.00  0.00     0.165 A 
ATOM     16  C   UNL A   1      30.210  27.487  22.687  1.00  0.00     0.058 A 
BRANCH  12  17
ATOM     17  O   UNL A   1      32.456  29.356  25.638  1.00  0.00    -0.493 OA
ATOM     18  C   UNL A   1      31.907  29.957  26.802  1.00  0.00     0.278 C 
ENDBRANCH  12  17
BRANCH  14  19
ATOM     19  O   UNL A   1      30.362  30.834  24.188  1.00  0.00    -0.502 OA
ATOM     20  H   UNL A   1      29.917  31.102  24.967  1.00  0.00     0.293 HD
ENDBRANCH  14  19
BRANCH  15  21
ATOM     21  O   UNL A   1      28.905  29.311  22.151  1.00  0.00    -0.493 OA
ATOM     22  C   UNL A   1      27.582  29.394  22.660  1.00  0.00     0.278 C 
ENDBRANCH  15  21
ENDBRANCH  10  11
ENDBRANCH   7   9
ENDBRANCH   6   7
ENDBRANCH   5   6
ENDBRANCH   4   5
ENDBRANCH   3   4
ENDBRANCH   2   3
ENDBRANCH   1   2
BRANCH   1  23
ATOM     23  O   UNL A   1      37.279  22.407  25.890  1.00  0.00    -0.376 OA
BRANCH  23  24
ATOM     24  C   UNL A   1      38.336  21.589  25.417  1.00  0.00     0.202 C 
BRANCH  24  25
ATOM     25  C   UNL A   1      39.676  21.344  26.142  1.00  0.00     0.261 C 
BRANCH  25  26
ATOM     26  O   UNL A   1      40.099  20.000  26.372  1.00  0.00    -0.460 OA
BRANCH  26  27
ATOM     27  C   UNL A   1      41.418  19.750  26.213  1.00  0.00     0.338 C 
ATOM     28  O   UNL A   1      41.925  18.718  25.783  1.00  0.00    -0.246 OA
BRANCH  27  29
ATOM     29  C   UNL A   1      42.161  20.989  26.491  1.00  0.00     0.060 A 
ATOM     30  C   UNL A   1      42.333  21.396  27.820  1.00  0.00     0.016 A 
ATOM     31  C   UNL A   1      42.677  21.753  25.441  1.00  0.00     0.016 A 
ATOM     32  C   UNL A   1      43.012  22.582  28.103  1.00  0.00     0.010 A 
ATOM     33  C   UNL A   1      43.340  22.950  25.727  1.00  0.00     0.010 A 
ATOM     34  C   UNL A   1      43.491  23.383  27.057  1.00  0.00    -0.014 A 
BRANCH  34  35
ATOM     35  C   UNL A   1      44.008  24.746  27.338  1.00  0.00     0.031 A 
ATOM     36  C   UNL A   1      43.046  25.793  27.826  1.00  0.00     0.074 A 
ATOM     37  C   UNL A   1      45.309  25.046  27.169  1.00  0.00     0.049 A 
ATOM     38  N   UNL A   1      43.248  27.062  28.066  1.00  0.00    -0.248 NA
ATOM     39  C   UNL A   1      41.667  25.344  28.070  1.00  0.00     0.031 C 
ATOM     40  C   UNL A   1      46.344  24.104  26.747  1.00  0.00     0.029 A 
ATOM     41  N   UNL A   1      45.977  26.235  27.323  1.00  0.00    -0.354 N 
ATOM     42  C   UNL A   1      42.020  27.567  28.484  1.00  0.00     0.074 A 
ATOM     43  C   UNL A   1      41.075  26.473  28.429  1.00  0.00     0.031 C 
ATOM     44  C   UNL A   1      47.517  24.757  26.663  1.00  0.00     0.029 A 
ATOM     45  C   UNL A   1      47.309  26.168  26.981  1.00  0.00     0.049 A 
ATOM     46  H   UNL A   1      45.545  27.058  27.646  1.00  0.00     0.167 HD
ATOM     47  C   UNL A   1      41.714  28.826  28.885  1.00  0.00     0.034 A 
ATOM     48  C   UNL A   1      48.241  27.142  26.903  1.00  0.00     0.034 A 
ATOM     49  C   UNL A   1      42.666  29.910  28.916  1.00  0.00     0.049 A 
ATOM     50  C   UNL A   1      47.853  28.559  27.257  1.00  0.00     0.074 A 
ATOM     51  C   UNL A   1      42.465  31.221  29.313  1.00  0.00     0.029 A 
ATOM     52  N   UNL A   1      43.993  29.816  28.519  1.00  0.00    -0.354 N 
ATOM     53  N   UNL A   1      46.692  29.024  27.659  1.00  0.00    -0.248 NA
ATOM     54  C   UNL A   1      48.903  29.581  27.152  1.00  0.00     0.031 C 
ATOM     55  C   UNL A   1      43.646  31.935  29.082  1.00  0.00     0.029 A 
ATOM     56  C   UNL A   1      44.613  31.053  28.627  1.00  0.00     0.049 A 
ATOM     57  H   UNL A   1      44.433  28.992  28.206  1.00  0.00     0.167 HD
ATOM     58  C   UNL A   1      46.887  30.385  27.891  1.00  0.00     0.074 A 
ATOM     59  C   UNL A   1      48.276  30.661  27.593  1.00  0.00     0.031 C 
ATOM     60  C   UNL A   1      46.000  31.319  28.322  1.00  0.00     0.034 A 
BRANCH  47  61
ATOM     61  C   UNL A   1      40.280  29.103  29.262  1.00  0.00     0.023 A 
ATOM     62  C   UNL A   1      39.855  29.120  30.603  1.00  0.00     0.031 A 
ATOM     63  C   UNL A   1      39.314  29.326  28.264  1.00  0.00     0.131 A 
ATOM     64  C   UNL A   1      38.495  29.281  30.905  1.00  0.00     0.055 A 
ATOM     65  C   UNL A   1      37.975  29.568  28.576  1.00  0.00     0.041 A 
ATOM     66  F   UNL A   1      39.653  29.297  26.966  1.00  0.00    -0.206 F 
ATOM     67  C   UNL A   1      37.556  29.532  29.902  1.00  0.00     0.022 A 
BRANCH  64  68
ATOM     68  S   UNL A   1      37.949  29.012  32.613  1.00  0.00     0.124 S 
ATOM     69  O   UNL A   1      38.950  29.763  33.366  1.00  0.00    -0.237 OA
ATOM     70  O   UNL A   1      36.602  29.572  32.605  1.00  0.00    -0.237 OA
ATOM     71  O   UNL A   1      38.019  27.561  32.773  1.00  0.00    -0.744 OA
ENDBRANCH  64  68
ENDBRANCH  47  61
BRANCH  48  72
ATOM     72  C   UNL A   1      49.622  26.832  26.431  1.00  0.00     0.023 A 
ATOM     73  C   UNL A   1      50.691  26.719  27.333  1.00  0.00     0.031 A 
ATOM     74  C   UNL A   1      49.904  26.707  25.058  1.00  0.00     0.131 A 
ATOM     75  C   UNL A   1      51.999  26.539  26.852  1.00  0.00     0.055 A 
ATOM     76  C   UNL A   1      51.196  26.470  24.587  1.00  0.00     0.041 A 
ATOM     77  F   UNL A   1      48.921  26.815  24.150  1.00  0.00    -0.206 F 
ATOM     78  C   UNL A   1      52.256  26.399  25.487  1.00  0.00     0.022 A 
BRANCH  75  79
ATOM     79  S   UNL A   1      53.373  26.590  28.034  1.00  0.00     0.124 S 
ATOM     80  O   UNL A   1      53.854  27.957  27.872  1.00  0.00    -0.237 OA
ATOM     81  O   UNL A   1      52.701  26.291  29.294  1.00  0.00    -0.237 OA
ATOM     82  O   UNL A   1      54.277  25.548  27.550  1.00  0.00    -0.744 OA
ENDBRANCH  75  79
ENDBRANCH  48  72
BRANCH  60  83
ATOM     83  C   UNL A   1      46.523  32.718  28.554  1.00  0.00     0.023 A 
ATOM     84  C   UNL A   1      46.643  33.654  27.513  1.00  0.00     0.031 A 
ATOM     85  C   UNL A   1      46.904  33.119  29.848  1.00  0.00     0.131 A 
ATOM     86  C   UNL A   1      47.179  34.926  27.774  1.00  0.00     0.055 A 
ATOM     87  C   UNL A   1      47.377  34.405  30.113  1.00  0.00     0.041 A 
ATOM     88  F   UNL A   1      46.814  32.267  30.882  1.00  0.00    -0.206 F 
ATOM     89  C   UNL A   1      47.529  35.313  29.070  1.00  0.00     0.022 A 
BRANCH  86  90
ATOM     90  S   UNL A   1      47.500  36.042  26.380  1.00  0.00     0.124 S 
ATOM     91  O   UNL A   1      46.284  36.847  26.350  1.00  0.00    -0.237 OA
ATOM     92  O   UNL A   1      48.712  36.733  26.805  1.00  0.00    -0.237 OA
ATOM     93  O   UNL A   1      47.670  35.134  25.246  1.00  0.00    -0.744 OA
ENDBRANCH  86  90
ENDBRANCH  60  83
ENDBRANCH  34  35
ENDBRANCH  27  29
ENDBRANCH  26  27
ENDBRANCH  25  26
ENDBRANCH  24  25
ENDBRANCH  23  24
ENDBRANCH   1  23
TORSDOF 24
ENDMDL
