MODEL 1
REMARK VINA RESULT:     -10.5      0.000      0.000
REMARK SMILES O=C(OCCOCCOCCOC(=O)[C@@H]1CCCC[C@@H]1NS(=O)(=O)c1ccc2ccccc2c1)c1ccc(-c2c3nc(c(-c4cc(S(=O)(=O)[O-])ccc4F)c4ccc([nH]4)c(-c4cc(S(=O)(=O)[O-])ccc4F)c4nc(c(-c5cc(S(=O)(=O)[O-])ccc5F)c5ccc2[nH]5)C=C4)C=C3)cc1
REMARK SMILES IDX 7 1 6 2 5 3 4 4 3 5 2 6 1 7 35 8 36 9 97 10 37 11 96 12
REMARK SMILES IDX 38 13 39 14 40 15 90 16 41 17 95 18 89 19 91 20 42 21 94 22
REMARK SMILES IDX 88 23 87 24 43 26 75 27 55 28 74 29 56 30 59 31 73 32 92 33
REMARK SMILES IDX 57 34 58 35 72 37 93 38 60 39 44 40 45 41 53 42 46 43 52 44
REMARK SMILES IDX 54 45 51 46 47 47 48 48 49 49 50 50 76 51 77 52 85 53 78 54
REMARK SMILES IDX 84 55 86 56 83 57 79 58 80 59 81 60 82 61 61 62 62 63 70 64
REMARK SMILES IDX 63 65 69 66 71 67 68 68 64 69 65 70 66 71 67 72 8 73 9 74
REMARK SMILES IDX 10 75 11 76 12 77 13 78 14 79 15 80 16 81 20 82 17 83 19 84
REMARK SMILES IDX 18 85 21 86 22 88 23 89 24 90 25 91 26 92 34 93 27 94 33 95
REMARK SMILES IDX 28 96 32 97 29 98 31 99 30 100
REMARK H PARENT 91 25 59 36 21 87
REMARK Flexibility Score: inf
ROOT
ATOM      1  C   UNL A   1      41.096  21.490  26.903  1.00  0.00     0.188 C 
ENDROOT
BRANCH   1   2
ATOM      2  O   UNL A   1      41.749  20.620  25.971  1.00  0.00    -0.376 OA
BRANCH   2   3
ATOM      3  C   UNL A   1      41.963  19.297  26.478  1.00  0.00     0.202 C 
BRANCH   3   4
ATOM      4  C   UNL A   1      43.086  18.496  25.795  1.00  0.00     0.261 C 
BRANCH   4   5
ATOM      5  O   UNL A   1      43.594  19.131  24.610  1.00  0.00    -0.460 OA
BRANCH   5   6
ATOM      6  C   UNL A   1      44.768  19.796  24.457  1.00  0.00     0.338 C 
ATOM      7  O   UNL A   1      45.725  19.187  23.980  1.00  0.00    -0.246 OA
BRANCH   6   8
ATOM      8  C   UNL A   1      44.969  21.229  24.844  1.00  0.00     0.060 A 
ATOM      9  C   UNL A   1      44.881  22.313  23.970  1.00  0.00     0.016 A 
ATOM     10  C   UNL A   1      45.193  21.506  26.204  1.00  0.00     0.016 A 
ATOM     11  C   UNL A   1      45.116  23.616  24.399  1.00  0.00     0.010 A 
ATOM     12  C   UNL A   1      45.366  22.821  26.657  1.00  0.00     0.010 A 
ATOM     13  C   UNL A   1      45.358  23.883  25.745  1.00  0.00    -0.014 A 
BRANCH  13  14
ATOM     14  C   UNL A   1      45.673  25.272  26.150  1.00  0.00     0.031 A 
ATOM     15  C   UNL A   1      44.563  26.153  26.635  1.00  0.00     0.074 A 
ATOM     16  C   UNL A   1      46.952  25.695  26.181  1.00  0.00     0.049 A 
ATOM     17  N   UNL A   1      44.610  27.399  27.017  1.00  0.00    -0.248 NA
ATOM     18  C   UNL A   1      43.226  25.542  26.717  1.00  0.00     0.031 C 
ATOM     19  C   UNL A   1      48.102  24.866  25.820  1.00  0.00     0.029 A 
ATOM     20  N   UNL A   1      47.512  26.897  26.536  1.00  0.00    -0.354 N 
ATOM     21  C   UNL A   1      43.310  27.730  27.377  1.00  0.00     0.074 A 
ATOM     22  C   UNL A   1      42.493  26.557  27.149  1.00  0.00     0.031 C 
ATOM     23  C   UNL A   1      49.222  25.585  25.978  1.00  0.00     0.029 A 
ATOM     24  C   UNL A   1      48.881  26.941  26.371  1.00  0.00     0.049 A 
ATOM     25  H   UNL A   1      46.986  27.656  26.878  1.00  0.00     0.167 HD
ATOM     26  C   UNL A   1      42.848  28.911  27.852  1.00  0.00     0.034 A 
ATOM     27  C   UNL A   1      49.758  27.964  26.469  1.00  0.00     0.034 A 
ATOM     28  C   UNL A   1      43.688  30.065  28.047  1.00  0.00     0.049 A 
ATOM     29  C   UNL A   1      49.191  29.302  26.876  1.00  0.00     0.074 A 
ATOM     30  C   UNL A   1      43.334  31.328  28.485  1.00  0.00     0.029 A 
ATOM     31  N   UNL A   1      45.056  30.098  27.799  1.00  0.00    -0.354 N 
ATOM     32  N   UNL A   1      47.953  29.601  27.208  1.00  0.00    -0.248 NA
ATOM     33  C   UNL A   1      50.118  30.437  26.923  1.00  0.00     0.031 C 
ATOM     34  C   UNL A   1      44.476  32.137  28.447  1.00  0.00     0.029 A 
ATOM     35  C   UNL A   1      45.556  31.366  28.041  1.00  0.00     0.049 A 
ATOM     36  H   UNL A   1      45.593  29.329  27.497  1.00  0.00     0.167 HD
ATOM     37  C   UNL A   1      47.959  30.955  27.519  1.00  0.00     0.074 A 
ATOM     38  C   UNL A   1      49.331  31.402  27.372  1.00  0.00     0.031 C 
ATOM     39  C   UNL A   1      46.933  31.766  27.882  1.00  0.00     0.034 A 
BRANCH  26  40
ATOM     40  C   UNL A   1      41.367  29.011  28.097  1.00  0.00     0.023 A 
ATOM     41  C   UNL A   1      40.817  28.881  29.384  1.00  0.00     0.031 A 
ATOM     42  C   UNL A   1      40.486  29.166  27.013  1.00  0.00     0.131 A 
ATOM     43  C   UNL A   1      39.423  28.842  29.547  1.00  0.00     0.055 A 
ATOM     44  C   UNL A   1      39.102  29.195  27.189  1.00  0.00     0.041 A 
ATOM     45  F   UNL A   1      40.958  29.263  25.760  1.00  0.00    -0.206 F 
ATOM     46  C   UNL A   1      38.562  29.021  28.460  1.00  0.00     0.022 A 
BRANCH  43  47
ATOM     47  S   UNL A   1      38.748  28.433  31.180  1.00  0.00     0.124 S 
ATOM     48  O   UNL A   1      38.662  26.976  31.105  1.00  0.00    -0.237 OA
ATOM     49  O   UNL A   1      39.758  28.967  32.085  1.00  0.00    -0.237 OA
ATOM     50  O   UNL A   1      37.462  29.126  31.203  1.00  0.00    -0.744 OA
ENDBRANCH  43  47
ENDBRANCH  26  40
BRANCH  27  51
ATOM     51  C   UNL A   1      51.204  27.805  26.082  1.00  0.00     0.023 A 
ATOM     52  C   UNL A   1      51.651  27.927  24.752  1.00  0.00     0.031 A 
ATOM     53  C   UNL A   1      52.163  27.427  27.047  1.00  0.00     0.131 A 
ATOM     54  C   UNL A   1      52.986  27.620  24.421  1.00  0.00     0.055 A 
ATOM     55  C   UNL A   1      53.505  27.220  26.729  1.00  0.00     0.041 A 
ATOM     56  F   UNL A   1      51.806  27.249  28.330  1.00  0.00    -0.206 F 
ATOM     57  C   UNL A   1      53.919  27.298  25.408  1.00  0.00     0.022 A 
BRANCH  54  58
ATOM     58  S   UNL A   1      53.470  27.373  22.682  1.00  0.00     0.124 S 
ATOM     59  O   UNL A   1      52.446  26.457  22.193  1.00  0.00    -0.237 OA
ATOM     60  O   UNL A   1      53.433  28.726  22.143  1.00  0.00    -0.237 OA
ATOM     61  O   UNL A   1      54.809  26.799  22.794  1.00  0.00    -0.744 OA
ENDBRANCH  54  58
ENDBRANCH  27  51
BRANCH  39  62
ATOM     62  C   UNL A   1      47.293  33.198  28.172  1.00  0.00     0.023 A 
ATOM     63  C   UNL A   1      47.468  34.130  27.135  1.00  0.00     0.031 A 
ATOM     64  C   UNL A   1      47.497  33.624  29.496  1.00  0.00     0.131 A 
ATOM     65  C   UNL A   1      47.901  35.428  27.435  1.00  0.00     0.055 A 
ATOM     66  C   UNL A   1      47.870  34.934  29.792  1.00  0.00     0.041 A 
ATOM     67  F   UNL A   1      47.341  32.768  30.519  1.00  0.00    -0.206 F 
ATOM     68  C   UNL A   1      48.089  35.841  28.757  1.00  0.00     0.022 A 
BRANCH  65  69
ATOM     69  S   UNL A   1      48.302  36.546  26.066  1.00  0.00     0.124 S 
ATOM     70  O   UNL A   1      47.032  37.232  25.854  1.00  0.00    -0.237 OA
ATOM     71  O   UNL A   1      49.378  37.356  26.629  1.00  0.00    -0.237 OA
ATOM     72  O   UNL A   1      48.707  35.639  24.993  1.00  0.00    -0.744 OA
ENDBRANCH  65  69
ENDBRANCH  39  62
ENDBRANCH  13  14
ENDBRANCH   6   8
ENDBRANCH   5   6
ENDBRANCH   4   5
ENDBRANCH   3   4
ENDBRANCH   2   3
ENDBRANCH   1   2
BRANCH   1  73
ATOM     73  C   UNL A   1      39.925  22.247  26.274  1.00  0.00     0.188 C 
BRANCH  73  74
ATOM     74  O   UNL A   1      38.847  21.466  25.758  1.00  0.00    -0.376 OA
BRANCH  74  75
ATOM     75  C   UNL A   1      37.565  22.080  25.686  1.00  0.00     0.202 C 
BRANCH  75  76
ATOM     76  C   UNL A   1      37.491  23.605  25.518  1.00  0.00     0.261 C 
BRANCH  76  77
ATOM     77  O   UNL A   1      36.179  24.146  25.311  1.00  0.00    -0.463 OA
BRANCH  77  78
ATOM     78  C   UNL A   1      35.510  23.593  24.262  1.00  0.00     0.310 C 
ATOM     79  O   UNL A   1      35.925  23.551  23.108  1.00  0.00    -0.252 OA
BRANCH  78  80
ATOM     80  C   UNL A   1      34.136  23.093  24.663  1.00  0.00     0.117 C 
ATOM     81  C   UNL A   1      33.942  21.667  24.118  1.00  0.00     0.017 C 
ATOM     82  C   UNL A   1      33.055  24.106  24.213  1.00  0.00     0.084 C 
ATOM     83  C   UNL A   1      32.509  21.169  24.252  1.00  0.00     0.001 C 
ATOM     84  C   UNL A   1      31.650  23.498  24.243  1.00  0.00     0.021 C 
ATOM     85  C   UNL A   1      31.551  22.136  23.577  1.00  0.00     0.002 C 
BRANCH  82  86
ATOM     86  N   UNL A   1      33.419  24.740  22.933  1.00  0.00    -0.207 NA
ATOM     87  H   UNL A   1      33.180  24.043  22.228  1.00  0.00     0.141 HD
BRANCH  86  88
ATOM     88  S   UNL A   1      32.893  26.185  22.280  1.00  0.00     0.240 S 
ATOM     89  O   UNL A   1      34.081  26.691  21.613  1.00  0.00    -0.207 OA
ATOM     90  O   UNL A   1      31.685  25.929  21.534  1.00  0.00    -0.207 OA
BRANCH  88  91
ATOM     91  C   UNL A   1      32.531  27.339  23.582  1.00  0.00     0.083 A 
ATOM     92  C   UNL A   1      31.314  27.994  23.726  1.00  0.00     0.022 A 
ATOM     93  C   UNL A   1      33.564  27.609  24.489  1.00  0.00     0.030 A 
ATOM     94  C   UNL A   1      31.163  29.002  24.684  1.00  0.00     0.010 A 
ATOM     95  C   UNL A   1      33.404  28.578  25.495  1.00  0.00    -0.017 A 
ATOM     96  C   UNL A   1      32.205  29.318  25.564  1.00  0.00    -0.018 A 
ATOM     97  C   UNL A   1      34.430  28.864  26.405  1.00  0.00     0.009 A 
ATOM     98  C   UNL A   1      32.090  30.367  26.493  1.00  0.00     0.009 A 
ATOM     99  C   UNL A   1      34.305  29.903  27.326  1.00  0.00     0.001 A 
ATOM    100  C   UNL A   1      33.141  30.663  27.363  1.00  0.00     0.001 A 
ENDBRANCH  88  91
ENDBRANCH  86  88
ENDBRANCH  82  86
ENDBRANCH  78  80
ENDBRANCH  77  78
ENDBRANCH  76  77
ENDBRANCH  75  76
ENDBRANCH  74  75
ENDBRANCH  73  74
ENDBRANCH   1  73
TORSDOF 23
ENDMDL
MODEL 2
REMARK VINA RESULT:     -10.3      3.414      9.134
REMARK SMILES O=C(OCCOCCOCCOC(=O)[C@@H]1CCCC[C@@H]1NS(=O)(=O)c1ccc2ccccc2c1)c1ccc(-c2c3nc(c(-c4cc(S(=O)(=O)[O-])ccc4F)c4ccc([nH]4)c(-c4cc(S(=O)(=O)[O-])ccc4F)c4nc(c(-c5cc(S(=O)(=O)[O-])ccc5F)c5ccc2[nH]5)C=C4)C=C3)cc1
REMARK SMILES IDX 7 1 6 2 5 3 4 4 3 5 2 6 1 7 35 8 36 9 97 10 37 11 96 12
REMARK SMILES IDX 38 13 39 14 40 15 90 16 41 17 95 18 89 19 91 20 42 21 94 22
REMARK SMILES IDX 88 23 87 24 43 26 75 27 55 28 74 29 56 30 59 31 73 32 92 33
REMARK SMILES IDX 57 34 58 35 72 37 93 38 60 39 44 40 45 41 53 42 46 43 52 44
REMARK SMILES IDX 54 45 51 46 47 47 48 48 49 49 50 50 76 51 77 52 85 53 78 54
REMARK SMILES IDX 84 55 86 56 83 57 79 58 80 59 81 60 82 61 61 62 62 63 70 64
REMARK SMILES IDX 63 65 69 66 71 67 68 68 64 69 65 70 66 71 67 72 8 73 9 74
REMARK SMILES IDX 10 75 11 76 12 77 13 78 14 79 15 80 16 81 20 82 17 83 19 84
REMARK SMILES IDX 18 85 21 86 22 88 23 89 24 90 25 91 26 92 34 93 27 94 33 95
REMARK SMILES IDX 28 96 32 97 29 98 31 99 30 100
REMARK H PARENT 91 25 59 36 21 87
REMARK Flexibility Score: inf
ROOT
ATOM      1  C   UNL A   1      39.965  22.755  27.202  1.00  0.00     0.188 C 
ENDROOT
BRANCH   1   2
ATOM      2  O   UNL A   1      40.470  21.515  27.710  1.00  0.00    -0.376 OA
BRANCH   2   3
ATOM      3  C   UNL A   1      40.959  20.636  26.689  1.00  0.00     0.202 C 
BRANCH   3   4
ATOM      4  C   UNL A   1      42.322  21.016  26.082  1.00  0.00     0.261 C 
BRANCH   4   5
ATOM      5  O   UNL A   1      42.247  22.122  25.169  1.00  0.00    -0.460 OA
BRANCH   5   6
ATOM      6  C   UNL A   1      43.192  23.066  24.921  1.00  0.00     0.338 C 
ATOM      7  O   UNL A   1      43.986  22.867  24.002  1.00  0.00    -0.246 OA
BRANCH   6   8
ATOM      8  C   UNL A   1      43.331  24.332  25.709  1.00  0.00     0.060 A 
ATOM      9  C   UNL A   1      43.684  24.400  27.057  1.00  0.00     0.016 A 
ATOM     10  C   UNL A   1      43.164  25.544  25.018  1.00  0.00     0.016 A 
ATOM     11  C   UNL A   1      43.759  25.616  27.730  1.00  0.00     0.010 A 
ATOM     12  C   UNL A   1      43.303  26.776  25.671  1.00  0.00     0.010 A 
ATOM     13  C   UNL A   1      43.572  26.815  27.045  1.00  0.00    -0.014 A 
BRANCH  13  14
ATOM     14  C   UNL A   1      43.590  28.083  27.809  1.00  0.00     0.031 A 
ATOM     15  C   UNL A   1      44.889  28.811  27.970  1.00  0.00     0.074 A 
ATOM     16  C   UNL A   1      42.438  28.621  28.256  1.00  0.00     0.049 A 
ATOM     17  N   UNL A   1      45.135  29.919  28.613  1.00  0.00    -0.248 NA
ATOM     18  C   UNL A   1      46.061  28.222  27.303  1.00  0.00     0.031 C 
ATOM     19  C   UNL A   1      41.118  28.025  28.053  1.00  0.00     0.029 A 
ATOM     20  N   UNL A   1      42.174  29.774  28.952  1.00  0.00    -0.354 N 
ATOM     21  C   UNL A   1      46.492  30.158  28.440  1.00  0.00     0.074 A 
ATOM     22  C   UNL A   1      47.020  29.069  27.646  1.00  0.00     0.031 C 
ATOM     23  C   UNL A   1      40.192  28.821  28.606  1.00  0.00     0.029 A 
ATOM     24  C   UNL A   1      40.842  29.936  29.271  1.00  0.00     0.049 A 
ATOM     25  H   UNL A   1      42.870  30.426  29.198  1.00  0.00     0.167 HD
ATOM     26  C   UNL A   1      47.225  31.196  28.907  1.00  0.00     0.034 A 
ATOM     27  C   UNL A   1      40.217  30.844  30.054  1.00  0.00     0.034 A 
ATOM     28  C   UNL A   1      46.670  32.254  29.713  1.00  0.00     0.049 A 
ATOM     29  C   UNL A   1      41.084  31.917  30.667  1.00  0.00     0.074 A 
ATOM     30  C   UNL A   1      47.314  33.339  30.278  1.00  0.00     0.029 A 
ATOM     31  N   UNL A   1      45.332  32.348  30.080  1.00  0.00    -0.354 N 
ATOM     32  N   UNL A   1      42.372  32.126  30.497  1.00  0.00    -0.248 NA
ATOM     33  C   UNL A   1      40.432  32.869  31.571  1.00  0.00     0.031 C 
ATOM     34  C   UNL A   1      46.377  34.055  31.033  1.00  0.00     0.029 A 
ATOM     35  C   UNL A   1      45.136  33.452  30.893  1.00  0.00     0.049 A 
ATOM     36  H   UNL A   1      44.626  31.721  29.802  1.00  0.00     0.167 HD
ATOM     37  C   UNL A   1      42.678  33.245  31.261  1.00  0.00     0.074 A 
ATOM     38  C   UNL A   1      41.433  33.687  31.859  1.00  0.00     0.031 C 
ATOM     39  C   UNL A   1      43.874  33.854  31.466  1.00  0.00     0.034 A 
BRANCH  26  40
ATOM     40  C   UNL A   1      48.703  31.167  28.622  1.00  0.00     0.023 A 
ATOM     41  C   UNL A   1      49.260  31.844  27.523  1.00  0.00     0.031 A 
ATOM     42  C   UNL A   1      49.555  30.388  29.423  1.00  0.00     0.131 A 
ATOM     43  C   UNL A   1      50.620  31.676  27.217  1.00  0.00     0.055 A 
ATOM     44  C   UNL A   1      50.920  30.279  29.153  1.00  0.00     0.041 A 
ATOM     45  F   UNL A   1      49.068  29.696  30.465  1.00  0.00    -0.206 F 
ATOM     46  C   UNL A   1      51.458  30.915  28.037  1.00  0.00     0.022 A 
BRANCH  43  47
ATOM     47  S   UNL A   1      51.254  32.364  25.664  1.00  0.00     0.124 S 
ATOM     48  O   UNL A   1      50.202  33.315  25.312  1.00  0.00    -0.237 OA
ATOM     49  O   UNL A   1      52.528  32.944  26.069  1.00  0.00    -0.237 OA
ATOM     50  O   UNL A   1      51.350  31.199  24.786  1.00  0.00    -0.744 OA
ENDBRANCH  43  47
ENDBRANCH  26  40
BRANCH  27  51
ATOM     51  C   UNL A   1      38.754  30.724  30.388  1.00  0.00     0.023 A 
ATOM     52  C   UNL A   1      37.751  31.381  29.649  1.00  0.00     0.031 A 
ATOM     53  C   UNL A   1      38.341  30.010  31.534  1.00  0.00     0.131 A 
ATOM     54  C   UNL A   1      36.414  31.358  30.093  1.00  0.00     0.055 A 
ATOM     55  C   UNL A   1      37.002  29.910  31.913  1.00  0.00     0.041 A 
ATOM     56  F   UNL A   1      39.243  29.391  32.314  1.00  0.00    -0.206 F 
ATOM     57  C   UNL A   1      36.033  30.602  31.201  1.00  0.00     0.022 A 
BRANCH  54  58
ATOM     58  S   UNL A   1      35.195  32.522  29.399  1.00  0.00     0.124 S 
ATOM     59  O   UNL A   1      34.493  31.703  28.419  1.00  0.00    -0.237 OA
ATOM     60  O   UNL A   1      34.429  32.921  30.573  1.00  0.00    -0.237 OA
ATOM     61  O   UNL A   1      36.036  33.577  28.835  1.00  0.00    -0.744 OA
ENDBRANCH  54  58
ENDBRANCH  27  51
BRANCH  39  62
ATOM     62  C   UNL A   1      43.853  35.075  32.346  1.00  0.00     0.023 A 
ATOM     63  C   UNL A   1      43.763  36.366  31.800  1.00  0.00     0.031 A 
ATOM     64  C   UNL A   1      43.959  34.944  33.741  1.00  0.00     0.131 A 
ATOM     65  C   UNL A   1      43.848  37.483  32.641  1.00  0.00     0.055 A 
ATOM     66  C   UNL A   1      43.983  36.059  34.579  1.00  0.00     0.041 A 
ATOM     67  F   UNL A   1      44.047  33.730  34.309  1.00  0.00    -0.206 F 
ATOM     68  C   UNL A   1      43.942  37.338  34.028  1.00  0.00     0.022 A 
BRANCH  65  69
ATOM     69  S   UNL A   1      43.923  39.130  31.889  1.00  0.00     0.124 S 
ATOM     70  O   UNL A   1      42.876  39.841  32.615  1.00  0.00    -0.237 OA
ATOM     71  O   UNL A   1      45.293  39.543  32.180  1.00  0.00    -0.237 OA
ATOM     72  O   UNL A   1      43.641  38.874  30.478  1.00  0.00    -0.744 OA
ENDBRANCH  65  69
ENDBRANCH  39  62
ENDBRANCH  13  14
ENDBRANCH   6   8
ENDBRANCH   5   6
ENDBRANCH   4   5
ENDBRANCH   3   4
ENDBRANCH   2   3
ENDBRANCH   1   2
BRANCH   1  73
ATOM     73  C   UNL A   1      38.751  22.562  26.291  1.00  0.00     0.188 C 
BRANCH  73  74
ATOM     74  O   UNL A   1      37.767  23.597  26.290  1.00  0.00    -0.376 OA
BRANCH  74  75
ATOM     75  C   UNL A   1      36.929  23.708  25.145  1.00  0.00     0.202 C 
BRANCH  75  76
ATOM     76  C   UNL A   1      35.412  23.832  25.357  1.00  0.00     0.261 C 
BRANCH  76  77
ATOM     77  O   UNL A   1      34.911  25.169  25.496  1.00  0.00    -0.463 OA
BRANCH  77  78
ATOM     78  C   UNL A   1      34.076  25.555  24.493  1.00  0.00     0.310 C 
ATOM     79  O   UNL A   1      34.108  25.122  23.345  1.00  0.00    -0.252 OA
BRANCH  78  80
ATOM     80  C   UNL A   1      33.130  26.656  24.932  1.00  0.00     0.117 C 
ATOM     81  C   UNL A   1      33.917  27.700  25.743  1.00  0.00     0.017 C 
ATOM     82  C   UNL A   1      31.918  26.043  25.677  1.00  0.00     0.084 C 
ATOM     83  C   UNL A   1      33.019  28.715  26.436  1.00  0.00     0.001 C 
ATOM     84  C   UNL A   1      31.136  27.098  26.464  1.00  0.00     0.021 C 
ATOM     85  C   UNL A   1      32.006  28.004  27.319  1.00  0.00     0.002 C 
BRANCH  82  86
ATOM     86  N   UNL A   1      32.319  24.864  26.465  1.00  0.00    -0.207 NA
ATOM     87  H   UNL A   1      32.446  25.224  27.411  1.00  0.00     0.141 HD
BRANCH  86  88
ATOM     88  S   UNL A   1      31.520  23.412  26.679  1.00  0.00     0.240 S 
ATOM     89  O   UNL A   1      32.195  22.837  27.829  1.00  0.00    -0.207 OA
ATOM     90  O   UNL A   1      30.103  23.679  26.716  1.00  0.00    -0.207 OA
BRANCH  88  91
ATOM     91  C   UNL A   1      31.864  22.328  25.314  1.00  0.00     0.083 A 
ATOM     92  C   UNL A   1      31.783  22.706  23.979  1.00  0.00     0.022 A 
ATOM     93  C   UNL A   1      32.208  21.008  25.630  1.00  0.00     0.030 A 
ATOM     94  C   UNL A   1      31.917  21.751  22.965  1.00  0.00     0.010 A 
ATOM     95  C   UNL A   1      32.405  20.052  24.618  1.00  0.00    -0.017 A 
ATOM     96  C   UNL A   1      32.210  20.417  23.269  1.00  0.00    -0.018 A 
ATOM     97  C   UNL A   1      32.742  18.725  24.919  1.00  0.00     0.009 A 
ATOM     98  C   UNL A   1      32.291  19.435  22.266  1.00  0.00     0.009 A 
ATOM     99  C   UNL A   1      32.824  17.760  23.916  1.00  0.00     0.001 A 
ATOM    100  C   UNL A   1      32.586  18.110  22.592  1.00  0.00     0.001 A 
ENDBRANCH  88  91
ENDBRANCH  86  88
ENDBRANCH  82  86
ENDBRANCH  78  80
ENDBRANCH  77  78
ENDBRANCH  76  77
ENDBRANCH  75  76
ENDBRANCH  74  75
ENDBRANCH  73  74
ENDBRANCH   1  73
TORSDOF 23
ENDMDL
MODEL 3
REMARK VINA RESULT:     -10.2      1.501      3.775
REMARK SMILES O=C(OCCOCCOCCOC(=O)[C@@H]1CCCC[C@@H]1NS(=O)(=O)c1ccc2ccccc2c1)c1ccc(-c2c3nc(c(-c4cc(S(=O)(=O)[O-])ccc4F)c4ccc([nH]4)c(-c4cc(S(=O)(=O)[O-])ccc4F)c4nc(c(-c5cc(S(=O)(=O)[O-])ccc5F)c5ccc2[nH]5)C=C4)C=C3)cc1
REMARK SMILES IDX 7 1 6 2 5 3 4 4 3 5 2 6 1 7 35 8 36 9 97 10 37 11 96 12
REMARK SMILES IDX 38 13 39 14 40 15 90 16 41 17 95 18 89 19 91 20 42 21 94 22
REMARK SMILES IDX 88 23 87 24 43 26 75 27 55 28 74 29 56 30 59 31 73 32 92 33
REMARK SMILES IDX 57 34 58 35 72 37 93 38 60 39 44 40 45 41 53 42 46 43 52 44
REMARK SMILES IDX 54 45 51 46 47 47 48 48 49 49 50 50 76 51 77 52 85 53 78 54
REMARK SMILES IDX 84 55 86 56 83 57 79 58 80 59 81 60 82 61 61 62 62 63 70 64
REMARK SMILES IDX 63 65 69 66 71 67 68 68 64 69 65 70 66 71 67 72 8 73 9 74
REMARK SMILES IDX 10 75 11 76 12 77 13 78 14 79 15 80 16 81 20 82 17 83 19 84
REMARK SMILES IDX 18 85 21 86 22 88 23 89 24 90 25 91 26 92 34 93 27 94 33 95
REMARK SMILES IDX 28 96 32 97 29 98 31 99 30 100
REMARK H PARENT 91 25 59 36 21 87
REMARK Flexibility Score: inf
ROOT
ATOM      1  C   UNL A   1      39.911  21.061  26.702  1.00  0.00     0.188 C 
ENDROOT
BRANCH   1   2
ATOM      2  O   UNL A   1      41.207  20.905  26.113  1.00  0.00    -0.376 OA
BRANCH   2   3
ATOM      3  C   UNL A   1      42.014  19.915  26.763  1.00  0.00     0.202 C 
BRANCH   3   4
ATOM      4  C   UNL A   1      42.611  18.834  25.843  1.00  0.00     0.261 C 
BRANCH   4   5
ATOM      5  O   UNL A   1      43.194  19.370  24.644  1.00  0.00    -0.460 OA
BRANCH   5   6
ATOM      6  C   UNL A   1      44.376  20.026  24.512  1.00  0.00     0.338 C 
ATOM      7  O   UNL A   1      45.325  19.420  24.015  1.00  0.00    -0.246 OA
BRANCH   6   8
ATOM      8  C   UNL A   1      44.595  21.443  24.944  1.00  0.00     0.060 A 
ATOM      9  C   UNL A   1      44.265  22.569  24.188  1.00  0.00     0.016 A 
ATOM     10  C   UNL A   1      45.105  21.653  26.237  1.00  0.00     0.016 A 
ATOM     11  C   UNL A   1      44.533  23.856  24.645  1.00  0.00     0.010 A 
ATOM     12  C   UNL A   1      45.316  22.947  26.731  1.00  0.00     0.010 A 
ATOM     13  C   UNL A   1      45.058  24.059  25.920  1.00  0.00    -0.014 A 
BRANCH  13  14
ATOM     14  C   UNL A   1      45.394  25.438  26.342  1.00  0.00     0.031 A 
ATOM     15  C   UNL A   1      44.327  26.282  26.966  1.00  0.00     0.074 A 
ATOM     16  C   UNL A   1      46.664  25.880  26.260  1.00  0.00     0.049 A 
ATOM     17  N   UNL A   1      44.396  27.516  27.387  1.00  0.00    -0.248 NA
ATOM     18  C   UNL A   1      43.013  25.647  27.159  1.00  0.00     0.031 C 
ATOM     19  C   UNL A   1      47.782  25.084  25.757  1.00  0.00     0.029 A 
ATOM     20  N   UNL A   1      47.241  27.078  26.601  1.00  0.00    -0.354 N 
ATOM     21  C   UNL A   1      43.134  27.812  27.886  1.00  0.00     0.074 A 
ATOM     22  C   UNL A   1      42.314  26.634  27.698  1.00  0.00     0.031 C 
ATOM     23  C   UNL A   1      48.904  25.815  25.829  1.00  0.00     0.029 A 
ATOM     24  C   UNL A   1      48.586  27.150  26.302  1.00  0.00     0.049 A 
ATOM     25  H   UNL A   1      46.743  27.816  27.021  1.00  0.00     0.167 HD
ATOM     26  C   UNL A   1      42.707  28.968  28.447  1.00  0.00     0.034 A 
ATOM     27  C   UNL A   1      49.455  28.184  26.349  1.00  0.00     0.034 A 
ATOM     28  C   UNL A   1      43.547  30.128  28.599  1.00  0.00     0.049 A 
ATOM     29  C   UNL A   1      48.914  29.497  26.859  1.00  0.00     0.074 A 
ATOM     30  C   UNL A   1      43.223  31.369  29.116  1.00  0.00     0.029 A 
ATOM     31  N   UNL A   1      44.883  30.192  28.218  1.00  0.00    -0.354 N 
ATOM     32  N   UNL A   1      47.712  29.764  27.323  1.00  0.00    -0.248 NA
ATOM     33  C   UNL A   1      49.826  30.645  26.854  1.00  0.00     0.031 C 
ATOM     34  C   UNL A   1      44.344  32.198  28.993  1.00  0.00     0.029 A 
ATOM     35  C   UNL A   1      45.388  31.459  28.455  1.00  0.00     0.049 A 
ATOM     36  H   UNL A   1      45.396  29.444  27.836  1.00  0.00     0.167 HD
ATOM     37  C   UNL A   1      47.732  31.106  27.681  1.00  0.00     0.074 A 
ATOM     38  C   UNL A   1      49.076  31.581  27.414  1.00  0.00     0.031 C 
ATOM     39  C   UNL A   1      46.737  31.887  28.173  1.00  0.00     0.034 A 
BRANCH  26  40
ATOM     40  C   UNL A   1      41.256  29.035  28.842  1.00  0.00     0.023 A 
ATOM     41  C   UNL A   1      40.842  28.874  30.176  1.00  0.00     0.031 A 
ATOM     42  C   UNL A   1      40.268  29.189  27.855  1.00  0.00     0.131 A 
ATOM     43  C   UNL A   1      39.473  28.806  30.477  1.00  0.00     0.055 A 
ATOM     44  C   UNL A   1      38.908  29.188  28.170  1.00  0.00     0.041 A 
ATOM     45  F   UNL A   1      40.609  29.315  26.563  1.00  0.00    -0.206 F 
ATOM     46  C   UNL A   1      38.503  28.984  29.486  1.00  0.00     0.022 A 
BRANCH  43  47
ATOM     47  S   UNL A   1      38.974  28.359  32.163  1.00  0.00     0.124 S 
ATOM     48  O   UNL A   1      40.267  28.098  32.792  1.00  0.00    -0.237 OA
ATOM     49  O   UNL A   1      38.274  29.554  32.616  1.00  0.00    -0.237 OA
ATOM     50  O   UNL A   1      38.133  27.179  31.970  1.00  0.00    -0.744 OA
ENDBRANCH  43  47
ENDBRANCH  26  40
BRANCH  27  51
ATOM     51  C   UNL A   1      50.857  28.062  25.814  1.00  0.00     0.023 A 
ATOM     52  C   UNL A   1      51.148  28.080  24.437  1.00  0.00     0.031 A 
ATOM     53  C   UNL A   1      51.937  27.826  26.693  1.00  0.00     0.131 A 
ATOM     54  C   UNL A   1      52.455  27.811  23.983  1.00  0.00     0.055 A 
ATOM     55  C   UNL A   1      53.247  27.658  26.243  1.00  0.00     0.041 A 
ATOM     56  F   UNL A   1      51.734  27.752  28.019  1.00  0.00    -0.206 F 
ATOM     57  C   UNL A   1      53.508  27.632  24.881  1.00  0.00     0.022 A 
BRANCH  54  58
ATOM     58  S   UNL A   1      52.759  27.425  22.229  1.00  0.00     0.124 S 
ATOM     59  O   UNL A   1      51.441  27.013  21.759  1.00  0.00    -0.237 OA
ATOM     60  O   UNL A   1      53.262  28.689  21.705  1.00  0.00    -0.237 OA
ATOM     61  O   UNL A   1      53.753  26.356  22.297  1.00  0.00    -0.744 OA
ENDBRANCH  54  58
ENDBRANCH  27  51
BRANCH  39  62
ATOM     62  C   UNL A   1      47.105  33.314  28.477  1.00  0.00     0.023 A 
ATOM     63  C   UNL A   1      46.995  34.319  27.502  1.00  0.00     0.031 A 
ATOM     64  C   UNL A   1      47.605  33.663  29.744  1.00  0.00     0.131 A 
ATOM     65  C   UNL A   1      47.442  35.616  27.789  1.00  0.00     0.055 A 
ATOM     66  C   UNL A   1      47.992  34.968  30.042  1.00  0.00     0.041 A 
ATOM     67  F   UNL A   1      47.728  32.736  30.708  1.00  0.00    -0.206 F 
ATOM     68  C   UNL A   1      47.926  35.951  29.057  1.00  0.00     0.022 A 
BRANCH  65  69
ATOM     69  S   UNL A   1      47.465  36.840  26.452  1.00  0.00     0.124 S 
ATOM     70  O   UNL A   1      47.957  36.049  25.328  1.00  0.00    -0.237 OA
ATOM     71  O   UNL A   1      46.066  37.249  26.379  1.00  0.00    -0.237 OA
ATOM     72  O   UNL A   1      48.385  37.864  26.943  1.00  0.00    -0.744 OA
ENDBRANCH  65  69
ENDBRANCH  39  62
ENDBRANCH  13  14
ENDBRANCH   6   8
ENDBRANCH   5   6
ENDBRANCH   4   5
ENDBRANCH   3   4
ENDBRANCH   2   3
ENDBRANCH   1   2
BRANCH   1  73
ATOM     73  C   UNL A   1      38.924  21.761  25.766  1.00  0.00     0.188 C 
BRANCH  73  74
ATOM     74  O   UNL A   1      38.522  23.086  26.116  1.00  0.00    -0.376 OA
BRANCH  74  75
ATOM     75  C   UNL A   1      37.521  23.704  25.315  1.00  0.00     0.202 C 
BRANCH  75  76
ATOM     76  C   UNL A   1      36.052  23.563  25.740  1.00  0.00     0.261 C 
BRANCH  76  77
ATOM     77  O   UNL A   1      35.301  24.783  25.799  1.00  0.00    -0.463 OA
BRANCH  77  78
ATOM     78  C   UNL A   1      34.530  25.013  24.701  1.00  0.00     0.310 C 
ATOM     79  O   UNL A   1      34.599  24.385  23.649  1.00  0.00    -0.252 OA
BRANCH  78  80
ATOM     80  C   UNL A   1      33.610  26.204  24.891  1.00  0.00     0.117 C 
ATOM     81  C   UNL A   1      34.062  26.995  26.131  1.00  0.00     0.017 C 
ATOM     82  C   UNL A   1      32.137  25.728  24.934  1.00  0.00     0.084 C 
ATOM     83  C   UNL A   1      33.062  28.064  26.551  1.00  0.00     0.001 C 
ATOM     84  C   UNL A   1      31.202  26.804  25.494  1.00  0.00     0.021 C 
ATOM     85  C   UNL A   1      31.694  27.442  26.782  1.00  0.00     0.002 C 
BRANCH  82  86
ATOM     86  N   UNL A   1      32.020  24.414  25.592  1.00  0.00    -0.207 NA
ATOM     87  H   UNL A   1      31.667  24.629  26.524  1.00  0.00     0.141 HD
BRANCH  86  88
ATOM     88  S   UNL A   1      31.151  23.067  25.121  1.00  0.00     0.240 S 
ATOM     89  O   UNL A   1      30.216  22.886  26.217  1.00  0.00    -0.207 OA
ATOM     90  O   UNL A   1      30.675  23.286  23.777  1.00  0.00    -0.207 OA
BRANCH  88  91
ATOM     91  C   UNL A   1      32.204  21.636  25.130  1.00  0.00     0.083 A 
ATOM     92  C   UNL A   1      33.346  21.515  25.913  1.00  0.00     0.022 A 
ATOM     93  C   UNL A   1      31.855  20.592  24.265  1.00  0.00     0.030 A 
ATOM     94  C   UNL A   1      34.205  20.422  25.746  1.00  0.00     0.010 A 
ATOM     95  C   UNL A   1      32.679  19.460  24.132  1.00  0.00    -0.017 A 
ATOM     96  C   UNL A   1      33.894  19.396  24.846  1.00  0.00    -0.018 A 
ATOM     97  C   UNL A   1      32.346  18.410  23.265  1.00  0.00     0.009 A 
ATOM     98  C   UNL A   1      34.772  18.321  24.624  1.00  0.00     0.009 A 
ATOM     99  C   UNL A   1      33.223  17.346  23.056  1.00  0.00     0.001 A 
ATOM    100  C   UNL A   1      34.441  17.307  23.724  1.00  0.00     0.001 A 
ENDBRANCH  88  91
ENDBRANCH  86  88
ENDBRANCH  82  86
ENDBRANCH  78  80
ENDBRANCH  77  78
ENDBRANCH  76  77
ENDBRANCH  75  76
ENDBRANCH  74  75
ENDBRANCH  73  74
ENDBRANCH   1  73
TORSDOF 23
ENDMDL
