MODEL 1
REMARK VINA RESULT:     -11.9      0.000      0.000
REMARK SMILES COc1cc2ccccc2cc1C(=O)Nc1cc(C(=O)OCCOCCOCCOC(=O)c2ccc(-c3c4nc(c(-c5cc(S(=O)(=O)[O-])ccc5F)c5ccc([nH]5)c(-c5cc(S(=O)(=O)[O-])ccc5F)c5nc(c(-c6cc(S(=O)(=O)[O-])ccc6F)c6ccc3[nH]6)C=C5)C=C4)cc2)ccc1C
REMARK SMILES IDX 25 1 24 2 23 3 22 4 21 5 19 6 20 7 18 8 16 9 17 10 98 11
REMARK SMILES IDX 97 12 99 13 96 14 15 15 13 16 14 17 12 19 3 20 4 21 5 22
REMARK SMILES IDX 11 23 6 24 10 25 7 26 9 27 8 28 2 29 1 30 26 31 27 32 28 33
REMARK SMILES IDX 29 34 30 35 31 36 32 37 33 38 34 39 95 40 35 41 94 42 36 43
REMARK SMILES IDX 37 44 38 45 88 46 39 47 93 48 87 49 89 50 40 51 92 52 86 53
REMARK SMILES IDX 85 54 41 56 73 57 53 58 72 59 54 60 57 61 71 62 90 63 55 64
REMARK SMILES IDX 56 65 70 67 91 68 58 69 42 70 43 71 51 72 44 73 50 74 52 75
REMARK SMILES IDX 49 76 45 77 46 78 47 79 48 80 74 81 75 82 83 83 76 84 82 85
REMARK SMILES IDX 84 86 81 87 77 88 78 89 79 90 80 91 59 92 60 93 68 94 61 95
REMARK SMILES IDX 67 96 69 97 66 98 62 99 63 100 64 101 65 102
REMARK H PARENT 15 18 89 55 57 66
REMARK Flexibility Score: inf
ROOT
ATOM      1  C   UNL A   1      33.870  33.783  28.544  1.00  0.00     0.188 C 
ENDROOT
BRANCH   1   2
ATOM      2  O   UNL A   1      34.623  33.187  29.651  1.00  0.00    -0.376 OA
BRANCH   2   3
ATOM      3  C   UNL A   1      35.625  32.179  29.363  1.00  0.00     0.202 C 
BRANCH   3   4
ATOM      4  C   UNL A   1      35.199  30.810  28.465  1.00  0.00     0.261 C 
BRANCH   4   5
ATOM      5  O   UNL A   1      34.144  30.467  27.294  1.00  0.00    -0.460 OA
BRANCH   5   6
ATOM      6  C   UNL A   1      33.843  29.477  26.394  1.00  0.00     0.338 C 
ATOM      7  O   UNL A   1      34.196  28.309  26.367  1.00  0.00    -0.246 OA
BRANCH   6   8
ATOM      8  C   UNL A   1      32.993  29.633  25.212  1.00  0.00     0.062 A 
ATOM      9  C   UNL A   1      32.239  28.474  23.249  1.00  0.00     0.045 A 
ATOM     10  C   UNL A   1      33.269  28.812  24.138  1.00  0.00     0.042 A 
ATOM     11  C   UNL A   1      30.947  29.043  23.342  1.00  0.00    -0.027 A 
ATOM     12  C   UNL A   1      30.645  29.784  24.486  1.00  0.00     0.006 A 
ATOM     13  C   UNL A   1      29.820  28.713  22.401  1.00  0.00     0.046 C 
ATOM     14  C   UNL A   1      31.649  30.054  25.418  1.00  0.00     0.016 A 
BRANCH   9  15
ATOM     15  N   UNL A   1      32.482  27.481  22.296  1.00  0.00    -0.322 N 
ATOM     16  C   UNL A   1      33.127  26.275  22.455  1.00  0.00     0.259 C 
ATOM     17  O   UNL A   1      33.715  25.819  21.469  1.00  0.00    -0.269 OA
ATOM     18  H   UNL A   1      32.147  27.669  21.391  1.00  0.00     0.170 HD
BRANCH  16  19
ATOM     19  C   UNL A   1      33.036  25.424  23.700  1.00  0.00     0.082 A 
ATOM     20  C   UNL A   1      31.870  25.076  24.400  1.00  0.00     0.132 A 
ATOM     21  C   UNL A   1      31.910  24.168  25.474  1.00  0.00     0.056 A 
ATOM     22  C   UNL A   1      33.089  23.496  25.809  1.00  0.00    -0.015 A 
ATOM     23  C   UNL A   1      34.225  24.762  24.068  1.00  0.00     0.026 A 
ATOM     24  C   UNL A   1      33.124  22.541  26.837  1.00  0.00     0.009 A 
ATOM     25  C   UNL A   1      34.261  23.783  25.083  1.00  0.00    -0.017 A 
ATOM     26  C   UNL A   1      34.305  21.868  27.145  1.00  0.00     0.001 A 
ATOM     27  C   UNL A   1      35.435  23.071  25.384  1.00  0.00     0.009 A 
ATOM     28  C   UNL A   1      35.456  22.121  26.407  1.00  0.00     0.001 A 
BRANCH  20  29
ATOM     29  O   UNL A   1      30.643  25.603  24.109  1.00  0.00    -0.496 OA
ATOM     30  C   UNL A   1      29.933  25.935  25.300  1.00  0.00     0.278 C 
ENDBRANCH  20  29
ENDBRANCH  16  19
ENDBRANCH   9  15
ENDBRANCH   6   8
ENDBRANCH   5   6
ENDBRANCH   4   5
ENDBRANCH   3   4
ENDBRANCH   2   3
ENDBRANCH   1   2
BRANCH   1  31
ATOM     31  C   UNL A   1      33.438  35.214  28.941  1.00  0.00     0.188 C 
BRANCH  31  32
ATOM     32  O   UNL A   1      32.649  35.062  30.120  1.00  0.00    -0.376 OA
BRANCH  32  33
ATOM     33  C   UNL A   1      32.572  36.141  31.013  1.00  0.00     0.202 C 
BRANCH  33  34
ATOM     34  C   UNL A   1      32.548  35.703  32.483  1.00  0.00     0.261 C 
BRANCH  34  35
ATOM     35  O   UNL A   1      33.877  35.389  32.969  1.00  0.00    -0.460 OA
BRANCH  35  36
ATOM     36  C   UNL A   1      34.187  34.042  33.066  1.00  0.00     0.338 C 
ATOM     37  O   UNL A   1      33.371  33.177  33.165  1.00  0.00    -0.246 OA
BRANCH  36  38
ATOM     38  C   UNL A   1      35.688  33.852  33.029  1.00  0.00     0.060 A 
ATOM     39  C   UNL A   1      36.614  34.547  32.238  1.00  0.00     0.016 A 
ATOM     40  C   UNL A   1      36.171  32.754  33.655  1.00  0.00     0.016 A 
ATOM     41  C   UNL A   1      37.954  34.020  31.973  1.00  0.00     0.010 A 
ATOM     42  C   UNL A   1      37.339  32.193  33.147  1.00  0.00     0.010 A 
ATOM     43  C   UNL A   1      38.353  32.742  32.360  1.00  0.00    -0.014 A 
BRANCH  43  44
ATOM     44  C   UNL A   1      39.667  31.896  31.998  1.00  0.00     0.031 A 
ATOM     45  C   UNL A   1      39.895  30.642  31.011  1.00  0.00     0.074 A 
ATOM     46  C   UNL A   1      40.837  32.446  32.389  1.00  0.00     0.049 A 
ATOM     47  N   UNL A   1      40.830  30.543  30.076  1.00  0.00    -0.248 NA
ATOM     48  C   UNL A   1      39.071  29.425  30.951  1.00  0.00     0.031 C 
ATOM     49  C   UNL A   1      42.207  32.009  32.109  1.00  0.00     0.029 A 
ATOM     50  N   UNL A   1      40.989  33.416  33.369  1.00  0.00    -0.354 N 
ATOM     51  C   UNL A   1      40.648  29.358  29.348  1.00  0.00     0.074 A 
ATOM     52  C   UNL A   1      39.330  28.925  29.745  1.00  0.00     0.031 C 
ATOM     53  C   UNL A   1      42.996  32.425  33.112  1.00  0.00     0.029 A 
ATOM     54  C   UNL A   1      42.136  33.063  34.094  1.00  0.00     0.049 A 
ATOM     55  H   UNL A   1      40.407  34.195  33.524  1.00  0.00     0.167 HD
ATOM     56  C   UNL A   1      41.576  28.350  29.228  1.00  0.00     0.034 A 
ATOM     57  C   UNL A   1      41.944  32.631  35.372  1.00  0.00     0.034 A 
ATOM     58  C   UNL A   1      42.491  28.305  30.368  1.00  0.00     0.049 A 
ATOM     59  C   UNL A   1      42.185  31.139  35.465  1.00  0.00     0.074 A 
ATOM     60  C   UNL A   1      43.823  28.607  30.557  1.00  0.00     0.029 A 
ATOM     61  N   UNL A   1      41.973  28.037  31.646  1.00  0.00    -0.354 N 
ATOM     62  N   UNL A   1      42.115  30.293  34.464  1.00  0.00    -0.248 NA
ATOM     63  C   UNL A   1      42.643  30.522  36.699  1.00  0.00     0.031 C 
ATOM     64  C   UNL A   1      44.078  28.601  31.961  1.00  0.00     0.029 A 
ATOM     65  C   UNL A   1      42.918  28.242  32.636  1.00  0.00     0.049 A 
ATOM     66  H   UNL A   1      41.050  27.741  31.818  1.00  0.00     0.167 HD
ATOM     67  C   UNL A   1      42.552  29.064  34.880  1.00  0.00     0.074 A 
ATOM     68  C   UNL A   1      42.878  29.267  36.287  1.00  0.00     0.031 C 
ATOM     69  C   UNL A   1      42.674  27.970  34.062  1.00  0.00     0.034 A 
BRANCH  56  70
ATOM     70  C   UNL A   1      41.536  27.334  28.057  1.00  0.00     0.023 A 
ATOM     71  C   UNL A   1      41.869  25.971  28.273  1.00  0.00     0.031 A 
ATOM     72  C   UNL A   1      41.235  27.644  26.702  1.00  0.00     0.131 A 
ATOM     73  C   UNL A   1      41.883  25.027  27.206  1.00  0.00     0.055 A 
ATOM     74  C   UNL A   1      41.231  26.703  25.656  1.00  0.00     0.041 A 
ATOM     75  F   UNL A   1      40.927  28.878  26.290  1.00  0.00    -0.206 F 
ATOM     76  C   UNL A   1      41.564  25.388  25.900  1.00  0.00     0.022 A 
BRANCH  73  77
ATOM     77  S   UNL A   1      42.330  23.288  27.508  1.00  0.00     0.124 S 
ATOM     78  O   UNL A   1      43.673  23.203  26.946  1.00  0.00    -0.237 OA
ATOM     79  O   UNL A   1      42.224  23.195  28.960  1.00  0.00    -0.237 OA
ATOM     80  O   UNL A   1      41.311  22.537  26.772  1.00  0.00    -0.744 OA
ENDBRANCH  73  77
ENDBRANCH  56  70
BRANCH  57  81
ATOM     81  C   UNL A   1      40.930  33.467  36.106  1.00  0.00     0.023 A 
ATOM     82  C   UNL A   1      39.664  32.856  36.311  1.00  0.00     0.031 A 
ATOM     83  C   UNL A   1      41.228  34.586  36.887  1.00  0.00     0.131 A 
ATOM     84  C   UNL A   1      38.878  33.182  37.422  1.00  0.00     0.055 A 
ATOM     85  C   UNL A   1      40.364  35.002  37.921  1.00  0.00     0.041 A 
ATOM     86  F   UNL A   1      42.417  35.199  36.785  1.00  0.00    -0.206 F 
ATOM     87  C   UNL A   1      39.217  34.262  38.231  1.00  0.00     0.022 A 
BRANCH  84  88
ATOM     88  S   UNL A   1      37.622  31.988  37.990  1.00  0.00     0.124 S 
ATOM     89  O   UNL A   1      37.765  30.912  37.017  1.00  0.00    -0.237 OA
ATOM     90  O   UNL A   1      38.047  31.672  39.353  1.00  0.00    -0.237 OA
ATOM     91  O   UNL A   1      36.381  32.754  37.917  1.00  0.00    -0.744 OA
ENDBRANCH  84  88
ENDBRANCH  57  81
BRANCH  69  92
ATOM     92  C   UNL A   1      42.810  26.556  34.612  1.00  0.00     0.023 A 
ATOM     93  C   UNL A   1      44.032  25.861  34.626  1.00  0.00     0.031 A 
ATOM     94  C   UNL A   1      41.728  25.868  35.202  1.00  0.00     0.131 A 
ATOM     95  C   UNL A   1      44.119  24.516  35.014  1.00  0.00     0.055 A 
ATOM     96  C   UNL A   1      41.839  24.562  35.704  1.00  0.00     0.041 A 
ATOM     97  F   UNL A   1      40.526  26.444  35.348  1.00  0.00    -0.206 F 
ATOM     98  C   UNL A   1      43.031  23.862  35.578  1.00  0.00     0.022 A 
BRANCH  95  99
ATOM     99  S   UNL A   1      45.656  23.628  34.650  1.00  0.00     0.124 S 
ATOM    100  O   UNL A   1      46.310  23.623  35.957  1.00  0.00    -0.237 OA
ATOM    101  O   UNL A   1      45.171  22.333  34.183  1.00  0.00    -0.237 OA
ATOM    102  O   UNL A   1      46.301  24.455  33.634  1.00  0.00    -0.744 OA
ENDBRANCH  95  99
ENDBRANCH  69  92
ENDBRANCH  43  44
ENDBRANCH  36  38
ENDBRANCH  35  36
ENDBRANCH  34  35
ENDBRANCH  33  34
ENDBRANCH  32  33
ENDBRANCH  31  32
ENDBRANCH   1  31
TORSDOF 23
ENDMDL
MODEL 2
REMARK VINA RESULT:     -11.2      3.295      9.517
REMARK SMILES COc1cc2ccccc2cc1C(=O)Nc1cc(C(=O)OCCOCCOCCOC(=O)c2ccc(-c3c4nc(c(-c5cc(S(=O)(=O)[O-])ccc5F)c5ccc([nH]5)c(-c5cc(S(=O)(=O)[O-])ccc5F)c5nc(c(-c6cc(S(=O)(=O)[O-])ccc6F)c6ccc3[nH]6)C=C5)C=C4)cc2)ccc1C
REMARK SMILES IDX 25 1 24 2 23 3 22 4 21 5 19 6 20 7 18 8 16 9 17 10 98 11
REMARK SMILES IDX 97 12 99 13 96 14 15 15 13 16 14 17 12 19 3 20 4 21 5 22
REMARK SMILES IDX 11 23 6 24 10 25 7 26 9 27 8 28 2 29 1 30 26 31 27 32 28 33
REMARK SMILES IDX 29 34 30 35 31 36 32 37 33 38 34 39 95 40 35 41 94 42 36 43
REMARK SMILES IDX 37 44 38 45 88 46 39 47 93 48 87 49 89 50 40 51 92 52 86 53
REMARK SMILES IDX 85 54 41 56 73 57 53 58 72 59 54 60 57 61 71 62 90 63 55 64
REMARK SMILES IDX 56 65 70 67 91 68 58 69 42 70 43 71 51 72 44 73 50 74 52 75
REMARK SMILES IDX 49 76 45 77 46 78 47 79 48 80 74 81 75 82 83 83 76 84 82 85
REMARK SMILES IDX 84 86 81 87 77 88 78 89 79 90 80 91 59 92 60 93 68 94 61 95
REMARK SMILES IDX 67 96 69 97 66 98 62 99 63 100 64 101 65 102
REMARK H PARENT 15 18 89 55 57 66
REMARK Flexibility Score: inf
ROOT
ATOM      1  C   UNL A   1      38.907  23.794  26.150  1.00  0.00     0.188 C 
ENDROOT
BRANCH   1   2
ATOM      2  O   UNL A   1      37.490  23.502  26.385  1.00  0.00    -0.376 OA
BRANCH   2   3
ATOM      3  C   UNL A   1      36.830  22.501  25.568  1.00  0.00     0.202 C 
BRANCH   3   4
ATOM      4  C   UNL A   1      35.550  21.604  26.215  1.00  0.00     0.261 C 
BRANCH   4   5
ATOM      5  O   UNL A   1      34.002  21.347  25.841  1.00  0.00    -0.460 OA
BRANCH   5   6
ATOM      6  C   UNL A   1      32.852  22.036  25.554  1.00  0.00     0.338 C 
ATOM      7  O   UNL A   1      31.876  22.256  26.253  1.00  0.00    -0.246 OA
BRANCH   6   8
ATOM      8  C   UNL A   1      32.543  22.677  24.274  1.00  0.00     0.062 A 
ATOM      9  C   UNL A   1      31.063  24.272  23.259  1.00  0.00     0.045 A 
ATOM     10  C   UNL A   1      31.272  23.197  24.134  1.00  0.00     0.042 A 
ATOM     11  C   UNL A   1      32.086  24.770  22.419  1.00  0.00    -0.027 A 
ATOM     12  C   UNL A   1      33.388  24.316  22.643  1.00  0.00     0.006 A 
ATOM     13  C   UNL A   1      31.897  25.914  21.461  1.00  0.00     0.046 C 
ATOM     14  C   UNL A   1      33.613  23.301  23.574  1.00  0.00     0.016 A 
BRANCH   9  15
ATOM     15  N   UNL A   1      29.824  24.919  23.285  1.00  0.00    -0.322 N 
ATOM     16  C   UNL A   1      29.444  26.021  24.018  1.00  0.00     0.259 C 
ATOM     17  O   UNL A   1      28.253  26.100  24.334  1.00  0.00    -0.269 OA
ATOM     18  H   UNL A   1      29.131  24.536  22.701  1.00  0.00     0.170 HD
BRANCH  16  19
ATOM     19  C   UNL A   1      30.353  27.187  24.326  1.00  0.00     0.082 A 
ATOM     20  C   UNL A   1      30.333  28.454  23.723  1.00  0.00     0.132 A 
ATOM     21  C   UNL A   1      31.152  29.498  24.193  1.00  0.00     0.056 A 
ATOM     22  C   UNL A   1      31.930  29.342  25.345  1.00  0.00    -0.015 A 
ATOM     23  C   UNL A   1      31.165  27.036  25.468  1.00  0.00     0.026 A 
ATOM     24  C   UNL A   1      32.701  30.397  25.858  1.00  0.00     0.009 A 
ATOM     25  C   UNL A   1      31.922  28.098  26.004  1.00  0.00    -0.017 A 
ATOM     26  C   UNL A   1      33.455  30.229  27.017  1.00  0.00     0.001 A 
ATOM     27  C   UNL A   1      32.662  27.956  27.190  1.00  0.00     0.009 A 
ATOM     28  C   UNL A   1      33.423  29.015  27.693  1.00  0.00     0.001 A 
BRANCH  20  29
ATOM     29  O   UNL A   1      29.550  28.752  22.643  1.00  0.00    -0.496 OA
ATOM     30  C   UNL A   1      29.456  30.162  22.452  1.00  0.00     0.278 C 
ENDBRANCH  20  29
ENDBRANCH  16  19
ENDBRANCH   9  15
ENDBRANCH   6   8
ENDBRANCH   5   6
ENDBRANCH   4   5
ENDBRANCH   3   4
ENDBRANCH   2   3
ENDBRANCH   1   2
BRANCH   1  31
ATOM     31  C   UNL A   1      39.762  22.647  26.736  1.00  0.00     0.188 C 
BRANCH  31  32
ATOM     32  O   UNL A   1      41.056  23.207  26.953  1.00  0.00    -0.376 OA
BRANCH  32  33
ATOM     33  C   UNL A   1      42.107  22.796  26.121  1.00  0.00     0.202 C 
BRANCH  33  34
ATOM     34  C   UNL A   1      42.802  23.963  25.408  1.00  0.00     0.261 C 
BRANCH  34  35
ATOM     35  O   UNL A   1      42.127  25.220  25.660  1.00  0.00    -0.460 OA
BRANCH  35  36
ATOM     36  C   UNL A   1      42.881  26.203  26.280  1.00  0.00     0.338 C 
ATOM     37  O   UNL A   1      44.071  26.173  26.366  1.00  0.00    -0.246 OA
BRANCH  36  38
ATOM     38  C   UNL A   1      41.976  27.289  26.819  1.00  0.00     0.060 A 
ATOM     39  C   UNL A   1      42.336  28.594  27.183  1.00  0.00     0.016 A 
ATOM     40  C   UNL A   1      40.735  26.905  27.198  1.00  0.00     0.016 A 
ATOM     41  C   UNL A   1      41.498  29.412  28.061  1.00  0.00     0.010 A 
ATOM     42  C   UNL A   1      40.133  27.622  28.229  1.00  0.00     0.010 A 
ATOM     43  C   UNL A   1      40.368  28.912  28.707  1.00  0.00    -0.014 A 
BRANCH  43  44
ATOM     44  C   UNL A   1      39.444  29.549  29.853  1.00  0.00     0.031 A 
ATOM     45  C   UNL A   1      38.410  30.785  29.831  1.00  0.00     0.074 A 
ATOM     46  C   UNL A   1      39.315  28.806  30.974  1.00  0.00     0.049 A 
ATOM     47  N   UNL A   1      37.161  30.767  30.276  1.00  0.00    -0.248 NA
ATOM     48  C   UNL A   1      38.665  32.120  29.267  1.00  0.00     0.031 C 
ATOM     49  C   UNL A   1      38.456  29.028  32.140  1.00  0.00     0.029 A 
ATOM     50  N   UNL A   1      40.169  27.790  31.375  1.00  0.00    -0.354 N 
ATOM     51  C   UNL A   1      36.539  31.991  29.990  1.00  0.00     0.074 A 
ATOM     52  C   UNL A   1      37.448  32.614  29.058  1.00  0.00     0.031 C 
ATOM     53  C   UNL A   1      39.037  28.456  33.207  1.00  0.00     0.029 A 
ATOM     54  C   UNL A   1      40.316  27.929  32.763  1.00  0.00     0.049 A 
ATOM     55  H   UNL A   1      40.587  27.109  30.801  1.00  0.00     0.167 HD
ATOM     56  C   UNL A   1      35.994  32.841  30.923  1.00  0.00     0.034 A 
ATOM     57  C   UNL A   1      41.535  28.340  33.211  1.00  0.00     0.034 A 
ATOM     58  C   UNL A   1      36.627  32.700  32.234  1.00  0.00     0.049 A 
ATOM     59  C   UNL A   1      41.461  29.770  33.704  1.00  0.00     0.074 A 
ATOM     60  C   UNL A   1      36.236  32.181  33.451  1.00  0.00     0.029 A 
ATOM     61  N   UNL A   1      37.993  33.001  32.366  1.00  0.00    -0.354 N 
ATOM     62  N   UNL A   1      40.556  30.652  33.345  1.00  0.00    -0.248 NA
ATOM     63  C   UNL A   1      42.354  30.262  34.740  1.00  0.00     0.031 C 
ATOM     64  C   UNL A   1      37.392  32.097  34.282  1.00  0.00     0.029 A 
ATOM     65  C   UNL A   1      38.486  32.612  33.599  1.00  0.00     0.049 A 
ATOM     66  H   UNL A   1      38.534  33.434  31.667  1.00  0.00     0.167 HD
ATOM     67  C   UNL A   1      40.699  31.780  34.109  1.00  0.00     0.074 A 
ATOM     68  C   UNL A   1      41.835  31.477  34.971  1.00  0.00     0.031 C 
ATOM     69  C   UNL A   1      39.868  32.869  34.039  1.00  0.00     0.034 A 
BRANCH  56  70
ATOM     70  C   UNL A   1      34.918  33.892  30.546  1.00  0.00     0.023 A 
ATOM     71  C   UNL A   1      34.599  34.951  31.436  1.00  0.00     0.031 A 
ATOM     72  C   UNL A   1      34.131  33.883  29.361  1.00  0.00     0.131 A 
ATOM     73  C   UNL A   1      33.584  35.903  31.132  1.00  0.00     0.055 A 
ATOM     74  C   UNL A   1      33.144  34.838  29.057  1.00  0.00     0.041 A 
ATOM     75  F   UNL A   1      34.258  32.949  28.412  1.00  0.00    -0.206 F 
ATOM     76  C   UNL A   1      32.857  35.850  29.946  1.00  0.00     0.022 A 
BRANCH  73  77
ATOM     77  S   UNL A   1      33.186  37.243  32.300  1.00  0.00     0.124 S 
ATOM     78  O   UNL A   1      31.992  36.737  32.968  1.00  0.00    -0.237 OA
ATOM     79  O   UNL A   1      34.401  37.317  33.103  1.00  0.00    -0.237 OA
ATOM     80  O   UNL A   1      32.955  38.400  31.432  1.00  0.00    -0.744 OA
ENDBRANCH  73  77
ENDBRANCH  56  70
BRANCH  57  81
ATOM     81  C   UNL A   1      42.665  27.651  32.493  1.00  0.00     0.023 A 
ATOM     82  C   UNL A   1      43.175  28.332  31.355  1.00  0.00     0.031 A 
ATOM     83  C   UNL A   1      43.459  26.637  33.034  1.00  0.00     0.131 A 
ATOM     84  C   UNL A   1      44.513  28.190  30.971  1.00  0.00     0.055 A 
ATOM     85  C   UNL A   1      44.762  26.399  32.551  1.00  0.00     0.041 A 
ATOM     86  F   UNL A   1      43.071  25.972  34.132  1.00  0.00    -0.206 F 
ATOM     87  C   UNL A   1      45.315  27.218  31.560  1.00  0.00     0.022 A 
BRANCH  84  88
ATOM     88  S   UNL A   1      45.278  29.498  29.955  1.00  0.00     0.124 S 
ATOM     89  O   UNL A   1      45.551  28.793  28.709  1.00  0.00    -0.237 OA
ATOM     90  O   UNL A   1      44.240  30.526  29.890  1.00  0.00    -0.237 OA
ATOM     91  O   UNL A   1      46.448  29.884  30.740  1.00  0.00    -0.744 OA
ENDBRANCH  84  88
ENDBRANCH  57  81
BRANCH  69  92
ATOM     92  C   UNL A   1      40.253  34.222  34.621  1.00  0.00     0.023 A 
ATOM     93  C   UNL A   1      41.251  35.036  34.057  1.00  0.00     0.031 A 
ATOM     94  C   UNL A   1      39.590  34.781  35.735  1.00  0.00     0.131 A 
ATOM     95  C   UNL A   1      41.686  36.217  34.676  1.00  0.00     0.055 A 
ATOM     96  C   UNL A   1      39.942  36.023  36.286  1.00  0.00     0.041 A 
ATOM     97  F   UNL A   1      38.552  34.163  36.316  1.00  0.00    -0.206 F 
ATOM     98  C   UNL A   1      41.021  36.734  35.780  1.00  0.00     0.022 A 
BRANCH  95  99
ATOM     99  S   UNL A   1      43.209  36.984  34.060  1.00  0.00     0.124 S 
ATOM    100  O   UNL A   1      44.096  36.844  35.213  1.00  0.00    -0.237 OA
ATOM    101  O   UNL A   1      43.538  36.153  32.907  1.00  0.00    -0.237 OA
ATOM    102  O   UNL A   1      42.805  38.352  33.748  1.00  0.00    -0.744 OA
ENDBRANCH  95  99
ENDBRANCH  69  92
ENDBRANCH  43  44
ENDBRANCH  36  38
ENDBRANCH  35  36
ENDBRANCH  34  35
ENDBRANCH  33  34
ENDBRANCH  32  33
ENDBRANCH  31  32
ENDBRANCH   1  31
TORSDOF 23
ENDMDL
MODEL 3
REMARK VINA RESULT:     -11.2      1.240      3.412
REMARK SMILES COc1cc2ccccc2cc1C(=O)Nc1cc(C(=O)OCCOCCOCCOC(=O)c2ccc(-c3c4nc(c(-c5cc(S(=O)(=O)[O-])ccc5F)c5ccc([nH]5)c(-c5cc(S(=O)(=O)[O-])ccc5F)c5nc(c(-c6cc(S(=O)(=O)[O-])ccc6F)c6ccc3[nH]6)C=C5)C=C4)cc2)ccc1C
REMARK SMILES IDX 25 1 24 2 23 3 22 4 21 5 19 6 20 7 18 8 16 9 17 10 98 11
REMARK SMILES IDX 97 12 99 13 96 14 15 15 13 16 14 17 12 19 3 20 4 21 5 22
REMARK SMILES IDX 11 23 6 24 10 25 7 26 9 27 8 28 2 29 1 30 26 31 27 32 28 33
REMARK SMILES IDX 29 34 30 35 31 36 32 37 33 38 34 39 95 40 35 41 94 42 36 43
REMARK SMILES IDX 37 44 38 45 88 46 39 47 93 48 87 49 89 50 40 51 92 52 86 53
REMARK SMILES IDX 85 54 41 56 73 57 53 58 72 59 54 60 57 61 71 62 90 63 55 64
REMARK SMILES IDX 56 65 70 67 91 68 58 69 42 70 43 71 51 72 44 73 50 74 52 75
REMARK SMILES IDX 49 76 45 77 46 78 47 79 48 80 74 81 75 82 83 83 76 84 82 85
REMARK SMILES IDX 84 86 81 87 77 88 78 89 79 90 80 91 59 92 60 93 68 94 61 95
REMARK SMILES IDX 67 96 69 97 66 98 62 99 63 100 64 101 65 102
REMARK H PARENT 15 18 89 55 57 66
REMARK Flexibility Score: inf
ROOT
ATOM      1  C   UNL A   1      33.343  34.178  28.515  1.00  0.00     0.188 C 
ENDROOT
BRANCH   1   2
ATOM      2  O   UNL A   1      34.538  33.488  29.009  1.00  0.00    -0.376 OA
BRANCH   2   3
ATOM      3  C   UNL A   1      34.894  32.200  28.443  1.00  0.00     0.202 C 
BRANCH   3   4
ATOM      4  C   UNL A   1      33.728  31.300  27.611  1.00  0.00     0.261 C 
BRANCH   4   5
ATOM      5  O   UNL A   1      33.597  29.790  27.060  1.00  0.00    -0.460 OA
BRANCH   5   6
ATOM      6  C   UNL A   1      32.922  29.060  26.116  1.00  0.00     0.338 C 
ATOM      7  O   UNL A   1      32.399  29.421  25.074  1.00  0.00    -0.246 OA
BRANCH   6   8
ATOM      8  C   UNL A   1      32.673  27.618  26.174  1.00  0.00     0.062 A 
ATOM      9  C   UNL A   1      31.306  25.888  25.226  1.00  0.00     0.045 A 
ATOM     10  C   UNL A   1      31.437  27.186  25.739  1.00  0.00     0.042 A 
ATOM     11  C   UNL A   1      32.371  24.957  25.247  1.00  0.00    -0.027 A 
ATOM     12  C   UNL A   1      33.640  25.432  25.586  1.00  0.00     0.006 A 
ATOM     13  C   UNL A   1      32.265  23.554  24.715  1.00  0.00     0.046 C 
ATOM     14  C   UNL A   1      33.790  26.749  26.020  1.00  0.00     0.016 A 
BRANCH   9  15
ATOM     15  N   UNL A   1      30.106  25.539  24.598  1.00  0.00    -0.322 N 
ATOM     16  C   UNL A   1      29.118  26.365  24.110  1.00  0.00     0.259 C 
ATOM     17  O   UNL A   1      27.965  25.923  24.114  1.00  0.00    -0.269 OA
ATOM     18  H   UNL A   1      29.947  24.574  24.492  1.00  0.00     0.170 HD
BRANCH  16  19
ATOM     19  C   UNL A   1      29.380  27.697  23.448  1.00  0.00     0.082 A 
ATOM     20  C   UNL A   1      30.239  27.947  22.366  1.00  0.00     0.132 A 
ATOM     21  C   UNL A   1      30.295  29.215  21.759  1.00  0.00     0.056 A 
ATOM     22  C   UNL A   1      29.418  30.237  22.138  1.00  0.00    -0.015 A 
ATOM     23  C   UNL A   1      28.523  28.746  23.840  1.00  0.00     0.026 A 
ATOM     24  C   UNL A   1      29.422  31.485  21.494  1.00  0.00     0.009 A 
ATOM     25  C   UNL A   1      28.505  29.993  23.181  1.00  0.00    -0.017 A 
ATOM     26  C   UNL A   1      28.529  32.484  21.873  1.00  0.00     0.001 A 
ATOM     27  C   UNL A   1      27.589  31.000  23.528  1.00  0.00     0.009 A 
ATOM     28  C   UNL A   1      27.601  32.237  22.878  1.00  0.00     0.001 A 
BRANCH  20  29
ATOM     29  O   UNL A   1      31.082  27.003  21.852  1.00  0.00    -0.496 OA
ATOM     30  C   UNL A   1      32.437  27.282  22.198  1.00  0.00     0.278 C 
ENDBRANCH  20  29
ENDBRANCH  16  19
ENDBRANCH   9  15
ENDBRANCH   6   8
ENDBRANCH   5   6
ENDBRANCH   4   5
ENDBRANCH   3   4
ENDBRANCH   2   3
ENDBRANCH   1   2
BRANCH   1  31
ATOM     31  C   UNL A   1      33.384  35.652  28.981  1.00  0.00     0.188 C 
BRANCH  31  32
ATOM     32  O   UNL A   1      32.479  35.729  30.082  1.00  0.00    -0.376 OA
BRANCH  32  33
ATOM     33  C   UNL A   1      32.873  36.452  31.218  1.00  0.00     0.202 C 
BRANCH  33  34
ATOM     34  C   UNL A   1      32.541  35.733  32.532  1.00  0.00     0.261 C 
BRANCH  34  35
ATOM     35  O   UNL A   1      33.739  35.297  33.220  1.00  0.00    -0.460 OA
BRANCH  35  36
ATOM     36  C   UNL A   1      34.088  33.966  33.050  1.00  0.00     0.338 C 
ATOM     37  O   UNL A   1      33.304  33.066  33.062  1.00  0.00    -0.246 OA
BRANCH  36  38
ATOM     38  C   UNL A   1      35.584  33.843  32.856  1.00  0.00     0.060 A 
ATOM     39  C   UNL A   1      36.347  34.341  31.790  1.00  0.00     0.016 A 
ATOM     40  C   UNL A   1      36.227  32.979  33.675  1.00  0.00     0.016 A 
ATOM     41  C   UNL A   1      37.683  33.825  31.489  1.00  0.00     0.010 A 
ATOM     42  C   UNL A   1      37.368  32.357  33.174  1.00  0.00     0.010 A 
ATOM     43  C   UNL A   1      38.230  32.719  32.138  1.00  0.00    -0.014 A 
BRANCH  43  44
ATOM     44  C   UNL A   1      39.555  31.868  31.831  1.00  0.00     0.031 A 
ATOM     45  C   UNL A   1      39.812  30.593  30.879  1.00  0.00     0.074 A 
ATOM     46  C   UNL A   1      40.713  32.430  32.241  1.00  0.00     0.049 A 
ATOM     47  N   UNL A   1      40.772  30.475  29.972  1.00  0.00    -0.248 NA
ATOM     48  C   UNL A   1      38.992  29.372  30.824  1.00  0.00     0.031 C 
ATOM     49  C   UNL A   1      42.090  31.991  32.008  1.00  0.00     0.029 A 
ATOM     50  N   UNL A   1      40.836  33.423  33.202  1.00  0.00    -0.354 N 
ATOM     51  C   UNL A   1      40.612  29.273  29.267  1.00  0.00     0.074 A 
ATOM     52  C   UNL A   1      39.285  28.846  29.638  1.00  0.00     0.031 C 
ATOM     53  C   UNL A   1      42.851  32.432  33.022  1.00  0.00     0.029 A 
ATOM     54  C   UNL A   1      41.964  33.089  33.965  1.00  0.00     0.049 A 
ATOM     55  H   UNL A   1      40.249  34.203  33.323  1.00  0.00     0.167 HD
ATOM     56  C   UNL A   1      41.546  28.266  29.195  1.00  0.00     0.034 A 
ATOM     57  C   UNL A   1      41.738  32.686  35.247  1.00  0.00     0.034 A 
ATOM     58  C   UNL A   1      42.429  28.248  30.360  1.00  0.00     0.049 A 
ATOM     59  C   UNL A   1      41.980  31.197  35.381  1.00  0.00     0.074 A 
ATOM     60  C   UNL A   1      43.755  28.558  30.578  1.00  0.00     0.029 A 
ATOM     61  N   UNL A   1      41.877  28.008  31.630  1.00  0.00    -0.354 N 
ATOM     62  N   UNL A   1      41.939  30.328  34.398  1.00  0.00    -0.248 NA
ATOM     63  C   UNL A   1      42.405  30.609  36.641  1.00  0.00     0.031 C 
ATOM     64  C   UNL A   1      43.971  28.585  31.988  1.00  0.00     0.029 A 
ATOM     65  C   UNL A   1      42.795  28.238  32.640  1.00  0.00     0.049 A 
ATOM     66  H   UNL A   1      40.951  27.714  31.783  1.00  0.00     0.167 HD
ATOM     67  C   UNL A   1      42.366  29.110  34.854  1.00  0.00     0.074 A 
ATOM     68  C   UNL A   1      42.653  29.346  36.264  1.00  0.00     0.031 C 
ATOM     69  C   UNL A   1      42.512  27.998  34.064  1.00  0.00     0.034 A 
BRANCH  56  70
ATOM     70  C   UNL A   1      41.539  27.223  28.047  1.00  0.00     0.023 A 
ATOM     71  C   UNL A   1      41.970  25.891  28.280  1.00  0.00     0.031 A 
ATOM     72  C   UNL A   1      41.178  27.481  26.696  1.00  0.00     0.131 A 
ATOM     73  C   UNL A   1      42.015  24.926  27.233  1.00  0.00     0.055 A 
ATOM     74  C   UNL A   1      41.205  26.518  25.670  1.00  0.00     0.041 A 
ATOM     75  F   UNL A   1      40.775  28.682  26.268  1.00  0.00    -0.206 F 
ATOM     76  C   UNL A   1      41.634  25.235  25.930  1.00  0.00     0.022 A 
BRANCH  73  77
ATOM     77  S   UNL A   1      42.587  23.227  27.557  1.00  0.00     0.124 S 
ATOM     78  O   UNL A   1      44.012  23.310  27.259  1.00  0.00    -0.237 OA
ATOM     79  O   UNL A   1      42.223  23.047  28.958  1.00  0.00    -0.237 OA
ATOM     80  O   UNL A   1      41.812  22.417  26.615  1.00  0.00    -0.744 OA
ENDBRANCH  73  77
ENDBRANCH  56  70
BRANCH  57  81
ATOM     81  C   UNL A   1      40.703  33.536  35.935  1.00  0.00     0.023 A 
ATOM     82  C   UNL A   1      39.491  32.875  36.271  1.00  0.00     0.031 A 
ATOM     83  C   UNL A   1      40.959  34.754  36.569  1.00  0.00     0.131 A 
ATOM     84  C   UNL A   1      38.735  33.276  37.377  1.00  0.00     0.055 A 
ATOM     85  C   UNL A   1      40.114  35.231  37.593  1.00  0.00     0.041 A 
ATOM     86  F   UNL A   1      42.098  35.423  36.339  1.00  0.00    -0.206 F 
ATOM     87  C   UNL A   1      39.035  34.461  38.042  1.00  0.00     0.022 A 
BRANCH  84  88
ATOM     88  S   UNL A   1      37.588  32.079  38.139  1.00  0.00     0.124 S 
ATOM     89  O   UNL A   1      37.702  30.937  37.240  1.00  0.00    -0.237 OA
ATOM     90  O   UNL A   1      38.139  31.890  39.480  1.00  0.00    -0.237 OA
ATOM     91  O   UNL A   1      36.310  32.785  38.116  1.00  0.00    -0.744 OA
ENDBRANCH  84  88
ENDBRANCH  57  81
BRANCH  69  92
ATOM     92  C   UNL A   1      42.636  26.597  34.650  1.00  0.00     0.023 A 
ATOM     93  C   UNL A   1      43.645  25.698  34.260  1.00  0.00     0.031 A 
ATOM     94  C   UNL A   1      41.782  26.127  35.670  1.00  0.00     0.131 A 
ATOM     95  C   UNL A   1      43.671  24.369  34.710  1.00  0.00     0.055 A 
ATOM     96  C   UNL A   1      41.881  24.836  36.211  1.00  0.00     0.041 A 
ATOM     97  F   UNL A   1      40.836  26.910  36.209  1.00  0.00    -0.206 F 
ATOM     98  C   UNL A   1      42.806  23.933  35.705  1.00  0.00     0.022 A 
BRANCH  95  99
ATOM     99  S   UNL A   1      44.787  23.214  33.871  1.00  0.00     0.124 S 
ATOM    100  O   UNL A   1      44.257  23.229  32.509  1.00  0.00    -0.237 OA
ATOM    101  O   UNL A   1      46.090  23.847  34.047  1.00  0.00    -0.237 OA
ATOM    102  O   UNL A   1      44.599  21.962  34.598  1.00  0.00    -0.744 OA
ENDBRANCH  95  99
ENDBRANCH  69  92
ENDBRANCH  43  44
ENDBRANCH  36  38
ENDBRANCH  35  36
ENDBRANCH  34  35
ENDBRANCH  33  34
ENDBRANCH  32  33
ENDBRANCH  31  32
ENDBRANCH   1  31
TORSDOF 23
ENDMDL
