MODEL 1
REMARK VINA RESULT:     -10.9      0.000      0.000
REMARK SMILES Cn1ccc(S(=O)(=O)N2[C@@H](C(=O)OCCOCCOCCOC(=O)c3ccc(-c4c5nc(c(-c6cc(S(=O)(=O)[O-])ccc6F)c6ccc([nH]6)c(-c6cc(S(=O)(=O)[O-])ccc6F)c6nc(c(-c7cc(S(=O)(=O)[O-])ccc7F)c7ccc4[nH]7)C=C6)C=C5)cc3)C[C@H]3CCCC[C@H]32)c1
REMARK SMILES IDX 18 1 17 2 16 3 15 4 14 5 13 6 11 7 12 8 10 9 9 10 94 11
REMARK SMILES IDX 88 12 89 13 93 14 90 15 92 16 91 17 6 18 7 19 8 20 5 21 1 22
REMARK SMILES IDX 2 23 3 24 95 25 4 26 19 27 20 28 21 29 22 30 23 31 24 32
REMARK SMILES IDX 25 33 26 34 87 35 27 36 86 37 28 38 29 39 30 40 80 41 31 42
REMARK SMILES IDX 85 43 79 44 81 45 32 46 84 47 78 48 77 49 33 51 65 52 45 53
REMARK SMILES IDX 64 54 46 55 49 56 63 57 82 58 47 59 48 60 62 62 83 63 50 64
REMARK SMILES IDX 34 65 35 66 43 67 36 68 42 69 44 70 41 71 37 72 38 73 39 74
REMARK SMILES IDX 40 75 66 76 67 77 75 78 68 79 74 80 76 81 73 82 69 83 70 84
REMARK SMILES IDX 71 85 72 86 51 87 52 88 60 89 53 90 59 91 61 92 58 93 54 94
REMARK SMILES IDX 55 95 56 96 57 97
REMARK H PARENT 81 50 49 61
REMARK Flexibility Score: inf
ROOT
ATOM      1  C   UNL A   1      32.475  30.109  25.766  1.00  0.00     0.188 C 
ENDROOT
BRANCH   1   2
ATOM      2  C   UNL A   1      33.048  28.710  26.032  1.00  0.00     0.188 C 
BRANCH   2   3
ATOM      3  O   UNL A   1      32.237  27.771  26.735  1.00  0.00    -0.376 OA
BRANCH   3   4
ATOM      4  C   UNL A   1      31.016  27.353  26.137  1.00  0.00     0.202 C 
BRANCH   4   5
ATOM      5  C   UNL A   1      30.882  25.850  25.900  1.00  0.00     0.261 C 
BRANCH   5   6
ATOM      6  O   UNL A   1      31.509  25.074  26.937  1.00  0.00    -0.462 OA
BRANCH   6   7
ATOM      7  C   UNL A   1      32.103  23.921  26.544  1.00  0.00     0.324 C 
ATOM      8  O   UNL A   1      31.726  22.798  26.863  1.00  0.00    -0.250 OA
BRANCH   7   9
ATOM      9  C   UNL A   1      33.265  24.129  25.602  1.00  0.00     0.183 C 
ATOM     10  N   UNL A   1      33.483  23.209  24.445  1.00  0.00    -0.180 NA
ATOM     11  C   UNL A   1      34.949  23.105  24.172  1.00  0.00     0.077 C 
ATOM     12  C   UNL A   1      34.615  24.090  26.331  1.00  0.00     0.037 C 
ATOM     13  C   UNL A   1      35.594  24.092  25.160  1.00  0.00     0.009 C 
ATOM     14  C   UNL A   1      35.371  21.647  24.387  1.00  0.00     0.020 C 
ATOM     15  C   UNL A   1      37.053  23.814  25.508  1.00  0.00     0.005 C 
ATOM     16  C   UNL A   1      36.880  21.498  24.518  1.00  0.00     0.002 C 
ATOM     17  C   UNL A   1      37.400  22.340  25.671  1.00  0.00     0.000 C 
BRANCH  10  18
ATOM     18  S   UNL A   1      32.432  23.377  23.130  1.00  0.00     0.245 S 
ATOM     19  O   UNL A   1      31.083  23.148  23.601  1.00  0.00    -0.207 OA
ATOM     20  O   UNL A   1      32.974  22.671  21.991  1.00  0.00    -0.207 OA
BRANCH  18  21
ATOM     21  C   UNL A   1      32.407  25.042  22.641  1.00  0.00     0.100 A 
ATOM     22  C   UNL A   1      33.805  28.362  22.482  1.00  0.00     0.149 C 
ATOM     23  N   UNL A   1      33.002  27.162  22.380  1.00  0.00    -0.356 N 
ATOM     24  C   UNL A   1      31.634  27.130  22.310  1.00  0.00     0.086 A 
ATOM     25  C   UNL A   1      33.488  25.883  22.460  1.00  0.00     0.106 A 
ATOM     26  C   UNL A   1      31.232  25.821  22.473  1.00  0.00     0.041 A 
ENDBRANCH  18  21
ENDBRANCH  10  18
ENDBRANCH   7   9
ENDBRANCH   6   7
ENDBRANCH   5   6
ENDBRANCH   4   5
ENDBRANCH   3   4
ENDBRANCH   2   3
ENDBRANCH   1   2
BRANCH   1  27
ATOM     27  O   UNL A   1      31.910  30.675  26.946  1.00  0.00    -0.376 OA
BRANCH  27  28
ATOM     28  C   UNL A   1      31.272  31.932  26.735  1.00  0.00     0.202 C 
BRANCH  28  29
ATOM     29  C   UNL A   1      32.298  33.066  26.826  1.00  0.00     0.261 C 
BRANCH  29  30
ATOM     30  O   UNL A   1      32.240  33.804  28.061  1.00  0.00    -0.460 OA
BRANCH  30  31
ATOM     31  C   UNL A   1      33.339  34.535  28.343  1.00  0.00     0.338 C 
ATOM     32  O   UNL A   1      33.393  35.742  28.506  1.00  0.00    -0.246 OA
BRANCH  31  33
ATOM     33  C   UNL A   1      34.474  33.630  28.580  1.00  0.00     0.060 A 
ATOM     34  C   UNL A   1      34.210  32.376  29.133  1.00  0.00     0.016 A 
ATOM     35  C   UNL A   1      35.786  34.052  28.377  1.00  0.00     0.016 A 
ATOM     36  C   UNL A   1      35.253  31.568  29.577  1.00  0.00     0.010 A 
ATOM     37  C   UNL A   1      36.837  33.226  28.793  1.00  0.00     0.010 A 
ATOM     38  C   UNL A   1      36.576  32.002  29.440  1.00  0.00    -0.014 A 
BRANCH  38  39
ATOM     39  C   UNL A   1      37.674  31.259  30.113  1.00  0.00     0.031 A 
ATOM     40  C   UNL A   1      37.961  31.550  31.562  1.00  0.00     0.074 A 
ATOM     41  C   UNL A   1      38.375  30.309  29.469  1.00  0.00     0.049 A 
ATOM     42  N   UNL A   1      38.965  31.167  32.306  1.00  0.00    -0.248 NA
ATOM     43  C   UNL A   1      36.979  32.395  32.262  1.00  0.00     0.031 C 
ATOM     44  C   UNL A   1      38.134  29.861  28.097  1.00  0.00     0.029 A 
ATOM     45  N   UNL A   1      39.439  29.549  29.886  1.00  0.00    -0.354 N 
ATOM     46  C   UNL A   1      38.760  31.756  33.550  1.00  0.00     0.074 A 
ATOM     47  C   UNL A   1      37.541  32.531  33.453  1.00  0.00     0.031 C 
ATOM     48  C   UNL A   1      39.024  28.904  27.788  1.00  0.00     0.029 A 
ATOM     49  C   UNL A   1      39.942  28.721  28.910  1.00  0.00     0.049 A 
ATOM     50  H   UNL A   1      39.807  29.593  30.798  1.00  0.00     0.167 HD
ATOM     51  C   UNL A   1      39.521  31.661  34.669  1.00  0.00     0.034 A 
ATOM     52  C   UNL A   1      41.044  27.944  28.906  1.00  0.00     0.034 A 
ATOM     53  C   UNL A   1      40.723  30.870  34.755  1.00  0.00     0.049 A 
ATOM     54  C   UNL A   1      41.923  27.915  30.133  1.00  0.00     0.074 A 
ATOM     55  C   UNL A   1      41.591  30.727  35.824  1.00  0.00     0.029 A 
ATOM     56  N   UNL A   1      41.225  30.078  33.730  1.00  0.00    -0.354 N 
ATOM     57  N   UNL A   1      41.770  28.545  31.276  1.00  0.00    -0.248 NA
ATOM     58  C   UNL A   1      43.128  27.078  30.064  1.00  0.00     0.031 C 
ATOM     59  C   UNL A   1      42.642  29.890  35.428  1.00  0.00     0.029 A 
ATOM     60  C   UNL A   1      42.396  29.457  34.135  1.00  0.00     0.049 A 
ATOM     61  H   UNL A   1      40.809  29.972  32.844  1.00  0.00     0.167 HD
ATOM     62  C   UNL A   1      42.849  28.160  32.068  1.00  0.00     0.074 A 
ATOM     63  C   UNL A   1      43.634  27.233  31.279  1.00  0.00     0.031 C 
ATOM     64  C   UNL A   1      43.167  28.538  33.332  1.00  0.00     0.034 A 
BRANCH  51  65
ATOM     65  C   UNL A   1      39.103  32.492  35.856  1.00  0.00     0.023 A 
ATOM     66  C   UNL A   1      39.514  33.827  36.013  1.00  0.00     0.031 A 
ATOM     67  C   UNL A   1      38.322  31.918  36.876  1.00  0.00     0.131 A 
ATOM     68  C   UNL A   1      39.207  34.519  37.195  1.00  0.00     0.055 A 
ATOM     69  C   UNL A   1      37.954  32.638  38.014  1.00  0.00     0.041 A 
ATOM     70  F   UNL A   1      37.921  30.640  36.791  1.00  0.00    -0.206 F 
ATOM     71  C   UNL A   1      38.410  33.941  38.186  1.00  0.00     0.022 A 
BRANCH  68  72
ATOM     72  S   UNL A   1      39.985  36.132  37.482  1.00  0.00     0.124 S 
ATOM     73  O   UNL A   1      39.054  36.744  38.428  1.00  0.00    -0.237 OA
ATOM     74  O   UNL A   1      41.290  35.763  38.017  1.00  0.00    -0.237 OA
ATOM     75  O   UNL A   1      40.003  36.744  36.154  1.00  0.00    -0.744 OA
ENDBRANCH  68  72
ENDBRANCH  51  65
BRANCH  52  76
ATOM     76  C   UNL A   1      41.431  27.182  27.683  1.00  0.00     0.023 A 
ATOM     77  C   UNL A   1      41.385  25.780  27.656  1.00  0.00     0.031 A 
ATOM     78  C   UNL A   1      41.917  27.848  26.544  1.00  0.00     0.131 A 
ATOM     79  C   UNL A   1      41.859  25.086  26.531  1.00  0.00     0.055 A 
ATOM     80  C   UNL A   1      42.337  27.156  25.406  1.00  0.00     0.041 A 
ATOM     81  F   UNL A   1      41.985  29.189  26.518  1.00  0.00    -0.206 F 
ATOM     82  C   UNL A   1      42.322  25.766  25.402  1.00  0.00     0.022 A 
BRANCH  79  83
ATOM     83  S   UNL A   1      41.939  23.275  26.598  1.00  0.00     0.124 S 
ATOM     84  O   UNL A   1      42.386  22.947  25.249  1.00  0.00    -0.237 OA
ATOM     85  O   UNL A   1      42.911  23.056  27.666  1.00  0.00    -0.237 OA
ATOM     86  O   UNL A   1      40.568  22.885  26.917  1.00  0.00    -0.744 OA
ENDBRANCH  79  83
ENDBRANCH  52  76
BRANCH  64  87
ATOM     87  C   UNL A   1      44.385  27.900  33.950  1.00  0.00     0.023 A 
ATOM     88  C   UNL A   1      44.286  26.792  34.809  1.00  0.00     0.031 A 
ATOM     89  C   UNL A   1      45.664  28.422  33.685  1.00  0.00     0.131 A 
ATOM     90  C   UNL A   1      45.441  26.276  35.417  1.00  0.00     0.055 A 
ATOM     91  C   UNL A   1      46.814  27.871  34.250  1.00  0.00     0.041 A 
ATOM     92  F   UNL A   1      45.815  29.479  32.871  1.00  0.00    -0.206 F 
ATOM     93  C   UNL A   1      46.705  26.799  35.133  1.00  0.00     0.022 A 
BRANCH  90  94
ATOM     94  S   UNL A   1      45.260  24.961  36.654  1.00  0.00     0.124 S 
ATOM     95  O   UNL A   1      45.808  23.805  35.953  1.00  0.00    -0.237 OA
ATOM     96  O   UNL A   1      46.055  25.468  37.768  1.00  0.00    -0.237 OA
ATOM     97  O   UNL A   1      43.819  24.913  36.895  1.00  0.00    -0.744 OA
ENDBRANCH  90  94
ENDBRANCH  64  87
ENDBRANCH  38  39
ENDBRANCH  31  33
ENDBRANCH  30  31
ENDBRANCH  29  30
ENDBRANCH  28  29
ENDBRANCH  27  28
ENDBRANCH   1  27
TORSDOF 22
ENDMDL
MODEL 2
REMARK VINA RESULT:     -10.4      5.630      9.164
REMARK SMILES Cn1ccc(S(=O)(=O)N2[C@@H](C(=O)OCCOCCOCCOC(=O)c3ccc(-c4c5nc(c(-c6cc(S(=O)(=O)[O-])ccc6F)c6ccc([nH]6)c(-c6cc(S(=O)(=O)[O-])ccc6F)c6nc(c(-c7cc(S(=O)(=O)[O-])ccc7F)c7ccc4[nH]7)C=C6)C=C5)cc3)C[C@H]3CCCC[C@H]32)c1
REMARK SMILES IDX 18 1 17 2 16 3 15 4 14 5 13 6 11 7 12 8 10 9 9 10 94 11
REMARK SMILES IDX 88 12 89 13 93 14 90 15 92 16 91 17 6 18 7 19 8 20 5 21 1 22
REMARK SMILES IDX 2 23 3 24 95 25 4 26 19 27 20 28 21 29 22 30 23 31 24 32
REMARK SMILES IDX 25 33 26 34 87 35 27 36 86 37 28 38 29 39 30 40 80 41 31 42
REMARK SMILES IDX 85 43 79 44 81 45 32 46 84 47 78 48 77 49 33 51 65 52 45 53
REMARK SMILES IDX 64 54 46 55 49 56 63 57 82 58 47 59 48 60 62 62 83 63 50 64
REMARK SMILES IDX 34 65 35 66 43 67 36 68 42 69 44 70 41 71 37 72 38 73 39 74
REMARK SMILES IDX 40 75 66 76 67 77 75 78 68 79 74 80 76 81 73 82 69 83 70 84
REMARK SMILES IDX 71 85 72 86 51 87 52 88 60 89 53 90 59 91 61 92 58 93 54 94
REMARK SMILES IDX 55 95 56 96 57 97
REMARK H PARENT 81 50 49 61
REMARK Flexibility Score: inf
ROOT
ATOM      1  C   UNL A   1      37.794  23.704  25.637  1.00  0.00     0.188 C 
ENDROOT
BRANCH   1   2
ATOM      2  C   UNL A   1      36.352  23.660  25.110  1.00  0.00     0.188 C 
BRANCH   2   3
ATOM      3  O   UNL A   1      35.287  23.837  26.042  1.00  0.00    -0.376 OA
BRANCH   3   4
ATOM      4  C   UNL A   1      34.525  22.697  26.421  1.00  0.00     0.202 C 
BRANCH   4   5
ATOM      5  C   UNL A   1      33.307  22.403  25.548  1.00  0.00     0.261 C 
BRANCH   5   6
ATOM      6  O   UNL A   1      32.757  23.594  24.957  1.00  0.00    -0.462 OA
BRANCH   6   7
ATOM      7  C   UNL A   1      31.493  23.917  25.328  1.00  0.00     0.324 C 
ATOM      8  O   UNL A   1      30.613  23.102  25.588  1.00  0.00    -0.250 OA
BRANCH   7   9
ATOM      9  C   UNL A   1      31.263  25.403  25.462  1.00  0.00     0.183 C 
ATOM     10  N   UNL A   1      31.821  26.356  24.455  1.00  0.00    -0.180 NA
ATOM     11  C   UNL A   1      32.144  27.649  25.131  1.00  0.00     0.077 C 
ATOM     12  C   UNL A   1      31.798  25.954  26.790  1.00  0.00     0.037 C 
ATOM     13  C   UNL A   1      31.653  27.459  26.577  1.00  0.00     0.009 C 
ATOM     14  C   UNL A   1      33.654  27.883  25.015  1.00  0.00     0.020 C 
ATOM     15  C   UNL A   1      32.320  28.349  27.620  1.00  0.00     0.005 C 
ATOM     16  C   UNL A   1      34.148  28.948  25.985  1.00  0.00     0.002 C 
ATOM     17  C   UNL A   1      33.814  28.561  27.415  1.00  0.00     0.000 C 
BRANCH  10  18
ATOM     18  S   UNL A   1      31.054  26.407  22.948  1.00  0.00     0.245 S 
ATOM     19  O   UNL A   1      29.923  25.506  22.988  1.00  0.00    -0.207 OA
ATOM     20  O   UNL A   1      32.050  26.337  21.902  1.00  0.00    -0.207 OA
BRANCH  18  21
ATOM     21  C   UNL A   1      30.317  27.965  22.747  1.00  0.00     0.100 A 
ATOM     22  C   UNL A   1      27.467  30.161  22.516  1.00  0.00     0.149 C 
ATOM     23  N   UNL A   1      28.778  29.550  22.558  1.00  0.00    -0.356 N 
ATOM     24  C   UNL A   1      29.877  29.991  21.870  1.00  0.00     0.086 A 
ATOM     25  C   UNL A   1      29.076  28.374  23.195  1.00  0.00     0.106 A 
ATOM     26  C   UNL A   1      30.854  29.022  21.966  1.00  0.00     0.041 A 
ENDBRANCH  18  21
ENDBRANCH  10  18
ENDBRANCH   7   9
ENDBRANCH   6   7
ENDBRANCH   5   6
ENDBRANCH   4   5
ENDBRANCH   3   4
ENDBRANCH   2   3
ENDBRANCH   1   2
BRANCH   1  27
ATOM     27  O   UNL A   1      38.234  22.415  26.062  1.00  0.00    -0.376 OA
BRANCH  27  28
ATOM     28  C   UNL A   1      37.983  21.380  25.116  1.00  0.00     0.202 C 
BRANCH  28  29
ATOM     29  C   UNL A   1      38.802  20.134  25.468  1.00  0.00     0.261 C 
BRANCH  29  30
ATOM     30  O   UNL A   1      39.731  20.337  26.549  1.00  0.00    -0.460 OA
BRANCH  30  31
ATOM     31  C   UNL A   1      40.992  19.918  26.307  1.00  0.00     0.338 C 
ATOM     32  O   UNL A   1      41.328  18.845  25.839  1.00  0.00    -0.246 OA
BRANCH  31  33
ATOM     33  C   UNL A   1      41.925  21.027  26.557  1.00  0.00     0.060 A 
ATOM     34  C   UNL A   1      42.246  21.330  27.881  1.00  0.00     0.016 A 
ATOM     35  C   UNL A   1      42.382  21.833  25.517  1.00  0.00     0.016 A 
ATOM     36  C   UNL A   1      42.946  22.493  28.189  1.00  0.00     0.010 A 
ATOM     37  C   UNL A   1      43.114  22.986  25.822  1.00  0.00     0.010 A 
ATOM     38  C   UNL A   1      43.358  23.349  27.162  1.00  0.00    -0.014 A 
BRANCH  38  39
ATOM     39  C   UNL A   1      43.898  24.695  27.489  1.00  0.00     0.031 A 
ATOM     40  C   UNL A   1      42.946  25.757  27.972  1.00  0.00     0.074 A 
ATOM     41  C   UNL A   1      45.214  24.961  27.407  1.00  0.00     0.049 A 
ATOM     42  N   UNL A   1      43.145  27.037  28.148  1.00  0.00    -0.248 NA
ATOM     43  C   UNL A   1      41.582  25.308  28.294  1.00  0.00     0.031 C 
ATOM     44  C   UNL A   1      46.253  23.997  27.048  1.00  0.00     0.029 A 
ATOM     45  N   UNL A   1      45.901  26.131  27.618  1.00  0.00    -0.354 N 
ATOM     46  C   UNL A   1      41.922  27.556  28.561  1.00  0.00     0.074 A 
ATOM     47  C   UNL A   1      40.987  26.452  28.597  1.00  0.00     0.031 C 
ATOM     48  C   UNL A   1      47.447  24.614  27.066  1.00  0.00     0.029 A 
ATOM     49  C   UNL A   1      47.250  26.031  27.365  1.00  0.00     0.049 A 
ATOM     50  H   UNL A   1      45.470  26.962  27.921  1.00  0.00     0.167 HD
ATOM     51  C   UNL A   1      41.609  28.838  28.879  1.00  0.00     0.034 A 
ATOM     52  C   UNL A   1      48.205  26.981  27.332  1.00  0.00     0.034 A 
ATOM     53  C   UNL A   1      42.557  29.923  28.855  1.00  0.00     0.049 A 
ATOM     54  C   UNL A   1      47.820  28.415  27.607  1.00  0.00     0.074 A 
ATOM     55  C   UNL A   1      42.344  31.264  29.123  1.00  0.00     0.029 A 
ATOM     56  N   UNL A   1      43.906  29.790  28.552  1.00  0.00    -0.354 N 
ATOM     57  N   UNL A   1      46.642  28.912  27.912  1.00  0.00    -0.248 NA
ATOM     58  C   UNL A   1      48.892  29.415  27.525  1.00  0.00     0.031 C 
ATOM     59  C   UNL A   1      43.552  31.948  28.932  1.00  0.00     0.029 A 
ATOM     60  C   UNL A   1      44.533  31.024  28.611  1.00  0.00     0.049 A 
ATOM     61  H   UNL A   1      44.352  28.941  28.328  1.00  0.00     0.167 HD
ATOM     62  C   UNL A   1      46.841  30.281  28.078  1.00  0.00     0.074 A 
ATOM     63  C   UNL A   1      48.251  30.526  27.858  1.00  0.00     0.031 C 
ATOM     64  C   UNL A   1      45.941  31.249  28.384  1.00  0.00     0.034 A 
BRANCH  51  65
ATOM     65  C   UNL A   1      40.166  29.130  29.206  1.00  0.00     0.023 A 
ATOM     66  C   UNL A   1      39.707  29.230  30.531  1.00  0.00     0.031 A 
ATOM     67  C   UNL A   1      39.223  29.258  28.170  1.00  0.00     0.131 A 
ATOM     68  C   UNL A   1      38.335  29.375  30.786  1.00  0.00     0.055 A 
ATOM     69  C   UNL A   1      37.869  29.481  28.430  1.00  0.00     0.041 A 
ATOM     70  F   UNL A   1      39.599  29.148  26.886  1.00  0.00    -0.206 F 
ATOM     71  C   UNL A   1      37.416  29.525  29.744  1.00  0.00     0.022 A 
BRANCH  68  72
ATOM     72  S   UNL A   1      37.751  29.221  32.496  1.00  0.00     0.124 S 
ATOM     73  O   UNL A   1      37.817  27.776  32.701  1.00  0.00    -0.237 OA
ATOM     74  O   UNL A   1      38.723  30.017  33.236  1.00  0.00    -0.237 OA
ATOM     75  O   UNL A   1      36.398  29.774  32.447  1.00  0.00    -0.744 OA
ENDBRANCH  68  72
ENDBRANCH  51  65
BRANCH  52  76
ATOM     76  C   UNL A   1      49.606  26.636  26.953  1.00  0.00     0.023 A 
ATOM     77  C   UNL A   1      50.638  26.644  27.905  1.00  0.00     0.031 A 
ATOM     78  C   UNL A   1      49.944  26.358  25.617  1.00  0.00     0.131 A 
ATOM     79  C   UNL A   1      51.964  26.422  27.500  1.00  0.00     0.055 A 
ATOM     80  C   UNL A   1      51.256  26.085  25.228  1.00  0.00     0.041 A 
ATOM     81  F   UNL A   1      48.996  26.341  24.666  1.00  0.00    -0.206 F 
ATOM     82  C   UNL A   1      52.278  26.131  26.171  1.00  0.00     0.022 A 
BRANCH  79  83
ATOM     83  S   UNL A   1      53.288  26.606  28.727  1.00  0.00     0.124 S 
ATOM     84  O   UNL A   1      54.315  25.719  28.191  1.00  0.00    -0.237 OA
ATOM     85  O   UNL A   1      53.573  28.036  28.652  1.00  0.00    -0.237 OA
ATOM     86  O   UNL A   1      52.663  26.162  29.970  1.00  0.00    -0.744 OA
ENDBRANCH  79  83
ENDBRANCH  52  76
BRANCH  64  87
ATOM     87  C   UNL A   1      46.475  32.649  28.551  1.00  0.00     0.023 A 
ATOM     88  C   UNL A   1      46.723  33.484  27.449  1.00  0.00     0.031 A 
ATOM     89  C   UNL A   1      46.757  33.147  29.837  1.00  0.00     0.131 A 
ATOM     90  C   UNL A   1      47.288  34.754  27.648  1.00  0.00     0.055 A 
ATOM     91  C   UNL A   1      47.269  34.430  30.032  1.00  0.00     0.041 A 
ATOM     92  F   UNL A   1      46.538  32.390  30.925  1.00  0.00    -0.206 F 
ATOM     93  C   UNL A   1      47.549  35.237  28.933  1.00  0.00     0.022 A 
BRANCH  90  94
ATOM     94  S   UNL A   1      47.758  35.736  26.196  1.00  0.00     0.124 S 
ATOM     95  O   UNL A   1      47.291  34.896  25.097  1.00  0.00    -0.237 OA
ATOM     96  O   UNL A   1      47.023  36.978  26.408  1.00  0.00    -0.237 OA
ATOM     97  O   UNL A   1      49.211  35.849  26.315  1.00  0.00    -0.744 OA
ENDBRANCH  90  94
ENDBRANCH  64  87
ENDBRANCH  38  39
ENDBRANCH  31  33
ENDBRANCH  30  31
ENDBRANCH  29  30
ENDBRANCH  28  29
ENDBRANCH  27  28
ENDBRANCH   1  27
TORSDOF 22
ENDMDL
MODEL 3
REMARK VINA RESULT:     -10.3      2.823      4.583
REMARK SMILES Cn1ccc(S(=O)(=O)N2[C@@H](C(=O)OCCOCCOCCOC(=O)c3ccc(-c4c5nc(c(-c6cc(S(=O)(=O)[O-])ccc6F)c6ccc([nH]6)c(-c6cc(S(=O)(=O)[O-])ccc6F)c6nc(c(-c7cc(S(=O)(=O)[O-])ccc7F)c7ccc4[nH]7)C=C6)C=C5)cc3)C[C@H]3CCCC[C@H]32)c1
REMARK SMILES IDX 18 1 17 2 16 3 15 4 14 5 13 6 11 7 12 8 10 9 9 10 94 11
REMARK SMILES IDX 88 12 89 13 93 14 90 15 92 16 91 17 6 18 7 19 8 20 5 21 1 22
REMARK SMILES IDX 2 23 3 24 95 25 4 26 19 27 20 28 21 29 22 30 23 31 24 32
REMARK SMILES IDX 25 33 26 34 87 35 27 36 86 37 28 38 29 39 30 40 80 41 31 42
REMARK SMILES IDX 85 43 79 44 81 45 32 46 84 47 78 48 77 49 33 51 65 52 45 53
REMARK SMILES IDX 64 54 46 55 49 56 63 57 82 58 47 59 48 60 62 62 83 63 50 64
REMARK SMILES IDX 34 65 35 66 43 67 36 68 42 69 44 70 41 71 37 72 38 73 39 74
REMARK SMILES IDX 40 75 66 76 67 77 75 78 68 79 74 80 76 81 73 82 69 83 70 84
REMARK SMILES IDX 71 85 72 86 51 87 52 88 60 89 53 90 59 91 61 92 58 93 54 94
REMARK SMILES IDX 55 95 56 96 57 97
REMARK H PARENT 81 50 49 61
REMARK Flexibility Score: inf
ROOT
ATOM      1  C   UNL A   1      34.227  32.216  28.434  1.00  0.00     0.188 C 
ENDROOT
BRANCH   1   2
ATOM      2  C   UNL A   1      35.418  31.248  28.381  1.00  0.00     0.188 C 
BRANCH   2   3
ATOM      3  O   UNL A   1      35.148  29.849  28.310  1.00  0.00    -0.376 OA
BRANCH   3   4
ATOM      4  C   UNL A   1      34.817  29.289  27.045  1.00  0.00     0.202 C 
BRANCH   4   5
ATOM      5  C   UNL A   1      33.383  28.781  26.908  1.00  0.00     0.261 C 
BRANCH   5   6
ATOM      6  O   UNL A   1      33.099  28.294  25.584  1.00  0.00    -0.462 OA
BRANCH   6   7
ATOM      7  C   UNL A   1      32.734  26.992  25.491  1.00  0.00     0.324 C 
ATOM      8  O   UNL A   1      33.158  26.095  26.214  1.00  0.00    -0.250 OA
BRANCH   7   9
ATOM      9  C   UNL A   1      31.683  26.731  24.439  1.00  0.00     0.183 C 
ATOM     10  N   UNL A   1      31.854  27.244  23.046  1.00  0.00    -0.180 NA
ATOM     11  C   UNL A   1      30.511  27.553  22.469  1.00  0.00     0.077 C 
ATOM     12  C   UNL A   1      30.310  27.284  24.842  1.00  0.00     0.037 C 
ATOM     13  C   UNL A   1      29.516  27.101  23.551  1.00  0.00     0.009 C 
ATOM     14  C   UNL A   1      30.457  29.055  22.166  1.00  0.00     0.020 C 
ATOM     15  C   UNL A   1      28.147  27.772  23.507  1.00  0.00     0.005 C 
ATOM     16  C   UNL A   1      29.033  29.546  21.946  1.00  0.00     0.002 C 
ATOM     17  C   UNL A   1      28.175  29.256  23.165  1.00  0.00     0.000 C 
BRANCH  10  18
ATOM     18  S   UNL A   1      32.981  26.441  22.072  1.00  0.00     0.245 S 
ATOM     19  O   UNL A   1      34.226  27.175  22.125  1.00  0.00    -0.207 OA
ATOM     20  O   UNL A   1      32.358  26.082  20.817  1.00  0.00    -0.207 OA
BRANCH  18  21
ATOM     21  C   UNL A   1      33.380  24.922  22.811  1.00  0.00     0.100 A 
ATOM     22  C   UNL A   1      35.716  22.431  23.968  1.00  0.00     0.149 C 
ATOM     23  N   UNL A   1      34.558  23.221  23.608  1.00  0.00    -0.356 N 
ATOM     24  C   UNL A   1      33.338  22.714  23.245  1.00  0.00     0.086 A 
ATOM     25  C   UNL A   1      34.551  24.583  23.460  1.00  0.00     0.106 A 
ATOM     26  C   UNL A   1      32.581  23.751  22.741  1.00  0.00     0.041 A 
ENDBRANCH  18  21
ENDBRANCH  10  18
ENDBRANCH   7   9
ENDBRANCH   6   7
ENDBRANCH   5   6
ENDBRANCH   4   5
ENDBRANCH   3   4
ENDBRANCH   2   3
ENDBRANCH   1   2
BRANCH   1  27
ATOM     27  O   UNL A   1      34.493  33.325  29.290  1.00  0.00    -0.376 OA
BRANCH  27  28
ATOM     28  C   UNL A   1      34.409  34.589  28.638  1.00  0.00     0.202 C 
BRANCH  28  29
ATOM     29  C   UNL A   1      33.201  35.373  29.160  1.00  0.00     0.261 C 
BRANCH  29  30
ATOM     30  O   UNL A   1      32.682  34.876  30.408  1.00  0.00    -0.460 OA
BRANCH  30  31
ATOM     31  C   UNL A   1      32.957  35.640  31.487  1.00  0.00     0.338 C 
ATOM     32  O   UNL A   1      32.363  36.642  31.843  1.00  0.00    -0.246 OA
BRANCH  31  33
ATOM     33  C   UNL A   1      34.013  34.993  32.280  1.00  0.00     0.060 A 
ATOM     34  C   UNL A   1      35.302  35.525  32.217  1.00  0.00     0.016 A 
ATOM     35  C   UNL A   1      33.769  33.813  32.978  1.00  0.00     0.016 A 
ATOM     36  C   UNL A   1      36.377  34.835  32.768  1.00  0.00     0.010 A 
ATOM     37  C   UNL A   1      34.844  33.133  33.562  1.00  0.00     0.010 A 
ATOM     38  C   UNL A   1      36.161  33.615  33.418  1.00  0.00    -0.014 A 
BRANCH  38  39
ATOM     39  C   UNL A   1      37.317  32.764  33.804  1.00  0.00     0.031 A 
ATOM     40  C   UNL A   1      38.028  33.055  35.099  1.00  0.00     0.074 A 
ATOM     41  C   UNL A   1      37.704  31.722  33.047  1.00  0.00     0.049 A 
ATOM     42  N   UNL A   1      39.154  32.574  35.558  1.00  0.00    -0.248 NA
ATOM     43  C   UNL A   1      37.378  34.027  35.992  1.00  0.00     0.031 C 
ATOM     44  C   UNL A   1      37.042  31.272  31.822  1.00  0.00     0.029 A 
ATOM     45  N   UNL A   1      38.755  30.852  33.197  1.00  0.00    -0.354 N 
ATOM     46  C   UNL A   1      39.370  33.214  36.775  1.00  0.00     0.074 A 
ATOM     47  C   UNL A   1      38.263  34.125  36.973  1.00  0.00     0.031 C 
ATOM     48  C   UNL A   1      37.702  30.208  31.334  1.00  0.00     0.029 A 
ATOM     49  C   UNL A   1      38.872  29.946  32.168  1.00  0.00     0.049 A 
ATOM     50  H   UNL A   1      39.367  30.874  33.968  1.00  0.00     0.167 HD
ATOM     51  C   UNL A   1      40.400  33.056  37.644  1.00  0.00     0.034 A 
ATOM     52  C   UNL A   1      39.839  29.043  31.906  1.00  0.00     0.034 A 
ATOM     53  C   UNL A   1      41.486  32.131  37.440  1.00  0.00     0.049 A 
ATOM     54  C   UNL A   1      41.018  28.941  32.843  1.00  0.00     0.074 A 
ATOM     55  C   UNL A   1      42.598  31.913  38.235  1.00  0.00     0.029 A 
ATOM     56  N   UNL A   1      41.593  31.260  36.363  1.00  0.00    -0.354 N 
ATOM     57  N   UNL A   1      41.260  29.613  33.946  1.00  0.00    -0.248 NA
ATOM     58  C   UNL A   1      42.059  27.966  32.492  1.00  0.00     0.031 C 
ATOM     59  C   UNL A   1      43.400  30.947  37.613  1.00  0.00     0.029 A 
ATOM     60  C   UNL A   1      42.757  30.515  36.465  1.00  0.00     0.049 A 
ATOM     61  H   UNL A   1      40.936  31.183  35.634  1.00  0.00     0.167 HD
ATOM     62  C   UNL A   1      42.471  29.123  34.430  1.00  0.00     0.074 A 
ATOM     63  C   UNL A   1      42.899  28.089  33.509  1.00  0.00     0.031 C 
ATOM     64  C   UNL A   1      43.168  29.491  35.534  1.00  0.00     0.034 A 
BRANCH  51  65
ATOM     65  C   UNL A   1      40.422  33.961  38.851  1.00  0.00     0.023 A 
ATOM     66  C   UNL A   1      39.739  33.639  40.037  1.00  0.00     0.031 A 
ATOM     67  C   UNL A   1      41.097  35.194  38.793  1.00  0.00     0.131 A 
ATOM     68  C   UNL A   1      39.684  34.569  41.086  1.00  0.00     0.055 A 
ATOM     69  C   UNL A   1      41.103  36.081  39.870  1.00  0.00     0.041 A 
ATOM     70  F   UNL A   1      41.746  35.564  37.678  1.00  0.00    -0.206 F 
ATOM     71  C   UNL A   1      40.380  35.779  41.019  1.00  0.00     0.022 A 
BRANCH  68  72
ATOM     72  S   UNL A   1      38.570  34.239  42.478  1.00  0.00     0.124 S 
ATOM     73  O   UNL A   1      38.032  32.928  42.121  1.00  0.00    -0.237 OA
ATOM     74  O   UNL A   1      39.474  34.269  43.622  1.00  0.00    -0.237 OA
ATOM     75  O   UNL A   1      37.607  35.338  42.414  1.00  0.00    -0.744 OA
ENDBRANCH  68  72
ENDBRANCH  51  65
BRANCH  52  76
ATOM     76  C   UNL A   1      39.784  28.211  30.669  1.00  0.00     0.023 A 
ATOM     77  C   UNL A   1      40.459  28.601  29.501  1.00  0.00     0.031 A 
ATOM     78  C   UNL A   1      38.998  27.047  30.618  1.00  0.00     0.131 A 
ATOM     79  C   UNL A   1      40.302  27.857  28.321  1.00  0.00     0.055 A 
ATOM     80  C   UNL A   1      38.887  26.281  29.456  1.00  0.00     0.041 A 
ATOM     81  F   UNL A   1      38.328  26.631  31.705  1.00  0.00    -0.206 F 
ATOM     82  C   UNL A   1      39.531  26.693  28.295  1.00  0.00     0.022 A 
BRANCH  79  83
ATOM     83  S   UNL A   1      41.054  28.483  26.794  1.00  0.00     0.124 S 
ATOM     84  O   UNL A   1      40.007  29.362  26.285  1.00  0.00    -0.237 OA
ATOM     85  O   UNL A   1      42.256  29.142  27.297  1.00  0.00    -0.237 OA
ATOM     86  O   UNL A   1      41.292  27.273  26.010  1.00  0.00    -0.744 OA
ENDBRANCH  79  83
ENDBRANCH  52  76
BRANCH  64  87
ATOM     87  C   UNL A   1      44.435  28.728  35.827  1.00  0.00     0.023 A 
ATOM     88  C   UNL A   1      44.431  27.556  36.602  1.00  0.00     0.031 A 
ATOM     89  C   UNL A   1      45.668  29.195  35.335  1.00  0.00     0.131 A 
ATOM     90  C   UNL A   1      45.644  26.919  36.909  1.00  0.00     0.055 A 
ATOM     91  C   UNL A   1      46.864  28.527  35.599  1.00  0.00     0.041 A 
ATOM     92  F   UNL A   1      45.727  30.309  34.589  1.00  0.00    -0.206 F 
ATOM     93  C   UNL A   1      46.858  27.389  36.401  1.00  0.00     0.022 A 
BRANCH  90  94
ATOM     94  S   UNL A   1      45.624  25.512  38.055  1.00  0.00     0.124 S 
ATOM     95  O   UNL A   1      45.214  26.144  39.305  1.00  0.00    -0.237 OA
ATOM     96  O   UNL A   1      44.645  24.622  37.439  1.00  0.00    -0.237 OA
ATOM     97  O   UNL A   1      47.003  25.029  38.029  1.00  0.00    -0.744 OA
ENDBRANCH  90  94
ENDBRANCH  64  87
ENDBRANCH  38  39
ENDBRANCH  31  33
ENDBRANCH  30  31
ENDBRANCH  29  30
ENDBRANCH  28  29
ENDBRANCH  27  28
ENDBRANCH   1  27
TORSDOF 22
ENDMDL
