MODEL 1
REMARK VINA RESULT:     -10.5      0.000      0.000
REMARK SMILES O=C(/C=C\c1ccc([N+](=O)[O-])cc1)OCCOCCOCCOC(=O)c1ccc(-c2c3nc(c(-c4cc(S(=O)(=O)[O-])ccc4F)c4ccc([nH]4)c(-c4cc(S(=O)(=O)[O-])ccc4F)c4nc(c(-c5cc(S(=O)(=O)[O-])ccc5F)c5ccc2[nH]5)C=C4)C=C3)cc1
REMARK SMILES IDX 19 1 18 2 17 3 16 4 15 5 14 6 2 7 1 8 3 9 4 10 5 11 6 12
REMARK SMILES IDX 13 13 7 14 12 15 8 16 9 17 10 18 11 19 20 20 21 21 22 22
REMARK SMILES IDX 23 23 24 24 25 25 26 26 27 27 88 28 28 29 87 30 29 31 30 32
REMARK SMILES IDX 31 33 81 34 32 35 86 36 80 37 82 38 33 39 85 40 79 41 78 42
REMARK SMILES IDX 34 44 66 45 46 46 65 47 47 48 50 49 64 50 83 51 48 52 49 53
REMARK SMILES IDX 63 55 84 56 51 57 35 58 36 59 44 60 37 61 43 62 45 63 42 64
REMARK SMILES IDX 38 65 39 66 40 67 41 68 67 69 68 70 76 71 69 72 75 73 77 74
REMARK SMILES IDX 74 75 70 76 71 77 72 78 73 79 52 80 53 81 61 82 54 83 60 84
REMARK SMILES IDX 62 85 59 86 55 87 56 88 57 89 58 90
REMARK H PARENT 82 43 50 54
REMARK Flexibility Score: inf
ROOT
ATOM      1  C   UNL A   1      32.460  29.321  24.459  1.00  0.00     0.188 C 
ENDROOT
BRANCH   1   2
ATOM      2  C   UNL A   1      32.402  27.971  23.721  1.00  0.00     0.188 C 
BRANCH   2   3
ATOM      3  O   UNL A   1      33.563  27.150  23.842  1.00  0.00    -0.376 OA
BRANCH   3   4
ATOM      4  C   UNL A   1      33.478  26.073  24.776  1.00  0.00     0.202 C 
BRANCH   4   5
ATOM      5  C   UNL A   1      32.694  24.836  24.308  1.00  0.00     0.261 C 
BRANCH   5   6
ATOM      6  O   UNL A   1      33.344  23.594  24.584  1.00  0.00    -0.460 OA
BRANCH   6   7
ATOM      7  C   UNL A   1      33.604  22.629  23.685  1.00  0.00     0.330 C 
ATOM      8  O   UNL A   1      34.731  22.535  23.205  1.00  0.00    -0.247 OA
BRANCH   7   9
ATOM      9  C   UNL A   1      32.535  21.801  23.090  1.00  0.00     0.094 C 
ATOM     10  C   UNL A   1      32.118  20.521  23.024  1.00  0.00     0.015 C 
BRANCH  10  11
ATOM     11  C   UNL A   1      32.527  19.204  23.546  1.00  0.00    -0.025 A 
ATOM     12  C   UNL A   1      32.808  19.118  24.920  1.00  0.00     0.015 A 
ATOM     13  C   UNL A   1      32.879  18.107  22.751  1.00  0.00     0.015 A 
ATOM     14  C   UNL A   1      33.363  17.960  25.484  1.00  0.00     0.086 A 
ATOM     15  C   UNL A   1      33.369  16.916  23.304  1.00  0.00     0.086 A 
ATOM     16  C   UNL A   1      33.618  16.851  24.674  1.00  0.00     0.269 A 
BRANCH  16  17
ATOM     17  N   UNL A   1      34.193  15.631  25.250  1.00  0.00     0.062 N 
ATOM     18  O   UNL A   1      35.401  15.635  25.523  1.00  0.00    -0.258 OA
ATOM     19  O   UNL A   1      33.437  14.664  25.429  1.00  0.00    -0.258 OA
ENDBRANCH  16  17
ENDBRANCH  10  11
ENDBRANCH   7   9
ENDBRANCH   6   7
ENDBRANCH   5   6
ENDBRANCH   4   5
ENDBRANCH   3   4
ENDBRANCH   2   3
ENDBRANCH   1   2
BRANCH   1  20
ATOM     20  O   UNL A   1      31.252  29.586  25.173  1.00  0.00    -0.376 OA
BRANCH  20  21
ATOM     21  C   UNL A   1      30.916  30.963  25.309  1.00  0.00     0.202 C 
BRANCH  21  22
ATOM     22  C   UNL A   1      31.440  31.727  26.548  1.00  0.00     0.261 C 
BRANCH  22  23
ATOM     23  O   UNL A   1      32.738  31.357  27.030  1.00  0.00    -0.460 OA
BRANCH  23  24
ATOM     24  C   UNL A   1      33.480  32.357  27.565  1.00  0.00     0.338 C 
ATOM     25  O   UNL A   1      33.113  33.496  27.784  1.00  0.00    -0.246 OA
BRANCH  24  26
ATOM     26  C   UNL A   1      34.785  31.810  27.984  1.00  0.00     0.060 A 
ATOM     27  C   UNL A   1      34.898  30.431  28.182  1.00  0.00     0.016 A 
ATOM     28  C   UNL A   1      35.863  32.658  28.249  1.00  0.00     0.016 A 
ATOM     29  C   UNL A   1      36.100  29.886  28.629  1.00  0.00     0.010 A 
ATOM     30  C   UNL A   1      37.056  32.116  28.740  1.00  0.00     0.010 A 
ATOM     31  C   UNL A   1      37.171  30.729  28.948  1.00  0.00    -0.014 A 
BRANCH  31  32
ATOM     32  C   UNL A   1      38.318  30.178  29.706  1.00  0.00     0.031 A 
ATOM     33  C   UNL A   1      38.532  30.665  31.113  1.00  0.00     0.074 A 
ATOM     34  C   UNL A   1      39.127  29.246  29.171  1.00  0.00     0.049 A 
ATOM     35  N   UNL A   1      39.467  30.353  31.971  1.00  0.00    -0.248 NA
ATOM     36  C   UNL A   1      37.547  31.636  31.620  1.00  0.00     0.031 C 
ATOM     37  C   UNL A   1      38.971  28.657  27.842  1.00  0.00     0.029 A 
ATOM     38  N   UNL A   1      40.244  28.634  29.682  1.00  0.00    -0.354 N 
ATOM     39  C   UNL A   1      39.178  31.077  33.123  1.00  0.00     0.074 A 
ATOM     40  C   UNL A   1      38.000  31.869  32.841  1.00  0.00     0.031 C 
ATOM     41  C   UNL A   1      39.970  27.781  27.635  1.00  0.00     0.029 A 
ATOM     42  C   UNL A   1      40.853  27.772  28.800  1.00  0.00     0.049 A 
ATOM     43  H   UNL A   1      40.577  28.796  30.594  1.00  0.00     0.167 HD
ATOM     44  C   UNL A   1      39.837  31.080  34.306  1.00  0.00     0.034 A 
ATOM     45  C   UNL A   1      42.006  27.081  28.917  1.00  0.00     0.034 A 
ATOM     46  C   UNL A   1      41.036  30.320  34.550  1.00  0.00     0.049 A 
ATOM     47  C   UNL A   1      42.789  27.189  30.208  1.00  0.00     0.074 A 
ATOM     48  C   UNL A   1      41.802  30.259  35.700  1.00  0.00     0.029 A 
ATOM     49  N   UNL A   1      41.659  29.501  33.614  1.00  0.00    -0.354 N 
ATOM     50  N   UNL A   1      42.505  27.874  31.294  1.00  0.00    -0.248 NA
ATOM     51  C   UNL A   1      44.043  26.429  30.291  1.00  0.00     0.031 C 
ATOM     52  C   UNL A   1      42.924  29.467  35.436  1.00  0.00     0.029 A 
ATOM     53  C   UNL A   1      42.817  28.961  34.150  1.00  0.00     0.049 A 
ATOM     54  H   UNL A   1      41.326  29.331  32.703  1.00  0.00     0.167 HD
ATOM     55  C   UNL A   1      43.525  27.592  32.200  1.00  0.00     0.074 A 
ATOM     56  C   UNL A   1      44.424  26.671  31.536  1.00  0.00     0.031 C 
ATOM     57  C   UNL A   1      43.703  28.047  33.468  1.00  0.00     0.034 A 
BRANCH  44  58
ATOM     58  C   UNL A   1      39.307  31.987  35.389  1.00  0.00     0.023 A 
ATOM     59  C   UNL A   1      39.717  33.328  35.498  1.00  0.00     0.031 A 
ATOM     60  C   UNL A   1      38.412  31.491  36.352  1.00  0.00     0.131 A 
ATOM     61  C   UNL A   1      39.284  34.106  36.583  1.00  0.00     0.055 A 
ATOM     62  C   UNL A   1      37.924  32.294  37.386  1.00  0.00     0.041 A 
ATOM     63  F   UNL A   1      38.009  30.212  36.316  1.00  0.00    -0.206 F 
ATOM     64  C   UNL A   1      38.370  33.606  37.513  1.00  0.00     0.022 A 
BRANCH  61  65
ATOM     65  S   UNL A   1      40.034  35.738  36.837  1.00  0.00     0.124 S 
ATOM     66  O   UNL A   1      39.609  36.450  35.634  1.00  0.00    -0.237 OA
ATOM     67  O   UNL A   1      39.423  36.176  38.087  1.00  0.00    -0.237 OA
ATOM     68  O   UNL A   1      41.465  35.450  36.909  1.00  0.00    -0.744 OA
ENDBRANCH  61  65
ENDBRANCH  44  58
BRANCH  45  69
ATOM     69  C   UNL A   1      42.529  26.265  27.780  1.00  0.00     0.023 A 
ATOM     70  C   UNL A   1      42.067  24.961  27.541  1.00  0.00     0.031 A 
ATOM     71  C   UNL A   1      43.559  26.757  26.958  1.00  0.00     0.131 A 
ATOM     72  C   UNL A   1      42.671  24.175  26.546  1.00  0.00     0.055 A 
ATOM     73  C   UNL A   1      44.116  25.992  25.931  1.00  0.00     0.041 A 
ATOM     74  F   UNL A   1      44.045  27.995  27.143  1.00  0.00    -0.206 F 
ATOM     75  C   UNL A   1      43.682  24.686  25.731  1.00  0.00     0.022 A 
BRANCH  72  76
ATOM     76  S   UNL A   1      42.187  22.431  26.402  1.00  0.00     0.124 S 
ATOM     77  O   UNL A   1      40.733  22.532  26.336  1.00  0.00    -0.237 OA
ATOM     78  O   UNL A   1      42.859  22.031  25.171  1.00  0.00    -0.237 OA
ATOM     79  O   UNL A   1      42.715  21.830  27.625  1.00  0.00    -0.744 OA
ENDBRANCH  72  76
ENDBRANCH  45  69
BRANCH  57  80
ATOM     80  C   UNL A   1      44.885  27.505  34.234  1.00  0.00     0.023 A 
ATOM     81  C   UNL A   1      44.797  26.342  35.017  1.00  0.00     0.031 A 
ATOM     82  C   UNL A   1      46.125  28.168  34.173  1.00  0.00     0.131 A 
ATOM     83  C   UNL A   1      45.910  25.907  35.751  1.00  0.00     0.055 A 
ATOM     84  C   UNL A   1      47.247  27.696  34.854  1.00  0.00     0.041 A 
ATOM     85  F   UNL A   1      46.269  29.285  33.440  1.00  0.00    -0.206 F 
ATOM     86  C   UNL A   1      47.140  26.566  35.660  1.00  0.00     0.022 A 
BRANCH  83  87
ATOM     87  S   UNL A   1      45.711  24.517  36.898  1.00  0.00     0.124 S 
ATOM     88  O   UNL A   1      45.026  23.533  36.066  1.00  0.00    -0.237 OA
ATOM     89  O   UNL A   1      47.092  24.201  37.250  1.00  0.00    -0.237 OA
ATOM     90  O   UNL A   1      44.908  25.079  37.982  1.00  0.00    -0.744 OA
ENDBRANCH  83  87
ENDBRANCH  57  80
ENDBRANCH  31  32
ENDBRANCH  24  26
ENDBRANCH  23  24
ENDBRANCH  22  23
ENDBRANCH  21  22
ENDBRANCH  20  21
ENDBRANCH   1  20
TORSDOF 22
ENDMDL
MODEL 2
REMARK VINA RESULT:     -10.3      1.149      7.920
REMARK SMILES O=C(/C=C\c1ccc([N+](=O)[O-])cc1)OCCOCCOCCOC(=O)c1ccc(-c2c3nc(c(-c4cc(S(=O)(=O)[O-])ccc4F)c4ccc([nH]4)c(-c4cc(S(=O)(=O)[O-])ccc4F)c4nc(c(-c5cc(S(=O)(=O)[O-])ccc5F)c5ccc2[nH]5)C=C4)C=C3)cc1
REMARK SMILES IDX 19 1 18 2 17 3 16 4 15 5 14 6 2 7 1 8 3 9 4 10 5 11 6 12
REMARK SMILES IDX 13 13 7 14 12 15 8 16 9 17 10 18 11 19 20 20 21 21 22 22
REMARK SMILES IDX 23 23 24 24 25 25 26 26 27 27 88 28 28 29 87 30 29 31 30 32
REMARK SMILES IDX 31 33 81 34 32 35 86 36 80 37 82 38 33 39 85 40 79 41 78 42
REMARK SMILES IDX 34 44 66 45 46 46 65 47 47 48 50 49 64 50 83 51 48 52 49 53
REMARK SMILES IDX 63 55 84 56 51 57 35 58 36 59 44 60 37 61 43 62 45 63 42 64
REMARK SMILES IDX 38 65 39 66 40 67 41 68 67 69 68 70 76 71 69 72 75 73 77 74
REMARK SMILES IDX 74 75 70 76 71 77 72 78 73 79 52 80 53 81 61 82 54 83 60 84
REMARK SMILES IDX 62 85 59 86 55 87 56 88 57 89 58 90
REMARK H PARENT 82 43 50 54
REMARK Flexibility Score: inf
ROOT
ATOM      1  C   UNL A   1      30.763  27.346  25.542  1.00  0.00     0.188 C 
ENDROOT
BRANCH   1   2
ATOM      2  C   UNL A   1      30.796  27.550  24.016  1.00  0.00     0.188 C 
BRANCH   2   3
ATOM      3  O   UNL A   1      31.235  26.429  23.252  1.00  0.00    -0.376 OA
BRANCH   3   4
ATOM      4  C   UNL A   1      31.998  26.725  22.082  1.00  0.00     0.202 C 
BRANCH   4   5
ATOM      5  C   UNL A   1      33.320  25.953  21.928  1.00  0.00     0.261 C 
BRANCH   5   6
ATOM      6  O   UNL A   1      33.771  25.325  23.129  1.00  0.00    -0.460 OA
BRANCH   6   7
ATOM      7  C   UNL A   1      34.019  24.012  23.280  1.00  0.00     0.330 C 
ATOM      8  O   UNL A   1      33.902  23.257  22.317  1.00  0.00    -0.247 OA
BRANCH   7   9
ATOM      9  C   UNL A   1      34.227  23.400  24.609  1.00  0.00     0.094 C 
ATOM     10  C   UNL A   1      34.399  22.196  25.190  1.00  0.00     0.015 C 
BRANCH  10  11
ATOM     11  C   UNL A   1      34.482  20.781  24.782  1.00  0.00    -0.025 A 
ATOM     12  C   UNL A   1      33.285  20.153  24.398  1.00  0.00     0.015 A 
ATOM     13  C   UNL A   1      35.602  19.963  24.969  1.00  0.00     0.015 A 
ATOM     14  C   UNL A   1      33.227  18.773  24.155  1.00  0.00     0.086 A 
ATOM     15  C   UNL A   1      35.583  18.595  24.664  1.00  0.00     0.086 A 
ATOM     16  C   UNL A   1      34.387  18.002  24.264  1.00  0.00     0.269 A 
BRANCH  16  17
ATOM     17  N   UNL A   1      34.343  16.559  24.008  1.00  0.00     0.062 N 
ATOM     18  O   UNL A   1      34.484  15.796  24.974  1.00  0.00    -0.258 OA
ATOM     19  O   UNL A   1      34.169  16.185  22.838  1.00  0.00    -0.258 OA
ENDBRANCH  16  17
ENDBRANCH  10  11
ENDBRANCH   7   9
ENDBRANCH   6   7
ENDBRANCH   5   6
ENDBRANCH   4   5
ENDBRANCH   3   4
ENDBRANCH   2   3
ENDBRANCH   1   2
BRANCH   1  20
ATOM     20  O   UNL A   1      32.051  27.540  26.130  1.00  0.00    -0.376 OA
BRANCH  20  21
ATOM     21  C   UNL A   1      32.101  28.506  27.175  1.00  0.00     0.202 C 
BRANCH  21  22
ATOM     22  C   UNL A   1      31.819  29.985  26.822  1.00  0.00     0.261 C 
BRANCH  22  23
ATOM     23  O   UNL A   1      32.934  30.762  26.369  1.00  0.00    -0.460 OA
BRANCH  23  24
ATOM     24  C   UNL A   1      33.350  31.746  27.203  1.00  0.00     0.338 C 
ATOM     25  O   UNL A   1      32.716  32.728  27.542  1.00  0.00    -0.246 OA
BRANCH  24  26
ATOM     26  C   UNL A   1      34.662  31.371  27.766  1.00  0.00     0.060 A 
ATOM     27  C   UNL A   1      34.869  30.042  28.148  1.00  0.00     0.016 A 
ATOM     28  C   UNL A   1      35.649  32.336  27.983  1.00  0.00     0.016 A 
ATOM     29  C   UNL A   1      36.076  29.664  28.732  1.00  0.00     0.010 A 
ATOM     30  C   UNL A   1      36.844  31.965  28.610  1.00  0.00     0.010 A 
ATOM     31  C   UNL A   1      37.052  30.631  29.003  1.00  0.00    -0.014 A 
BRANCH  31  32
ATOM     32  C   UNL A   1      38.184  30.279  29.892  1.00  0.00     0.031 A 
ATOM     33  C   UNL A   1      39.177  29.262  29.400  1.00  0.00     0.074 A 
ATOM     34  C   UNL A   1      38.343  30.872  31.088  1.00  0.00     0.049 A 
ATOM     35  N   UNL A   1      40.234  28.775  29.992  1.00  0.00    -0.248 NA
ATOM     36  C   UNL A   1      38.940  28.727  28.048  1.00  0.00     0.031 C 
ATOM     37  C   UNL A   1      37.478  31.917  31.634  1.00  0.00     0.029 A 
ATOM     38  N   UNL A   1      39.290  30.676  32.063  1.00  0.00    -0.354 N 
ATOM     39  C   UNL A   1      40.798  27.886  29.082  1.00  0.00     0.074 A 
ATOM     40  C   UNL A   1      39.946  27.878  27.913  1.00  0.00     0.031 C 
ATOM     41  C   UNL A   1      37.924  32.256  32.857  1.00  0.00     0.029 A 
ATOM     42  C   UNL A   1      39.083  31.431  33.194  1.00  0.00     0.049 A 
ATOM     43  H   UNL A   1      40.046  30.054  31.961  1.00  0.00     0.167 HD
ATOM     44  C   UNL A   1      41.925  27.145  29.213  1.00  0.00     0.034 A 
ATOM     45  C   UNL A   1      39.741  31.430  34.371  1.00  0.00     0.034 A 
ATOM     46  C   UNL A   1      42.733  27.132  30.406  1.00  0.00     0.049 A 
ATOM     47  C   UNL A   1      40.929  30.508  34.538  1.00  0.00     0.074 A 
ATOM     48  C   UNL A   1      43.883  26.407  30.662  1.00  0.00     0.029 A 
ATOM     49  N   UNL A   1      42.462  27.866  31.555  1.00  0.00    -0.354 N 
ATOM     50  N   UNL A   1      41.458  29.674  33.669  1.00  0.00    -0.248 NA
ATOM     51  C   UNL A   1      41.612  30.530  35.838  1.00  0.00     0.031 C 
ATOM     52  C   UNL A   1      44.262  26.644  31.988  1.00  0.00     0.029 A 
ATOM     53  C   UNL A   1      43.401  27.584  32.534  1.00  0.00     0.049 A 
ATOM     54  H   UNL A   1      41.711  28.494  31.659  1.00  0.00     0.167 HD
ATOM     55  C   UNL A   1      42.557  29.105  34.308  1.00  0.00     0.074 A 
ATOM     56  C   UNL A   1      42.620  29.697  35.629  1.00  0.00     0.031 C 
ATOM     57  C   UNL A   1      43.441  28.183  33.847  1.00  0.00     0.034 A 
BRANCH  44  58
ATOM     58  C   UNL A   1      42.294  26.242  28.062  1.00  0.00     0.023 A 
ATOM     59  C   UNL A   1      41.777  24.939  27.948  1.00  0.00     0.031 A 
ATOM     60  C   UNL A   1      43.212  26.676  27.090  1.00  0.00     0.131 A 
ATOM     61  C   UNL A   1      42.230  24.095  26.922  1.00  0.00     0.055 A 
ATOM     62  C   UNL A   1      43.600  25.857  26.027  1.00  0.00     0.041 A 
ATOM     63  F   UNL A   1      43.761  27.897  27.165  1.00  0.00    -0.206 F 
ATOM     64  C   UNL A   1      43.119  24.553  25.947  1.00  0.00     0.022 A 
BRANCH  61  65
ATOM     65  S   UNL A   1      41.746  22.347  26.957  1.00  0.00     0.124 S 
ATOM     66  O   UNL A   1      42.250  21.875  25.669  1.00  0.00    -0.237 OA
ATOM     67  O   UNL A   1      42.445  21.849  28.136  1.00  0.00    -0.237 OA
ATOM     68  O   UNL A   1      40.290  22.397  27.068  1.00  0.00    -0.744 OA
ENDBRANCH  61  65
ENDBRANCH  44  58
BRANCH  45  69
ATOM     69  C   UNL A   1      39.278  32.282  35.508  1.00  0.00     0.023 A 
ATOM     70  C   UNL A   1      39.702  33.613  35.645  1.00  0.00     0.031 A 
ATOM     71  C   UNL A   1      38.459  31.747  36.519  1.00  0.00     0.131 A 
ATOM     72  C   UNL A   1      39.354  34.345  36.792  1.00  0.00     0.055 A 
ATOM     73  C   UNL A   1      38.067  32.498  37.630  1.00  0.00     0.041 A 
ATOM     74  F   UNL A   1      38.028  30.478  36.446  1.00  0.00    -0.206 F 
ATOM     75  C   UNL A   1      38.528  33.802  37.778  1.00  0.00     0.022 A 
BRANCH  72  76
ATOM     76  S   UNL A   1      40.085  35.990  37.030  1.00  0.00     0.124 S 
ATOM     77  O   UNL A   1      39.827  36.618  35.739  1.00  0.00    -0.237 OA
ATOM     78  O   UNL A   1      39.317  36.503  38.159  1.00  0.00    -0.237 OA
ATOM     79  O   UNL A   1      41.489  35.699  37.313  1.00  0.00    -0.744 OA
ENDBRANCH  72  76
ENDBRANCH  45  69
BRANCH  57  80
ATOM     80  C   UNL A   1      44.582  27.804  34.761  1.00  0.00     0.023 A 
ATOM     81  C   UNL A   1      44.497  26.717  35.647  1.00  0.00     0.031 A 
ATOM     82  C   UNL A   1      45.778  28.545  34.737  1.00  0.00     0.131 A 
ATOM     83  C   UNL A   1      45.565  26.436  36.512  1.00  0.00     0.055 A 
ATOM     84  C   UNL A   1      46.861  28.222  35.553  1.00  0.00     0.041 A 
ATOM     85  F   UNL A   1      45.916  29.594  33.909  1.00  0.00    -0.206 F 
ATOM     86  C   UNL A   1      46.753  27.169  36.458  1.00  0.00     0.022 A 
BRANCH  83  87
ATOM     87  S   UNL A   1      45.351  25.150  37.773  1.00  0.00     0.124 S 
ATOM     88  O   UNL A   1      44.890  24.018  36.977  1.00  0.00    -0.237 OA
ATOM     89  O   UNL A   1      46.696  25.031  38.330  1.00  0.00    -0.237 OA
ATOM     90  O   UNL A   1      44.355  25.720  38.678  1.00  0.00    -0.744 OA
ENDBRANCH  83  87
ENDBRANCH  57  80
ENDBRANCH  31  32
ENDBRANCH  24  26
ENDBRANCH  23  24
ENDBRANCH  22  23
ENDBRANCH  21  22
ENDBRANCH  20  21
ENDBRANCH   1  20
TORSDOF 22
ENDMDL
MODEL 3
REMARK VINA RESULT:      -9.4      5.834      8.247
REMARK SMILES O=C(/C=C\c1ccc([N+](=O)[O-])cc1)OCCOCCOCCOC(=O)c1ccc(-c2c3nc(c(-c4cc(S(=O)(=O)[O-])ccc4F)c4ccc([nH]4)c(-c4cc(S(=O)(=O)[O-])ccc4F)c4nc(c(-c5cc(S(=O)(=O)[O-])ccc5F)c5ccc2[nH]5)C=C4)C=C3)cc1
REMARK SMILES IDX 19 1 18 2 17 3 16 4 15 5 14 6 2 7 1 8 3 9 4 10 5 11 6 12
REMARK SMILES IDX 13 13 7 14 12 15 8 16 9 17 10 18 11 19 20 20 21 21 22 22
REMARK SMILES IDX 23 23 24 24 25 25 26 26 27 27 88 28 28 29 87 30 29 31 30 32
REMARK SMILES IDX 31 33 81 34 32 35 86 36 80 37 82 38 33 39 85 40 79 41 78 42
REMARK SMILES IDX 34 44 66 45 46 46 65 47 47 48 50 49 64 50 83 51 48 52 49 53
REMARK SMILES IDX 63 55 84 56 51 57 35 58 36 59 44 60 37 61 43 62 45 63 42 64
REMARK SMILES IDX 38 65 39 66 40 67 41 68 67 69 68 70 76 71 69 72 75 73 77 74
REMARK SMILES IDX 74 75 70 76 71 77 72 78 73 79 52 80 53 81 61 82 54 83 60 84
REMARK SMILES IDX 62 85 59 86 55 87 56 88 57 89 58 90
REMARK H PARENT 82 43 50 54
REMARK Flexibility Score: inf
ROOT
ATOM      1  C   UNL A   1      34.927  34.921  32.736  1.00  0.00     0.188 C 
ENDROOT
BRANCH   1   2
ATOM      2  C   UNL A   1      34.342  33.499  32.661  1.00  0.00     0.188 C 
BRANCH   2   3
ATOM      3  O   UNL A   1      34.236  32.942  31.352  1.00  0.00    -0.376 OA
BRANCH   3   4
ATOM      4  C   UNL A   1      34.820  33.704  30.294  1.00  0.00     0.202 C 
BRANCH   4   5
ATOM      5  C   UNL A   1      35.733  32.927  29.330  1.00  0.00     0.261 C 
BRANCH   5   6
ATOM      6  O   UNL A   1      35.704  31.510  29.514  1.00  0.00    -0.460 OA
BRANCH   6   7
ATOM      7  C   UNL A   1      36.416  30.614  28.809  1.00  0.00     0.330 C 
ATOM      8  O   UNL A   1      36.582  30.785  27.603  1.00  0.00    -0.247 OA
BRANCH   7   9
ATOM      9  C   UNL A   1      36.837  29.319  29.381  1.00  0.00     0.094 C 
ATOM     10  C   UNL A   1      37.778  28.366  29.232  1.00  0.00     0.015 C 
BRANCH  10  11
ATOM     11  C   UNL A   1      38.952  28.106  28.379  1.00  0.00    -0.025 A 
ATOM     12  C   UNL A   1      39.480  29.195  27.665  1.00  0.00     0.015 A 
ATOM     13  C   UNL A   1      39.430  26.833  28.048  1.00  0.00     0.015 A 
ATOM     14  C   UNL A   1      40.485  29.023  26.703  1.00  0.00     0.086 A 
ATOM     15  C   UNL A   1      40.482  26.646  27.141  1.00  0.00     0.086 A 
ATOM     16  C   UNL A   1      41.002  27.747  26.463  1.00  0.00     0.269 A 
BRANCH  16  17
ATOM     17  N   UNL A   1      42.057  27.552  25.464  1.00  0.00     0.062 N 
ATOM     18  O   UNL A   1      42.680  26.481  25.483  1.00  0.00    -0.258 OA
ATOM     19  O   UNL A   1      42.267  28.471  24.658  1.00  0.00    -0.258 OA
ENDBRANCH  16  17
ENDBRANCH  10  11
ENDBRANCH   7   9
ENDBRANCH   6   7
ENDBRANCH   5   6
ENDBRANCH   4   5
ENDBRANCH   3   4
ENDBRANCH   2   3
ENDBRANCH   1   2
BRANCH   1  20
ATOM     20  O   UNL A   1      36.324  34.905  33.031  1.00  0.00    -0.376 OA
BRANCH  20  21
ATOM     21  C   UNL A   1      36.843  33.645  33.442  1.00  0.00     0.202 C 
BRANCH  21  22
ATOM     22  C   UNL A   1      38.083  33.086  32.704  1.00  0.00     0.261 C 
BRANCH  22  23
ATOM     23  O   UNL A   1      37.863  31.966  31.837  1.00  0.00    -0.460 OA
BRANCH  23  24
ATOM     24  C   UNL A   1      37.581  30.789  32.447  1.00  0.00     0.338 C 
ATOM     25  O   UNL A   1      36.476  30.320  32.644  1.00  0.00    -0.246 OA
BRANCH  24  26
ATOM     26  C   UNL A   1      38.845  30.077  32.717  1.00  0.00     0.060 A 
ATOM     27  C   UNL A   1      39.992  30.831  32.988  1.00  0.00     0.016 A 
ATOM     28  C   UNL A   1      38.913  28.684  32.632  1.00  0.00     0.016 A 
ATOM     29  C   UNL A   1      41.213  30.194  33.194  1.00  0.00     0.010 A 
ATOM     30  C   UNL A   1      40.149  28.048  32.796  1.00  0.00     0.010 A 
ATOM     31  C   UNL A   1      41.306  28.803  33.059  1.00  0.00    -0.014 A 
BRANCH  31  32
ATOM     32  C   UNL A   1      42.646  28.177  32.973  1.00  0.00     0.031 A 
ATOM     33  C   UNL A   1      43.378  27.903  34.258  1.00  0.00     0.074 A 
ATOM     34  C   UNL A   1      43.182  27.832  31.790  1.00  0.00     0.049 A 
ATOM     35  N   UNL A   1      44.562  27.385  34.449  1.00  0.00    -0.248 NA
ATOM     36  C   UNL A   1      42.668  28.262  35.498  1.00  0.00     0.031 C 
ATOM     37  C   UNL A   1      42.531  27.992  30.490  1.00  0.00     0.029 A 
ATOM     38  N   UNL A   1      44.400  27.276  31.489  1.00  0.00    -0.354 N 
ATOM     39  C   UNL A   1      44.735  27.341  35.829  1.00  0.00     0.074 A 
ATOM     40  C   UNL A   1      43.549  27.917  36.424  1.00  0.00     0.031 C 
ATOM     41  C   UNL A   1      43.368  27.563  29.529  1.00  0.00     0.029 A 
ATOM     42  C   UNL A   1      44.623  27.129  30.140  1.00  0.00     0.049 A 
ATOM     43  H   UNL A   1      45.053  27.009  32.176  1.00  0.00     0.167 HD
ATOM     44  C   UNL A   1      45.790  26.865  36.532  1.00  0.00     0.034 A 
ATOM     45  C   UNL A   1      45.726  26.716  29.482  1.00  0.00     0.034 A 
ATOM     46  C   UNL A   1      46.983  26.339  35.918  1.00  0.00     0.049 A 
ATOM     47  C   UNL A   1      46.937  26.297  30.286  1.00  0.00     0.074 A 
ATOM     48  C   UNL A   1      48.123  25.847  36.527  1.00  0.00     0.029 A 
ATOM     49  N   UNL A   1      47.198  26.257  34.547  1.00  0.00    -0.354 N 
ATOM     50  N   UNL A   1      47.090  26.256  31.592  1.00  0.00    -0.248 NA
ATOM     51  C   UNL A   1      48.120  25.864  29.531  1.00  0.00     0.031 C 
ATOM     52  C   UNL A   1      49.054  25.540  35.529  1.00  0.00     0.029 A 
ATOM     53  C   UNL A   1      48.465  25.758  34.293  1.00  0.00     0.049 A 
ATOM     54  H   UNL A   1      46.546  26.518  33.857  1.00  0.00     0.167 HD
ATOM     55  C   UNL A   1      48.372  25.755  31.809  1.00  0.00     0.074 A 
ATOM     56  C   UNL A   1      48.944  25.502  30.503  1.00  0.00     0.031 C 
ATOM     57  C   UNL A   1      49.018  25.517  32.980  1.00  0.00     0.034 A 
BRANCH  44  58
ATOM     58  C   UNL A   1      45.717  26.963  38.036  1.00  0.00     0.023 A 
ATOM     59  C   UNL A   1      46.239  28.068  38.732  1.00  0.00     0.031 A 
ATOM     60  C   UNL A   1      45.157  25.915  38.787  1.00  0.00     0.131 A 
ATOM     61  C   UNL A   1      46.247  28.070  40.136  1.00  0.00     0.055 A 
ATOM     62  C   UNL A   1      45.100  25.958  40.182  1.00  0.00     0.041 A 
ATOM     63  F   UNL A   1      44.672  24.822  38.179  1.00  0.00    -0.206 F 
ATOM     64  C   UNL A   1      45.659  27.034  40.865  1.00  0.00     0.022 A 
BRANCH  61  65
ATOM     65  S   UNL A   1      47.159  29.380  40.998  1.00  0.00     0.124 S 
ATOM     66  O   UNL A   1      46.072  30.141  41.613  1.00  0.00    -0.237 OA
ATOM     67  O   UNL A   1      48.006  28.626  41.914  1.00  0.00    -0.237 OA
ATOM     68  O   UNL A   1      47.863  30.073  39.922  1.00  0.00    -0.744 OA
ENDBRANCH  61  65
ENDBRANCH  44  58
BRANCH  45  69
ATOM     69  C   UNL A   1      45.773  26.722  27.988  1.00  0.00     0.023 A 
ATOM     70  C   UNL A   1      45.631  25.538  27.247  1.00  0.00     0.031 A 
ATOM     71  C   UNL A   1      46.038  27.910  27.283  1.00  0.00     0.131 A 
ATOM     72  C   UNL A   1      45.810  25.558  25.854  1.00  0.00     0.055 A 
ATOM     73  C   UNL A   1      46.158  27.934  25.891  1.00  0.00     0.041 A 
ATOM     74  F   UNL A   1      46.191  29.071  27.939  1.00  0.00    -0.206 F 
ATOM     75  C   UNL A   1      46.058  26.749  25.170  1.00  0.00     0.022 A 
BRANCH  72  76
ATOM     76  S   UNL A   1      45.819  23.980  24.956  1.00  0.00     0.124 S 
ATOM     77  O   UNL A   1      46.237  23.049  25.998  1.00  0.00    -0.237 OA
ATOM     78  O   UNL A   1      44.432  23.873  24.518  1.00  0.00    -0.237 OA
ATOM     79  O   UNL A   1      46.794  24.202  23.890  1.00  0.00    -0.744 OA
ENDBRANCH  72  76
ENDBRANCH  45  69
BRANCH  57  80
ATOM     80  C   UNL A   1      50.394  24.903  32.896  1.00  0.00     0.023 A 
ATOM     81  C   UNL A   1      50.594  23.513  32.946  1.00  0.00     0.031 A 
ATOM     82  C   UNL A   1      51.525  25.729  32.757  1.00  0.00     0.131 A 
ATOM     83  C   UNL A   1      51.896  22.993  32.914  1.00  0.00     0.055 A 
ATOM     84  C   UNL A   1      52.813  25.203  32.662  1.00  0.00     0.041 A 
ATOM     85  F   UNL A   1      51.394  27.064  32.703  1.00  0.00    -0.206 F 
ATOM     86  C   UNL A   1      53.006  23.827  32.754  1.00  0.00     0.022 A 
BRANCH  83  87
ATOM     87  S   UNL A   1      52.131  21.213  33.172  1.00  0.00     0.124 S 
ATOM     88  O   UNL A   1      50.803  20.686  32.880  1.00  0.00    -0.237 OA
ATOM     89  O   UNL A   1      53.173  20.891  32.201  1.00  0.00    -0.237 OA
ATOM     90  O   UNL A   1      52.541  21.121  34.572  1.00  0.00    -0.744 OA
ENDBRANCH  83  87
ENDBRANCH  57  80
ENDBRANCH  31  32
ENDBRANCH  24  26
ENDBRANCH  23  24
ENDBRANCH  22  23
ENDBRANCH  21  22
ENDBRANCH  20  21
ENDBRANCH   1  20
TORSDOF 22
ENDMDL
