MODEL 1
REMARK VINA RESULT:      -9.4      0.000      0.000
REMARK SMILES C[C@@](NC(=O)CCOC1CC[NH2+]CC1)(C(=O)OCCOCCOCCOC(=O)c1ccc(-c2c3nc(c(-c4cc(S(=O)(=O)[O-])ccc4F)c4ccc([nH]4)c(-c4cc(S(=O)(=O)[O-])ccc4F)c4nc(c(-c5cc(S(=O)(=O)[O-])ccc5F)c5ccc2[nH]5)C=C4)C=C3)cc1)C(F)(F)F
REMARK SMILES IDX 21 1 20 2 19 3 18 4 17 5 15 6 16 7 2 8 1 9 3 10 4 11 5 13
REMARK SMILES IDX 6 14 7 15 8 16 9 17 10 18 14 19 11 20 13 21 12 22 92 25
REMARK SMILES IDX 93 26 94 27 95 28 22 29 23 30 24 31 25 32 26 33 27 34 28 35
REMARK SMILES IDX 29 36 30 37 91 38 31 39 90 40 32 41 33 42 34 43 84 44 35 45
REMARK SMILES IDX 89 46 83 47 85 48 36 49 88 50 82 51 81 52 37 54 69 55 49 56
REMARK SMILES IDX 68 57 50 58 53 59 67 60 86 61 51 62 52 63 66 65 87 66 54 67
REMARK SMILES IDX 38 68 39 69 47 70 40 71 46 72 48 73 45 74 41 75 42 76 43 77
REMARK SMILES IDX 44 78 70 79 71 80 79 81 72 82 78 83 80 84 77 85 73 86 74 87
REMARK SMILES IDX 75 88 76 89 55 90 56 91 64 92 57 93 63 94 65 95 62 96 58 97
REMARK SMILES IDX 59 98 60 99 61 100
REMARK H PARENT 3 12 12 23 12 24 85 53 53 64
REMARK Flexibility Score: inf
ROOT
ATOM      1  C   UNL A   1      50.216  20.581  36.111  1.00  0.00     0.188 C 
ENDROOT
BRANCH   1   2
ATOM      2  O   UNL A   1      49.639  19.643  36.997  1.00  0.00    -0.376 OA
BRANCH   2   3
ATOM      3  C   UNL A   1      48.756  20.185  37.957  1.00  0.00     0.202 C 
BRANCH   3   4
ATOM      4  C   UNL A   1      47.653  19.286  38.524  1.00  0.00     0.261 C 
BRANCH   4   5
ATOM      5  O   UNL A   1      47.648  18.913  39.933  1.00  0.00    -0.461 OA
BRANCH   5   6
ATOM      6  C   UNL A   1      46.411  18.982  40.515  1.00  0.00     0.341 C 
ATOM      7  O   UNL A   1      45.739  20.008  40.455  1.00  0.00    -0.249 OA
BRANCH   6   8
ATOM      8  C   UNL A   1      46.065  17.832  41.485  1.00  0.00     0.231 C 
ATOM      9  C   UNL A   1      47.014  16.663  41.755  1.00  0.00     0.058 C 
BRANCH   8  10
ATOM     10  N   UNL A   1      45.667  18.393  42.837  1.00  0.00    -0.333 N 
ATOM     11  C   UNL A   1      44.828  17.838  43.774  1.00  0.00     0.223 C 
ATOM     12  H   UNL A   1      46.059  19.264  43.073  1.00  0.00     0.164 HD
ATOM     13  O   UNL A   1      44.016  18.575  44.337  1.00  0.00    -0.275 OA
BRANCH  11  14
ATOM     14  C   UNL A   1      45.004  16.409  44.254  1.00  0.00     0.128 C 
BRANCH  14  15
ATOM     15  C   UNL A   1      43.743  15.554  44.439  1.00  0.00     0.170 C 
BRANCH  15  16
ATOM     16  O   UNL A   1      43.600  14.454  43.523  1.00  0.00    -0.377 OA
BRANCH  16  17
ATOM     17  C   UNL A   1      42.246  14.193  43.113  1.00  0.00     0.129 C 
ATOM     18  C   UNL A   1      41.920  12.705  42.982  1.00  0.00     0.093 C 
ATOM     19  C   UNL A   1      41.885  15.075  41.898  1.00  0.00     0.093 C 
ATOM     20  C   UNL A   1      41.667  12.236  41.561  1.00  0.00     0.263 C 
ATOM     21  C   UNL A   1      41.418  14.383  40.627  1.00  0.00     0.263 C 
ATOM     22  N   UNL A   1      40.723  13.135  40.909  1.00  0.00    -0.346 N 
ATOM     23  H   UNL A   1      39.930  13.312  41.525  1.00  0.00     0.346 HD
ATOM     24  H   UNL A   1      40.375  12.720  40.045  1.00  0.00     0.346 HD
ENDBRANCH  16  17
ENDBRANCH  15  16
ENDBRANCH  14  15
ENDBRANCH  11  14
ENDBRANCH   8  10
BRANCH   8  25
ATOM     25  C   UNL A   1      44.912  17.129  40.704  1.00  0.00     0.422 C 
ATOM     26  F   UNL A   1      43.737  17.775  40.923  1.00  0.00    -0.168 F 
ATOM     27  F   UNL A   1      45.147  17.190  39.365  1.00  0.00    -0.168 F 
ATOM     28  F   UNL A   1      44.745  15.829  40.994  1.00  0.00    -0.168 F 
ENDBRANCH   8  25
ENDBRANCH   6   8
ENDBRANCH   5   6
ENDBRANCH   4   5
ENDBRANCH   3   4
ENDBRANCH   2   3
ENDBRANCH   1   2
BRANCH   1  29
ATOM     29  C   UNL A   1      49.963  22.062  36.388  1.00  0.00     0.188 C 
BRANCH  29  30
ATOM     30  O   UNL A   1      50.932  23.015  35.969  1.00  0.00    -0.376 OA
BRANCH  30  31
ATOM     31  C   UNL A   1      50.702  23.569  34.666  1.00  0.00     0.202 C 
BRANCH  31  32
ATOM     32  C   UNL A   1      49.842  24.845  34.569  1.00  0.00     0.261 C 
BRANCH  32  33
ATOM     33  O   UNL A   1      48.425  24.611  34.412  1.00  0.00    -0.460 OA
BRANCH  33  34
ATOM     34  C   UNL A   1      47.617  24.939  35.460  1.00  0.00     0.338 C 
ATOM     35  O   UNL A   1      47.885  24.798  36.626  1.00  0.00    -0.246 OA
BRANCH  34  36
ATOM     36  C   UNL A   1      46.484  25.778  34.935  1.00  0.00     0.060 A 
ATOM     37  C   UNL A   1      45.177  25.292  35.093  1.00  0.00     0.016 A 
ATOM     38  C   UNL A   1      46.673  27.067  34.418  1.00  0.00     0.016 A 
ATOM     39  C   UNL A   1      44.078  26.057  34.680  1.00  0.00     0.010 A 
ATOM     40  C   UNL A   1      45.572  27.835  34.011  1.00  0.00     0.010 A 
ATOM     41  C   UNL A   1      44.268  27.317  34.095  1.00  0.00    -0.014 A 
BRANCH  41  42
ATOM     42  C   UNL A   1      43.134  27.966  33.372  1.00  0.00     0.031 A 
ATOM     43  C   UNL A   1      42.951  27.639  31.908  1.00  0.00     0.074 A 
ATOM     44  C   UNL A   1      42.238  28.760  33.988  1.00  0.00     0.049 A 
ATOM     45  N   UNL A   1      42.018  28.024  31.075  1.00  0.00    -0.248 NA
ATOM     46  C   UNL A   1      43.962  26.755  31.307  1.00  0.00     0.031 C 
ATOM     47  C   UNL A   1      42.271  29.144  35.397  1.00  0.00     0.029 A 
ATOM     48  N   UNL A   1      41.113  29.385  33.497  1.00  0.00    -0.354 N 
ATOM     49  C   UNL A   1      42.315  27.411  29.863  1.00  0.00     0.074 A 
ATOM     50  C   UNL A   1      43.553  26.686  30.052  1.00  0.00     0.031 C 
ATOM     51  C   UNL A   1      41.215  29.939  35.657  1.00  0.00     0.029 A 
ATOM     52  C   UNL A   1      40.442  30.142  34.432  1.00  0.00     0.049 A 
ATOM     53  H   UNL A   1      40.816  29.299  32.563  1.00  0.00     0.167 HD
ATOM     54  C   UNL A   1      41.615  27.421  28.702  1.00  0.00     0.034 A 
ATOM     55  C   UNL A   1      39.340  30.914  34.312  1.00  0.00     0.034 A 
ATOM     56  C   UNL A   1      40.395  28.164  28.499  1.00  0.00     0.049 A 
ATOM     57  C   UNL A   1      38.623  30.988  32.979  1.00  0.00     0.074 A 
ATOM     58  C   UNL A   1      39.620  28.251  27.354  1.00  0.00     0.029 A 
ATOM     59  N   UNL A   1      39.777  28.958  29.455  1.00  0.00    -0.354 N 
ATOM     60  N   UNL A   1      38.909  30.384  31.847  1.00  0.00    -0.248 NA
ATOM     61  C   UNL A   1      37.423  31.836  32.916  1.00  0.00     0.031 C 
ATOM     62  C   UNL A   1      38.576  29.150  27.596  1.00  0.00     0.029 A 
ATOM     63  C   UNL A   1      38.647  29.560  28.917  1.00  0.00     0.049 A 
ATOM     64  H   UNL A   1      40.093  29.078  30.379  1.00  0.00     0.167 HD
ATOM     65  C   UNL A   1      37.905  30.758  30.952  1.00  0.00     0.074 A 
ATOM     66  C   UNL A   1      36.995  31.612  31.684  1.00  0.00     0.031 C 
ATOM     67  C   UNL A   1      37.750  30.426  29.644  1.00  0.00     0.034 A 
BRANCH  54  68
ATOM     68  C   UNL A   1      42.181  26.625  27.551  1.00  0.00     0.023 A 
ATOM     69  C   UNL A   1      41.855  25.269  27.365  1.00  0.00     0.031 A 
ATOM     70  C   UNL A   1      43.080  27.216  26.647  1.00  0.00     0.131 A 
ATOM     71  C   UNL A   1      42.476  24.534  26.346  1.00  0.00     0.055 A 
ATOM     72  C   UNL A   1      43.632  26.500  25.585  1.00  0.00     0.041 A 
ATOM     73  F   UNL A   1      43.449  28.499  26.791  1.00  0.00    -0.206 F 
ATOM     74  C   UNL A   1      43.342  25.146  25.436  1.00  0.00     0.022 A 
BRANCH  71  75
ATOM     75  S   UNL A   1      42.247  22.735  26.311  1.00  0.00     0.124 S 
ATOM     76  O   UNL A   1      42.797  22.394  25.001  1.00  0.00    -0.237 OA
ATOM     77  O   UNL A   1      43.024  22.295  27.464  1.00  0.00    -0.237 OA
ATOM     78  O   UNL A   1      40.800  22.570  26.433  1.00  0.00    -0.744 OA
ENDBRANCH  71  75
ENDBRANCH  54  68
BRANCH  55  79
ATOM     79  C   UNL A   1      38.849  31.733  35.465  1.00  0.00     0.023 A 
ATOM     80  C   UNL A   1      38.269  31.138  36.599  1.00  0.00     0.031 A 
ATOM     81  C   UNL A   1      38.865  33.137  35.397  1.00  0.00     0.131 A 
ATOM     82  C   UNL A   1      37.677  31.943  37.587  1.00  0.00     0.055 A 
ATOM     83  C   UNL A   1      38.330  33.933  36.411  1.00  0.00     0.041 A 
ATOM     84  F   UNL A   1      39.394  33.760  34.332  1.00  0.00    -0.206 F 
ATOM     85  C   UNL A   1      37.716  33.336  37.507  1.00  0.00     0.022 A 
BRANCH  82  86
ATOM     86  S   UNL A   1      36.747  31.141  38.926  1.00  0.00     0.124 S 
ATOM     87  O   UNL A   1      36.536  29.804  38.380  1.00  0.00    -0.237 OA
ATOM     88  O   UNL A   1      37.681  31.236  40.042  1.00  0.00    -0.237 OA
ATOM     89  O   UNL A   1      35.546  31.963  39.048  1.00  0.00    -0.744 OA
ENDBRANCH  82  86
ENDBRANCH  55  79
BRANCH  67  90
ATOM     90  C   UNL A   1      36.524  30.960  28.935  1.00  0.00     0.023 A 
ATOM     91  C   UNL A   1      35.541  30.105  28.405  1.00  0.00     0.031 A 
ATOM     92  C   UNL A   1      36.352  32.346  28.756  1.00  0.00     0.131 A 
ATOM     93  C   UNL A   1      34.476  30.636  27.658  1.00  0.00     0.055 A 
ATOM     94  C   UNL A   1      35.253  32.872  28.074  1.00  0.00     0.041 A 
ATOM     95  F   UNL A   1      37.255  33.215  29.238  1.00  0.00    -0.206 F 
ATOM     96  C   UNL A   1      34.318  32.015  27.503  1.00  0.00     0.022 A 
BRANCH  93  97
ATOM     97  S   UNL A   1      33.372  29.492  26.782  1.00  0.00     0.124 S 
ATOM     98  O   UNL A   1      32.962  30.288  25.630  1.00  0.00    -0.237 OA
ATOM     99  O   UNL A   1      34.254  28.365  26.498  1.00  0.00    -0.237 OA
ATOM    100  O   UNL A   1      32.316  29.222  27.756  1.00  0.00    -0.744 OA
ENDBRANCH  93  97
ENDBRANCH  67  90
ENDBRANCH  41  42
ENDBRANCH  34  36
ENDBRANCH  33  34
ENDBRANCH  32  33
ENDBRANCH  31  32
ENDBRANCH  30  31
ENDBRANCH  29  30
ENDBRANCH   1  29
TORSDOF 26
ENDMDL
MODEL 2
REMARK VINA RESULT:      -9.1      6.243     16.424
REMARK SMILES C[C@@](NC(=O)CCOC1CC[NH2+]CC1)(C(=O)OCCOCCOCCOC(=O)c1ccc(-c2c3nc(c(-c4cc(S(=O)(=O)[O-])ccc4F)c4ccc([nH]4)c(-c4cc(S(=O)(=O)[O-])ccc4F)c4nc(c(-c5cc(S(=O)(=O)[O-])ccc5F)c5ccc2[nH]5)C=C4)C=C3)cc1)C(F)(F)F
REMARK SMILES IDX 21 1 20 2 19 3 18 4 17 5 15 6 16 7 2 8 1 9 3 10 4 11 5 13
REMARK SMILES IDX 6 14 7 15 8 16 9 17 10 18 14 19 11 20 13 21 12 22 92 25
REMARK SMILES IDX 93 26 94 27 95 28 22 29 23 30 24 31 25 32 26 33 27 34 28 35
REMARK SMILES IDX 29 36 30 37 91 38 31 39 90 40 32 41 33 42 34 43 84 44 35 45
REMARK SMILES IDX 89 46 83 47 85 48 36 49 88 50 82 51 81 52 37 54 69 55 49 56
REMARK SMILES IDX 68 57 50 58 53 59 67 60 86 61 51 62 52 63 66 65 87 66 54 67
REMARK SMILES IDX 38 68 39 69 47 70 40 71 46 72 48 73 45 74 41 75 42 76 43 77
REMARK SMILES IDX 44 78 70 79 71 80 79 81 72 82 78 83 80 84 77 85 73 86 74 87
REMARK SMILES IDX 75 88 76 89 55 90 56 91 64 92 57 93 63 94 65 95 62 96 58 97
REMARK SMILES IDX 59 98 60 99 61 100
REMARK H PARENT 3 12 12 23 12 24 85 53 53 64
REMARK Flexibility Score: inf
ROOT
ATOM      1  C   UNL A   1      34.046  29.976  27.191  1.00  0.00     0.188 C 
ENDROOT
BRANCH   1   2
ATOM      2  O   UNL A   1      33.890  28.596  27.452  1.00  0.00    -0.376 OA
BRANCH   2   3
ATOM      3  C   UNL A   1      32.994  27.918  26.594  1.00  0.00     0.202 C 
BRANCH   3   4
ATOM      4  C   UNL A   1      33.537  26.781  25.725  1.00  0.00     0.261 C 
BRANCH   4   5
ATOM      5  O   UNL A   1      32.799  25.531  25.588  1.00  0.00    -0.461 OA
BRANCH   5   6
ATOM      6  C   UNL A   1      31.978  25.495  24.494  1.00  0.00     0.341 C 
ATOM      7  O   UNL A   1      30.778  25.734  24.593  1.00  0.00    -0.249 OA
BRANCH   6   8
ATOM      8  C   UNL A   1      32.583  24.851  23.228  1.00  0.00     0.231 C 
ATOM      9  C   UNL A   1      34.052  24.435  23.131  1.00  0.00     0.058 C 
BRANCH   8  10
ATOM     10  N   UNL A   1      31.760  23.646  22.813  1.00  0.00    -0.333 N 
ATOM     11  C   UNL A   1      31.881  22.345  23.241  1.00  0.00     0.223 C 
ATOM     12  H   UNL A   1      31.050  23.817  22.155  1.00  0.00     0.164 HD
ATOM     13  O   UNL A   1      31.799  21.446  22.401  1.00  0.00    -0.275 OA
BRANCH  11  14
ATOM     14  C   UNL A   1      31.923  21.993  24.717  1.00  0.00     0.128 C 
BRANCH  14  15
ATOM     15  C   UNL A   1      32.782  20.795  25.144  1.00  0.00     0.170 C 
BRANCH  15  16
ATOM     16  O   UNL A   1      33.201  19.922  24.080  1.00  0.00    -0.377 OA
BRANCH  16  17
ATOM     17  C   UNL A   1      32.607  18.612  24.117  1.00  0.00     0.129 C 
ATOM     18  C   UNL A   1      32.544  18.007  25.520  1.00  0.00     0.093 C 
ATOM     19  C   UNL A   1      33.232  17.720  23.022  1.00  0.00     0.093 C 
ATOM     20  C   UNL A   1      33.446  16.804  25.730  1.00  0.00     0.263 C 
ATOM     21  C   UNL A   1      33.887  16.417  23.450  1.00  0.00     0.263 C 
ATOM     22  N   UNL A   1      33.262  15.856  24.639  1.00  0.00    -0.346 N 
ATOM     23  H   UNL A   1      32.267  15.710  24.471  1.00  0.00     0.346 HD
ATOM     24  H   UNL A   1      33.685  14.958  24.873  1.00  0.00     0.346 HD
ENDBRANCH  16  17
ENDBRANCH  15  16
ENDBRANCH  14  15
ENDBRANCH  11  14
ENDBRANCH   8  10
BRANCH   8  25
ATOM     25  C   UNL A   1      32.528  26.051  22.234  1.00  0.00     0.422 C 
ATOM     26  F   UNL A   1      33.521  25.944  21.314  1.00  0.00    -0.168 F 
ATOM     27  F   UNL A   1      31.355  26.036  21.545  1.00  0.00    -0.168 F 
ATOM     28  F   UNL A   1      32.606  27.263  22.808  1.00  0.00    -0.168 F 
ENDBRANCH   8  25
ENDBRANCH   6   8
ENDBRANCH   5   6
ENDBRANCH   4   5
ENDBRANCH   3   4
ENDBRANCH   2   3
ENDBRANCH   1   2
BRANCH   1  29
ATOM     29  C   UNL A   1      35.397  30.608  27.522  1.00  0.00     0.188 C 
BRANCH  29  30
ATOM     30  O   UNL A   1      36.490  29.761  27.854  1.00  0.00    -0.376 OA
BRANCH  30  31
ATOM     31  C   UNL A   1      36.985  29.920  29.191  1.00  0.00     0.202 C 
BRANCH  31  32
ATOM     32  C   UNL A   1      35.954  30.094  30.324  1.00  0.00     0.261 C 
BRANCH  32  33
ATOM     33  O   UNL A   1      36.358  29.549  31.600  1.00  0.00    -0.460 OA
BRANCH  33  34
ATOM     34  C   UNL A   1      37.096  30.352  32.419  1.00  0.00     0.338 C 
ATOM     35  O   UNL A   1      36.666  31.251  33.095  1.00  0.00    -0.246 OA
BRANCH  34  36
ATOM     36  C   UNL A   1      38.461  29.739  32.572  1.00  0.00     0.060 A 
ATOM     37  C   UNL A   1      39.512  30.571  32.987  1.00  0.00     0.016 A 
ATOM     38  C   UNL A   1      38.691  28.363  32.444  1.00  0.00     0.016 A 
ATOM     39  C   UNL A   1      40.792  30.045  33.207  1.00  0.00     0.010 A 
ATOM     40  C   UNL A   1      39.972  27.835  32.672  1.00  0.00     0.010 A 
ATOM     41  C   UNL A   1      41.044  28.680  33.009  1.00  0.00    -0.014 A 
BRANCH  41  42
ATOM     42  C   UNL A   1      42.455  28.200  32.927  1.00  0.00     0.031 A 
ATOM     43  C   UNL A   1      43.186  27.930  34.221  1.00  0.00     0.074 A 
ATOM     44  C   UNL A   1      43.065  27.931  31.756  1.00  0.00     0.049 A 
ATOM     45  N   UNL A   1      44.391  27.459  34.420  1.00  0.00    -0.248 NA
ATOM     46  C   UNL A   1      42.452  28.237  35.459  1.00  0.00     0.031 C 
ATOM     47  C   UNL A   1      42.479  28.118  30.431  1.00  0.00     0.029 A 
ATOM     48  N   UNL A   1      44.323  27.434  31.499  1.00  0.00    -0.354 N 
ATOM     49  C   UNL A   1      44.548  27.388  35.800  1.00  0.00     0.074 A 
ATOM     50  C   UNL A   1      43.343  27.931  36.387  1.00  0.00     0.031 C 
ATOM     51  C   UNL A   1      43.377  27.741  29.500  1.00  0.00     0.029 A 
ATOM     52  C   UNL A   1      44.610  27.306  30.158  1.00  0.00     0.049 A 
ATOM     53  H   UNL A   1      44.960  27.192  32.209  1.00  0.00     0.167 HD
ATOM     54  C   UNL A   1      45.584  26.893  36.521  1.00  0.00     0.034 A 
ATOM     55  C   UNL A   1      45.735  26.896  29.533  1.00  0.00     0.034 A 
ATOM     56  C   UNL A   1      46.800  26.376  35.942  1.00  0.00     0.049 A 
ATOM     57  C   UNL A   1      46.919  26.435  30.359  1.00  0.00     0.074 A 
ATOM     58  C   UNL A   1      47.914  25.867  36.589  1.00  0.00     0.029 A 
ATOM     59  N   UNL A   1      47.070  26.312  34.582  1.00  0.00    -0.354 N 
ATOM     60  N   UNL A   1      47.042  26.356  31.664  1.00  0.00    -0.248 NA
ATOM     61  C   UNL A   1      48.110  25.989  29.620  1.00  0.00     0.031 C 
ATOM     62  C   UNL A   1      48.881  25.561  35.627  1.00  0.00     0.029 A 
ATOM     63  C   UNL A   1      48.343  25.798  34.372  1.00  0.00     0.049 A 
ATOM     64  H   UNL A   1      46.451  26.590  33.869  1.00  0.00     0.167 HD
ATOM     65  C   UNL A   1      48.311  25.825  31.897  1.00  0.00     0.074 A 
ATOM     66  C   UNL A   1      48.899  25.574  30.599  1.00  0.00     0.031 C 
ATOM     67  C   UNL A   1      48.935  25.566  33.076  1.00  0.00     0.034 A 
BRANCH  54  68
ATOM     68  C   UNL A   1      45.452  26.925  38.024  1.00  0.00     0.023 A 
ATOM     69  C   UNL A   1      45.871  28.038  38.775  1.00  0.00     0.031 A 
ATOM     70  C   UNL A   1      44.930  25.821  38.719  1.00  0.00     0.131 A 
ATOM     71  C   UNL A   1      45.827  27.994  40.176  1.00  0.00     0.055 A 
ATOM     72  C   UNL A   1      44.811  25.816  40.109  1.00  0.00     0.041 A 
ATOM     73  F   UNL A   1      44.538  24.720  38.057  1.00  0.00    -0.206 F 
ATOM     74  C   UNL A   1      45.273  26.901  40.848  1.00  0.00     0.022 A 
BRANCH  71  75
ATOM     75  S   UNL A   1      46.631  29.324  41.112  1.00  0.00     0.124 S 
ATOM     76  O   UNL A   1      45.538  30.283  41.258  1.00  0.00    -0.237 OA
ATOM     77  O   UNL A   1      47.051  28.643  42.331  1.00  0.00    -0.237 OA
ATOM     78  O   UNL A   1      47.715  29.756  40.232  1.00  0.00    -0.744 OA
ENDBRANCH  71  75
ENDBRANCH  54  68
BRANCH  55  79
ATOM     79  C   UNL A   1      45.842  26.939  28.041  1.00  0.00     0.023 A 
ATOM     80  C   UNL A   1      45.824  25.766  27.266  1.00  0.00     0.031 A 
ATOM     81  C   UNL A   1      46.067  28.159  27.379  1.00  0.00     0.131 A 
ATOM     82  C   UNL A   1      46.087  25.834  25.887  1.00  0.00     0.055 A 
ATOM     83  C   UNL A   1      46.266  28.226  25.999  1.00  0.00     0.041 A 
ATOM     84  F   UNL A   1      46.109  29.309  28.070  1.00  0.00    -0.206 F 
ATOM     85  C   UNL A   1      46.294  27.057  25.247  1.00  0.00     0.022 A 
BRANCH  82  86
ATOM     86  S   UNL A   1      46.272  24.285  24.956  1.00  0.00     0.124 S 
ATOM     87  O   UNL A   1      46.661  23.352  26.007  1.00  0.00    -0.237 OA
ATOM     88  O   UNL A   1      44.935  24.103  24.401  1.00  0.00    -0.237 OA
ATOM     89  O   UNL A   1      47.313  24.596  23.979  1.00  0.00    -0.744 OA
ENDBRANCH  82  86
ENDBRANCH  55  79
BRANCH  67  90
ATOM     90  C   UNL A   1      50.313  24.944  33.009  1.00  0.00     0.023 A 
ATOM     91  C   UNL A   1      50.497  23.550  32.966  1.00  0.00     0.031 A 
ATOM     92  C   UNL A   1      51.462  25.757  33.021  1.00  0.00     0.131 A 
ATOM     93  C   UNL A   1      51.793  23.011  33.017  1.00  0.00     0.055 A 
ATOM     94  C   UNL A   1      52.750  25.215  32.999  1.00  0.00     0.041 A 
ATOM     95  F   UNL A   1      51.354  27.095  33.061  1.00  0.00    -0.206 F 
ATOM     96  C   UNL A   1      52.921  23.836  33.016  1.00  0.00     0.022 A 
BRANCH  93  97
ATOM     97  S   UNL A   1      51.983  21.216  33.214  1.00  0.00     0.124 S 
ATOM     98  O   UNL A   1      52.909  20.889  32.136  1.00  0.00    -0.237 OA
ATOM     99  O   UNL A   1      52.515  21.107  34.568  1.00  0.00    -0.237 OA
ATOM    100  O   UNL A   1      50.623  20.708  33.040  1.00  0.00    -0.744 OA
ENDBRANCH  93  97
ENDBRANCH  67  90
ENDBRANCH  41  42
ENDBRANCH  34  36
ENDBRANCH  33  34
ENDBRANCH  32  33
ENDBRANCH  31  32
ENDBRANCH  30  31
ENDBRANCH  29  30
ENDBRANCH   1  29
TORSDOF 26
ENDMDL
MODEL 3
REMARK VINA RESULT:      -9.0     11.368     17.084
REMARK SMILES C[C@@](NC(=O)CCOC1CC[NH2+]CC1)(C(=O)OCCOCCOCCOC(=O)c1ccc(-c2c3nc(c(-c4cc(S(=O)(=O)[O-])ccc4F)c4ccc([nH]4)c(-c4cc(S(=O)(=O)[O-])ccc4F)c4nc(c(-c5cc(S(=O)(=O)[O-])ccc5F)c5ccc2[nH]5)C=C4)C=C3)cc1)C(F)(F)F
REMARK SMILES IDX 21 1 20 2 19 3 18 4 17 5 15 6 16 7 2 8 1 9 3 10 4 11 5 13
REMARK SMILES IDX 6 14 7 15 8 16 9 17 10 18 14 19 11 20 13 21 12 22 92 25
REMARK SMILES IDX 93 26 94 27 95 28 22 29 23 30 24 31 25 32 26 33 27 34 28 35
REMARK SMILES IDX 29 36 30 37 91 38 31 39 90 40 32 41 33 42 34 43 84 44 35 45
REMARK SMILES IDX 89 46 83 47 85 48 36 49 88 50 82 51 81 52 37 54 69 55 49 56
REMARK SMILES IDX 68 57 50 58 53 59 67 60 86 61 51 62 52 63 66 65 87 66 54 67
REMARK SMILES IDX 38 68 39 69 47 70 40 71 46 72 48 73 45 74 41 75 42 76 43 77
REMARK SMILES IDX 44 78 70 79 71 80 79 81 72 82 78 83 80 84 77 85 73 86 74 87
REMARK SMILES IDX 75 88 76 89 55 90 56 91 64 92 57 93 63 94 65 95 62 96 58 97
REMARK SMILES IDX 59 98 60 99 61 100
REMARK H PARENT 3 12 12 23 12 24 85 53 53 64
REMARK Flexibility Score: inf
ROOT
ATOM      1  C   UNL A   1      32.920  29.700  26.080  1.00  0.00     0.188 C 
ENDROOT
BRANCH   1   2
ATOM      2  O   UNL A   1      32.766  28.295  26.031  1.00  0.00    -0.376 OA
BRANCH   2   3
ATOM      3  C   UNL A   1      31.500  27.814  26.432  1.00  0.00     0.202 C 
BRANCH   3   4
ATOM      4  C   UNL A   1      31.219  26.313  26.313  1.00  0.00     0.261 C 
BRANCH   4   5
ATOM      5  O   UNL A   1      32.315  25.353  26.262  1.00  0.00    -0.461 OA
BRANCH   5   6
ATOM      6  C   UNL A   1      31.951  24.132  25.761  1.00  0.00     0.341 C 
ATOM      7  O   UNL A   1      31.013  23.503  26.243  1.00  0.00    -0.249 OA
BRANCH   6   8
ATOM      8  C   UNL A   1      32.962  23.482  24.792  1.00  0.00     0.231 C 
ATOM      9  C   UNL A   1      32.574  22.373  23.812  1.00  0.00     0.058 C 
BRANCH   8  10
ATOM     10  N   UNL A   1      33.670  24.551  23.983  1.00  0.00    -0.333 N 
ATOM     11  C   UNL A   1      33.229  25.192  22.849  1.00  0.00     0.223 C 
ATOM     12  H   UNL A   1      34.558  24.821  24.311  1.00  0.00     0.164 HD
ATOM     13  O   UNL A   1      34.031  25.366  21.929  1.00  0.00    -0.275 OA
BRANCH  11  14
ATOM     14  C   UNL A   1      31.859  25.842  22.785  1.00  0.00     0.128 C 
BRANCH  14  15
ATOM     15  C   UNL A   1      31.784  27.318  22.370  1.00  0.00     0.170 C 
BRANCH  15  16
ATOM     16  O   UNL A   1      30.521  27.748  21.831  1.00  0.00    -0.377 OA
BRANCH  16  17
ATOM     17  C   UNL A   1      29.846  28.742  22.622  1.00  0.00     0.129 C 
ATOM     18  C   UNL A   1      28.658  28.194  23.413  1.00  0.00     0.093 C 
ATOM     19  C   UNL A   1      29.568  29.996  21.764  1.00  0.00     0.093 C 
ATOM     20  C   UNL A   1      27.303  28.696  22.948  1.00  0.00     0.263 C 
ATOM     21  C   UNL A   1      28.127  30.465  21.631  1.00  0.00     0.263 C 
ATOM     22  N   UNL A   1      27.338  30.147  22.812  1.00  0.00    -0.346 N 
ATOM     23  H   UNL A   1      27.768  30.563  23.638  1.00  0.00     0.346 HD
ATOM     24  H   UNL A   1      26.393  30.518  22.718  1.00  0.00     0.346 HD
ENDBRANCH  16  17
ENDBRANCH  15  16
ENDBRANCH  14  15
ENDBRANCH  11  14
ENDBRANCH   8  10
BRANCH   8  25
ATOM     25  C   UNL A   1      33.874  22.712  25.796  1.00  0.00     0.422 C 
ATOM     26  F   UNL A   1      34.637  23.587  26.502  1.00  0.00    -0.168 F 
ATOM     27  F   UNL A   1      33.113  22.040  26.701  1.00  0.00    -0.168 F 
ATOM     28  F   UNL A   1      34.682  21.796  25.237  1.00  0.00    -0.168 F 
ENDBRANCH   8  25
ENDBRANCH   6   8
ENDBRANCH   5   6
ENDBRANCH   4   5
ENDBRANCH   3   4
ENDBRANCH   2   3
ENDBRANCH   1   2
BRANCH   1  29
ATOM     29  C   UNL A   1      33.381  30.315  27.400  1.00  0.00     0.188 C 
BRANCH  29  30
ATOM     30  O   UNL A   1      34.363  31.343  27.374  1.00  0.00    -0.376 OA
BRANCH  30  31
ATOM     31  C   UNL A   1      35.667  30.936  27.810  1.00  0.00     0.202 C 
BRANCH  31  32
ATOM     32  C   UNL A   1      35.886  30.723  29.322  1.00  0.00     0.261 C 
BRANCH  32  33
ATOM     33  O   UNL A   1      36.357  31.887  30.035  1.00  0.00    -0.460 OA
BRANCH  33  34
ATOM     34  C   UNL A   1      35.489  32.485  30.901  1.00  0.00     0.338 C 
ATOM     35  O   UNL A   1      34.294  32.555  30.762  1.00  0.00    -0.246 OA
BRANCH  34  36
ATOM     36  C   UNL A   1      36.222  32.761  32.185  1.00  0.00     0.060 A 
ATOM     37  C   UNL A   1      35.959  33.971  32.845  1.00  0.00     0.016 A 
ATOM     38  C   UNL A   1      37.047  31.813  32.805  1.00  0.00     0.016 A 
ATOM     39  C   UNL A   1      36.564  34.257  34.076  1.00  0.00     0.010 A 
ATOM     40  C   UNL A   1      37.648  32.097  34.041  1.00  0.00     0.010 A 
ATOM     41  C   UNL A   1      37.448  33.341  34.664  1.00  0.00    -0.014 A 
BRANCH  41  42
ATOM     42  C   UNL A   1      38.325  33.788  35.787  1.00  0.00     0.031 A 
ATOM     43  C   UNL A   1      39.567  34.575  35.443  1.00  0.00     0.074 A 
ATOM     44  C   UNL A   1      38.010  33.584  37.081  1.00  0.00     0.049 A 
ATOM     45  N   UNL A   1      40.457  35.122  36.232  1.00  0.00    -0.248 NA
ATOM     46  C   UNL A   1      39.839  34.769  34.010  1.00  0.00     0.031 C 
ATOM     47  C   UNL A   1      36.834  32.865  37.565  1.00  0.00     0.029 A 
ATOM     48  N   UNL A   1      38.661  33.973  38.230  1.00  0.00    -0.354 N 
ATOM     49  C   UNL A   1      41.376  35.743  35.394  1.00  0.00     0.074 A 
ATOM     50  C   UNL A   1      40.974  35.446  34.037  1.00  0.00     0.031 C 
ATOM     51  C   UNL A   1      36.847  32.865  38.912  1.00  0.00     0.029 A 
ATOM     52  C   UNL A   1      38.042  33.562  39.389  1.00  0.00     0.049 A 
ATOM     53  H   UNL A   1      39.494  34.498  38.223  1.00  0.00     0.167 HD
ATOM     54  C   UNL A   1      42.444  36.516  35.715  1.00  0.00     0.034 A 
ATOM     55  C   UNL A   1      38.400  33.720  40.682  1.00  0.00     0.034 A 
ATOM     56  C   UNL A   1      42.866  36.793  37.066  1.00  0.00     0.049 A 
ATOM     57  C   UNL A   1      39.650  34.507  41.018  1.00  0.00     0.074 A 
ATOM     58  C   UNL A   1      43.944  37.550  37.493  1.00  0.00     0.029 A 
ATOM     59  N   UNL A   1      42.242  36.315  38.210  1.00  0.00    -0.354 N 
ATOM     60  N   UNL A   1      40.497  35.106  40.211  1.00  0.00    -0.248 NA
ATOM     61  C   UNL A   1      39.980  34.655  42.444  1.00  0.00     0.031 C 
ATOM     62  C   UNL A   1      44.012  37.473  38.888  1.00  0.00     0.029 A 
ATOM     63  C   UNL A   1      42.928  36.739  39.340  1.00  0.00     0.049 A 
ATOM     64  H   UNL A   1      41.431  35.757  38.219  1.00  0.00     0.167 HD
ATOM     65  C   UNL A   1      41.439  35.723  41.036  1.00  0.00     0.074 A 
ATOM     66  C   UNL A   1      41.037  35.449  42.399  1.00  0.00     0.031 C 
ATOM     67  C   UNL A   1      42.536  36.450  40.698  1.00  0.00     0.034 A 
BRANCH  54  68
ATOM     68  C   UNL A   1      43.248  37.085  34.571  1.00  0.00     0.023 A 
ATOM     69  C   UNL A   1      43.073  38.413  34.139  1.00  0.00     0.031 A 
ATOM     70  C   UNL A   1      44.176  36.286  33.883  1.00  0.00     0.131 A 
ATOM     71  C   UNL A   1      43.763  38.878  33.011  1.00  0.00     0.055 A 
ATOM     72  C   UNL A   1      44.921  36.780  32.811  1.00  0.00     0.041 A 
ATOM     73  F   UNL A   1      44.366  35.003  34.232  1.00  0.00    -0.206 F 
ATOM     74  C   UNL A   1      44.707  38.080  32.360  1.00  0.00     0.022 A 
BRANCH  71  75
ATOM     75  S   UNL A   1      43.307  40.492  32.320  1.00  0.00     0.124 S 
ATOM     76  O   UNL A   1      44.550  41.243  32.481  1.00  0.00    -0.237 OA
ATOM     77  O   UNL A   1      42.936  40.156  30.950  1.00  0.00    -0.237 OA
ATOM     78  O   UNL A   1      42.206  40.933  33.175  1.00  0.00    -0.744 OA
ENDBRANCH  71  75
ENDBRANCH  54  68
BRANCH  55  79
ATOM     79  C   UNL A   1      37.604  33.087  41.781  1.00  0.00     0.023 A 
ATOM     80  C   UNL A   1      36.578  33.781  42.444  1.00  0.00     0.031 A 
ATOM     81  C   UNL A   1      37.935  31.802  42.248  1.00  0.00     0.131 A 
ATOM     82  C   UNL A   1      35.963  33.213  43.573  1.00  0.00     0.055 A 
ATOM     83  C   UNL A   1      37.278  31.218  43.332  1.00  0.00     0.041 A 
ATOM     84  F   UNL A   1      38.916  31.098  41.662  1.00  0.00    -0.206 F 
ATOM     85  C   UNL A   1      36.296  31.930  44.012  1.00  0.00     0.022 A 
BRANCH  82  86
ATOM     86  S   UNL A   1      34.799  34.223  44.534  1.00  0.00     0.124 S 
ATOM     87  O   UNL A   1      35.631  35.362  44.906  1.00  0.00    -0.237 OA
ATOM     88  O   UNL A   1      33.749  34.489  43.557  1.00  0.00    -0.237 OA
ATOM     89  O   UNL A   1      34.413  33.344  45.636  1.00  0.00    -0.744 OA
ENDBRANCH  82  86
ENDBRANCH  55  79
BRANCH  67  90
ATOM     90  C   UNL A   1      43.356  37.033  41.830  1.00  0.00     0.023 A 
ATOM     91  C   UNL A   1      43.071  38.296  42.378  1.00  0.00     0.031 A 
ATOM     92  C   UNL A   1      44.459  36.328  42.346  1.00  0.00     0.131 A 
ATOM     93  C   UNL A   1      43.922  38.849  43.349  1.00  0.00     0.055 A 
ATOM     94  C   UNL A   1      45.260  36.853  43.363  1.00  0.00     0.041 A 
ATOM     95  F   UNL A   1      44.784  35.117  41.866  1.00  0.00    -0.206 F 
ATOM     96  C   UNL A   1      45.005  38.127  43.857  1.00  0.00     0.022 A 
BRANCH  93  97
ATOM     97  S   UNL A   1      43.669  40.575  43.849  1.00  0.00     0.124 S 
ATOM     98  O   UNL A   1      43.375  41.220  42.574  1.00  0.00    -0.237 OA
ATOM     99  O   UNL A   1      42.552  40.468  44.782  1.00  0.00    -0.237 OA
ATOM    100  O   UNL A   1      44.947  40.948  44.453  1.00  0.00    -0.744 OA
ENDBRANCH  93  97
ENDBRANCH  67  90
ENDBRANCH  41  42
ENDBRANCH  34  36
ENDBRANCH  33  34
ENDBRANCH  32  33
ENDBRANCH  31  32
ENDBRANCH  30  31
ENDBRANCH  29  30
ENDBRANCH   1  29
TORSDOF 26
ENDMDL
