MODEL 1
REMARK VINA RESULT:     -12.8      0.000      0.000
REMARK SMILES Cc1cc(/C=C2/C(=O)NC(=S)N=C2OCCOCCOCCOC(=O)c2ccc(-c3c4nc(c(-c5cc(S(=O)(=O)[O-])ccc5F)c5ccc([nH]5)c(-c5cc(S(=O)(=O)[O-])ccc5F)c5nc(c(-c6cc(S(=O)(=O)[O-])ccc6F)c6ccc3[nH]6)C=C5)C=C4)cc2)c(C)n1-c1cccc(C(=O)[O-])c1
REMARK SMILES IDX 19 1 18 2 17 3 16 4 15 5 14 6 13 7 5 8 6 9 7 10 8 11 9 12
REMARK SMILES IDX 12 13 10 14 11 16 4 17 1 18 2 19 3 20 91 21 89 22 90 23
REMARK SMILES IDX 92 24 93 25 100 26 94 27 96 28 95 29 97 30 98 31 99 32 20 33
REMARK SMILES IDX 21 34 22 35 23 36 24 37 25 38 26 39 27 40 88 41 28 42 87 43
REMARK SMILES IDX 29 44 30 45 31 46 81 47 32 48 86 49 80 50 82 51 33 52 85 53
REMARK SMILES IDX 79 54 78 55 34 57 66 58 46 59 65 60 47 61 50 62 64 63 83 64
REMARK SMILES IDX 48 65 49 66 63 68 84 69 51 70 35 71 36 72 44 73 37 74 43 75
REMARK SMILES IDX 45 76 42 77 38 78 39 79 40 80 41 81 67 82 68 83 76 84 69 85
REMARK SMILES IDX 75 86 77 87 74 88 70 89 71 90 72 91 73 92 52 93 53 94 61 95
REMARK SMILES IDX 54 96 60 97 62 98 59 99 55 100 56 101 57 102 58 103
REMARK H PARENT 9 15 82 56 50 67
REMARK Flexibility Score: inf
ROOT
ATOM      1  C   UNL A   1      32.771  28.872  27.249  1.00  0.00     0.188 C 
ENDROOT
BRANCH   1   2
ATOM      2  C   UNL A   1      33.978  28.250  26.542  1.00  0.00     0.188 C 
BRANCH   2   3
ATOM      3  O   UNL A   1      34.087  28.334  25.126  1.00  0.00    -0.376 OA
BRANCH   3   4
ATOM      4  C   UNL A   1      32.970  27.864  24.357  1.00  0.00     0.201 C 
BRANCH   4   5
ATOM      5  C   UNL A   1      32.229  28.867  23.425  1.00  0.00     0.260 C 
BRANCH   5   6
ATOM      6  O   UNL A   1      31.208  28.281  22.561  1.00  0.00    -0.475 OA
BRANCH   6   7
ATOM      7  C   UNL A   1      29.987  28.852  22.595  1.00  0.00     0.229 C 
ATOM      8  C   UNL A   1      28.913  26.936  24.036  1.00  0.00     0.029 C 
ATOM      9  C   UNL A   1      28.930  28.069  23.292  1.00  0.00     0.103 C 
ATOM     10  C   UNL A   1      27.555  28.635  23.056  1.00  0.00     0.262 C 
ATOM     11  O   UNL A   1      26.530  28.203  23.575  1.00  0.00    -0.269 OA
ATOM     12  N   UNL A   1      27.489  29.695  22.197  1.00  0.00    -0.297 N 
ATOM     13  N   UNL A   1      29.800  29.932  21.916  1.00  0.00    -0.184 NA
ATOM     14  C   UNL A   1      28.543  30.373  21.658  1.00  0.00     0.203 C 
ATOM     15  H   UNL A   1      26.590  30.002  21.942  1.00  0.00     0.172 HD
ATOM     16  S   UNL A   1      28.219  31.665  20.644  1.00  0.00    -0.038 S 
BRANCH   8  17
ATOM     17  C   UNL A   1      29.874  25.977  24.509  1.00  0.00    -0.003 A 
ATOM     18  C   UNL A   1      31.163  23.568  27.086  1.00  0.00     0.065 C 
ATOM     19  C   UNL A   1      30.821  24.448  25.938  1.00  0.00     0.020 A 
ATOM     20  C   UNL A   1      29.882  25.464  25.845  1.00  0.00     0.031 A 
ATOM     21  N   UNL A   1      31.473  24.411  24.726  1.00  0.00    -0.318 N 
ATOM     22  C   UNL A   1      30.745  25.162  23.816  1.00  0.00     0.027 A 
ATOM     23  C   UNL A   1      30.910  24.887  22.375  1.00  0.00     0.065 C 
BRANCH  21  24
ATOM     24  C   UNL A   1      32.589  23.626  24.345  1.00  0.00     0.046 A 
ATOM     25  C   UNL A   1      32.349  22.296  23.970  1.00  0.00     0.026 A 
ATOM     26  C   UNL A   1      33.878  24.060  24.673  1.00  0.00     0.036 A 
ATOM     27  C   UNL A   1      33.402  21.387  23.921  1.00  0.00     0.003 A 
ATOM     28  C   UNL A   1      34.930  23.132  24.653  1.00  0.00    -0.001 A 
ATOM     29  C   UNL A   1      34.687  21.800  24.273  1.00  0.00     0.010 A 
BRANCH  28  30
ATOM     30  C   UNL A   1      36.289  23.486  25.109  1.00  0.00     0.072 C 
ATOM     31  O   UNL A   1      36.580  24.472  25.789  1.00  0.00    -0.545 OA
ATOM     32  O   UNL A   1      37.230  22.634  24.687  1.00  0.00    -0.545 OA
ENDBRANCH  28  30
ENDBRANCH  21  24
ENDBRANCH   8  17
ENDBRANCH   6   7
ENDBRANCH   5   6
ENDBRANCH   4   5
ENDBRANCH   3   4
ENDBRANCH   2   3
ENDBRANCH   1   2
BRANCH   1  33
ATOM     33  O   UNL A   1      32.672  30.280  27.128  1.00  0.00    -0.376 OA
BRANCH  33  34
ATOM     34  C   UNL A   1      33.921  30.978  27.219  1.00  0.00     0.202 C 
BRANCH  34  35
ATOM     35  C   UNL A   1      34.064  32.021  28.369  1.00  0.00     0.261 C 
BRANCH  35  36
ATOM     36  O   UNL A   1      35.084  31.797  29.415  1.00  0.00    -0.460 OA
BRANCH  36  37
ATOM     37  C   UNL A   1      36.269  32.489  29.286  1.00  0.00     0.338 C 
ATOM     38  O   UNL A   1      36.328  33.707  29.413  1.00  0.00    -0.246 OA
BRANCH  37  39
ATOM     39  C   UNL A   1      37.545  31.664  29.018  1.00  0.00     0.060 A 
ATOM     40  C   UNL A   1      37.480  30.626  28.103  1.00  0.00     0.016 A 
ATOM     41  C   UNL A   1      38.732  31.673  29.785  1.00  0.00     0.016 A 
ATOM     42  C   UNL A   1      38.567  29.689  27.942  1.00  0.00     0.010 A 
ATOM     43  C   UNL A   1      39.814  30.649  29.668  1.00  0.00     0.010 A 
ATOM     44  C   UNL A   1      39.778  29.589  28.742  1.00  0.00    -0.014 A 
BRANCH  44  45
ATOM     45  C   UNL A   1      40.648  28.143  28.673  1.00  0.00     0.031 A 
ATOM     46  C   UNL A   1      41.511  28.257  29.887  1.00  0.00     0.074 A 
ATOM     47  C   UNL A   1      40.963  26.985  27.915  1.00  0.00     0.049 A 
ATOM     48  N   UNL A   1      42.282  29.299  30.023  1.00  0.00    -0.248 NA
ATOM     49  C   UNL A   1      41.259  27.527  31.132  1.00  0.00     0.031 C 
ATOM     50  C   UNL A   1      40.504  26.632  26.557  1.00  0.00     0.029 A 
ATOM     51  N   UNL A   1      41.804  25.812  28.160  1.00  0.00    -0.354 N 
ATOM     52  C   UNL A   1      42.873  29.191  31.253  1.00  0.00     0.074 A 
ATOM     53  C   UNL A   1      42.037  28.231  31.964  1.00  0.00     0.031 C 
ATOM     54  C   UNL A   1      40.902  25.377  26.170  1.00  0.00     0.029 A 
ATOM     55  C   UNL A   1      41.740  24.720  27.182  1.00  0.00     0.049 A 
ATOM     56  H   UNL A   1      42.390  25.758  28.950  1.00  0.00     0.167 HD
ATOM     57  C   UNL A   1      44.233  29.306  31.259  1.00  0.00     0.034 A 
ATOM     58  C   UNL A   1      42.346  23.442  27.109  1.00  0.00     0.034 A 
ATOM     59  C   UNL A   1      44.863  28.015  31.330  1.00  0.00     0.049 A 
ATOM     60  C   UNL A   1      43.575  23.488  27.899  1.00  0.00     0.074 A 
ATOM     61  C   UNL A   1      44.620  26.890  32.095  1.00  0.00     0.029 A 
ATOM     62  N   UNL A   1      45.544  27.591  30.209  1.00  0.00    -0.354 N 
ATOM     63  N   UNL A   1      44.660  24.021  27.435  1.00  0.00    -0.248 NA
ATOM     64  C   UNL A   1      43.688  22.881  29.218  1.00  0.00     0.031 C 
ATOM     65  C   UNL A   1      44.688  25.818  31.178  1.00  0.00     0.029 A 
ATOM     66  C   UNL A   1      45.344  26.240  30.026  1.00  0.00     0.049 A 
ATOM     67  H   UNL A   1      46.090  28.167  29.627  1.00  0.00     0.167 HD
ATOM     68  C   UNL A   1      45.328  24.343  28.573  1.00  0.00     0.074 A 
ATOM     69  C   UNL A   1      44.876  23.382  29.563  1.00  0.00     0.031 C 
ATOM     70  C   UNL A   1      45.641  25.654  28.733  1.00  0.00     0.034 A 
BRANCH  57  71
ATOM     71  C   UNL A   1      44.749  30.457  30.430  1.00  0.00     0.023 A 
ATOM     72  C   UNL A   1      44.363  30.561  29.089  1.00  0.00     0.031 A 
ATOM     73  C   UNL A   1      45.715  31.373  30.906  1.00  0.00     0.131 A 
ATOM     74  C   UNL A   1      44.994  31.498  28.253  1.00  0.00     0.055 A 
ATOM     75  C   UNL A   1      46.390  32.250  30.058  1.00  0.00     0.041 A 
ATOM     76  F   UNL A   1      46.025  31.428  32.212  1.00  0.00    -0.206 F 
ATOM     77  C   UNL A   1      46.037  32.308  28.717  1.00  0.00     0.022 A 
BRANCH  74  78
ATOM     78  S   UNL A   1      44.411  31.671  26.545  1.00  0.00     0.124 S 
ATOM     79  O   UNL A   1      45.635  31.487  25.774  1.00  0.00    -0.237 OA
ATOM     80  O   UNL A   1      43.434  30.589  26.443  1.00  0.00    -0.237 OA
ATOM     81  O   UNL A   1      43.844  33.018  26.504  1.00  0.00    -0.744 OA
ENDBRANCH  74  78
ENDBRANCH  57  71
BRANCH  58  82
ATOM     82  C   UNL A   1      42.312  22.024  26.389  1.00  0.00     0.023 A 
ATOM     83  C   UNL A   1      43.473  21.413  25.730  1.00  0.00     0.031 A 
ATOM     84  C   UNL A   1      41.303  21.104  26.701  1.00  0.00     0.131 A 
ATOM     85  C   UNL A   1      43.578  20.004  25.467  1.00  0.00     0.055 A 
ATOM     86  C   UNL A   1      41.412  19.713  26.434  1.00  0.00     0.041 A 
ATOM     87  F   UNL A   1      40.220  21.503  27.383  1.00  0.00    -0.206 F 
ATOM     88  C   UNL A   1      42.542  19.158  25.836  1.00  0.00     0.022 A 
BRANCH  85  89
ATOM     89  S   UNL A   1      45.111  19.189  24.793  1.00  0.00     0.124 S 
ATOM     90  O   UNL A   1      44.760  18.910  23.407  1.00  0.00    -0.237 OA
ATOM     91  O   UNL A   1      46.142  20.196  25.018  1.00  0.00    -0.237 OA
ATOM     92  O   UNL A   1      45.262  17.991  25.627  1.00  0.00    -0.744 OA
ENDBRANCH  85  89
ENDBRANCH  58  82
BRANCH  70  93
ATOM     93  C   UNL A   1      46.082  26.431  27.487  1.00  0.00     0.023 A 
ATOM     94  C   UNL A   1      47.367  26.390  26.875  1.00  0.00     0.031 A 
ATOM     95  C   UNL A   1      45.160  27.325  26.920  1.00  0.00     0.131 A 
ATOM     96  C   UNL A   1      47.689  27.232  25.790  1.00  0.00     0.055 A 
ATOM     97  C   UNL A   1      45.461  28.123  25.812  1.00  0.00     0.041 A 
ATOM     98  F   UNL A   1      43.928  27.443  27.441  1.00  0.00    -0.206 F 
ATOM     99  C   UNL A   1      46.732  28.092  25.253  1.00  0.00     0.022 A 
BRANCH  96 100
ATOM    100  S   UNL A   1      49.388  27.279  25.118  1.00  0.00     0.124 S 
ATOM    101  O   UNL A   1      50.070  28.231  25.987  1.00  0.00    -0.237 OA
ATOM    102  O   UNL A   1      49.818  25.889  25.236  1.00  0.00    -0.237 OA
ATOM    103  O   UNL A   1      49.197  27.744  23.743  1.00  0.00    -0.744 OA
ENDBRANCH  96 100
ENDBRANCH  70  93
ENDBRANCH  44  45
ENDBRANCH  37  39
ENDBRANCH  36  37
ENDBRANCH  35  36
ENDBRANCH  34  35
ENDBRANCH  33  34
ENDBRANCH   1  33
TORSDOF 22
ENDMDL
MODEL 2
REMARK VINA RESULT:     -12.3      4.614     10.198
REMARK SMILES Cc1cc(/C=C2/C(=O)NC(=S)N=C2OCCOCCOCCOC(=O)c2ccc(-c3c4nc(c(-c5cc(S(=O)(=O)[O-])ccc5F)c5ccc([nH]5)c(-c5cc(S(=O)(=O)[O-])ccc5F)c5nc(c(-c6cc(S(=O)(=O)[O-])ccc6F)c6ccc3[nH]6)C=C5)C=C4)cc2)c(C)n1-c1cccc(C(=O)[O-])c1
REMARK SMILES IDX 19 1 18 2 17 3 16 4 15 5 14 6 13 7 5 8 6 9 7 10 8 11 9 12
REMARK SMILES IDX 12 13 10 14 11 16 4 17 1 18 2 19 3 20 91 21 89 22 90 23
REMARK SMILES IDX 92 24 93 25 100 26 94 27 96 28 95 29 97 30 98 31 99 32 20 33
REMARK SMILES IDX 21 34 22 35 23 36 24 37 25 38 26 39 27 40 88 41 28 42 87 43
REMARK SMILES IDX 29 44 30 45 31 46 81 47 32 48 86 49 80 50 82 51 33 52 85 53
REMARK SMILES IDX 79 54 78 55 34 57 66 58 46 59 65 60 47 61 50 62 64 63 83 64
REMARK SMILES IDX 48 65 49 66 63 68 84 69 51 70 35 71 36 72 44 73 37 74 43 75
REMARK SMILES IDX 45 76 42 77 38 78 39 79 40 80 41 81 67 82 68 83 76 84 69 85
REMARK SMILES IDX 75 86 77 87 74 88 70 89 71 90 72 91 73 92 52 93 53 94 61 95
REMARK SMILES IDX 54 96 60 97 62 98 59 99 55 100 56 101 57 102 58 103
REMARK H PARENT 9 15 82 56 50 67
REMARK Flexibility Score: inf
ROOT
ATOM      1  C   UNL A   1      39.420  21.849  25.783  1.00  0.00     0.188 C 
ENDROOT
BRANCH   1   2
ATOM      2  C   UNL A   1      38.061  22.550  25.827  1.00  0.00     0.188 C 
BRANCH   2   3
ATOM      3  O   UNL A   1      36.944  21.967  25.167  1.00  0.00    -0.376 OA
BRANCH   3   4
ATOM      4  C   UNL A   1      36.137  22.835  24.358  1.00  0.00     0.201 C 
BRANCH   4   5
ATOM      5  C   UNL A   1      35.453  24.062  25.030  1.00  0.00     0.260 C 
BRANCH   5   6
ATOM      6  O   UNL A   1      34.178  24.465  24.445  1.00  0.00    -0.475 OA
BRANCH   6   7
ATOM      7  C   UNL A   1      33.392  25.262  25.198  1.00  0.00     0.229 C 
ATOM      8  C   UNL A   1      31.547  23.428  25.566  1.00  0.00     0.029 C 
ATOM      9  C   UNL A   1      32.101  24.663  25.636  1.00  0.00     0.103 C 
ATOM     10  C   UNL A   1      31.173  25.688  26.233  1.00  0.00     0.262 C 
ATOM     11  O   UNL A   1      30.078  25.429  26.723  1.00  0.00    -0.269 OA
ATOM     12  N   UNL A   1      31.618  26.979  26.203  1.00  0.00    -0.297 N 
ATOM     13  N   UNL A   1      33.744  26.492  25.356  1.00  0.00    -0.184 NA
ATOM     14  C   UNL A   1      32.858  27.406  25.826  1.00  0.00     0.203 C 
ATOM     15  H   UNL A   1      30.979  27.674  26.481  1.00  0.00     0.172 HD
ATOM     16  S   UNL A   1      33.188  29.045  25.895  1.00  0.00    -0.038 S 
BRANCH   8  17
ATOM     17  C   UNL A   1      31.925  22.136  25.064  1.00  0.00    -0.003 A 
ATOM     18  C   UNL A   1      32.339  19.652  22.278  1.00  0.00     0.065 C 
ATOM     19  C   UNL A   1      32.275  20.480  23.509  1.00  0.00     0.020 A 
ATOM     20  C   UNL A   1      31.643  21.696  23.731  1.00  0.00     0.031 A 
ATOM     21  N   UNL A   1      32.833  20.108  24.711  1.00  0.00    -0.318 N 
ATOM     22  C   UNL A   1      32.817  21.206  25.557  1.00  0.00     0.027 A 
ATOM     23  C   UNL A   1      33.779  21.254  26.676  1.00  0.00     0.065 C 
BRANCH  21  24
ATOM     24  C   UNL A   1      33.492  18.900  25.044  1.00  0.00     0.046 A 
ATOM     25  C   UNL A   1      34.821  18.749  24.623  1.00  0.00     0.026 A 
ATOM     26  C   UNL A   1      32.737  17.796  25.452  1.00  0.00     0.036 A 
ATOM     27  C   UNL A   1      35.406  17.485  24.608  1.00  0.00     0.003 A 
ATOM     28  C   UNL A   1      33.321  16.521  25.405  1.00  0.00    -0.001 A 
ATOM     29  C   UNL A   1      34.655  16.373  24.987  1.00  0.00     0.010 A 
BRANCH  28  30
ATOM     30  C   UNL A   1      32.546  15.298  25.698  1.00  0.00     0.072 C 
ATOM     31  O   UNL A   1      32.539  14.275  25.011  1.00  0.00    -0.545 OA
ATOM     32  O   UNL A   1      31.794  15.397  26.800  1.00  0.00    -0.545 OA
ENDBRANCH  28  30
ENDBRANCH  21  24
ENDBRANCH   8  17
ENDBRANCH   6   7
ENDBRANCH   5   6
ENDBRANCH   4   5
ENDBRANCH   3   4
ENDBRANCH   2   3
ENDBRANCH   1   2
BRANCH   1  33
ATOM     33  O   UNL A   1      39.712  21.047  26.914  1.00  0.00    -0.376 OA
BRANCH  33  34
ATOM     34  C   UNL A   1      40.818  20.150  26.743  1.00  0.00     0.202 C 
BRANCH  34  35
ATOM     35  C   UNL A   1      42.245  20.745  26.936  1.00  0.00     0.261 C 
BRANCH  35  36
ATOM     36  O   UNL A   1      42.425  21.891  27.854  1.00  0.00    -0.460 OA
BRANCH  36  37
ATOM     37  C   UNL A   1      42.527  23.138  27.277  1.00  0.00     0.338 C 
ATOM     38  O   UNL A   1      42.928  23.294  26.130  1.00  0.00    -0.246 OA
BRANCH  37  39
ATOM     39  C   UNL A   1      42.068  24.347  28.120  1.00  0.00     0.060 A 
ATOM     40  C   UNL A   1      40.732  24.710  28.081  1.00  0.00     0.016 A 
ATOM     41  C   UNL A   1      42.900  25.303  28.748  1.00  0.00     0.016 A 
ATOM     42  C   UNL A   1      40.263  25.937  28.680  1.00  0.00     0.010 A 
ATOM     43  C   UNL A   1      42.415  26.607  29.291  1.00  0.00     0.010 A 
ATOM     44  C   UNL A   1      41.063  26.998  29.272  1.00  0.00    -0.014 A 
BRANCH  44  45
ATOM     45  C   UNL A   1      40.341  28.514  29.462  1.00  0.00     0.031 A 
ATOM     46  C   UNL A   1      41.537  29.403  29.557  1.00  0.00     0.074 A 
ATOM     47  C   UNL A   1      39.136  29.233  29.675  1.00  0.00     0.049 A 
ATOM     48  N   UNL A   1      42.438  29.160  30.466  1.00  0.00    -0.248 NA
ATOM     49  C   UNL A   1      42.001  30.257  28.460  1.00  0.00     0.031 C 
ATOM     50  C   UNL A   1      37.777  28.695  29.882  1.00  0.00     0.029 A 
ATOM     51  N   UNL A   1      38.812  30.658  29.781  1.00  0.00    -0.354 N 
ATOM     52  C   UNL A   1      43.453  30.056  30.261  1.00  0.00     0.074 A 
ATOM     53  C   UNL A   1      43.238  30.528  28.898  1.00  0.00     0.031 C 
ATOM     54  C   UNL A   1      36.819  29.676  29.935  1.00  0.00     0.029 A 
ATOM     55  C   UNL A   1      37.392  31.024  29.835  1.00  0.00     0.049 A 
ATOM     56  H   UNL A   1      39.520  31.342  29.815  1.00  0.00     0.167 HD
ATOM     57  C   UNL A   1      43.832  30.770  31.361  1.00  0.00     0.034 A 
ATOM     58  C   UNL A   1      36.708  32.263  29.881  1.00  0.00     0.034 A 
ATOM     59  C   UNL A   1      43.257  32.088  31.348  1.00  0.00     0.049 A 
ATOM     60  C   UNL A   1      37.620  33.252  30.454  1.00  0.00     0.074 A 
ATOM     61  C   UNL A   1      43.118  33.045  30.361  1.00  0.00     0.029 A 
ATOM     62  N   UNL A   1      42.295  32.357  32.298  1.00  0.00    -0.354 N 
ATOM     63  N   UNL A   1      37.827  33.325  31.730  1.00  0.00    -0.248 NA
ATOM     64  C   UNL A   1      38.298  34.260  29.649  1.00  0.00     0.031 C 
ATOM     65  C   UNL A   1      41.787  33.498  30.493  1.00  0.00     0.029 A 
ATOM     66  C   UNL A   1      41.301  33.136  31.745  1.00  0.00     0.049 A 
ATOM     67  H   UNL A   1      42.315  32.040  33.229  1.00  0.00     0.167 HD
ATOM     68  C   UNL A   1      39.046  33.923  31.787  1.00  0.00     0.074 A 
ATOM     69  C   UNL A   1      39.130  34.728  30.581  1.00  0.00     0.031 C 
ATOM     70  C   UNL A   1      40.023  33.230  32.424  1.00  0.00     0.034 A 
BRANCH  57  71
ATOM     71  C   UNL A   1      44.000  29.929  32.603  1.00  0.00     0.023 A 
ATOM     72  C   UNL A   1      42.944  29.113  33.022  1.00  0.00     0.031 A 
ATOM     73  C   UNL A   1      45.131  30.023  33.446  1.00  0.00     0.131 A 
ATOM     74  C   UNL A   1      43.004  28.489  34.281  1.00  0.00     0.055 A 
ATOM     75  C   UNL A   1      45.155  29.463  34.722  1.00  0.00     0.041 A 
ATOM     76  F   UNL A   1      46.238  30.668  33.041  1.00  0.00    -0.206 F 
ATOM     77  C   UNL A   1      44.079  28.698  35.152  1.00  0.00     0.022 A 
BRANCH  74  78
ATOM     78  S   UNL A   1      41.663  27.366  34.758  1.00  0.00     0.124 S 
ATOM     79  O   UNL A   1      40.696  27.555  33.683  1.00  0.00    -0.237 OA
ATOM     80  O   UNL A   1      42.338  26.070  34.776  1.00  0.00    -0.237 OA
ATOM     81  O   UNL A   1      41.244  27.859  36.069  1.00  0.00    -0.744 OA
ENDBRANCH  74  78
ENDBRANCH  57  71
BRANCH  58  82
ATOM     82  C   UNL A   1      35.299  32.981  29.709  1.00  0.00     0.023 A 
ATOM     83  C   UNL A   1      34.712  33.882  30.707  1.00  0.00     0.031 A 
ATOM     84  C   UNL A   1      34.738  33.122  28.434  1.00  0.00     0.131 A 
ATOM     85  C   UNL A   1      33.690  34.843  30.396  1.00  0.00     0.055 A 
ATOM     86  C   UNL A   1      33.724  34.071  28.134  1.00  0.00     0.041 A 
ATOM     87  F   UNL A   1      35.233  32.425  27.401  1.00  0.00    -0.206 F 
ATOM     88  C   UNL A   1      33.209  34.938  29.098  1.00  0.00     0.022 A 
BRANCH  85  89
ATOM     89  S   UNL A   1      33.059  36.111  31.604  1.00  0.00     0.124 S 
ATOM     90  O   UNL A   1      34.209  36.353  32.466  1.00  0.00    -0.237 OA
ATOM     91  O   UNL A   1      32.647  37.211  30.738  1.00  0.00    -0.237 OA
ATOM     92  O   UNL A   1      31.942  35.432  32.270  1.00  0.00    -0.744 OA
ENDBRANCH  85  89
ENDBRANCH  58  82
BRANCH  70  93
ATOM     93  C   UNL A   1      39.629  32.453  33.686  1.00  0.00     0.023 A 
ATOM     94  C   UNL A   1      39.423  32.996  34.985  1.00  0.00     0.031 A 
ATOM     95  C   UNL A   1      39.519  31.057  33.580  1.00  0.00     0.131 A 
ATOM     96  C   UNL A   1      39.165  32.164  36.095  1.00  0.00     0.055 A 
ATOM     97  C   UNL A   1      39.212  30.236  34.668  1.00  0.00     0.041 A 
ATOM     98  F   UNL A   1      39.713  30.454  32.395  1.00  0.00    -0.206 F 
ATOM     99  C   UNL A   1      39.050  30.785  35.934  1.00  0.00     0.022 A 
BRANCH  96 100
ATOM    100  S   UNL A   1      39.060  32.864  37.780  1.00  0.00     0.124 S 
ATOM    101  O   UNL A   1      40.424  32.746  38.282  1.00  0.00    -0.237 OA
ATOM    102  O   UNL A   1      38.588  34.223  37.535  1.00  0.00    -0.237 OA
ATOM    103  O   UNL A   1      38.092  31.993  38.450  1.00  0.00    -0.744 OA
ENDBRANCH  96 100
ENDBRANCH  70  93
ENDBRANCH  44  45
ENDBRANCH  37  39
ENDBRANCH  36  37
ENDBRANCH  35  36
ENDBRANCH  34  35
ENDBRANCH  33  34
ENDBRANCH   1  33
TORSDOF 22
ENDMDL
MODEL 3
REMARK VINA RESULT:     -12.3      4.583     10.707
REMARK SMILES Cc1cc(/C=C2/C(=O)NC(=S)N=C2OCCOCCOCCOC(=O)c2ccc(-c3c4nc(c(-c5cc(S(=O)(=O)[O-])ccc5F)c5ccc([nH]5)c(-c5cc(S(=O)(=O)[O-])ccc5F)c5nc(c(-c6cc(S(=O)(=O)[O-])ccc6F)c6ccc3[nH]6)C=C5)C=C4)cc2)c(C)n1-c1cccc(C(=O)[O-])c1
REMARK SMILES IDX 19 1 18 2 17 3 16 4 15 5 14 6 13 7 5 8 6 9 7 10 8 11 9 12
REMARK SMILES IDX 12 13 10 14 11 16 4 17 1 18 2 19 3 20 91 21 89 22 90 23
REMARK SMILES IDX 92 24 93 25 100 26 94 27 96 28 95 29 97 30 98 31 99 32 20 33
REMARK SMILES IDX 21 34 22 35 23 36 24 37 25 38 26 39 27 40 88 41 28 42 87 43
REMARK SMILES IDX 29 44 30 45 31 46 81 47 32 48 86 49 80 50 82 51 33 52 85 53
REMARK SMILES IDX 79 54 78 55 34 57 66 58 46 59 65 60 47 61 50 62 64 63 83 64
REMARK SMILES IDX 48 65 49 66 63 68 84 69 51 70 35 71 36 72 44 73 37 74 43 75
REMARK SMILES IDX 45 76 42 77 38 78 39 79 40 80 41 81 67 82 68 83 76 84 69 85
REMARK SMILES IDX 75 86 77 87 74 88 70 89 71 90 72 91 73 92 52 93 53 94 61 95
REMARK SMILES IDX 54 96 60 97 62 98 59 99 55 100 56 101 57 102 58 103
REMARK H PARENT 9 15 82 56 50 67
REMARK Flexibility Score: inf
ROOT
ATOM      1  C   UNL A   1      39.157  21.864  26.113  1.00  0.00     0.188 C 
ENDROOT
BRANCH   1   2
ATOM      2  C   UNL A   1      37.981  21.293  25.318  1.00  0.00     0.188 C 
BRANCH   2   3
ATOM      3  O   UNL A   1      36.693  21.883  25.443  1.00  0.00    -0.376 OA
BRANCH   3   4
ATOM      4  C   UNL A   1      35.566  20.994  25.464  1.00  0.00     0.201 C 
BRANCH   4   5
ATOM      5  C   UNL A   1      34.220  21.506  26.054  1.00  0.00     0.260 C 
BRANCH   5   6
ATOM      6  O   UNL A   1      33.130  20.535  26.060  1.00  0.00    -0.475 OA
BRANCH   6   7
ATOM      7  C   UNL A   1      33.174  19.570  25.119  1.00  0.00     0.229 C 
ATOM      8  C   UNL A   1      32.056  21.053  23.261  1.00  0.00     0.029 C 
ATOM      9  C   UNL A   1      32.561  19.921  23.808  1.00  0.00     0.103 C 
ATOM     10  C   UNL A   1      32.409  18.719  22.913  1.00  0.00     0.262 C 
ATOM     11  O   UNL A   1      31.989  18.763  21.760  1.00  0.00    -0.269 OA
ATOM     12  N   UNL A   1      32.769  17.521  23.462  1.00  0.00    -0.297 N 
ATOM     13  N   UNL A   1      33.602  18.404  25.463  1.00  0.00    -0.184 NA
ATOM     14  C   UNL A   1      33.381  17.328  24.666  1.00  0.00     0.203 C 
ATOM     15  H   UNL A   1      32.568  16.715  22.935  1.00  0.00     0.172 HD
ATOM     16  S   UNL A   1      33.754  15.761  25.123  1.00  0.00    -0.038 S 
BRANCH   8  17
ATOM     17  C   UNL A   1      31.882  22.423  23.660  1.00  0.00    -0.003 A 
ATOM     18  C   UNL A   1      30.859  25.050  26.141  1.00  0.00     0.065 C 
ATOM     19  C   UNL A   1      31.334  24.182  25.033  1.00  0.00     0.020 A 
ATOM     20  C   UNL A   1      31.189  22.814  24.850  1.00  0.00     0.031 A 
ATOM     21  N   UNL A   1      31.993  24.654  23.921  1.00  0.00    -0.318 N 
ATOM     22  C   UNL A   1      32.515  23.571  23.230  1.00  0.00     0.027 A 
ATOM     23  C   UNL A   1      33.660  23.791  22.326  1.00  0.00     0.065 C 
BRANCH  21  24
ATOM     24  C   UNL A   1      32.286  25.995  23.568  1.00  0.00     0.046 A 
ATOM     25  C   UNL A   1      33.475  26.549  24.063  1.00  0.00     0.026 A 
ATOM     26  C   UNL A   1      31.270  26.809  23.058  1.00  0.00     0.036 A 
ATOM     27  C   UNL A   1      33.655  27.930  24.051  1.00  0.00     0.003 A 
ATOM     28  C   UNL A   1      31.444  28.201  23.078  1.00  0.00    -0.001 A 
ATOM     29  C   UNL A   1      32.639  28.754  23.570  1.00  0.00     0.010 A 
BRANCH  28  30
ATOM     30  C   UNL A   1      30.365  29.126  22.675  1.00  0.00     0.072 C 
ATOM     31  O   UNL A   1      29.798  29.129  21.580  1.00  0.00    -0.545 OA
ATOM     32  O   UNL A   1      30.054  30.021  23.618  1.00  0.00    -0.545 OA
ENDBRANCH  28  30
ENDBRANCH  21  24
ENDBRANCH   8  17
ENDBRANCH   6   7
ENDBRANCH   5   6
ENDBRANCH   4   5
ENDBRANCH   3   4
ENDBRANCH   2   3
ENDBRANCH   1   2
BRANCH   1  33
ATOM     33  O   UNL A   1      39.810  20.933  26.958  1.00  0.00    -0.376 OA
BRANCH  33  34
ATOM     34  C   UNL A   1      40.927  20.261  26.360  1.00  0.00     0.202 C 
BRANCH  34  35
ATOM     35  C   UNL A   1      42.339  20.865  26.625  1.00  0.00     0.261 C 
BRANCH  35  36
ATOM     36  O   UNL A   1      42.469  21.988  27.578  1.00  0.00    -0.460 OA
BRANCH  36  37
ATOM     37  C   UNL A   1      42.536  23.255  27.039  1.00  0.00     0.338 C 
ATOM     38  O   UNL A   1      42.936  23.457  25.899  1.00  0.00    -0.246 OA
BRANCH  37  39
ATOM     39  C   UNL A   1      42.040  24.424  27.917  1.00  0.00     0.060 A 
ATOM     40  C   UNL A   1      40.715  24.813  27.810  1.00  0.00     0.016 A 
ATOM     41  C   UNL A   1      42.842  25.328  28.650  1.00  0.00     0.016 A 
ATOM     42  C   UNL A   1      40.225  26.014  28.446  1.00  0.00     0.010 A 
ATOM     43  C   UNL A   1      42.341  26.609  29.233  1.00  0.00     0.010 A 
ATOM     44  C   UNL A   1      40.999  27.025  29.147  1.00  0.00    -0.014 A 
BRANCH  44  45
ATOM     45  C   UNL A   1      40.288  28.542  29.373  1.00  0.00     0.031 A 
ATOM     46  C   UNL A   1      41.491  29.414  29.522  1.00  0.00     0.074 A 
ATOM     47  C   UNL A   1      39.087  29.266  29.587  1.00  0.00     0.049 A 
ATOM     48  N   UNL A   1      42.372  29.132  30.440  1.00  0.00    -0.248 NA
ATOM     49  C   UNL A   1      41.985  30.300  28.464  1.00  0.00     0.031 C 
ATOM     50  C   UNL A   1      37.719  28.736  29.749  1.00  0.00     0.029 A 
ATOM     51  N   UNL A   1      38.775  30.690  29.735  1.00  0.00    -0.354 N 
ATOM     52  C   UNL A   1      43.399  30.023  30.286  1.00  0.00     0.074 A 
ATOM     53  C   UNL A   1      43.216  30.543  28.935  1.00  0.00     0.031 C 
ATOM     54  C   UNL A   1      36.769  29.724  29.816  1.00  0.00     0.029 A 
ATOM     55  C   UNL A   1      37.358  31.069  29.773  1.00  0.00     0.049 A 
ATOM     56  H   UNL A   1      39.488  31.365  29.806  1.00  0.00     0.167 HD
ATOM     57  C   UNL A   1      43.764  30.696  31.416  1.00  0.00     0.034 A 
ATOM     58  C   UNL A   1      36.686  32.313  29.848  1.00  0.00     0.034 A 
ATOM     59  C   UNL A   1      43.201  32.020  31.436  1.00  0.00     0.049 A 
ATOM     60  C   UNL A   1      37.596  33.272  30.471  1.00  0.00     0.074 A 
ATOM     61  C   UNL A   1      43.092  33.011  30.479  1.00  0.00     0.029 A 
ATOM     62  N   UNL A   1      42.223  32.267  32.376  1.00  0.00    -0.354 N 
ATOM     63  N   UNL A   1      37.777  33.301  31.753  1.00  0.00    -0.248 NA
ATOM     64  C   UNL A   1      38.299  34.299  29.714  1.00  0.00     0.031 C 
ATOM     65  C   UNL A   1      41.763  33.473  30.601  1.00  0.00     0.029 A 
ATOM     66  C   UNL A   1      41.248  33.074  31.830  1.00  0.00     0.049 A 
ATOM     67  H   UNL A   1      42.221  31.919  33.296  1.00  0.00     0.167 HD
ATOM     68  C   UNL A   1      39.000  33.883  31.854  1.00  0.00     0.074 A 
ATOM     69  C   UNL A   1      39.117  34.727  30.678  1.00  0.00     0.031 C 
ATOM     70  C   UNL A   1      39.958  33.159  32.487  1.00  0.00     0.034 A 
BRANCH  57  71
ATOM     71  C   UNL A   1      43.898  29.812  32.632  1.00  0.00     0.023 A 
ATOM     72  C   UNL A   1      43.308  30.212  33.836  1.00  0.00     0.031 A 
ATOM     73  C   UNL A   1      44.708  28.653  32.652  1.00  0.00     0.131 A 
ATOM     74  C   UNL A   1      43.598  29.511  35.020  1.00  0.00     0.055 A 
ATOM     75  C   UNL A   1      45.051  28.007  33.838  1.00  0.00     0.041 A 
ATOM     76  F   UNL A   1      45.185  28.129  31.511  1.00  0.00    -0.206 F 
ATOM     77  C   UNL A   1      44.503  28.443  35.036  1.00  0.00     0.022 A 
BRANCH  74  78
ATOM     78  S   UNL A   1      42.750  29.996  36.546  1.00  0.00     0.124 S 
ATOM     79  O   UNL A   1      41.737  28.956  36.688  1.00  0.00    -0.237 OA
ATOM     80  O   UNL A   1      43.832  29.958  37.527  1.00  0.00    -0.237 OA
ATOM     81  O   UNL A   1      42.234  31.332  36.251  1.00  0.00    -0.744 OA
ENDBRANCH  74  78
ENDBRANCH  57  71
BRANCH  58  82
ATOM     82  C   UNL A   1      35.287  33.050  29.672  1.00  0.00     0.023 A 
ATOM     83  C   UNL A   1      34.689  33.924  30.688  1.00  0.00     0.031 A 
ATOM     84  C   UNL A   1      34.753  33.241  28.391  1.00  0.00     0.131 A 
ATOM     85  C   UNL A   1      33.683  34.905  30.390  1.00  0.00     0.055 A 
ATOM     86  C   UNL A   1      33.755  34.210  28.104  1.00  0.00     0.041 A 
ATOM     87  F   UNL A   1      35.262  32.575  27.346  1.00  0.00    -0.206 F 
ATOM     88  C   UNL A   1      33.229  35.049  29.086  1.00  0.00     0.022 A 
BRANCH  85  89
ATOM     89  S   UNL A   1      33.040  36.138  31.628  1.00  0.00     0.124 S 
ATOM     90  O   UNL A   1      32.633  37.264  30.798  1.00  0.00    -0.237 OA
ATOM     91  O   UNL A   1      31.975  35.401  32.300  1.00  0.00    -0.237 OA
ATOM     92  O   UNL A   1      34.201  36.411  32.482  1.00  0.00    -0.744 OA
ENDBRANCH  85  89
ENDBRANCH  58  82
BRANCH  70  93
ATOM     93  C   UNL A   1      39.531  32.344  33.713  1.00  0.00     0.023 A 
ATOM     94  C   UNL A   1      39.198  32.859  34.998  1.00  0.00     0.031 A 
ATOM     95  C   UNL A   1      39.525  30.945  33.592  1.00  0.00     0.131 A 
ATOM     96  C   UNL A   1      38.921  32.000  36.082  1.00  0.00     0.055 A 
ATOM     97  C   UNL A   1      39.200  30.094  34.652  1.00  0.00     0.041 A 
ATOM     98  F   UNL A   1      39.842  30.368  32.422  1.00  0.00    -0.206 F 
ATOM     99  C   UNL A   1      38.913  30.618  35.906  1.00  0.00     0.022 A 
BRANCH  96 100
ATOM    100  S   UNL A   1      38.651  32.674  37.759  1.00  0.00     0.124 S 
ATOM    101  O   UNL A   1      40.001  32.823  38.287  1.00  0.00    -0.237 OA
ATOM    102  O   UNL A   1      37.931  33.916  37.495  1.00  0.00    -0.237 OA
ATOM    103  O   UNL A   1      37.855  31.637  38.418  1.00  0.00    -0.744 OA
ENDBRANCH  96 100
ENDBRANCH  70  93
ENDBRANCH  44  45
ENDBRANCH  37  39
ENDBRANCH  36  37
ENDBRANCH  35  36
ENDBRANCH  34  35
ENDBRANCH  33  34
ENDBRANCH   1  33
TORSDOF 22
ENDMDL
