MODEL 1
REMARK VINA RESULT:      -9.7      0.000      0.000
REMARK SMILES CN(C)C(=O)CCc1cccc(NC(=O)[C@H]2CCCC[C@@H]2C(=O)OCCOCCOCCOC(=O)c2ccc(-c3c4nc(c(-c5cc(S(=O)(=O)[O-])ccc5F)c5ccc([nH]5)c(-c5cc(S(=O)(=O)[O-])ccc5F)c5nc(c(-c6cc(S(=O)(=O)[O-])ccc6F)c6ccc3[nH]6)C=C5)C=C4)cc2)c1
REMARK SMILES IDX 28 1 27 2 26 3 25 4 24 5 22 6 23 7 21 8 16 9 17 10 18 11
REMARK SMILES IDX 20 12 19 13 14 14 13 15 15 17 12 18 8 19 9 20 99 21 10 22
REMARK SMILES IDX 11 23 7 24 6 25 4 26 1 27 2 28 3 29 5 30 29 31 30 32 31 33
REMARK SMILES IDX 32 34 33 35 34 36 35 37 36 38 37 39 98 40 38 41 97 42 39 43
REMARK SMILES IDX 40 44 41 45 91 46 42 47 96 48 90 49 92 50 43 51 95 52 89 53
REMARK SMILES IDX 88 54 44 56 76 57 56 58 75 59 57 60 60 61 74 62 93 63 58 64
REMARK SMILES IDX 59 65 73 67 94 68 61 69 45 70 46 71 54 72 47 73 53 74 55 75
REMARK SMILES IDX 52 76 48 77 49 78 50 79 51 80 77 81 78 82 86 83 79 84 85 85
REMARK SMILES IDX 87 86 84 87 80 88 81 89 82 90 83 91 62 92 63 93 71 94 64 95
REMARK SMILES IDX 70 96 72 97 69 98 65 99 66 100 67 101 68 102
REMARK H PARENT 13 16 92 55 60 66
REMARK Flexibility Score: inf
ROOT
ATOM      1  C   UNL A   1      39.360  21.940  25.786  1.00  0.00     0.188 C 
ENDROOT
BRANCH   1   2
ATOM      2  O   UNL A   1      38.498  20.822  25.672  1.00  0.00    -0.376 OA
BRANCH   2   3
ATOM      3  C   UNL A   1      37.178  21.124  25.240  1.00  0.00     0.202 C 
BRANCH   3   4
ATOM      4  C   UNL A   1      37.037  22.401  24.384  1.00  0.00     0.261 C 
BRANCH   4   5
ATOM      5  O   UNL A   1      35.955  23.299  24.752  1.00  0.00    -0.463 OA
BRANCH   5   6
ATOM      6  C   UNL A   1      34.875  23.230  23.941  1.00  0.00     0.309 C 
ATOM      7  O   UNL A   1      34.998  22.948  22.753  1.00  0.00    -0.252 OA
BRANCH   6   8
ATOM      8  C   UNL A   1      33.530  23.597  24.608  1.00  0.00     0.111 C 
ATOM      9  C   UNL A   1      33.349  23.388  26.134  1.00  0.00     0.093 C 
ATOM     10  C   UNL A   1      33.675  21.983  26.601  1.00  0.00     0.014 C 
ATOM     11  C   UNL A   1      33.520  20.901  25.521  1.00  0.00     0.001 C 
ATOM     12  C   UNL A   1      32.508  22.720  23.897  1.00  0.00     0.016 C 
ATOM     13  C   UNL A   1      32.685  21.236  24.258  1.00  0.00     0.001 C 
BRANCH   9  14
ATOM     14  C   UNL A   1      32.021  24.004  26.675  1.00  0.00     0.228 C 
ATOM     15  N   UNL A   1      31.703  25.317  26.876  1.00  0.00    -0.326 N 
ATOM     16  H   UNL A   1      30.946  25.406  27.501  1.00  0.00     0.169 HD
ATOM     17  O   UNL A   1      31.174  23.202  27.112  1.00  0.00    -0.274 OA
BRANCH  15  18
ATOM     18  C   UNL A   1      32.153  26.582  26.441  1.00  0.00     0.041 A 
ATOM     19  C   UNL A   1      31.637  28.748  25.449  1.00  0.00    -0.045 A 
ATOM     20  C   UNL A   1      32.971  29.138  25.529  1.00  0.00     0.004 A 
ATOM     21  C   UNL A   1      31.213  27.543  26.057  1.00  0.00     0.029 A 
ATOM     22  C   UNL A   1      33.901  28.185  25.863  1.00  0.00     0.002 A 
ATOM     23  C   UNL A   1      33.472  26.894  26.170  1.00  0.00     0.026 A 
BRANCH  19  24
ATOM     24  C   UNL A   1      30.793  29.421  24.385  1.00  0.00     0.045 C 
BRANCH  24  25
ATOM     25  C   UNL A   1      31.539  29.341  23.032  1.00  0.00     0.105 C 
BRANCH  25  26
ATOM     26  C   UNL A   1      31.218  28.008  22.379  1.00  0.00     0.222 C 
ATOM     27  C   UNL A   1      31.782  25.679  21.961  1.00  0.00     0.146 C 
ATOM     28  N   UNL A   1      32.198  27.024  22.317  1.00  0.00    -0.349 N 
ATOM     29  C   UNL A   1      33.633  27.279  22.377  1.00  0.00     0.146 C 
ATOM     30  O   UNL A   1      30.058  27.785  22.014  1.00  0.00    -0.275 OA
ENDBRANCH  25  26
ENDBRANCH  24  25
ENDBRANCH  19  24
ENDBRANCH  15  18
ENDBRANCH   9  14
ENDBRANCH   6   8
ENDBRANCH   5   6
ENDBRANCH   4   5
ENDBRANCH   3   4
ENDBRANCH   2   3
ENDBRANCH   1   2
BRANCH   1  31
ATOM     31  C   UNL A   1      40.046  22.100  27.162  1.00  0.00     0.188 C 
BRANCH  31  32
ATOM     32  O   UNL A   1      41.361  21.610  27.372  1.00  0.00    -0.376 OA
BRANCH  32  33
ATOM     33  C   UNL A   1      41.946  20.771  26.394  1.00  0.00     0.202 C 
BRANCH  33  34
ATOM     34  C   UNL A   1      43.185  21.269  25.632  1.00  0.00     0.261 C 
BRANCH  34  35
ATOM     35  O   UNL A   1      43.037  22.481  24.866  1.00  0.00    -0.460 OA
BRANCH  35  36
ATOM     36  C   UNL A   1      44.098  23.326  24.883  1.00  0.00     0.338 C 
ATOM     37  O   UNL A   1      45.132  23.202  24.236  1.00  0.00    -0.246 OA
BRANCH  36  38
ATOM     38  C   UNL A   1      43.795  24.542  25.677  1.00  0.00     0.060 A 
ATOM     39  C   UNL A   1      43.502  25.738  25.001  1.00  0.00     0.016 A 
ATOM     40  C   UNL A   1      43.888  24.544  27.070  1.00  0.00     0.016 A 
ATOM     41  C   UNL A   1      43.337  26.935  25.708  1.00  0.00     0.010 A 
ATOM     42  C   UNL A   1      43.748  25.750  27.775  1.00  0.00     0.010 A 
ATOM     43  C   UNL A   1      43.503  26.961  27.098  1.00  0.00    -0.014 A 
BRANCH  43  44
ATOM     44  C   UNL A   1      43.619  28.263  27.818  1.00  0.00     0.031 A 
ATOM     45  C   UNL A   1      42.366  28.897  28.372  1.00  0.00     0.074 A 
ATOM     46  C   UNL A   1      44.804  28.876  28.000  1.00  0.00     0.049 A 
ATOM     47  N   UNL A   1      42.204  30.059  28.952  1.00  0.00    -0.248 NA
ATOM     48  C   UNL A   1      41.132  28.107  28.250  1.00  0.00     0.031 C 
ATOM     49  C   UNL A   1      46.102  28.353  27.580  1.00  0.00     0.029 A 
ATOM     50  N   UNL A   1      45.103  30.089  28.578  1.00  0.00    -0.354 N 
ATOM     51  C   UNL A   1      40.848  30.146  29.257  1.00  0.00     0.074 A 
ATOM     52  C   UNL A   1      40.233  28.930  28.766  1.00  0.00     0.031 C 
ATOM     53  C   UNL A   1      47.055  29.246  27.897  1.00  0.00     0.029 A 
ATOM     54  C   UNL A   1      46.436  30.428  28.501  1.00  0.00     0.049 A 
ATOM     55  H   UNL A   1      44.427  30.661  29.008  1.00  0.00     0.167 HD
ATOM     56  C   UNL A   1      40.177  31.141  29.891  1.00  0.00     0.034 A 
ATOM     57  C   UNL A   1      47.075  31.567  28.842  1.00  0.00     0.034 A 
ATOM     58  C   UNL A   1      40.790  32.360  30.362  1.00  0.00     0.049 A 
ATOM     59  C   UNL A   1      46.288  32.715  29.439  1.00  0.00     0.074 A 
ATOM     60  C   UNL A   1      40.197  33.424  31.019  1.00  0.00     0.029 A 
ATOM     61  N   UNL A   1      42.131  32.689  30.213  1.00  0.00    -0.354 N 
ATOM     62  N   UNL A   1      45.007  32.785  29.721  1.00  0.00    -0.248 NA
ATOM     63  C   UNL A   1      47.037  33.937  29.768  1.00  0.00     0.031 C 
ATOM     64  C   UNL A   1      41.156  34.428  31.189  1.00  0.00     0.029 A 
ATOM     65  C   UNL A   1      42.373  33.954  30.728  1.00  0.00     0.049 A 
ATOM     66  H   UNL A   1      42.812  32.109  29.800  1.00  0.00     0.167 HD
ATOM     67  C   UNL A   1      44.809  34.042  30.295  1.00  0.00     0.074 A 
ATOM     68  C   UNL A   1      46.102  34.689  30.330  1.00  0.00     0.031 C 
ATOM     69  C   UNL A   1      43.663  34.603  30.760  1.00  0.00     0.034 A 
BRANCH  56  70
ATOM     70  C   UNL A   1      38.685  30.974  30.056  1.00  0.00     0.023 A 
ATOM     71  C   UNL A   1      37.769  31.549  29.158  1.00  0.00     0.031 A 
ATOM     72  C   UNL A   1      38.167  30.249  31.145  1.00  0.00     0.131 A 
ATOM     73  C   UNL A   1      36.391  31.455  29.405  1.00  0.00     0.055 A 
ATOM     74  C   UNL A   1      36.795  30.085  31.338  1.00  0.00     0.041 A 
ATOM     75  F   UNL A   1      38.990  29.696  32.050  1.00  0.00    -0.206 F 
ATOM     76  C   UNL A   1      35.897  30.703  30.473  1.00  0.00     0.022 A 
BRANCH  73  77
ATOM     77  S   UNL A   1      35.261  32.457  28.401  1.00  0.00     0.124 S 
ATOM     78  O   UNL A   1      36.197  33.277  27.636  1.00  0.00    -0.237 OA
ATOM     79  O   UNL A   1      34.532  31.446  27.644  1.00  0.00    -0.237 OA
ATOM     80  O   UNL A   1      34.473  33.184  29.394  1.00  0.00    -0.744 OA
ENDBRANCH  73  77
ENDBRANCH  56  70
BRANCH  57  81
ATOM     81  C   UNL A   1      48.539  31.725  28.585  1.00  0.00     0.023 A 
ATOM     82  C   UNL A   1      49.009  32.436  27.468  1.00  0.00     0.031 A 
ATOM     83  C   UNL A   1      49.489  31.095  29.408  1.00  0.00     0.131 A 
ATOM     84  C   UNL A   1      50.382  32.458  27.178  1.00  0.00     0.055 A 
ATOM     85  C   UNL A   1      50.859  31.169  29.149  1.00  0.00     0.041 A 
ATOM     86  F   UNL A   1      49.097  30.394  30.484  1.00  0.00    -0.206 F 
ATOM     87  C   UNL A   1      51.312  31.842  28.019  1.00  0.00     0.022 A 
BRANCH  84  88
ATOM     88  S   UNL A   1      50.931  33.227  25.630  1.00  0.00     0.124 S 
ATOM     89  O   UNL A   1      51.242  32.058  24.814  1.00  0.00    -0.237 OA
ATOM     90  O   UNL A   1      49.750  33.989  25.239  1.00  0.00    -0.237 OA
ATOM     91  O   UNL A   1      52.082  34.030  26.038  1.00  0.00    -0.744 OA
ENDBRANCH  84  88
ENDBRANCH  57  81
BRANCH  69  92
ATOM     92  C   UNL A   1      43.763  35.968  31.407  1.00  0.00     0.023 A 
ATOM     93  C   UNL A   1      43.781  37.156  30.654  1.00  0.00     0.031 A 
ATOM     94  C   UNL A   1      43.841  36.079  32.808  1.00  0.00     0.131 A 
ATOM     95  C   UNL A   1      43.932  38.394  31.300  1.00  0.00     0.055 A 
ATOM     96  C   UNL A   1      43.922  37.317  33.449  1.00  0.00     0.041 A 
ATOM     97  F   UNL A   1      43.834  34.982  33.582  1.00  0.00    -0.206 F 
ATOM     98  C   UNL A   1      43.982  38.483  32.693  1.00  0.00     0.022 A 
BRANCH  95  99
ATOM     99  S   UNL A   1      44.167  39.884  30.291  1.00  0.00     0.124 S 
ATOM    100  O   UNL A   1      44.033  40.945  31.284  1.00  0.00    -0.237 OA
ATOM    101  O   UNL A   1      45.507  39.685  29.748  1.00  0.00    -0.237 OA
ATOM    102  O   UNL A   1      43.084  39.811  29.311  1.00  0.00    -0.744 OA
ENDBRANCH  95  99
ENDBRANCH  69  92
ENDBRANCH  43  44
ENDBRANCH  36  38
ENDBRANCH  35  36
ENDBRANCH  34  35
ENDBRANCH  33  34
ENDBRANCH  32  33
ENDBRANCH  31  32
ENDBRANCH   1  31
TORSDOF 25
ENDMDL
MODEL 2
REMARK VINA RESULT:      -9.5      6.454     10.698
REMARK SMILES CN(C)C(=O)CCc1cccc(NC(=O)[C@H]2CCCC[C@@H]2C(=O)OCCOCCOCCOC(=O)c2ccc(-c3c4nc(c(-c5cc(S(=O)(=O)[O-])ccc5F)c5ccc([nH]5)c(-c5cc(S(=O)(=O)[O-])ccc5F)c5nc(c(-c6cc(S(=O)(=O)[O-])ccc6F)c6ccc3[nH]6)C=C5)C=C4)cc2)c1
REMARK SMILES IDX 28 1 27 2 26 3 25 4 24 5 22 6 23 7 21 8 16 9 17 10 18 11
REMARK SMILES IDX 20 12 19 13 14 14 13 15 15 17 12 18 8 19 9 20 99 21 10 22
REMARK SMILES IDX 11 23 7 24 6 25 4 26 1 27 2 28 3 29 5 30 29 31 30 32 31 33
REMARK SMILES IDX 32 34 33 35 34 36 35 37 36 38 37 39 98 40 38 41 97 42 39 43
REMARK SMILES IDX 40 44 41 45 91 46 42 47 96 48 90 49 92 50 43 51 95 52 89 53
REMARK SMILES IDX 88 54 44 56 76 57 56 58 75 59 57 60 60 61 74 62 93 63 58 64
REMARK SMILES IDX 59 65 73 67 94 68 61 69 45 70 46 71 54 72 47 73 53 74 55 75
REMARK SMILES IDX 52 76 48 77 49 78 50 79 51 80 77 81 78 82 86 83 79 84 85 85
REMARK SMILES IDX 87 86 84 87 80 88 81 89 82 90 83 91 62 92 63 93 71 94 64 95
REMARK SMILES IDX 70 96 72 97 69 98 65 99 66 100 67 101 68 102
REMARK H PARENT 13 16 92 55 60 66
REMARK Flexibility Score: inf
ROOT
ATOM      1  C   UNL A   1      33.890  34.366  28.869  1.00  0.00     0.188 C 
ENDROOT
BRANCH   1   2
ATOM      2  O   UNL A   1      33.097  33.298  28.381  1.00  0.00    -0.376 OA
BRANCH   2   3
ATOM      3  C   UNL A   1      33.790  32.359  27.569  1.00  0.00     0.202 C 
BRANCH   3   4
ATOM      4  C   UNL A   1      33.175  30.943  27.523  1.00  0.00     0.261 C 
BRANCH   4   5
ATOM      5  O   UNL A   1      33.757  30.026  26.558  1.00  0.00    -0.463 OA
BRANCH   5   6
ATOM      6  C   UNL A   1      32.976  29.782  25.481  1.00  0.00     0.309 C 
ATOM      7  O   UNL A   1      31.910  30.371  25.331  1.00  0.00    -0.252 OA
BRANCH   6   8
ATOM      8  C   UNL A   1      33.499  28.683  24.529  1.00  0.00     0.111 C 
ATOM      9  C   UNL A   1      32.595  28.172  23.377  1.00  0.00     0.093 C 
ATOM     10  C   UNL A   1      31.226  27.709  23.835  1.00  0.00     0.014 C 
ATOM     11  C   UNL A   1      31.168  27.242  25.298  1.00  0.00     0.001 C 
ATOM     12  C   UNL A   1      33.792  27.503  25.446  1.00  0.00     0.016 C 
ATOM     13  C   UNL A   1      32.500  26.890  26.012  1.00  0.00     0.001 C 
BRANCH   9  14
ATOM     14  C   UNL A   1      33.349  27.227  22.390  1.00  0.00     0.228 C 
ATOM     15  N   UNL A   1      33.558  25.880  22.483  1.00  0.00    -0.326 N 
ATOM     16  H   UNL A   1      34.308  25.599  21.909  1.00  0.00     0.169 HD
ATOM     17  O   UNL A   1      33.962  27.774  21.455  1.00  0.00    -0.274 OA
BRANCH  15  18
ATOM     18  C   UNL A   1      33.003  24.779  23.169  1.00  0.00     0.041 A 
ATOM     19  C   UNL A   1      33.345  22.779  24.520  1.00  0.00    -0.045 A 
ATOM     20  C   UNL A   1      31.975  22.534  24.562  1.00  0.00     0.004 A 
ATOM     21  C   UNL A   1      33.832  23.987  23.968  1.00  0.00     0.029 A 
ATOM     22  C   UNL A   1      31.163  23.282  23.746  1.00  0.00     0.002 A 
ATOM     23  C   UNL A   1      31.726  24.291  22.965  1.00  0.00     0.026 A 
BRANCH  19  24
ATOM     24  C   UNL A   1      34.257  21.581  24.698  1.00  0.00     0.045 C 
BRANCH  24  25
ATOM     25  C   UNL A   1      33.433  20.290  24.478  1.00  0.00     0.105 C 
BRANCH  25  26
ATOM     26  C   UNL A   1      34.338  19.092  24.702  1.00  0.00     0.222 C 
ATOM     27  C   UNL A   1      34.692  16.686  24.668  1.00  0.00     0.146 C 
ATOM     28  N   UNL A   1      33.786  17.818  24.749  1.00  0.00    -0.349 N 
ATOM     29  C   UNL A   1      32.394  17.529  25.080  1.00  0.00     0.146 C 
ATOM     30  O   UNL A   1      35.562  19.265  24.729  1.00  0.00    -0.275 OA
ENDBRANCH  25  26
ENDBRANCH  24  25
ENDBRANCH  19  24
ENDBRANCH  15  18
ENDBRANCH   9  14
ENDBRANCH   6   8
ENDBRANCH   5   6
ENDBRANCH   4   5
ENDBRANCH   3   4
ENDBRANCH   2   3
ENDBRANCH   1   2
BRANCH   1  31
ATOM     31  C   UNL A   1      34.034  34.424  30.407  1.00  0.00     0.188 C 
BRANCH  31  32
ATOM     32  O   UNL A   1      34.169  33.232  31.164  1.00  0.00    -0.376 OA
BRANCH  32  33
ATOM     33  C   UNL A   1      34.950  33.251  32.343  1.00  0.00     0.202 C 
BRANCH  33  34
ATOM     34  C   UNL A   1      36.395  32.727  32.289  1.00  0.00     0.261 C 
BRANCH  34  35
ATOM     35  O   UNL A   1      36.670  31.500  32.993  1.00  0.00    -0.460 OA
BRANCH  35  36
ATOM     36  C   UNL A   1      36.902  30.411  32.217  1.00  0.00     0.338 C 
ATOM     37  O   UNL A   1      36.243  30.063  31.244  1.00  0.00    -0.246 OA
BRANCH  36  38
ATOM     38  C   UNL A   1      38.178  29.753  32.592  1.00  0.00     0.060 A 
ATOM     39  C   UNL A   1      39.308  30.551  32.830  1.00  0.00     0.016 A 
ATOM     40  C   UNL A   1      38.297  28.362  32.622  1.00  0.00     0.016 A 
ATOM     41  C   UNL A   1      40.559  29.966  33.059  1.00  0.00     0.010 A 
ATOM     42  C   UNL A   1      39.557  27.777  32.827  1.00  0.00     0.010 A 
ATOM     43  C   UNL A   1      40.704  28.574  33.016  1.00  0.00    -0.014 A 
BRANCH  43  44
ATOM     44  C   UNL A   1      42.064  27.960  32.968  1.00  0.00     0.031 A 
ATOM     45  C   UNL A   1      42.790  27.711  34.267  1.00  0.00     0.074 A 
ATOM     46  C   UNL A   1      42.649  27.609  31.808  1.00  0.00     0.049 A 
ATOM     47  N   UNL A   1      44.007  27.275  34.473  1.00  0.00    -0.248 NA
ATOM     48  C   UNL A   1      42.036  27.997  35.497  1.00  0.00     0.031 C 
ATOM     49  C   UNL A   1      42.043  27.729  30.483  1.00  0.00     0.029 A 
ATOM     50  N   UNL A   1      43.899  27.091  31.558  1.00  0.00    -0.354 N 
ATOM     51  C   UNL A   1      44.170  27.241  35.856  1.00  0.00     0.074 A 
ATOM     52  C   UNL A   1      42.936  27.734  36.432  1.00  0.00     0.031 C 
ATOM     53  C   UNL A   1      42.928  27.314  29.560  1.00  0.00     0.029 A 
ATOM     54  C   UNL A   1      44.182  26.943  30.218  1.00  0.00     0.049 A 
ATOM     55  H   UNL A   1      44.533  26.849  32.271  1.00  0.00     0.167 HD
ATOM     56  C   UNL A   1      45.244  26.834  36.580  1.00  0.00     0.034 A 
ATOM     57  C   UNL A   1      45.326  26.586  29.595  1.00  0.00     0.034 A 
ATOM     58  C   UNL A   1      46.479  26.363  36.002  1.00  0.00     0.049 A 
ATOM     59  C   UNL A   1      46.552  26.251  30.418  1.00  0.00     0.074 A 
ATOM     60  C   UNL A   1      47.621  25.924  36.651  1.00  0.00     0.029 A 
ATOM     61  N   UNL A   1      46.745  26.282  34.641  1.00  0.00    -0.354 N 
ATOM     62  N   UNL A   1      46.693  26.225  31.724  1.00  0.00    -0.248 NA
ATOM     63  C   UNL A   1      47.773  25.892  29.680  1.00  0.00     0.031 C 
ATOM     64  C   UNL A   1      48.603  25.663  35.689  1.00  0.00     0.029 A 
ATOM     65  C   UNL A   1      48.044  25.842  34.434  1.00  0.00     0.049 A 
ATOM     66  H   UNL A   1      46.105  26.506  33.928  1.00  0.00     0.167 HD
ATOM     67  C   UNL A   1      48.005  25.809  31.958  1.00  0.00     0.074 A 
ATOM     68  C   UNL A   1      48.607  25.584  30.662  1.00  0.00     0.031 C 
ATOM     69  C   UNL A   1      48.648  25.621  33.140  1.00  0.00     0.034 A 
BRANCH  56  70
ATOM     70  C   UNL A   1      45.146  26.942  38.084  1.00  0.00     0.023 A 
ATOM     71  C   UNL A   1      45.571  28.090  38.775  1.00  0.00     0.031 A 
ATOM     72  C   UNL A   1      44.644  25.869  38.842  1.00  0.00     0.131 A 
ATOM     73  C   UNL A   1      45.556  28.109  40.178  1.00  0.00     0.055 A 
ATOM     74  C   UNL A   1      44.550  25.927  40.233  1.00  0.00     0.041 A 
ATOM     75  F   UNL A   1      44.244  24.737  38.241  1.00  0.00    -0.206 F 
ATOM     76  C   UNL A   1      45.023  27.046  40.911  1.00  0.00     0.022 A 
BRANCH  73  77
ATOM     77  S   UNL A   1      46.386  29.475  41.034  1.00  0.00     0.124 S 
ATOM     78  O   UNL A   1      45.529  29.654  42.203  1.00  0.00    -0.237 OA
ATOM     79  O   UNL A   1      47.712  28.925  41.293  1.00  0.00    -0.237 OA
ATOM     80  O   UNL A   1      46.340  30.567  40.063  1.00  0.00    -0.744 OA
ENDBRANCH  73  77
ENDBRANCH  56  70
BRANCH  57  81
ATOM     81  C   UNL A   1      45.407  26.573  28.102  1.00  0.00     0.023 A 
ATOM     82  C   UNL A   1      46.110  27.568  27.403  1.00  0.00     0.031 A 
ATOM     83  C   UNL A   1      44.711  25.610  27.350  1.00  0.00     0.131 A 
ATOM     84  C   UNL A   1      46.061  27.607  26.001  1.00  0.00     0.055 A 
ATOM     85  C   UNL A   1      44.714  25.618  25.954  1.00  0.00     0.041 A 
ATOM     86  F   UNL A   1      44.015  24.640  27.964  1.00  0.00    -0.206 F 
ATOM     87  C   UNL A   1      45.380  26.630  25.271  1.00  0.00     0.022 A 
BRANCH  84  88
ATOM     88  S   UNL A   1      46.824  29.011  25.143  1.00  0.00     0.124 S 
ATOM     89  O   UNL A   1      48.182  28.980  25.675  1.00  0.00    -0.237 OA
ATOM     90  O   UNL A   1      46.671  28.626  23.744  1.00  0.00    -0.237 OA
ATOM     91  O   UNL A   1      46.012  30.150  25.567  1.00  0.00    -0.744 OA
ENDBRANCH  84  88
ENDBRANCH  57  81
BRANCH  69  92
ATOM     92  C   UNL A   1      50.064  25.087  33.091  1.00  0.00     0.023 A 
ATOM     93  C   UNL A   1      50.344  23.710  33.024  1.00  0.00     0.031 A 
ATOM     94  C   UNL A   1      51.153  25.978  33.112  1.00  0.00     0.131 A 
ATOM     95  C   UNL A   1      51.676  23.264  33.039  1.00  0.00     0.055 A 
ATOM     96  C   UNL A   1      52.475  25.531  33.057  1.00  0.00     0.041 A 
ATOM     97  F   UNL A   1      50.951  27.303  33.181  1.00  0.00    -0.206 F 
ATOM     98  C   UNL A   1      52.743  24.166  33.034  1.00  0.00     0.022 A 
BRANCH  95  99
ATOM     99  S   UNL A   1      52.000  21.483  33.168  1.00  0.00     0.124 S 
ATOM    100  O   UNL A   1      52.793  21.233  31.968  1.00  0.00    -0.237 OA
ATOM    101  O   UNL A   1      52.718  21.388  34.436  1.00  0.00    -0.237 OA
ATOM    102  O   UNL A   1      50.665  20.889  33.165  1.00  0.00    -0.744 OA
ENDBRANCH  95  99
ENDBRANCH  69  92
ENDBRANCH  43  44
ENDBRANCH  36  38
ENDBRANCH  35  36
ENDBRANCH  34  35
ENDBRANCH  33  34
ENDBRANCH  32  33
ENDBRANCH  31  32
ENDBRANCH   1  31
TORSDOF 25
ENDMDL
MODEL 3
REMARK VINA RESULT:      -9.4      6.485     11.048
REMARK SMILES CN(C)C(=O)CCc1cccc(NC(=O)[C@H]2CCCC[C@@H]2C(=O)OCCOCCOCCOC(=O)c2ccc(-c3c4nc(c(-c5cc(S(=O)(=O)[O-])ccc5F)c5ccc([nH]5)c(-c5cc(S(=O)(=O)[O-])ccc5F)c5nc(c(-c6cc(S(=O)(=O)[O-])ccc6F)c6ccc3[nH]6)C=C5)C=C4)cc2)c1
REMARK SMILES IDX 28 1 27 2 26 3 25 4 24 5 22 6 23 7 21 8 16 9 17 10 18 11
REMARK SMILES IDX 20 12 19 13 14 14 13 15 15 17 12 18 8 19 9 20 99 21 10 22
REMARK SMILES IDX 11 23 7 24 6 25 4 26 1 27 2 28 3 29 5 30 29 31 30 32 31 33
REMARK SMILES IDX 32 34 33 35 34 36 35 37 36 38 37 39 98 40 38 41 97 42 39 43
REMARK SMILES IDX 40 44 41 45 91 46 42 47 96 48 90 49 92 50 43 51 95 52 89 53
REMARK SMILES IDX 88 54 44 56 76 57 56 58 75 59 57 60 60 61 74 62 93 63 58 64
REMARK SMILES IDX 59 65 73 67 94 68 61 69 45 70 46 71 54 72 47 73 53 74 55 75
REMARK SMILES IDX 52 76 48 77 49 78 50 79 51 80 77 81 78 82 86 83 79 84 85 85
REMARK SMILES IDX 87 86 84 87 80 88 81 89 82 90 83 91 62 92 63 93 71 94 64 95
REMARK SMILES IDX 70 96 72 97 69 98 65 99 66 100 67 101 68 102
REMARK H PARENT 13 16 92 55 60 66
REMARK Flexibility Score: inf
ROOT
ATOM      1  C   UNL A   1      34.218  33.941  28.382  1.00  0.00     0.188 C 
ENDROOT
BRANCH   1   2
ATOM      2  O   UNL A   1      33.340  32.872  28.074  1.00  0.00    -0.376 OA
BRANCH   2   3
ATOM      3  C   UNL A   1      33.976  31.685  27.620  1.00  0.00     0.202 C 
BRANCH   3   4
ATOM      4  C   UNL A   1      33.025  30.533  27.227  1.00  0.00     0.261 C 
BRANCH   4   5
ATOM      5  O   UNL A   1      33.615  29.455  26.452  1.00  0.00    -0.463 OA
BRANCH   5   6
ATOM      6  C   UNL A   1      32.936  29.142  25.326  1.00  0.00     0.309 C 
ATOM      7  O   UNL A   1      31.939  29.776  24.997  1.00  0.00    -0.252 OA
BRANCH   6   8
ATOM      8  C   UNL A   1      33.471  27.911  24.560  1.00  0.00     0.111 C 
ATOM      9  C   UNL A   1      32.589  27.240  23.475  1.00  0.00     0.093 C 
ATOM     10  C   UNL A   1      31.207  26.856  23.964  1.00  0.00     0.014 C 
ATOM     11  C   UNL A   1      31.111  26.611  25.478  1.00  0.00     0.001 C 
ATOM     12  C   UNL A   1      33.733  26.878  25.647  1.00  0.00     0.016 C 
ATOM     13  C   UNL A   1      32.423  26.363  26.267  1.00  0.00     0.001 C 
BRANCH   9  14
ATOM     14  C   UNL A   1      33.357  26.156  22.657  1.00  0.00     0.228 C 
ATOM     15  N   UNL A   1      33.544  24.834  22.947  1.00  0.00    -0.326 N 
ATOM     16  H   UNL A   1      34.306  24.466  22.443  1.00  0.00     0.169 HD
ATOM     17  O   UNL A   1      34.005  26.557  21.672  1.00  0.00    -0.274 OA
BRANCH  15  18
ATOM     18  C   UNL A   1      32.953  23.848  23.766  1.00  0.00     0.041 A 
ATOM     19  C   UNL A   1      33.215  21.852  25.140  1.00  0.00    -0.045 A 
ATOM     20  C   UNL A   1      31.850  21.822  25.413  1.00  0.00     0.004 A 
ATOM     21  C   UNL A   1      33.777  22.957  24.460  1.00  0.00     0.029 A 
ATOM     22  C   UNL A   1      31.033  22.666  24.701  1.00  0.00     0.002 A 
ATOM     23  C   UNL A   1      31.603  23.557  23.792  1.00  0.00     0.026 A 
BRANCH  19  24
ATOM     24  C   UNL A   1      33.956  20.533  25.229  1.00  0.00     0.045 C 
BRANCH  24  25
ATOM     25  C   UNL A   1      32.941  19.412  25.554  1.00  0.00     0.105 C 
BRANCH  25  26
ATOM     26  C   UNL A   1      33.390  18.135  24.865  1.00  0.00     0.222 C 
ATOM     27  C   UNL A   1      33.883  16.907  22.824  1.00  0.00     0.146 C 
ATOM     28  N   UNL A   1      33.188  17.990  23.498  1.00  0.00    -0.349 N 
ATOM     29  C   UNL A   1      32.178  18.708  22.728  1.00  0.00     0.146 C 
ATOM     30  O   UNL A   1      34.025  17.297  25.515  1.00  0.00    -0.275 OA
ENDBRANCH  25  26
ENDBRANCH  24  25
ENDBRANCH  19  24
ENDBRANCH  15  18
ENDBRANCH   9  14
ENDBRANCH   6   8
ENDBRANCH   5   6
ENDBRANCH   4   5
ENDBRANCH   3   4
ENDBRANCH   2   3
ENDBRANCH   1   2
BRANCH   1  31
ATOM     31  C   UNL A   1      34.400  34.225  29.891  1.00  0.00     0.188 C 
BRANCH  31  32
ATOM     32  O   UNL A   1      34.041  33.249  30.856  1.00  0.00    -0.376 OA
BRANCH  32  33
ATOM     33  C   UNL A   1      34.884  33.046  31.973  1.00  0.00     0.202 C 
BRANCH  33  34
ATOM     34  C   UNL A   1      36.194  32.262  31.786  1.00  0.00     0.261 C 
BRANCH  34  35
ATOM     35  O   UNL A   1      36.318  31.019  32.505  1.00  0.00    -0.460 OA
BRANCH  35  36
ATOM     36  C   UNL A   1      36.757  29.958  31.782  1.00  0.00     0.338 C 
ATOM     37  O   UNL A   1      36.245  29.519  30.759  1.00  0.00    -0.246 OA
BRANCH  36  38
ATOM     38  C   UNL A   1      38.060  29.468  32.295  1.00  0.00     0.060 A 
ATOM     39  C   UNL A   1      39.066  30.401  32.594  1.00  0.00     0.016 A 
ATOM     40  C   UNL A   1      38.335  28.102  32.396  1.00  0.00     0.016 A 
ATOM     41  C   UNL A   1      40.349  29.976  32.957  1.00  0.00     0.010 A 
ATOM     42  C   UNL A   1      39.630  27.678  32.736  1.00  0.00     0.010 A 
ATOM     43  C   UNL A   1      40.656  28.610  32.988  1.00  0.00    -0.014 A 
BRANCH  43  44
ATOM     44  C   UNL A   1      42.075  28.159  33.085  1.00  0.00     0.031 A 
ATOM     45  C   UNL A   1      42.825  27.849  31.812  1.00  0.00     0.074 A 
ATOM     46  C   UNL A   1      42.707  28.037  34.268  1.00  0.00     0.049 A 
ATOM     47  N   UNL A   1      44.027  27.358  31.649  1.00  0.00    -0.248 NA
ATOM     48  C   UNL A   1      42.113  28.131  30.557  1.00  0.00     0.031 C 
ATOM     49  C   UNL A   1      42.133  28.363  35.572  1.00  0.00     0.029 A 
ATOM     50  N   UNL A   1      43.974  27.588  34.563  1.00  0.00    -0.354 N 
ATOM     51  C   UNL A   1      44.216  27.264  30.273  1.00  0.00     0.074 A 
ATOM     52  C   UNL A   1      42.988  27.718  29.653  1.00  0.00     0.031 C 
ATOM     53  C   UNL A   1      43.038  28.087  36.528  1.00  0.00     0.029 A 
ATOM     54  C   UNL A   1      44.239  27.519  35.913  1.00  0.00     0.049 A 
ATOM     55  H   UNL A   1      44.630  27.340  33.873  1.00  0.00     0.167 HD
ATOM     56  C   UNL A   1      45.309  26.843  29.587  1.00  0.00     0.034 A 
ATOM     57  C   UNL A   1      45.307  27.026  36.575  1.00  0.00     0.034 A 
ATOM     58  C   UNL A   1      46.524  26.373  30.209  1.00  0.00     0.049 A 
ATOM     59  C   UNL A   1      46.470  26.449  35.794  1.00  0.00     0.074 A 
ATOM     60  C   UNL A   1      47.687  25.931  29.602  1.00  0.00     0.029 A 
ATOM     61  N   UNL A   1      46.731  26.265  31.578  1.00  0.00    -0.354 N 
ATOM     62  N   UNL A   1      46.635  26.364  34.494  1.00  0.00    -0.248 NA
ATOM     63  C   UNL A   1      47.592  25.905  36.573  1.00  0.00     0.031 C 
ATOM     64  C   UNL A   1      48.560  25.476  30.596  1.00  0.00     0.029 A 
ATOM     65  C   UNL A   1      47.983  25.726  31.831  1.00  0.00     0.049 A 
ATOM     66  H   UNL A   1      46.082  26.531  32.269  1.00  0.00     0.167 HD
ATOM     67  C   UNL A   1      47.895  25.795  34.305  1.00  0.00     0.074 A 
ATOM     68  C   UNL A   1      48.450  25.569  35.621  1.00  0.00     0.031 C 
ATOM     69  C   UNL A   1      48.537  25.496  33.146  1.00  0.00     0.034 A 
BRANCH  56  70
ATOM     70  C   UNL A   1      45.214  26.817  28.080  1.00  0.00     0.023 A 
ATOM     71  C   UNL A   1      44.846  25.655  27.379  1.00  0.00     0.031 A 
ATOM     72  C   UNL A   1      45.521  27.967  27.329  1.00  0.00     0.131 A 
ATOM     73  C   UNL A   1      44.869  25.647  25.976  1.00  0.00     0.055 A 
ATOM     74  C   UNL A   1      45.457  27.977  25.935  1.00  0.00     0.041 A 
ATOM     75  F   UNL A   1      45.900  29.100  27.939  1.00  0.00    -0.206 F 
ATOM     76  C   UNL A   1      45.144  26.807  25.249  1.00  0.00     0.022 A 
BRANCH  73  77
ATOM     77  S   UNL A   1      44.685  24.060  25.117  1.00  0.00     0.124 S 
ATOM     78  O   UNL A   1      43.338  24.179  24.564  1.00  0.00    -0.237 OA
ATOM     79  O   UNL A   1      45.777  24.096  24.152  1.00  0.00    -0.237 OA
ATOM     80  O   UNL A   1      44.828  23.073  26.186  1.00  0.00    -0.744 OA
ENDBRANCH  73  77
ENDBRANCH  56  70
BRANCH  57  81
ATOM     81  C   UNL A   1      45.327  26.992  38.070  1.00  0.00     0.023 A 
ATOM     82  C   UNL A   1      45.801  28.084  38.816  1.00  0.00     0.031 A 
ATOM     83  C   UNL A   1      44.947  25.834  38.770  1.00  0.00     0.131 A 
ATOM     84  C   UNL A   1      45.930  27.977  40.210  1.00  0.00     0.055 A 
ATOM     85  C   UNL A   1      45.022  25.753  40.162  1.00  0.00     0.041 A 
ATOM     86  F   UNL A   1      44.495  24.756  38.109  1.00  0.00    -0.206 F 
ATOM     87  C   UNL A   1      45.531  26.824  40.890  1.00  0.00     0.022 A 
BRANCH  84  88
ATOM     88  S   UNL A   1      46.720  29.335  41.116  1.00  0.00     0.124 S 
ATOM     89  O   UNL A   1      46.506  28.930  42.500  1.00  0.00    -0.237 OA
ATOM     90  O   UNL A   1      48.093  29.262  40.628  1.00  0.00    -0.237 OA
ATOM     91  O   UNL A   1      45.969  30.513  40.684  1.00  0.00    -0.744 OA
ENDBRANCH  84  88
ENDBRANCH  57  81
BRANCH  69  92
ATOM     92  C   UNL A   1      49.945  24.948  33.245  1.00  0.00     0.023 A 
ATOM     93  C   UNL A   1      50.228  23.577  33.102  1.00  0.00     0.031 A 
ATOM     94  C   UNL A   1      51.024  25.818  33.487  1.00  0.00     0.131 A 
ATOM     95  C   UNL A   1      51.544  23.113  33.259  1.00  0.00     0.055 A 
ATOM     96  C   UNL A   1      52.340  25.359  33.575  1.00  0.00     0.041 A 
ATOM     97  F   UNL A   1      50.819  27.137  33.638  1.00  0.00    -0.206 F 
ATOM     98  C   UNL A   1      52.604  23.996  33.475  1.00  0.00     0.022 A 
BRANCH  95  99
ATOM     99  S   UNL A   1      51.842  21.323  33.283  1.00  0.00     0.124 S 
ATOM    100  O   UNL A   1      50.495  20.790  33.099  1.00  0.00    -0.237 OA
ATOM    101  O   UNL A   1      52.756  21.144  32.159  1.00  0.00    -0.237 OA
ATOM    102  O   UNL A   1      52.426  21.088  34.602  1.00  0.00    -0.744 OA
ENDBRANCH  95  99
ENDBRANCH  69  92
ENDBRANCH  43  44
ENDBRANCH  36  38
ENDBRANCH  35  36
ENDBRANCH  34  35
ENDBRANCH  33  34
ENDBRANCH  32  33
ENDBRANCH  31  32
ENDBRANCH   1  31
TORSDOF 25
ENDMDL
