MODEL 1
REMARK VINA RESULT:     -10.3      0.000      0.000
REMARK SMILES CC(C)[C@H](NC(=O)c1cc2cc(Cl)ccc2n1C)C(=O)N[C@@H](C(=O)OCCOCCOCCOC(=O)c1ccc(-c2c3nc(c(-c4cc(S(=O)(=O)[O-])ccc4F)c4ccc([nH]4)c(-c4cc(S(=O)(=O)[O-])ccc4F)c4nc(c(-c5cc(S(=O)(=O)[O-])ccc5F)c5ccc2[nH]5)C=C4)C=C3)cc1)c1ccccc1
REMARK SMILES IDX 29 1 28 2 27 3 26 4 25 5 23 6 24 7 22 8 21 9 19 10 20 11
REMARK SMILES IDX 4 13 2 14 1 15 3 16 5 17 6 18 7 20 8 21 9 22 17 23 10 24
REMARK SMILES IDX 16 25 18 26 11 27 15 28 12 29 14 30 13 31 100 32 101 33
REMARK SMILES IDX 105 34 102 35 104 36 103 37 30 38 31 39 32 40 33 41 34 42
REMARK SMILES IDX 35 43 36 44 37 45 38 46 99 47 39 48 98 49 40 50 41 51 42 52
REMARK SMILES IDX 92 53 43 54 97 55 91 56 93 57 44 58 96 59 90 60 89 61 45 63
REMARK SMILES IDX 77 64 57 65 76 66 58 67 61 68 75 69 94 70 59 71 60 72 74 74
REMARK SMILES IDX 95 75 62 76 46 77 47 78 55 79 48 80 54 81 56 82 53 83 49 84
REMARK SMILES IDX 50 85 51 86 52 87 78 88 79 89 87 90 80 91 86 92 88 93 85 94
REMARK SMILES IDX 81 95 82 96 83 97 84 98 63 99 64 100 72 101 65 102 71 103
REMARK SMILES IDX 73 104 70 105 66 106 67 107 68 108 69 109
REMARK H PARENT 21 12 5 19 93 62 61 73
REMARK Flexibility Score: inf
ROOT
ATOM      1  C   UNL A   1      34.383  32.422  27.833  1.00  0.00     0.188 C 
ENDROOT
BRANCH   1   2
ATOM      2  O   UNL A   1      33.530  31.308  27.748  1.00  0.00    -0.376 OA
BRANCH   2   3
ATOM      3  C   UNL A   1      33.870  30.323  26.791  1.00  0.00     0.202 C 
BRANCH   3   4
ATOM      4  C   UNL A   1      32.774  29.838  25.818  1.00  0.00     0.261 C 
BRANCH   4   5
ATOM      5  O   UNL A   1      33.219  29.115  24.609  1.00  0.00    -0.461 OA
BRANCH   5   6
ATOM      6  C   UNL A   1      32.326  29.064  23.569  1.00  0.00     0.333 C 
ATOM      7  O   UNL A   1      32.734  29.227  22.419  1.00  0.00    -0.249 OA
BRANCH   6   8
ATOM      8  C   UNL A   1      30.750  28.843  23.872  1.00  0.00     0.223 C 
BRANCH   8   9
ATOM      9  N   UNL A   1      29.848  27.714  23.573  1.00  0.00    -0.337 N 
ATOM     10  C   UNL A   1      29.859  26.389  23.792  1.00  0.00     0.243 C 
ATOM     11  O   UNL A   1      28.798  25.769  23.717  1.00  0.00    -0.273 OA
ATOM     12  H   UNL A   1      29.039  28.003  23.093  1.00  0.00     0.164 HD
BRANCH  10  13
ATOM     13  C   UNL A   1      31.141  25.740  24.175  1.00  0.00     0.174 C 
BRANCH  13  14
ATOM     14  C   UNL A   1      31.604  26.291  25.592  1.00  0.00     0.015 C 
ATOM     15  C   UNL A   1      30.564  26.476  26.715  1.00  0.00     0.010 C 
ATOM     16  C   UNL A   1      32.844  25.553  26.174  1.00  0.00     0.010 C 
ENDBRANCH  13  14
BRANCH  13  17
ATOM     17  N   UNL A   1      31.981  25.933  22.984  1.00  0.00    -0.339 N 
ATOM     18  C   UNL A   1      33.188  25.318  22.628  1.00  0.00     0.268 C 
ATOM     19  H   UNL A   1      31.643  26.596  22.338  1.00  0.00     0.164 HD
ATOM     20  O   UNL A   1      33.796  25.922  21.735  1.00  0.00    -0.268 OA
BRANCH  18  21
ATOM     21  C   UNL A   1      33.814  24.134  23.271  1.00  0.00     0.107 A 
ATOM     22  C   UNL A   1      35.204  24.028  23.412  1.00  0.00     0.042 A 
ATOM     23  N   UNL A   1      33.384  22.838  23.585  1.00  0.00    -0.340 N 
ATOM     24  C   UNL A   1      35.564  22.757  23.939  1.00  0.00     0.002 A 
ATOM     25  C   UNL A   1      34.384  22.085  24.177  1.00  0.00     0.048 A 
ATOM     26  C   UNL A   1      32.255  22.065  23.133  1.00  0.00     0.150 C 
ATOM     27  C   UNL A   1      36.768  22.083  24.212  1.00  0.00     0.030 A 
ATOM     28  C   UNL A   1      34.315  20.794  24.736  1.00  0.00     0.028 A 
ATOM     29  C   UNL A   1      36.717  20.775  24.722  1.00  0.00     0.041 A 
ATOM     30  C   UNL A   1      35.511  20.140  24.995  1.00  0.00     0.023 A 
ATOM     31  Cl  UNL A   1      38.186  19.918  24.999  1.00  0.00    -0.084 Cl
ENDBRANCH  18  21
ENDBRANCH  13  17
ENDBRANCH  10  13
ENDBRANCH   8   9
BRANCH   8  32
ATOM     32  C   UNL A   1      29.740  29.927  23.464  1.00  0.00    -0.014 A 
ATOM     33  C   UNL A   1      29.629  31.141  24.135  1.00  0.00     0.006 A 
ATOM     34  C   UNL A   1      29.346  29.930  22.116  1.00  0.00     0.006 A 
ATOM     35  C   UNL A   1      29.204  32.289  23.453  1.00  0.00     0.000 A 
ATOM     36  C   UNL A   1      28.772  31.042  21.499  1.00  0.00     0.000 A 
ATOM     37  C   UNL A   1      28.695  32.231  22.172  1.00  0.00     0.000 A 
ENDBRANCH   8  32
ENDBRANCH   6   8
ENDBRANCH   5   6
ENDBRANCH   4   5
ENDBRANCH   3   4
ENDBRANCH   2   3
ENDBRANCH   1   2
BRANCH   1  38
ATOM     38  C   UNL A   1      35.124  32.672  29.142  1.00  0.00     0.188 C 
BRANCH  38  39
ATOM     39  O   UNL A   1      35.820  31.622  29.777  1.00  0.00    -0.376 OA
BRANCH  39  40
ATOM     40  C   UNL A   1      35.640  31.456  31.173  1.00  0.00     0.202 C 
BRANCH  40  41
ATOM     41  C   UNL A   1      35.011  32.610  31.982  1.00  0.00     0.261 C 
BRANCH  41  42
ATOM     42  O   UNL A   1      35.868  33.126  33.038  1.00  0.00    -0.460 OA
BRANCH  42  43
ATOM     43  C   UNL A   1      36.611  34.232  32.740  1.00  0.00     0.338 C 
ATOM     44  O   UNL A   1      36.282  35.387  33.017  1.00  0.00    -0.246 OA
BRANCH  43  45
ATOM     45  C   UNL A   1      38.027  33.852  32.385  1.00  0.00     0.060 A 
ATOM     46  C   UNL A   1      38.583  33.822  31.096  1.00  0.00     0.016 A 
ATOM     47  C   UNL A   1      38.775  33.267  33.388  1.00  0.00     0.016 A 
ATOM     48  C   UNL A   1      39.676  32.943  30.768  1.00  0.00     0.010 A 
ATOM     49  C   UNL A   1      39.907  32.510  33.051  1.00  0.00     0.010 A 
ATOM     50  C   UNL A   1      40.279  32.143  31.739  1.00  0.00    -0.014 A 
BRANCH  50  51
ATOM     51  C   UNL A   1      41.444  31.152  31.613  1.00  0.00     0.031 A 
ATOM     52  C   UNL A   1      42.538  31.796  30.880  1.00  0.00     0.074 A 
ATOM     53  C   UNL A   1      41.731  29.858  32.004  1.00  0.00     0.049 A 
ATOM     54  N   UNL A   1      42.593  31.731  29.588  1.00  0.00    -0.248 NA
ATOM     55  C   UNL A   1      43.484  32.738  31.485  1.00  0.00     0.031 C 
ATOM     56  C   UNL A   1      40.798  28.857  32.491  1.00  0.00     0.029 A 
ATOM     57  N   UNL A   1      42.950  29.137  32.130  1.00  0.00    -0.354 N 
ATOM     58  C   UNL A   1      43.813  32.286  29.301  1.00  0.00     0.074 A 
ATOM     59  C   UNL A   1      44.083  33.200  30.383  1.00  0.00     0.031 C 
ATOM     60  C   UNL A   1      41.460  27.825  33.087  1.00  0.00     0.029 A 
ATOM     61  C   UNL A   1      42.918  28.017  33.024  1.00  0.00     0.049 A 
ATOM     62  H   UNL A   1      43.762  29.390  31.635  1.00  0.00     0.167 HD
ATOM     63  C   UNL A   1      44.685  31.604  28.510  1.00  0.00     0.034 A 
ATOM     64  C   UNL A   1      43.787  26.969  33.304  1.00  0.00     0.034 A 
ATOM     65  C   UNL A   1      44.065  30.450  27.886  1.00  0.00     0.049 A 
ATOM     66  C   UNL A   1      44.453  26.660  32.035  1.00  0.00     0.074 A 
ATOM     67  C   UNL A   1      42.899  30.249  27.170  1.00  0.00     0.029 A 
ATOM     68  N   UNL A   1      44.471  29.209  28.317  1.00  0.00    -0.354 N 
ATOM     69  N   UNL A   1      43.897  26.008  31.062  1.00  0.00    -0.248 NA
ATOM     70  C   UNL A   1      45.676  27.372  31.708  1.00  0.00     0.031 C 
ATOM     71  C   UNL A   1      42.472  28.927  27.465  1.00  0.00     0.029 A 
ATOM     72  C   UNL A   1      43.437  28.301  28.249  1.00  0.00     0.049 A 
ATOM     73  H   UNL A   1      45.381  28.998  28.630  1.00  0.00     0.167 HD
ATOM     74  C   UNL A   1      44.293  26.740  29.971  1.00  0.00     0.074 A 
ATOM     75  C   UNL A   1      45.538  27.384  30.383  1.00  0.00     0.031 C 
ATOM     76  C   UNL A   1      43.381  27.056  29.010  1.00  0.00     0.034 A 
BRANCH  63  77
ATOM     77  C   UNL A   1      46.172  31.790  28.622  1.00  0.00     0.023 A 
ATOM     78  C   UNL A   1      46.924  32.568  27.719  1.00  0.00     0.031 A 
ATOM     79  C   UNL A   1      46.868  31.262  29.717  1.00  0.00     0.131 A 
ATOM     80  C   UNL A   1      48.310  32.681  27.828  1.00  0.00     0.055 A 
ATOM     81  C   UNL A   1      48.243  31.461  29.885  1.00  0.00     0.041 A 
ATOM     82  F   UNL A   1      46.225  30.559  30.661  1.00  0.00    -0.206 F 
ATOM     83  C   UNL A   1      48.976  32.150  28.924  1.00  0.00     0.022 A 
BRANCH  80  84
ATOM     84  S   UNL A   1      49.266  33.471  26.503  1.00  0.00     0.124 S 
ATOM     85  O   UNL A   1      48.213  33.936  25.609  1.00  0.00    -0.237 OA
ATOM     86  O   UNL A   1      49.982  34.510  27.239  1.00  0.00    -0.237 OA
ATOM     87  O   UNL A   1      50.104  32.388  25.994  1.00  0.00    -0.744 OA
ENDBRANCH  80  84
ENDBRANCH  63  77
BRANCH  64  88
ATOM     88  C   UNL A   1      44.538  26.472  34.553  1.00  0.00     0.023 A 
ATOM     89  C   UNL A   1      45.217  25.250  34.635  1.00  0.00     0.031 A 
ATOM     90  C   UNL A   1      44.375  27.105  35.811  1.00  0.00     0.131 A 
ATOM     91  C   UNL A   1      45.636  24.662  35.853  1.00  0.00     0.055 A 
ATOM     92  C   UNL A   1      44.799  26.537  37.037  1.00  0.00     0.041 A 
ATOM     93  F   UNL A   1      43.751  28.290  35.898  1.00  0.00    -0.206 F 
ATOM     94  C   UNL A   1      45.420  25.297  37.066  1.00  0.00     0.022 A 
BRANCH  91  95
ATOM     95  S   UNL A   1      46.426  23.017  35.879  1.00  0.00     0.124 S 
ATOM     96  O   UNL A   1      45.330  22.157  36.319  1.00  0.00    -0.237 OA
ATOM     97  O   UNL A   1      46.834  22.856  34.488  1.00  0.00    -0.237 OA
ATOM     98  O   UNL A   1      47.508  23.180  36.843  1.00  0.00    -0.744 OA
ENDBRANCH  91  95
ENDBRANCH  64  88
BRANCH  76  99
ATOM     99  C   UNL A   1      42.117  26.201  28.864  1.00  0.00     0.023 A 
ATOM    100  C   UNL A   1      42.310  24.874  28.440  1.00  0.00     0.031 A 
ATOM    101  C   UNL A   1      40.776  26.632  28.950  1.00  0.00     0.131 A 
ATOM    102  C   UNL A   1      41.231  24.087  28.016  1.00  0.00     0.055 A 
ATOM    103  C   UNL A   1      39.694  25.836  28.552  1.00  0.00     0.041 A 
ATOM    104  F   UNL A   1      40.441  27.840  29.400  1.00  0.00    -0.206 F 
ATOM    105  C   UNL A   1      39.920  24.563  28.055  1.00  0.00     0.022 A 
BRANCH 102 106
ATOM    106  S   UNL A   1      41.520  22.453  27.300  1.00  0.00     0.124 S 
ATOM    107  O   UNL A   1      41.730  22.770  25.889  1.00  0.00    -0.237 OA
ATOM    108  O   UNL A   1      42.705  22.005  28.026  1.00  0.00    -0.237 OA
ATOM    109  O   UNL A   1      40.295  21.716  27.597  1.00  0.00    -0.744 OA
ENDBRANCH 102 106
ENDBRANCH  76  99
ENDBRANCH  50  51
ENDBRANCH  43  45
ENDBRANCH  42  43
ENDBRANCH  41  42
ENDBRANCH  40  41
ENDBRANCH  39  40
ENDBRANCH  38  39
ENDBRANCH   1  38
TORSDOF 26
ENDMDL
MODEL 2
REMARK VINA RESULT:      -9.9      2.407      6.891
REMARK SMILES CC(C)[C@H](NC(=O)c1cc2cc(Cl)ccc2n1C)C(=O)N[C@@H](C(=O)OCCOCCOCCOC(=O)c1ccc(-c2c3nc(c(-c4cc(S(=O)(=O)[O-])ccc4F)c4ccc([nH]4)c(-c4cc(S(=O)(=O)[O-])ccc4F)c4nc(c(-c5cc(S(=O)(=O)[O-])ccc5F)c5ccc2[nH]5)C=C4)C=C3)cc1)c1ccccc1
REMARK SMILES IDX 29 1 28 2 27 3 26 4 25 5 23 6 24 7 22 8 21 9 19 10 20 11
REMARK SMILES IDX 4 13 2 14 1 15 3 16 5 17 6 18 7 20 8 21 9 22 17 23 10 24
REMARK SMILES IDX 16 25 18 26 11 27 15 28 12 29 14 30 13 31 100 32 101 33
REMARK SMILES IDX 105 34 102 35 104 36 103 37 30 38 31 39 32 40 33 41 34 42
REMARK SMILES IDX 35 43 36 44 37 45 38 46 99 47 39 48 98 49 40 50 41 51 42 52
REMARK SMILES IDX 92 53 43 54 97 55 91 56 93 57 44 58 96 59 90 60 89 61 45 63
REMARK SMILES IDX 77 64 57 65 76 66 58 67 61 68 75 69 94 70 59 71 60 72 74 74
REMARK SMILES IDX 95 75 62 76 46 77 47 78 55 79 48 80 54 81 56 82 53 83 49 84
REMARK SMILES IDX 50 85 51 86 52 87 78 88 79 89 87 90 80 91 86 92 88 93 85 94
REMARK SMILES IDX 81 95 82 96 83 97 84 98 63 99 64 100 72 101 65 102 71 103
REMARK SMILES IDX 73 104 70 105 66 106 67 107 68 108 69 109
REMARK H PARENT 21 12 5 19 93 62 61 73
REMARK Flexibility Score: inf
ROOT
ATOM      1  C   UNL A   1      36.479  29.474  27.904  1.00  0.00     0.188 C 
ENDROOT
BRANCH   1   2
ATOM      2  O   UNL A   1      35.897  30.733  27.676  1.00  0.00    -0.376 OA
BRANCH   2   3
ATOM      3  C   UNL A   1      34.485  30.796  27.739  1.00  0.00     0.202 C 
BRANCH   3   4
ATOM      4  C   UNL A   1      33.668  29.830  26.854  1.00  0.00     0.261 C 
BRANCH   4   5
ATOM      5  O   UNL A   1      33.419  28.475  27.389  1.00  0.00    -0.461 OA
BRANCH   5   6
ATOM      6  C   UNL A   1      32.289  27.842  26.940  1.00  0.00     0.333 C 
ATOM      7  O   UNL A   1      31.424  27.511  27.750  1.00  0.00    -0.249 OA
BRANCH   6   8
ATOM      8  C   UNL A   1      32.134  27.495  25.364  1.00  0.00     0.223 C 
BRANCH   8   9
ATOM      9  N   UNL A   1      33.121  27.479  24.268  1.00  0.00    -0.337 N 
ATOM     10  C   UNL A   1      33.524  26.588  23.348  1.00  0.00     0.243 C 
ATOM     11  O   UNL A   1      34.129  26.994  22.356  1.00  0.00    -0.273 OA
ATOM     12  H   UNL A   1      33.605  28.333  24.192  1.00  0.00     0.164 HD
BRANCH  10  13
ATOM     13  C   UNL A   1      33.167  25.156  23.538  1.00  0.00     0.174 C 
BRANCH  13  14
ATOM     14  C   UNL A   1      31.951  24.788  22.583  1.00  0.00     0.015 C 
ATOM     15  C   UNL A   1      30.625  24.295  23.193  1.00  0.00     0.010 C 
ATOM     16  C   UNL A   1      31.639  25.883  21.522  1.00  0.00     0.010 C 
ENDBRANCH  13  14
BRANCH  13  17
ATOM     17  N   UNL A   1      33.038  25.037  24.998  1.00  0.00    -0.339 N 
ATOM     18  C   UNL A   1      33.050  23.896  25.809  1.00  0.00     0.268 C 
ATOM     19  H   UNL A   1      32.925  25.890  25.478  1.00  0.00     0.164 HD
ATOM     20  O   UNL A   1      32.605  24.102  26.946  1.00  0.00    -0.268 OA
BRANCH  18  21
ATOM     21  C   UNL A   1      33.430  22.516  25.409  1.00  0.00     0.107 A 
ATOM     22  C   UNL A   1      32.463  21.524  25.197  1.00  0.00     0.042 A 
ATOM     23  N   UNL A   1      34.618  21.773  25.429  1.00  0.00    -0.340 N 
ATOM     24  C   UNL A   1      33.075  20.265  24.947  1.00  0.00     0.002 A 
ATOM     25  C   UNL A   1      34.437  20.486  24.953  1.00  0.00     0.048 A 
ATOM     26  C   UNL A   1      35.864  21.973  26.125  1.00  0.00     0.150 C 
ATOM     27  C   UNL A   1      32.627  18.947  24.749  1.00  0.00     0.030 A 
ATOM     28  C   UNL A   1      35.395  19.483  24.708  1.00  0.00     0.028 A 
ATOM     29  C   UNL A   1      33.572  17.926  24.554  1.00  0.00     0.041 A 
ATOM     30  C   UNL A   1      34.937  18.187  24.519  1.00  0.00     0.023 A 
ATOM     31  Cl  UNL A   1      33.034  16.300  24.374  1.00  0.00    -0.084 Cl
ENDBRANCH  18  21
ENDBRANCH  13  17
ENDBRANCH  10  13
ENDBRANCH   8   9
BRANCH   8  32
ATOM     32  C   UNL A   1      31.036  28.186  24.540  1.00  0.00    -0.014 A 
ATOM     33  C   UNL A   1      31.309  29.189  23.616  1.00  0.00     0.006 A 
ATOM     34  C   UNL A   1      29.872  27.435  24.309  1.00  0.00     0.006 A 
ATOM     35  C   UNL A   1      30.480  29.367  22.500  1.00  0.00     0.000 A 
ATOM     36  C   UNL A   1      28.972  27.733  23.285  1.00  0.00     0.000 A 
ATOM     37  C   UNL A   1      29.274  28.708  22.374  1.00  0.00     0.000 A 
ENDBRANCH   8  32
ENDBRANCH   6   8
ENDBRANCH   5   6
ENDBRANCH   4   5
ENDBRANCH   3   4
ENDBRANCH   2   3
ENDBRANCH   1   2
BRANCH   1  38
ATOM     38  C   UNL A   1      37.565  29.357  28.968  1.00  0.00     0.188 C 
BRANCH  38  39
ATOM     39  O   UNL A   1      37.562  30.219  30.084  1.00  0.00    -0.376 OA
BRANCH  39  40
ATOM     40  C   UNL A   1      36.508  30.087  31.022  1.00  0.00     0.202 C 
BRANCH  40  41
ATOM     41  C   UNL A   1      36.811  30.322  32.517  1.00  0.00     0.261 C 
BRANCH  41  42
ATOM     42  O   UNL A   1      36.476  31.657  32.986  1.00  0.00    -0.460 OA
BRANCH  42  43
ATOM     43  C   UNL A   1      37.466  32.349  33.623  1.00  0.00     0.338 C 
ATOM     44  O   UNL A   1      37.290  33.061  34.614  1.00  0.00    -0.246 OA
BRANCH  43  45
ATOM     45  C   UNL A   1      38.828  31.845  33.215  1.00  0.00     0.060 A 
ATOM     46  C   UNL A   1      39.560  32.245  32.086  1.00  0.00     0.016 A 
ATOM     47  C   UNL A   1      39.295  30.730  33.884  1.00  0.00     0.016 A 
ATOM     48  C   UNL A   1      40.514  31.368  31.457  1.00  0.00     0.010 A 
ATOM     49  C   UNL A   1      40.310  29.954  33.305  1.00  0.00     0.010 A 
ATOM     50  C   UNL A   1      40.807  30.113  31.992  1.00  0.00    -0.014 A 
BRANCH  50  51
ATOM     51  C   UNL A   1      41.779  29.034  31.496  1.00  0.00     0.031 A 
ATOM     52  C   UNL A   1      42.264  28.267  32.647  1.00  0.00     0.074 A 
ATOM     53  C   UNL A   1      42.295  28.600  30.290  1.00  0.00     0.049 A 
ATOM     54  N   UNL A   1      43.317  28.647  33.296  1.00  0.00    -0.248 NA
ATOM     55  C   UNL A   1      41.501  27.196  33.296  1.00  0.00     0.031 C 
ATOM     56  C   UNL A   1      42.248  29.291  29.013  1.00  0.00     0.029 A 
ATOM     57  N   UNL A   1      42.930  27.393  29.892  1.00  0.00    -0.354 N 
ATOM     58  C   UNL A   1      43.540  27.609  34.163  1.00  0.00     0.074 A 
ATOM     59  C   UNL A   1      42.246  27.014  34.390  1.00  0.00     0.031 C 
ATOM     60  C   UNL A   1      42.553  28.442  27.990  1.00  0.00     0.029 A 
ATOM     61  C   UNL A   1      42.873  27.094  28.491  1.00  0.00     0.049 A 
ATOM     62  H   UNL A   1      43.381  26.801  30.536  1.00  0.00     0.167 HD
ATOM     63  C   UNL A   1      44.773  27.037  34.213  1.00  0.00     0.034 A 
ATOM     64  C   UNL A   1      43.485  26.156  27.668  1.00  0.00     0.034 A 
ATOM     65  C   UNL A   1      45.759  27.803  33.471  1.00  0.00     0.049 A 
ATOM     66  C   UNL A   1      44.821  25.948  28.236  1.00  0.00     0.074 A 
ATOM     67  C   UNL A   1      46.123  29.136  33.442  1.00  0.00     0.029 A 
ATOM     68  N   UNL A   1      46.244  27.244  32.312  1.00  0.00    -0.354 N 
ATOM     69  N   UNL A   1      45.804  26.783  28.104  1.00  0.00    -0.248 NA
ATOM     70  C   UNL A   1      44.985  24.924  29.252  1.00  0.00     0.031 C 
ATOM     71  C   UNL A   1      46.543  29.405  32.112  1.00  0.00     0.029 A 
ATOM     72  C   UNL A   1      46.547  28.218  31.386  1.00  0.00     0.049 A 
ATOM     73  H   UNL A   1      46.360  26.277  32.165  1.00  0.00     0.167 HD
ATOM     74  C   UNL A   1      46.334  26.794  29.370  1.00  0.00     0.074 A 
ATOM     75  C   UNL A   1      45.969  25.500  29.941  1.00  0.00     0.031 C 
ATOM     76  C   UNL A   1      46.658  27.985  29.949  1.00  0.00     0.034 A 
BRANCH  63  77
ATOM     77  C   UNL A   1      44.969  25.605  34.621  1.00  0.00     0.023 A 
ATOM     78  C   UNL A   1      45.476  25.221  35.879  1.00  0.00     0.031 A 
ATOM     79  C   UNL A   1      44.549  24.568  33.778  1.00  0.00     0.131 A 
ATOM     80  C   UNL A   1      45.687  23.882  36.207  1.00  0.00     0.055 A 
ATOM     81  C   UNL A   1      44.664  23.223  34.146  1.00  0.00     0.041 A 
ATOM     82  F   UNL A   1      43.998  24.837  32.586  1.00  0.00    -0.206 F 
ATOM     83  C   UNL A   1      45.259  22.872  35.354  1.00  0.00     0.022 A 
BRANCH  80  84
ATOM     84  S   UNL A   1      46.580  23.445  37.725  1.00  0.00     0.124 S 
ATOM     85  O   UNL A   1      45.839  22.276  38.183  1.00  0.00    -0.237 OA
ATOM     86  O   UNL A   1      47.922  23.186  37.210  1.00  0.00    -0.237 OA
ATOM     87  O   UNL A   1      46.457  24.643  38.550  1.00  0.00    -0.744 OA
ENDBRANCH  80  84
ENDBRANCH  63  77
BRANCH  64  88
ATOM     88  C   UNL A   1      42.999  25.017  26.753  1.00  0.00     0.023 A 
ATOM     89  C   UNL A   1      42.031  24.071  27.112  1.00  0.00     0.031 A 
ATOM     90  C   UNL A   1      43.693  24.682  25.563  1.00  0.00     0.131 A 
ATOM     91  C   UNL A   1      41.810  22.864  26.406  1.00  0.00     0.055 A 
ATOM     92  C   UNL A   1      43.476  23.484  24.838  1.00  0.00     0.041 A 
ATOM     93  F   UNL A   1      44.647  25.494  25.082  1.00  0.00    -0.206 F 
ATOM     94  C   UNL A   1      42.540  22.556  25.269  1.00  0.00     0.022 A 
BRANCH  91  95
ATOM     95  S   UNL A   1      40.595  21.639  27.000  1.00  0.00     0.124 S 
ATOM     96  O   UNL A   1      39.325  22.312  26.737  1.00  0.00    -0.237 OA
ATOM     97  O   UNL A   1      40.886  20.489  26.152  1.00  0.00    -0.237 OA
ATOM     98  O   UNL A   1      40.932  21.489  28.411  1.00  0.00    -0.744 OA
ENDBRANCH  91  95
ENDBRANCH  64  88
BRANCH  76  99
ATOM     99  C   UNL A   1      46.933  29.202  29.059  1.00  0.00     0.023 A 
ATOM    100  C   UNL A   1      45.817  29.982  28.711  1.00  0.00     0.031 A 
ATOM    101  C   UNL A   1      48.146  29.540  28.421  1.00  0.00     0.131 A 
ATOM    102  C   UNL A   1      45.898  30.948  27.698  1.00  0.00     0.055 A 
ATOM    103  C   UNL A   1      48.233  30.525  27.428  1.00  0.00     0.041 A 
ATOM    104  F   UNL A   1      49.296  28.932  28.703  1.00  0.00    -0.206 F 
ATOM    105  C   UNL A   1      47.099  31.217  27.041  1.00  0.00     0.022 A 
BRANCH 102 106
ATOM    106  S   UNL A   1      44.411  31.808  27.136  1.00  0.00     0.124 S 
ATOM    107  O   UNL A   1      43.752  32.136  28.398  1.00  0.00    -0.237 OA
ATOM    108  O   UNL A   1      44.970  32.942  26.405  1.00  0.00    -0.237 OA
ATOM    109  O   UNL A   1      43.722  30.818  26.313  1.00  0.00    -0.744 OA
ENDBRANCH 102 106
ENDBRANCH  76  99
ENDBRANCH  50  51
ENDBRANCH  43  45
ENDBRANCH  42  43
ENDBRANCH  41  42
ENDBRANCH  40  41
ENDBRANCH  39  40
ENDBRANCH  38  39
ENDBRANCH   1  38
TORSDOF 26
ENDMDL
MODEL 3
REMARK VINA RESULT:      -9.4      6.138     10.342
REMARK SMILES CC(C)[C@H](NC(=O)c1cc2cc(Cl)ccc2n1C)C(=O)N[C@@H](C(=O)OCCOCCOCCOC(=O)c1ccc(-c2c3nc(c(-c4cc(S(=O)(=O)[O-])ccc4F)c4ccc([nH]4)c(-c4cc(S(=O)(=O)[O-])ccc4F)c4nc(c(-c5cc(S(=O)(=O)[O-])ccc5F)c5ccc2[nH]5)C=C4)C=C3)cc1)c1ccccc1
REMARK SMILES IDX 29 1 28 2 27 3 26 4 25 5 23 6 24 7 22 8 21 9 19 10 20 11
REMARK SMILES IDX 4 13 2 14 1 15 3 16 5 17 6 18 7 20 8 21 9 22 17 23 10 24
REMARK SMILES IDX 16 25 18 26 11 27 15 28 12 29 14 30 13 31 100 32 101 33
REMARK SMILES IDX 105 34 102 35 104 36 103 37 30 38 31 39 32 40 33 41 34 42
REMARK SMILES IDX 35 43 36 44 37 45 38 46 99 47 39 48 98 49 40 50 41 51 42 52
REMARK SMILES IDX 92 53 43 54 97 55 91 56 93 57 44 58 96 59 90 60 89 61 45 63
REMARK SMILES IDX 77 64 57 65 76 66 58 67 61 68 75 69 94 70 59 71 60 72 74 74
REMARK SMILES IDX 95 75 62 76 46 77 47 78 55 79 48 80 54 81 56 82 53 83 49 84
REMARK SMILES IDX 50 85 51 86 52 87 78 88 79 89 87 90 80 91 86 92 88 93 85 94
REMARK SMILES IDX 81 95 82 96 83 97 84 98 63 99 64 100 72 101 65 102 71 103
REMARK SMILES IDX 73 104 70 105 66 106 67 107 68 108 69 109
REMARK H PARENT 21 12 5 19 93 62 61 73
REMARK Flexibility Score: inf
ROOT
ATOM      1  C   UNL A   1      43.906  37.628  32.825  1.00  0.00     0.188 C 
ENDROOT
BRANCH   1   2
ATOM      2  O   UNL A   1      43.439  37.640  34.151  1.00  0.00    -0.376 OA
BRANCH   2   3
ATOM      3  C   UNL A   1      42.361  36.774  34.449  1.00  0.00     0.202 C 
BRANCH   3   4
ATOM      4  C   UNL A   1      42.569  35.255  34.265  1.00  0.00     0.261 C 
BRANCH   4   5
ATOM      5  O   UNL A   1      41.357  34.420  34.136  1.00  0.00    -0.461 OA
BRANCH   5   6
ATOM      6  C   UNL A   1      41.231  33.709  32.970  1.00  0.00     0.333 C 
ATOM      7  O   UNL A   1      40.596  34.197  32.035  1.00  0.00    -0.249 OA
BRANCH   6   8
ATOM      8  C   UNL A   1      41.871  32.224  32.861  1.00  0.00     0.223 C 
BRANCH   8   9
ATOM      9  N   UNL A   1      41.501  30.953  33.512  1.00  0.00    -0.337 N 
ATOM     10  C   UNL A   1      40.885  30.598  34.651  1.00  0.00     0.243 C 
ATOM     11  O   UNL A   1      40.427  29.460  34.745  1.00  0.00    -0.273 OA
ATOM     12  H   UNL A   1      41.774  30.171  32.980  1.00  0.00     0.164 HD
BRANCH  10  13
ATOM     13  C   UNL A   1      40.729  31.616  35.724  1.00  0.00     0.174 C 
BRANCH  13  14
ATOM     14  C   UNL A   1      42.137  31.861  36.422  1.00  0.00     0.015 C 
ATOM     15  C   UNL A   1      42.271  32.946  37.507  1.00  0.00     0.010 C 
ATOM     16  C   UNL A   1      42.815  30.556  36.930  1.00  0.00     0.010 C 
ENDBRANCH  13  14
BRANCH  13  17
ATOM     17  N   UNL A   1      39.586  31.113  36.498  1.00  0.00    -0.339 N 
ATOM     18  C   UNL A   1      38.230  31.458  36.424  1.00  0.00     0.268 C 
ATOM     19  H   UNL A   1      39.806  30.427  37.171  1.00  0.00     0.164 HD
ATOM     20  O   UNL A   1      37.581  31.095  37.413  1.00  0.00    -0.268 OA
BRANCH  18  21
ATOM     21  C   UNL A   1      37.570  32.272  35.370  1.00  0.00     0.107 A 
ATOM     22  C   UNL A   1      36.705  33.326  35.696  1.00  0.00     0.042 A 
ATOM     23  N   UNL A   1      37.340  32.112  33.998  1.00  0.00    -0.340 N 
ATOM     24  C   UNL A   1      36.103  33.867  34.526  1.00  0.00     0.002 A 
ATOM     25  C   UNL A   1      36.638  33.177  33.458  1.00  0.00     0.048 A 
ATOM     26  C   UNL A   1      37.400  30.954  33.143  1.00  0.00     0.150 C 
ATOM     27  C   UNL A   1      35.134  34.848  34.252  1.00  0.00     0.030 A 
ATOM     28  C   UNL A   1      36.318  33.444  32.113  1.00  0.00     0.028 A 
ATOM     29  C   UNL A   1      34.766  35.091  32.918  1.00  0.00     0.041 A 
ATOM     30  C   UNL A   1      35.357  34.411  31.859  1.00  0.00     0.023 A 
ATOM     31  Cl  UNL A   1      33.534  36.245  32.578  1.00  0.00    -0.084 Cl
ENDBRANCH  18  21
ENDBRANCH  13  17
ENDBRANCH  10  13
ENDBRANCH   8   9
BRANCH   8  32
ATOM     32  C   UNL A   1      43.384  32.034  33.056  1.00  0.00    -0.014 A 
ATOM     33  C   UNL A   1      43.939  30.842  33.507  1.00  0.00     0.006 A 
ATOM     34  C   UNL A   1      44.215  32.839  32.260  1.00  0.00     0.006 A 
ATOM     35  C   UNL A   1      45.234  30.472  33.117  1.00  0.00     0.000 A 
ATOM     36  C   UNL A   1      45.555  32.533  32.018  1.00  0.00     0.000 A 
ATOM     37  C   UNL A   1      46.072  31.343  32.452  1.00  0.00     0.000 A 
ENDBRANCH   8  32
ENDBRANCH   6   8
ENDBRANCH   5   6
ENDBRANCH   4   5
ENDBRANCH   3   4
ENDBRANCH   2   3
ENDBRANCH   1   2
BRANCH   1  38
ATOM     38  C   UNL A   1      44.346  38.946  32.198  1.00  0.00     0.188 C 
BRANCH  38  39
ATOM     39  O   UNL A   1      44.033  39.233  30.853  1.00  0.00    -0.376 OA
BRANCH  39  40
ATOM     40  C   UNL A   1      44.236  38.211  29.892  1.00  0.00     0.202 C 
BRANCH  40  41
ATOM     41  C   UNL A   1      43.198  38.037  28.763  1.00  0.00     0.261 C 
BRANCH  41  42
ATOM     42  O   UNL A   1      42.728  36.671  28.598  1.00  0.00    -0.460 OA
BRANCH  42  43
ATOM     43  C   UNL A   1      42.872  36.119  27.357  1.00  0.00     0.338 C 
ATOM     44  O   UNL A   1      42.636  36.709  26.301  1.00  0.00    -0.246 OA
BRANCH  43  45
ATOM     45  C   UNL A   1      43.702  34.861  27.418  1.00  0.00     0.060 A 
ATOM     46  C   UNL A   1      43.905  33.946  26.374  1.00  0.00     0.016 A 
ATOM     47  C   UNL A   1      44.113  34.458  28.674  1.00  0.00     0.016 A 
ATOM     48  C   UNL A   1      44.189  32.558  26.633  1.00  0.00     0.010 A 
ATOM     49  C   UNL A   1      44.499  33.125  28.877  1.00  0.00     0.010 A 
ATOM     50  C   UNL A   1      44.353  32.083  27.935  1.00  0.00    -0.014 A 
BRANCH  50  51
ATOM     51  C   UNL A   1      44.662  30.664  28.433  1.00  0.00     0.031 A 
ATOM     52  C   UNL A   1      45.922  30.215  27.835  1.00  0.00     0.074 A 
ATOM     53  C   UNL A   1      44.090  29.732  29.277  1.00  0.00     0.049 A 
ATOM     54  N   UNL A   1      45.929  29.609  26.691  1.00  0.00    -0.248 NA
ATOM     55  C   UNL A   1      47.246  30.610  28.325  1.00  0.00     0.031 C 
ATOM     56  C   UNL A   1      42.738  29.734  29.806  1.00  0.00     0.029 A 
ATOM     57  N   UNL A   1      44.607  28.581  29.933  1.00  0.00    -0.354 N 
ATOM     58  C   UNL A   1      47.233  29.207  26.561  1.00  0.00     0.074 A 
ATOM     59  C   UNL A   1      48.006  30.157  27.323  1.00  0.00     0.031 C 
ATOM     60  C   UNL A   1      42.622  28.863  30.849  1.00  0.00     0.029 A 
ATOM     61  C   UNL A   1      43.890  28.158  31.100  1.00  0.00     0.049 A 
ATOM     62  H   UNL A   1      45.404  28.105  29.606  1.00  0.00     0.167 HD
ATOM     63  C   UNL A   1      47.503  27.904  26.279  1.00  0.00     0.034 A 
ATOM     64  C   UNL A   1      43.929  27.031  31.912  1.00  0.00     0.034 A 
ATOM     65  C   UNL A   1      46.305  27.165  25.922  1.00  0.00     0.049 A 
ATOM     66  C   UNL A   1      44.268  25.916  31.022  1.00  0.00     0.074 A 
ATOM     67  C   UNL A   1      45.265  27.382  25.038  1.00  0.00     0.029 A 
ATOM     68  N   UNL A   1      45.861  26.220  26.816  1.00  0.00    -0.354 N 
ATOM     69  N   UNL A   1      43.430  25.361  30.203  1.00  0.00    -0.248 NA
ATOM     70  C   UNL A   1      45.670  25.609  30.806  1.00  0.00     0.031 C 
ATOM     71  C   UNL A   1      44.115  26.790  25.622  1.00  0.00     0.029 A 
ATOM     72  C   UNL A   1      44.487  26.119  26.784  1.00  0.00     0.049 A 
ATOM     73  H   UNL A   1      46.447  25.687  27.401  1.00  0.00     0.167 HD
ATOM     74  C   UNL A   1      44.197  25.219  29.073  1.00  0.00     0.074 A 
ATOM     75  C   UNL A   1      45.572  25.153  29.558  1.00  0.00     0.031 C 
ATOM     76  C   UNL A   1      43.674  25.565  27.863  1.00  0.00     0.034 A 
BRANCH  63  77
ATOM     77  C   UNL A   1      48.789  27.249  26.698  1.00  0.00     0.023 A 
ATOM     78  C   UNL A   1      49.132  27.011  28.045  1.00  0.00     0.031 A 
ATOM     79  C   UNL A   1      49.672  26.748  25.734  1.00  0.00     0.131 A 
ATOM     80  C   UNL A   1      50.354  26.441  28.399  1.00  0.00     0.055 A 
ATOM     81  C   UNL A   1      50.852  26.083  26.086  1.00  0.00     0.041 A 
ATOM     82  F   UNL A   1      49.400  26.874  24.427  1.00  0.00    -0.206 F 
ATOM     83  C   UNL A   1      51.212  25.950  27.424  1.00  0.00     0.022 A 
BRANCH  80  84
ATOM     84  S   UNL A   1      50.865  26.391  30.140  1.00  0.00     0.124 S 
ATOM     85  O   UNL A   1      50.984  24.958  30.377  1.00  0.00    -0.237 OA
ATOM     86  O   UNL A   1      52.121  27.136  30.097  1.00  0.00    -0.237 OA
ATOM     87  O   UNL A   1      49.773  27.065  30.836  1.00  0.00    -0.744 OA
ENDBRANCH  80  84
ENDBRANCH  63  77
BRANCH  64  88
ATOM     88  C   UNL A   1      44.211  26.762  33.402  1.00  0.00     0.023 A 
ATOM     89  C   UNL A   1      43.231  26.439  34.349  1.00  0.00     0.031 A 
ATOM     90  C   UNL A   1      45.465  27.083  33.984  1.00  0.00     0.131 A 
ATOM     91  C   UNL A   1      43.438  26.495  35.748  1.00  0.00     0.055 A 
ATOM     92  C   UNL A   1      45.692  27.132  35.381  1.00  0.00     0.041 A 
ATOM     93  F   UNL A   1      46.510  27.406  33.207  1.00  0.00    -0.206 F 
ATOM     94  C   UNL A   1      44.669  26.854  36.275  1.00  0.00     0.022 A 
BRANCH  91  95
ATOM     95  S   UNL A   1      42.076  26.155  36.913  1.00  0.00     0.124 S 
ATOM     96  O   UNL A   1      42.757  26.201  38.205  1.00  0.00    -0.237 OA
ATOM     97  O   UNL A   1      41.163  27.259  36.642  1.00  0.00    -0.237 OA
ATOM     98  O   UNL A   1      41.612  24.833  36.508  1.00  0.00    -0.744 OA
ENDBRANCH  91  95
ENDBRANCH  64  88
BRANCH  76  99
ATOM     99  C   UNL A   1      42.153  25.598  27.683  1.00  0.00     0.023 A 
ATOM    100  C   UNL A   1      41.518  26.816  27.979  1.00  0.00     0.031 A 
ATOM    101  C   UNL A   1      41.299  24.507  27.409  1.00  0.00     0.131 A 
ATOM    102  C   UNL A   1      40.124  26.891  28.111  1.00  0.00     0.055 A 
ATOM    103  C   UNL A   1      39.905  24.588  27.514  1.00  0.00     0.041 A 
ATOM    104  F   UNL A   1      41.760  23.311  27.048  1.00  0.00    -0.206 F 
ATOM    105  C   UNL A   1      39.309  25.779  27.894  1.00  0.00     0.022 A 
BRANCH 102 106
ATOM    106  S   UNL A   1      39.342  28.420  28.675  1.00  0.00     0.124 S 
ATOM    107  O   UNL A   1      39.489  28.322  30.125  1.00  0.00    -0.237 OA
ATOM    108  O   UNL A   1      40.163  29.441  28.028  1.00  0.00    -0.237 OA
ATOM    109  O   UNL A   1      37.973  28.319  28.179  1.00  0.00    -0.744 OA
ENDBRANCH 102 106
ENDBRANCH  76  99
ENDBRANCH  50  51
ENDBRANCH  43  45
ENDBRANCH  42  43
ENDBRANCH  41  42
ENDBRANCH  40  41
ENDBRANCH  39  40
ENDBRANCH  38  39
ENDBRANCH   1  38
TORSDOF 26
ENDMDL
