MODEL 1
REMARK VINA RESULT:     -10.3      0.000      0.000
REMARK SMILES O=C(OCCOCCOCCOC(=O)[C@@H]1CN(c2ncnc3c2CCC3)CCO1)c1ccc(-c2c3nc(c(-c4cc(S(=O)(=O)[O-])ccc4F)c4ccc([nH]4)c(-c4cc(S(=O)(=O)[O-])ccc4F)c4nc(c(-c5cc(S(=O)(=O)[O-])ccc5F)c5ccc2[nH]5)C=C4)C=C3)cc1
REMARK SMILES IDX 7 1 6 2 5 3 4 4 3 5 2 6 1 7 30 8 31 9 92 10 32 11 91 12
REMARK SMILES IDX 33 13 34 14 35 15 85 16 36 17 90 18 84 19 86 20 37 21 89 22
REMARK SMILES IDX 83 23 82 24 38 26 70 27 50 28 69 29 51 30 54 31 68 32 87 33
REMARK SMILES IDX 52 34 53 35 67 37 88 38 55 39 39 40 40 41 48 42 41 43 47 44
REMARK SMILES IDX 49 45 46 46 42 47 43 48 44 49 45 50 71 51 72 52 80 53 73 54
REMARK SMILES IDX 79 55 81 56 78 57 74 58 75 59 76 60 77 61 56 62 57 63 65 64
REMARK SMILES IDX 58 65 64 66 66 67 63 68 59 69 60 70 61 71 62 72 8 73 9 74
REMARK SMILES IDX 10 75 11 76 12 77 13 78 14 79 15 80 16 81 29 82 17 83 28 84
REMARK SMILES IDX 27 85 18 86 19 87 23 88 20 89 22 90 24 91 21 92 26 93 25 94
REMARK H PARENT 86 25 54 36
REMARK Flexibility Score: inf
ROOT
ATOM      1  C   UNL A   1      33.392  27.309  26.095  1.00  0.00     0.188 C 
ENDROOT
BRANCH   1   2
ATOM      2  O   UNL A   1      33.946  28.131  25.062  1.00  0.00    -0.376 OA
BRANCH   2   3
ATOM      3  C   UNL A   1      33.280  29.391  24.916  1.00  0.00     0.202 C 
BRANCH   3   4
ATOM      4  C   UNL A   1      32.415  29.798  26.115  1.00  0.00     0.261 C 
BRANCH   4   5
ATOM      5  O   UNL A   1      32.463  31.212  26.361  1.00  0.00    -0.460 OA
BRANCH   5   6
ATOM      6  C   UNL A   1      33.240  31.885  27.247  1.00  0.00     0.338 C 
ATOM      7  O   UNL A   1      32.899  33.029  27.548  1.00  0.00    -0.246 OA
BRANCH   6   8
ATOM      8  C   UNL A   1      34.483  31.334  27.887  1.00  0.00     0.060 A 
ATOM      9  C   UNL A   1      34.683  30.011  28.285  1.00  0.00     0.016 A 
ATOM     10  C   UNL A   1      35.554  32.231  28.062  1.00  0.00     0.016 A 
ATOM     11  C   UNL A   1      35.850  29.612  28.930  1.00  0.00     0.010 A 
ATOM     12  C   UNL A   1      36.751  31.828  28.665  1.00  0.00     0.010 A 
ATOM     13  C   UNL A   1      36.885  30.520  29.137  1.00  0.00    -0.014 A 
BRANCH  13  14
ATOM     14  C   UNL A   1      38.033  30.103  29.966  1.00  0.00     0.031 A 
ATOM     15  C   UNL A   1      39.058  29.196  29.362  1.00  0.00     0.074 A 
ATOM     16  C   UNL A   1      38.246  30.663  31.169  1.00  0.00     0.049 A 
ATOM     17  N   UNL A   1      40.154  28.722  29.890  1.00  0.00    -0.248 NA
ATOM     18  C   UNL A   1      38.842  28.813  27.958  1.00  0.00     0.031 C 
ATOM     19  C   UNL A   1      37.420  31.717  31.753  1.00  0.00     0.029 A 
ATOM     20  N   UNL A   1      39.236  30.462  32.093  1.00  0.00    -0.354 N 
ATOM     21  C   UNL A   1      40.783  28.022  28.871  1.00  0.00     0.074 A 
ATOM     22  C   UNL A   1      39.918  28.082  27.713  1.00  0.00     0.031 C 
ATOM     23  C   UNL A   1      37.945  32.073  32.936  1.00  0.00     0.029 A 
ATOM     24  C   UNL A   1      39.080  31.216  33.230  1.00  0.00     0.049 A 
ATOM     25  H   UNL A   1      39.985  29.838  31.957  1.00  0.00     0.167 HD
ATOM     26  C   UNL A   1      41.988  27.404  28.899  1.00  0.00     0.034 A 
ATOM     27  C   UNL A   1      39.747  31.197  34.398  1.00  0.00     0.034 A 
ATOM     28  C   UNL A   1      42.798  27.308  30.086  1.00  0.00     0.049 A 
ATOM     29  C   UNL A   1      40.932  30.288  34.510  1.00  0.00     0.074 A 
ATOM     30  C   UNL A   1      43.973  26.607  30.281  1.00  0.00     0.029 A 
ATOM     31  N   UNL A   1      42.500  27.930  31.296  1.00  0.00    -0.354 N 
ATOM     32  N   UNL A   1      41.460  29.523  33.582  1.00  0.00    -0.248 NA
ATOM     33  C   UNL A   1      41.617  30.239  35.804  1.00  0.00     0.031 C 
ATOM     34  C   UNL A   1      44.353  26.756  31.620  1.00  0.00     0.029 A 
ATOM     35  C   UNL A   1      43.452  27.604  32.248  1.00  0.00     0.049 A 
ATOM     36  H   UNL A   1      41.725  28.517  31.452  1.00  0.00     0.167 HD
ATOM     37  C   UNL A   1      42.567  28.927  34.168  1.00  0.00     0.074 A 
ATOM     38  C   UNL A   1      42.618  29.410  35.537  1.00  0.00     0.031 C 
ATOM     39  C   UNL A   1      43.469  28.078  33.614  1.00  0.00     0.034 A 
BRANCH  26  40
ATOM     40  C   UNL A   1      42.421  26.732  27.623  1.00  0.00     0.023 A 
ATOM     41  C   UNL A   1      42.247  25.349  27.430  1.00  0.00     0.031 A 
ATOM     42  C   UNL A   1      43.115  27.456  26.641  1.00  0.00     0.131 A 
ATOM     43  C   UNL A   1      42.830  24.721  26.319  1.00  0.00     0.055 A 
ATOM     44  C   UNL A   1      43.630  26.838  25.501  1.00  0.00     0.041 A 
ATOM     45  F   UNL A   1      43.338  28.772  26.793  1.00  0.00    -0.206 F 
ATOM     46  C   UNL A   1      43.503  25.459  25.342  1.00  0.00     0.022 A 
BRANCH  43  47
ATOM     47  S   UNL A   1      42.827  22.908  26.241  1.00  0.00     0.124 S 
ATOM     48  O   UNL A   1      44.096  22.583  26.888  1.00  0.00    -0.237 OA
ATOM     49  O   UNL A   1      41.622  22.560  26.987  1.00  0.00    -0.237 OA
ATOM     50  O   UNL A   1      42.775  22.626  24.809  1.00  0.00    -0.744 OA
ENDBRANCH  43  47
ENDBRANCH  26  40
BRANCH  27  51
ATOM     51  C   UNL A   1      39.256  32.015  35.542  1.00  0.00     0.023 A 
ATOM     52  C   UNL A   1      38.462  31.464  36.556  1.00  0.00     0.031 A 
ATOM     53  C   UNL A   1      39.635  33.368  35.656  1.00  0.00     0.131 A 
ATOM     54  C   UNL A   1      38.070  32.264  37.644  1.00  0.00     0.055 A 
ATOM     55  C   UNL A   1      39.259  34.152  36.748  1.00  0.00     0.041 A 
ATOM     56  F   UNL A   1      40.412  33.937  34.720  1.00  0.00    -0.206 F 
ATOM     57  C   UNL A   1      38.472  33.599  37.750  1.00  0.00     0.022 A 
BRANCH  54  58
ATOM     58  S   UNL A   1      37.030  31.532  38.937  1.00  0.00     0.124 S 
ATOM     59  O   UNL A   1      35.861  32.403  38.906  1.00  0.00    -0.237 OA
ATOM     60  O   UNL A   1      36.835  30.174  38.441  1.00  0.00    -0.237 OA
ATOM     61  O   UNL A   1      37.856  31.639  40.139  1.00  0.00    -0.744 OA
ENDBRANCH  54  58
ENDBRANCH  27  51
BRANCH  39  62
ATOM     62  C   UNL A   1      44.612  27.650  34.486  1.00  0.00     0.023 A 
ATOM     63  C   UNL A   1      44.480  26.593  35.401  1.00  0.00     0.031 A 
ATOM     64  C   UNL A   1      45.855  28.298  34.383  1.00  0.00     0.131 A 
ATOM     65  C   UNL A   1      45.569  26.236  36.206  1.00  0.00     0.055 A 
ATOM     66  C   UNL A   1      46.950  27.905  35.152  1.00  0.00     0.041 A 
ATOM     67  F   UNL A   1      46.026  29.315  33.523  1.00  0.00    -0.206 F 
ATOM     68  C   UNL A   1      46.808  26.873  36.075  1.00  0.00     0.022 A 
BRANCH  65  69
ATOM     69  S   UNL A   1      45.336  24.953  37.465  1.00  0.00     0.124 S 
ATOM     70  O   UNL A   1      45.464  25.719  38.701  1.00  0.00    -0.237 OA
ATOM     71  O   UNL A   1      43.999  24.452  37.161  1.00  0.00    -0.237 OA
ATOM     72  O   UNL A   1      46.422  24.012  37.201  1.00  0.00    -0.744 OA
ENDBRANCH  65  69
ENDBRANCH  39  62
ENDBRANCH  13  14
ENDBRANCH   6   8
ENDBRANCH   5   6
ENDBRANCH   4   5
ENDBRANCH   3   4
ENDBRANCH   2   3
ENDBRANCH   1   2
BRANCH   1  73
ATOM     73  C   UNL A   1      33.739  25.831  25.899  1.00  0.00     0.188 C 
BRANCH  73  74
ATOM     74  O   UNL A   1      34.358  25.490  24.657  1.00  0.00    -0.376 OA
BRANCH  74  75
ATOM     75  C   UNL A   1      35.198  24.337  24.638  1.00  0.00     0.202 C 
BRANCH  75  76
ATOM     76  C   UNL A   1      34.628  23.062  24.008  1.00  0.00     0.261 C 
BRANCH  76  77
ATOM     77  O   UNL A   1      33.297  22.735  24.437  1.00  0.00    -0.461 OA
BRANCH  77  78
ATOM     78  C   UNL A   1      32.319  22.950  23.508  1.00  0.00     0.337 C 
ATOM     79  O   UNL A   1      32.452  22.762  22.302  1.00  0.00    -0.249 OA
BRANCH  78  80
ATOM     80  C   UNL A   1      31.032  23.447  24.154  1.00  0.00     0.247 C 
ATOM     81  C   UNL A   1      30.686  24.833  23.551  1.00  0.00     0.162 C 
ATOM     82  O   UNL A   1      31.309  23.470  25.566  1.00  0.00    -0.363 OA
ATOM     83  N   UNL A   1      29.870  25.655  24.452  1.00  0.00    -0.351 N 
ATOM     84  C   UNL A   1      30.273  24.139  26.286  1.00  0.00     0.183 C 
ATOM     85  C   UNL A   1      30.190  25.600  25.872  1.00  0.00     0.146 C 
BRANCH  83  86
ATOM     86  C   UNL A   1      29.051  26.625  23.934  1.00  0.00     0.135 A 
ATOM     87  N   UNL A   1      27.724  26.477  24.116  1.00  0.00    -0.219 NA
ATOM     88  C   UNL A   1      29.524  27.749  23.293  1.00  0.00     0.016 A 
ATOM     89  C   UNL A   1      26.920  27.492  23.736  1.00  0.00     0.224 A 
ATOM     90  C   UNL A   1      28.606  28.709  22.916  1.00  0.00     0.049 A 
ATOM     91  C   UNL A   1      30.909  28.141  22.908  1.00  0.00     0.042 C 
ATOM     92  N   UNL A   1      27.291  28.629  23.129  1.00  0.00    -0.241 NA
ATOM     93  C   UNL A   1      29.276  29.894  22.286  1.00  0.00     0.057 C 
ATOM     94  C   UNL A   1      30.682  29.358  22.001  1.00  0.00     0.011 C 
ENDBRANCH  83  86
ENDBRANCH  78  80
ENDBRANCH  77  78
ENDBRANCH  76  77
ENDBRANCH  75  76
ENDBRANCH  74  75
ENDBRANCH  73  74
ENDBRANCH   1  73
TORSDOF 21
ENDMDL
MODEL 2
REMARK VINA RESULT:     -10.2      1.851      7.628
REMARK SMILES O=C(OCCOCCOCCOC(=O)[C@@H]1CN(c2ncnc3c2CCC3)CCO1)c1ccc(-c2c3nc(c(-c4cc(S(=O)(=O)[O-])ccc4F)c4ccc([nH]4)c(-c4cc(S(=O)(=O)[O-])ccc4F)c4nc(c(-c5cc(S(=O)(=O)[O-])ccc5F)c5ccc2[nH]5)C=C4)C=C3)cc1
REMARK SMILES IDX 7 1 6 2 5 3 4 4 3 5 2 6 1 7 30 8 31 9 92 10 32 11 91 12
REMARK SMILES IDX 33 13 34 14 35 15 85 16 36 17 90 18 84 19 86 20 37 21 89 22
REMARK SMILES IDX 83 23 82 24 38 26 70 27 50 28 69 29 51 30 54 31 68 32 87 33
REMARK SMILES IDX 52 34 53 35 67 37 88 38 55 39 39 40 40 41 48 42 41 43 47 44
REMARK SMILES IDX 49 45 46 46 42 47 43 48 44 49 45 50 71 51 72 52 80 53 73 54
REMARK SMILES IDX 79 55 81 56 78 57 74 58 75 59 76 60 77 61 56 62 57 63 65 64
REMARK SMILES IDX 58 65 64 66 66 67 63 68 59 69 60 70 61 71 62 72 8 73 9 74
REMARK SMILES IDX 10 75 11 76 12 77 13 78 14 79 15 80 16 81 29 82 17 83 28 84
REMARK SMILES IDX 27 85 18 86 19 87 23 88 20 89 22 90 24 91 21 92 26 93 25 94
REMARK H PARENT 86 25 54 36
REMARK Flexibility Score: inf
ROOT
ATOM      1  C   UNL A   1      34.403  25.112  25.848  1.00  0.00     0.188 C 
ENDROOT
BRANCH   1   2
ATOM      2  O   UNL A   1      33.735  26.114  25.074  1.00  0.00    -0.376 OA
BRANCH   2   3
ATOM      3  C   UNL A   1      34.178  27.446  25.358  1.00  0.00     0.202 C 
BRANCH   3   4
ATOM      4  C   UNL A   1      33.376  28.166  26.450  1.00  0.00     0.261 C 
BRANCH   4   5
ATOM      5  O   UNL A   1      33.524  29.593  26.378  1.00  0.00    -0.460 OA
BRANCH   5   6
ATOM      6  C   UNL A   1      34.186  30.413  27.232  1.00  0.00     0.338 C 
ATOM      7  O   UNL A   1      33.636  31.469  27.548  1.00  0.00    -0.246 OA
BRANCH   6   8
ATOM      8  C   UNL A   1      35.538  30.125  27.821  1.00  0.00     0.060 A 
ATOM      9  C   UNL A   1      36.766  30.293  27.178  1.00  0.00     0.016 A 
ATOM     10  C   UNL A   1      35.563  29.685  29.158  1.00  0.00     0.016 A 
ATOM     11  C   UNL A   1      37.964  29.936  27.789  1.00  0.00     0.010 A 
ATOM     12  C   UNL A   1      36.768  29.370  29.800  1.00  0.00     0.010 A 
ATOM     13  C   UNL A   1      37.972  29.459  29.097  1.00  0.00    -0.014 A 
BRANCH  13  14
ATOM     14  C   UNL A   1      39.238  28.940  29.650  1.00  0.00     0.031 A 
ATOM     15  C   UNL A   1      39.760  29.532  30.921  1.00  0.00     0.074 A 
ATOM     16  C   UNL A   1      39.815  27.846  29.123  1.00  0.00     0.049 A 
ATOM     17  N   UNL A   1      40.831  29.220  31.597  1.00  0.00    -0.248 NA
ATOM     18  C   UNL A   1      38.933  30.583  31.536  1.00  0.00     0.031 C 
ATOM     19  C   UNL A   1      39.266  27.068  28.015  1.00  0.00     0.029 A 
ATOM     20  N   UNL A   1      40.957  27.174  29.471  1.00  0.00    -0.354 N 
ATOM     21  C   UNL A   1      40.787  30.003  32.742  1.00  0.00     0.074 A 
ATOM     22  C   UNL A   1      39.615  30.847  32.638  1.00  0.00     0.031 C 
ATOM     23  C   UNL A   1      40.072  26.021  27.780  1.00  0.00     0.029 A 
ATOM     24  C   UNL A   1      41.230  26.105  28.653  1.00  0.00     0.049 A 
ATOM     25  H   UNL A   1      41.526  27.433  30.232  1.00  0.00     0.167 HD
ATOM     26  C   UNL A   1      41.640  29.998  33.794  1.00  0.00     0.034 A 
ATOM     27  C   UNL A   1      42.307  25.304  28.582  1.00  0.00     0.034 A 
ATOM     28  C   UNL A   1      42.832  29.190  33.840  1.00  0.00     0.049 A 
ATOM     29  C   UNL A   1      43.388  25.496  29.601  1.00  0.00     0.074 A 
ATOM     30  C   UNL A   1      43.840  29.184  34.785  1.00  0.00     0.029 A 
ATOM     31  N   UNL A   1      43.182  28.248  32.877  1.00  0.00    -0.354 N 
ATOM     32  N   UNL A   1      43.409  26.326  30.617  1.00  0.00    -0.248 NA
ATOM     33  C   UNL A   1      44.579  24.650  29.479  1.00  0.00     0.031 C 
ATOM     34  C   UNL A   1      44.826  28.283  34.364  1.00  0.00     0.029 A 
ATOM     35  C   UNL A   1      44.405  27.677  33.189  1.00  0.00     0.049 A 
ATOM     36  H   UNL A   1      42.639  28.020  32.088  1.00  0.00     0.167 HD
ATOM     37  C   UNL A   1      44.599  26.079  31.284  1.00  0.00     0.074 A 
ATOM     38  C   UNL A   1      45.278  25.032  30.541  1.00  0.00     0.031 C 
ATOM     39  C   UNL A   1      45.073  26.651  32.420  1.00  0.00     0.034 A 
BRANCH  26  40
ATOM     40  C   UNL A   1      41.325  30.958  34.911  1.00  0.00     0.023 A 
ATOM     41  C   UNL A   1      40.137  30.846  35.657  1.00  0.00     0.031 A 
ATOM     42  C   UNL A   1      42.162  32.058  35.157  1.00  0.00     0.131 A 
ATOM     43  C   UNL A   1      39.781  31.862  36.558  1.00  0.00     0.055 A 
ATOM     44  C   UNL A   1      41.837  33.028  36.106  1.00  0.00     0.041 A 
ATOM     45  F   UNL A   1      43.289  32.229  34.449  1.00  0.00    -0.206 F 
ATOM     46  C   UNL A   1      40.633  32.942  36.802  1.00  0.00     0.022 A 
BRANCH  43  47
ATOM     47  S   UNL A   1      38.123  31.832  37.295  1.00  0.00     0.124 S 
ATOM     48  O   UNL A   1      38.378  32.396  38.617  1.00  0.00    -0.237 OA
ATOM     49  O   UNL A   1      37.354  32.669  36.380  1.00  0.00    -0.237 OA
ATOM     50  O   UNL A   1      37.770  30.414  37.286  1.00  0.00    -0.744 OA
ENDBRANCH  43  47
ENDBRANCH  26  40
BRANCH  27  51
ATOM     51  C   UNL A   1      42.419  24.314  27.475  1.00  0.00     0.023 A 
ATOM     52  C   UNL A   1      41.722  23.099  27.498  1.00  0.00     0.031 A 
ATOM     53  C   UNL A   1      43.197  24.612  26.337  1.00  0.00     0.131 A 
ATOM     54  C   UNL A   1      41.817  22.223  26.402  1.00  0.00     0.055 A 
ATOM     55  C   UNL A   1      43.271  23.747  25.244  1.00  0.00     0.041 A 
ATOM     56  F   UNL A   1      43.867  25.773  26.258  1.00  0.00    -0.206 F 
ATOM     57  C   UNL A   1      42.577  22.543  25.274  1.00  0.00     0.022 A 
BRANCH  54  58
ATOM     58  S   UNL A   1      40.918  20.648  26.462  1.00  0.00     0.124 S 
ATOM     59  O   UNL A   1      39.628  21.020  25.892  1.00  0.00    -0.237 OA
ATOM     60  O   UNL A   1      41.760  19.785  25.640  1.00  0.00    -0.237 OA
ATOM     61  O   UNL A   1      40.901  20.320  27.886  1.00  0.00    -0.744 OA
ENDBRANCH  54  58
ENDBRANCH  27  51
BRANCH  39  62
ATOM     62  C   UNL A   1      46.375  26.122  32.946  1.00  0.00     0.023 A 
ATOM     63  C   UNL A   1      46.426  24.987  33.770  1.00  0.00     0.031 A 
ATOM     64  C   UNL A   1      47.581  26.755  32.599  1.00  0.00     0.131 A 
ATOM     65  C   UNL A   1      47.662  24.537  34.251  1.00  0.00     0.055 A 
ATOM     66  C   UNL A   1      48.812  26.273  33.040  1.00  0.00     0.041 A 
ATOM     67  F   UNL A   1      47.579  27.845  31.815  1.00  0.00    -0.206 F 
ATOM     68  C   UNL A   1      48.857  25.161  33.877  1.00  0.00     0.022 A 
BRANCH  65  69
ATOM     69  S   UNL A   1      47.689  23.146  35.413  1.00  0.00     0.124 S 
ATOM     70  O   UNL A   1      48.556  23.655  36.471  1.00  0.00    -0.237 OA
ATOM     71  O   UNL A   1      46.279  22.998  35.761  1.00  0.00    -0.237 OA
ATOM     72  O   UNL A   1      48.248  22.051  34.624  1.00  0.00    -0.744 OA
ENDBRANCH  65  69
ENDBRANCH  39  62
ENDBRANCH  13  14
ENDBRANCH   6   8
ENDBRANCH   5   6
ENDBRANCH   4   5
ENDBRANCH   3   4
ENDBRANCH   2   3
ENDBRANCH   1   2
BRANCH   1  73
ATOM     73  C   UNL A   1      35.377  24.289  25.001  1.00  0.00     0.188 C 
BRANCH  73  74
ATOM     74  O   UNL A   1      35.018  24.106  23.630  1.00  0.00    -0.376 OA
BRANCH  74  75
ATOM     75  C   UNL A   1      34.652  22.790  23.218  1.00  0.00     0.202 C 
BRANCH  75  76
ATOM     76  C   UNL A   1      34.018  21.874  24.271  1.00  0.00     0.261 C 
BRANCH  76  77
ATOM     77  O   UNL A   1      32.681  22.239  24.643  1.00  0.00    -0.461 OA
BRANCH  77  78
ATOM     78  C   UNL A   1      31.853  22.548  23.600  1.00  0.00     0.337 C 
ATOM     79  O   UNL A   1      31.933  22.053  22.480  1.00  0.00    -0.249 OA
BRANCH  78  80
ATOM     80  C   UNL A   1      30.807  23.580  24.003  1.00  0.00     0.247 C 
ATOM     81  C   UNL A   1      31.206  24.945  23.385  1.00  0.00     0.162 C 
ATOM     82  O   UNL A   1      30.799  23.563  25.441  1.00  0.00    -0.363 OA
ATOM     83  N   UNL A   1      30.668  26.086  24.136  1.00  0.00    -0.351 N 
ATOM     84  C   UNL A   1      30.036  24.647  25.968  1.00  0.00     0.183 C 
ATOM     85  C   UNL A   1      30.664  25.979  25.589  1.00  0.00     0.146 C 
BRANCH  83  86
ATOM     86  C   UNL A   1      30.456  27.281  23.499  1.00  0.00     0.135 A 
ATOM     87  N   UNL A   1      31.538  27.935  23.035  1.00  0.00    -0.219 NA
ATOM     88  C   UNL A   1      29.202  27.805  23.275  1.00  0.00     0.016 A 
ATOM     89  C   UNL A   1      31.333  29.039  22.285  1.00  0.00     0.224 A 
ATOM     90  C   UNL A   1      29.112  28.959  22.523  1.00  0.00     0.049 A 
ATOM     91  C   UNL A   1      27.858  27.337  23.716  1.00  0.00     0.042 C 
ATOM     92  N   UNL A   1      30.153  29.606  21.995  1.00  0.00    -0.241 NA
ATOM     93  C   UNL A   1      27.685  29.372  22.317  1.00  0.00     0.057 C 
ATOM     94  C   UNL A   1      26.947  28.518  23.353  1.00  0.00     0.011 C 
ENDBRANCH  83  86
ENDBRANCH  78  80
ENDBRANCH  77  78
ENDBRANCH  76  77
ENDBRANCH  75  76
ENDBRANCH  74  75
ENDBRANCH  73  74
ENDBRANCH   1  73
TORSDOF 21
ENDMDL
MODEL 3
REMARK VINA RESULT:      -9.9      2.903      8.123
REMARK SMILES O=C(OCCOCCOCCOC(=O)[C@@H]1CN(c2ncnc3c2CCC3)CCO1)c1ccc(-c2c3nc(c(-c4cc(S(=O)(=O)[O-])ccc4F)c4ccc([nH]4)c(-c4cc(S(=O)(=O)[O-])ccc4F)c4nc(c(-c5cc(S(=O)(=O)[O-])ccc5F)c5ccc2[nH]5)C=C4)C=C3)cc1
REMARK SMILES IDX 7 1 6 2 5 3 4 4 3 5 2 6 1 7 30 8 31 9 92 10 32 11 91 12
REMARK SMILES IDX 33 13 34 14 35 15 85 16 36 17 90 18 84 19 86 20 37 21 89 22
REMARK SMILES IDX 83 23 82 24 38 26 70 27 50 28 69 29 51 30 54 31 68 32 87 33
REMARK SMILES IDX 52 34 53 35 67 37 88 38 55 39 39 40 40 41 48 42 41 43 47 44
REMARK SMILES IDX 49 45 46 46 42 47 43 48 44 49 45 50 71 51 72 52 80 53 73 54
REMARK SMILES IDX 79 55 81 56 78 57 74 58 75 59 76 60 77 61 56 62 57 63 65 64
REMARK SMILES IDX 58 65 64 66 66 67 63 68 59 69 60 70 61 71 62 72 8 73 9 74
REMARK SMILES IDX 10 75 11 76 12 77 13 78 14 79 15 80 16 81 29 82 17 83 28 84
REMARK SMILES IDX 27 85 18 86 19 87 23 88 20 89 22 90 24 91 21 92 26 93 25 94
REMARK H PARENT 86 25 54 36
REMARK Flexibility Score: inf
ROOT
ATOM      1  C   UNL A   1      34.091  26.128  25.776  1.00  0.00     0.188 C 
ENDROOT
BRANCH   1   2
ATOM      2  O   UNL A   1      33.981  27.136  24.765  1.00  0.00    -0.376 OA
BRANCH   2   3
ATOM      3  C   UNL A   1      34.042  28.471  25.280  1.00  0.00     0.202 C 
BRANCH   3   4
ATOM      4  C   UNL A   1      33.683  28.599  26.766  1.00  0.00     0.261 C 
BRANCH   4   5
ATOM      5  O   UNL A   1      33.694  29.965  27.209  1.00  0.00    -0.460 OA
BRANCH   5   6
ATOM      6  C   UNL A   1      34.729  30.670  27.732  1.00  0.00     0.338 C 
ATOM      7  O   UNL A   1      34.592  31.890  27.832  1.00  0.00    -0.246 OA
BRANCH   6   8
ATOM      8  C   UNL A   1      36.025  30.070  28.199  1.00  0.00     0.060 A 
ATOM      9  C   UNL A   1      36.234  29.414  29.414  1.00  0.00     0.016 A 
ATOM     10  C   UNL A   1      37.112  30.145  27.309  1.00  0.00     0.016 A 
ATOM     11  C   UNL A   1      37.492  28.948  29.784  1.00  0.00     0.010 A 
ATOM     12  C   UNL A   1      38.371  29.636  27.651  1.00  0.00     0.010 A 
ATOM     13  C   UNL A   1      38.571  29.068  28.913  1.00  0.00    -0.014 A 
BRANCH  13  14
ATOM     14  C   UNL A   1      39.916  28.712  29.404  1.00  0.00     0.031 A 
ATOM     15  C   UNL A   1      40.527  29.545  30.486  1.00  0.00     0.074 A 
ATOM     16  C   UNL A   1      40.502  27.566  29.017  1.00  0.00     0.049 A 
ATOM     17  N   UNL A   1      41.679  29.406  31.083  1.00  0.00    -0.248 NA
ATOM     18  C   UNL A   1      39.704  30.654  30.996  1.00  0.00     0.031 C 
ATOM     19  C   UNL A   1      39.892  26.578  28.129  1.00  0.00     0.029 A 
ATOM     20  N   UNL A   1      41.712  27.017  29.348  1.00  0.00    -0.354 N 
ATOM     21  C   UNL A   1      41.704  30.381  32.071  1.00  0.00     0.074 A 
ATOM     22  C   UNL A   1      40.478  31.141  31.952  1.00  0.00     0.031 C 
ATOM     23  C   UNL A   1      40.732  25.540  27.994  1.00  0.00     0.029 A 
ATOM     24  C   UNL A   1      41.966  25.830  28.705  1.00  0.00     0.049 A 
ATOM     25  H   UNL A   1      42.339  27.432  29.983  1.00  0.00     0.167 HD
ATOM     26  C   UNL A   1      42.658  30.602  33.006  1.00  0.00     0.034 A 
ATOM     27  C   UNL A   1      43.077  25.075  28.656  1.00  0.00     0.034 A 
ATOM     28  C   UNL A   1      43.896  29.866  33.059  1.00  0.00     0.049 A 
ATOM     29  C   UNL A   1      44.243  25.493  29.498  1.00  0.00     0.074 A 
ATOM     30  C   UNL A   1      44.993  30.073  33.873  1.00  0.00     0.029 A 
ATOM     31  N   UNL A   1      44.203  28.781  32.244  1.00  0.00    -0.354 N 
ATOM     32  N   UNL A   1      44.316  26.494  30.345  1.00  0.00    -0.248 NA
ATOM     33  C   UNL A   1      45.465  24.691  29.394  1.00  0.00     0.031 C 
ATOM     34  C   UNL A   1      45.984  29.153  33.510  1.00  0.00     0.029 A 
ATOM     35  C   UNL A   1      45.484  28.328  32.513  1.00  0.00     0.049 A 
ATOM     36  H   UNL A   1      43.598  28.391  31.572  1.00  0.00     0.167 HD
ATOM     37  C   UNL A   1      45.581  26.422  30.908  1.00  0.00     0.074 A 
ATOM     38  C   UNL A   1      46.243  25.287  30.288  1.00  0.00     0.031 C 
ATOM     39  C   UNL A   1      46.131  27.209  31.866  1.00  0.00     0.034 A 
BRANCH  26  40
ATOM     40  C   UNL A   1      42.400  31.733  33.965  1.00  0.00     0.023 A 
ATOM     41  C   UNL A   1      41.505  31.589  35.042  1.00  0.00     0.031 A 
ATOM     42  C   UNL A   1      42.965  32.998  33.737  1.00  0.00     0.131 A 
ATOM     43  C   UNL A   1      41.141  32.712  35.801  1.00  0.00     0.055 A 
ATOM     44  C   UNL A   1      42.654  34.095  34.541  1.00  0.00     0.041 A 
ATOM     45  F   UNL A   1      43.798  33.197  32.703  1.00  0.00    -0.206 F 
ATOM     46  C   UNL A   1      41.725  33.960  35.570  1.00  0.00     0.022 A 
BRANCH  43  47
ATOM     47  S   UNL A   1      39.784  32.554  36.995  1.00  0.00     0.124 S 
ATOM     48  O   UNL A   1      38.956  33.709  36.656  1.00  0.00    -0.237 OA
ATOM     49  O   UNL A   1      39.222  31.248  36.667  1.00  0.00    -0.237 OA
ATOM     50  O   UNL A   1      40.455  32.635  38.290  1.00  0.00    -0.744 OA
ENDBRANCH  43  47
ENDBRANCH  26  40
BRANCH  27  51
ATOM     51  C   UNL A   1      43.136  23.907  27.733  1.00  0.00     0.023 A 
ATOM     52  C   UNL A   1      43.949  23.908  26.592  1.00  0.00     0.031 A 
ATOM     53  C   UNL A   1      42.405  22.738  28.026  1.00  0.00     0.131 A 
ATOM     54  C   UNL A   1      44.013  22.760  25.783  1.00  0.00     0.055 A 
ATOM     55  C   UNL A   1      42.487  21.594  27.230  1.00  0.00     0.041 A 
ATOM     56  F   UNL A   1      41.627  22.680  29.119  1.00  0.00    -0.206 F 
ATOM     57  C   UNL A   1      43.296  21.603  26.100  1.00  0.00     0.022 A 
BRANCH  54  58
ATOM     58  S   UNL A   1      45.062  22.791  24.302  1.00  0.00     0.124 S 
ATOM     59  O   UNL A   1      45.431  24.199  24.229  1.00  0.00    -0.237 OA
ATOM     60  O   UNL A   1      46.128  21.863  24.665  1.00  0.00    -0.237 OA
ATOM     61  O   UNL A   1      44.169  22.322  23.244  1.00  0.00    -0.744 OA
ENDBRANCH  54  58
ENDBRANCH  27  51
BRANCH  39  62
ATOM     62  C   UNL A   1      47.511  26.839  32.329  1.00  0.00     0.023 A 
ATOM     63  C   UNL A   1      48.656  27.395  31.737  1.00  0.00     0.031 A 
ATOM     64  C   UNL A   1      47.675  25.933  33.390  1.00  0.00     0.131 A 
ATOM     65  C   UNL A   1      49.924  27.010  32.191  1.00  0.00     0.055 A 
ATOM     66  C   UNL A   1      48.939  25.592  33.870  1.00  0.00     0.041 A 
ATOM     67  F   UNL A   1      46.608  25.375  33.984  1.00  0.00    -0.206 F 
ATOM     68  C   UNL A   1      50.073  26.126  33.264  1.00  0.00     0.022 A 
BRANCH  65  69
ATOM     69  S   UNL A   1      51.386  27.646  31.328  1.00  0.00     0.124 S 
ATOM     70  O   UNL A   1      52.412  27.544  32.362  1.00  0.00    -0.237 OA
ATOM     71  O   UNL A   1      51.518  26.722  30.206  1.00  0.00    -0.237 OA
ATOM     72  O   UNL A   1      51.003  29.008  30.964  1.00  0.00    -0.744 OA
ENDBRANCH  65  69
ENDBRANCH  39  62
ENDBRANCH  13  14
ENDBRANCH   6   8
ENDBRANCH   5   6
ENDBRANCH   4   5
ENDBRANCH   3   4
ENDBRANCH   2   3
ENDBRANCH   1   2
BRANCH   1  73
ATOM     73  C   UNL A   1      34.711  24.838  25.234  1.00  0.00     0.188 C 
BRANCH  73  74
ATOM     74  O   UNL A   1      34.596  24.628  23.826  1.00  0.00    -0.376 OA
BRANCH  74  75
ATOM     75  C   UNL A   1      34.764  23.296  23.345  1.00  0.00     0.202 C 
BRANCH  75  76
ATOM     76  C   UNL A   1      34.059  22.176  24.118  1.00  0.00     0.261 C 
BRANCH  76  77
ATOM     77  O   UNL A   1      32.740  22.513  24.574  1.00  0.00    -0.461 OA
BRANCH  77  78
ATOM     78  C   UNL A   1      31.819  22.720  23.585  1.00  0.00     0.337 C 
ATOM     79  O   UNL A   1      31.816  22.134  22.507  1.00  0.00    -0.249 OA
BRANCH  78  80
ATOM     80  C   UNL A   1      30.788  23.766  23.990  1.00  0.00     0.247 C 
ATOM     81  C   UNL A   1      31.169  25.112  23.322  1.00  0.00     0.162 C 
ATOM     82  O   UNL A   1      30.826  23.789  25.428  1.00  0.00    -0.363 OA
ATOM     83  N   UNL A   1      30.657  26.274  24.056  1.00  0.00    -0.351 N 
ATOM     84  C   UNL A   1      30.080  24.890  25.948  1.00  0.00     0.183 C 
ATOM     85  C   UNL A   1      30.699  26.210  25.511  1.00  0.00     0.146 C 
BRANCH  83  86
ATOM     86  C   UNL A   1      30.427  27.451  23.393  1.00  0.00     0.135 A 
ATOM     87  N   UNL A   1      31.496  28.093  22.882  1.00  0.00    -0.219 NA
ATOM     88  C   UNL A   1      29.167  27.968  23.186  1.00  0.00     0.016 A 
ATOM     89  C   UNL A   1      31.270  29.176  22.108  1.00  0.00     0.224 A 
ATOM     90  C   UNL A   1      29.056  29.101  22.405  1.00  0.00     0.049 A 
ATOM     91  C   UNL A   1      27.835  27.512  23.674  1.00  0.00     0.042 C 
ATOM     92  N   UNL A   1      30.082  29.734  21.833  1.00  0.00    -0.241 NA
ATOM     93  C   UNL A   1      27.623  29.508  22.224  1.00  0.00     0.057 C 
ATOM     94  C   UNL A   1      26.914  28.681  23.302  1.00  0.00     0.011 C 
ENDBRANCH  83  86
ENDBRANCH  78  80
ENDBRANCH  77  78
ENDBRANCH  76  77
ENDBRANCH  75  76
ENDBRANCH  74  75
ENDBRANCH  73  74
ENDBRANCH   1  73
TORSDOF 21
ENDMDL
