MODEL 1
REMARK VINA RESULT:     -10.2      0.000      0.000
REMARK SMILES C[C@H](NC(=O)c1c(C(=O)OCCOCCOCCOC(=O)c2ccc(-c3c4nc(c(-c5cc(S(=O)(=O)[O-])ccc5F)c5ccc([nH]5)c(-c5cc(S(=O)(=O)[O-])ccc5F)c5nc(c(-c6cc(S(=O)(=O)[O-])ccc6F)c6ccc3[nH]6)C=C5)C=C4)cc2)cnn1C)[C@]12C[C@H]3C[C@H](C[C@H](C3)C1)C2
REMARK SMILES IDX 14 1 13 2 12 3 11 4 10 5 8 6 9 7 7 8 6 9 87 10 85 11 86 12
REMARK SMILES IDX 88 13 4 14 3 15 5 17 2 18 1 19 89 20 90 21 97 22 98 23 91 24
REMARK SMILES IDX 95 25 93 26 92 27 96 28 94 29 15 30 16 31 17 32 18 33 19 34
REMARK SMILES IDX 20 35 21 36 22 37 23 38 84 39 24 40 83 41 25 42 26 43 27 44
REMARK SMILES IDX 77 45 28 46 82 47 76 48 78 49 29 50 81 51 75 52 74 53 30 55
REMARK SMILES IDX 62 56 42 57 61 58 43 59 46 60 60 61 79 62 44 63 45 64 59 66
REMARK SMILES IDX 80 67 47 68 31 69 32 70 40 71 33 72 39 73 41 74 38 75 34 76
REMARK SMILES IDX 35 77 36 78 37 79 63 80 64 81 72 82 65 83 71 84 73 85 70 86
REMARK SMILES IDX 66 87 67 88 68 89 69 90 48 91 49 92 57 93 50 94 56 95 58 96
REMARK SMILES IDX 55 97 51 98 52 99 53 100 54 101
REMARK H PARENT 3 16 78 54 46 65
REMARK Flexibility Score: inf
ROOT
ATOM      1  C   UNL A   1      39.680  21.538  26.090  1.00  0.00     0.188 C 
ENDROOT
BRANCH   1   2
ATOM      2  O   UNL A   1      38.490  22.249  26.424  1.00  0.00    -0.376 OA
BRANCH   2   3
ATOM      3  C   UNL A   1      37.719  22.870  25.409  1.00  0.00     0.202 C 
BRANCH   3   4
ATOM      4  C   UNL A   1      36.671  21.988  24.726  1.00  0.00     0.261 C 
BRANCH   4   5
ATOM      5  O   UNL A   1      36.099  20.990  25.591  1.00  0.00    -0.460 OA
BRANCH   5   6
ATOM      6  C   UNL A   1      34.780  20.724  25.376  1.00  0.00     0.342 C 
ATOM      7  O   UNL A   1      34.372  19.761  24.737  1.00  0.00    -0.246 OA
BRANCH   6   8
ATOM      8  C   UNL A   1      33.851  21.619  26.048  1.00  0.00     0.111 A 
ATOM      9  C   UNL A   1      32.765  22.377  25.595  1.00  0.00     0.140 A 
ATOM     10  N   UNL A   1      32.145  22.788  26.755  1.00  0.00    -0.262 N 
ATOM     11  C   UNL A   1      33.903  21.876  27.438  1.00  0.00     0.151 A 
ATOM     12  N   UNL A   1      32.903  22.649  27.853  1.00  0.00    -0.180 NA
ATOM     13  C   UNL A   1      30.764  23.173  26.948  1.00  0.00     0.174 C 
BRANCH   9  14
ATOM     14  C   UNL A   1      32.231  22.532  24.268  1.00  0.00     0.270 C 
ATOM     15  N   UNL A   1      32.511  23.666  23.531  1.00  0.00    -0.348 N 
ATOM     16  H   UNL A   1      31.942  23.783  22.735  1.00  0.00     0.164 HD
ATOM     17  O   UNL A   1      31.514  21.683  23.739  1.00  0.00    -0.267 OA
BRANCH  15  18
ATOM     18  C   UNL A   1      33.513  24.736  23.725  1.00  0.00     0.085 C 
ATOM     19  C   UNL A   1      34.155  25.054  22.375  1.00  0.00     0.031 C 
BRANCH  18  20
ATOM     20  C   UNL A   1      32.964  26.005  24.514  1.00  0.00    -0.009 C 
ATOM     21  C   UNL A   1      31.406  26.066  24.519  1.00  0.00     0.012 C 
ATOM     22  C   UNL A   1      33.474  27.298  23.806  1.00  0.00     0.012 C 
ATOM     23  C   UNL A   1      33.435  26.085  25.996  1.00  0.00     0.012 C 
ATOM     24  C   UNL A   1      30.877  27.330  25.212  1.00  0.00    -0.010 C 
ATOM     25  C   UNL A   1      32.939  28.570  24.490  1.00  0.00    -0.010 C 
ATOM     26  C   UNL A   1      32.904  27.356  26.691  1.00  0.00    -0.010 C 
ATOM     27  C   UNL A   1      31.370  27.354  26.665  1.00  0.00     0.007 C 
ATOM     28  C   UNL A   1      31.403  28.563  24.465  1.00  0.00     0.007 C 
ATOM     29  C   UNL A   1      33.417  28.600  25.948  1.00  0.00     0.007 C 
ENDBRANCH  18  20
ENDBRANCH  15  18
ENDBRANCH   9  14
ENDBRANCH   6   8
ENDBRANCH   5   6
ENDBRANCH   4   5
ENDBRANCH   3   4
ENDBRANCH   2   3
ENDBRANCH   1   2
BRANCH   1  30
ATOM     30  C   UNL A   1      40.721  21.191  27.164  1.00  0.00     0.188 C 
BRANCH  30  31
ATOM     31  O   UNL A   1      40.827  19.802  27.443  1.00  0.00    -0.376 OA
BRANCH  31  32
ATOM     32  C   UNL A   1      42.150  19.285  27.496  1.00  0.00     0.202 C 
BRANCH  32  33
ATOM     33  C   UNL A   1      42.498  18.533  26.212  1.00  0.00     0.261 C 
BRANCH  33  34
ATOM     34  O   UNL A   1      42.735  19.390  25.085  1.00  0.00    -0.460 OA
BRANCH  34  35
ATOM     35  C   UNL A   1      43.992  19.880  24.963  1.00  0.00     0.338 C 
ATOM     36  O   UNL A   1      44.942  19.331  24.433  1.00  0.00    -0.246 OA
BRANCH  35  37
ATOM     37  C   UNL A   1      43.983  21.278  25.427  1.00  0.00     0.060 A 
ATOM     38  C   UNL A   1      43.488  22.269  24.572  1.00  0.00     0.016 A 
ATOM     39  C   UNL A   1      44.477  21.608  26.692  1.00  0.00     0.016 A 
ATOM     40  C   UNL A   1      43.516  23.605  24.971  1.00  0.00     0.010 A 
ATOM     41  C   UNL A   1      44.513  22.946  27.086  1.00  0.00     0.010 A 
ATOM     42  C   UNL A   1      44.059  23.953  26.217  1.00  0.00    -0.014 A 
BRANCH  42  43
ATOM     43  C   UNL A   1      44.305  25.375  26.556  1.00  0.00     0.031 A 
ATOM     44  C   UNL A   1      45.689  25.929  26.365  1.00  0.00     0.074 A 
ATOM     45  C   UNL A   1      43.321  26.150  27.048  1.00  0.00     0.049 A 
ATOM     46  N   UNL A   1      46.155  27.116  26.649  1.00  0.00    -0.248 NA
ATOM     47  C   UNL A   1      46.683  25.013  25.781  1.00  0.00     0.031 C 
ATOM     48  C   UNL A   1      41.937  25.729  27.254  1.00  0.00     0.029 A 
ATOM     49  N   UNL A   1      43.345  27.453  27.477  1.00  0.00    -0.354 N 
ATOM     50  C   UNL A   1      47.497  27.092  26.282  1.00  0.00     0.074 A 
ATOM     51  C   UNL A   1      47.775  25.761  25.784  1.00  0.00     0.031 C 
ATOM     52  C   UNL A   1      41.246  26.753  27.787  1.00  0.00     0.029 A 
ATOM     53  C   UNL A   1      42.146  27.887  27.990  1.00  0.00     0.049 A 
ATOM     54  H   UNL A   1      44.147  28.023  27.423  1.00  0.00     0.167 HD
ATOM     55  C   UNL A   1      48.411  28.090  26.352  1.00  0.00     0.034 A 
ATOM     56  C   UNL A   1      41.823  29.057  28.579  1.00  0.00     0.034 A 
ATOM     57  C   UNL A   1      48.126  29.406  26.864  1.00  0.00     0.049 A 
ATOM     58  C   UNL A   1      42.882  30.127  28.718  1.00  0.00     0.074 A 
ATOM     59  C   UNL A   1      48.969  30.502  26.943  1.00  0.00     0.029 A 
ATOM     60  N   UNL A   1      46.910  29.801  27.404  1.00  0.00    -0.354 N 
ATOM     61  N   UNL A   1      44.137  30.105  28.329  1.00  0.00    -0.248 NA
ATOM     62  C   UNL A   1      42.478  31.380  29.371  1.00  0.00     0.031 C 
ATOM     63  C   UNL A   1      48.284  31.535  27.593  1.00  0.00     0.029 A 
ATOM     64  C   UNL A   1      46.991  31.111  27.853  1.00  0.00     0.049 A 
ATOM     65  H   UNL A   1      46.106  29.235  27.459  1.00  0.00     0.167 HD
ATOM     66  C   UNL A   1      44.657  31.355  28.659  1.00  0.00     0.074 A 
ATOM     67  C   UNL A   1      43.581  32.106  29.270  1.00  0.00     0.031 C 
ATOM     68  C   UNL A   1      45.910  31.844  28.466  1.00  0.00     0.034 A 
BRANCH  55  69
ATOM     69  C   UNL A   1      49.817  27.769  25.913  1.00  0.00     0.023 A 
ATOM     70  C   UNL A   1      50.199  27.818  24.561  1.00  0.00     0.031 A 
ATOM     71  C   UNL A   1      50.781  27.383  26.860  1.00  0.00     0.131 A 
ATOM     72  C   UNL A   1      51.495  27.427  24.188  1.00  0.00     0.055 A 
ATOM     73  C   UNL A   1      52.088  27.063  26.490  1.00  0.00     0.041 A 
ATOM     74  F   UNL A   1      50.463  27.296  28.161  1.00  0.00    -0.206 F 
ATOM     75  C   UNL A   1      52.448  27.072  25.145  1.00  0.00     0.022 A 
BRANCH  72  76
ATOM     76  S   UNL A   1      51.880  27.270  22.423  1.00  0.00     0.124 S 
ATOM     77  O   UNL A   1      52.345  28.617  22.100  1.00  0.00    -0.237 OA
ATOM     78  O   UNL A   1      52.896  26.223  22.411  1.00  0.00    -0.237 OA
ATOM     79  O   UNL A   1      50.599  26.902  21.823  1.00  0.00    -0.744 OA
ENDBRANCH  72  76
ENDBRANCH  55  69
BRANCH  56  80
ATOM     80  C   UNL A   1      40.455  29.282  29.129  1.00  0.00     0.023 A 
ATOM     81  C   UNL A   1      40.200  29.174  30.505  1.00  0.00     0.031 A 
ATOM     82  C   UNL A   1      39.365  29.523  28.273  1.00  0.00     0.131 A 
ATOM     83  C   UNL A   1      38.882  29.251  30.981  1.00  0.00     0.055 A 
ATOM     84  C   UNL A   1      38.062  29.654  28.758  1.00  0.00     0.041 A 
ATOM     85  F   UNL A   1      39.552  29.630  26.948  1.00  0.00    -0.206 F 
ATOM     86  C   UNL A   1      37.813  29.502  30.118  1.00  0.00     0.022 A 
BRANCH  83  87
ATOM     87  S   UNL A   1      38.571  28.911  32.736  1.00  0.00     0.124 S 
ATOM     88  O   UNL A   1      38.945  30.178  33.355  1.00  0.00    -0.237 OA
ATOM     89  O   UNL A   1      37.147  28.595  32.735  1.00  0.00    -0.237 OA
ATOM     90  O   UNL A   1      39.457  27.787  33.028  1.00  0.00    -0.744 OA
ENDBRANCH  83  87
ENDBRANCH  56  80
BRANCH  68  91
ATOM     91  C   UNL A   1      46.160  33.275  28.873  1.00  0.00     0.023 A 
ATOM     92  C   UNL A   1      45.972  34.346  27.980  1.00  0.00     0.031 A 
ATOM     93  C   UNL A   1      46.599  33.570  30.176  1.00  0.00     0.131 A 
ATOM     94  C   UNL A   1      46.269  35.655  28.387  1.00  0.00     0.055 A 
ATOM     95  C   UNL A   1      46.843  34.878  30.592  1.00  0.00     0.041 A 
ATOM     96  F   UNL A   1      46.794  32.586  31.069  1.00  0.00    -0.206 F 
ATOM     97  C   UNL A   1      46.689  35.930  29.691  1.00  0.00     0.022 A 
BRANCH  94  98
ATOM     98  S   UNL A   1      46.175  36.993  27.165  1.00  0.00     0.124 S 
ATOM     99  O   UNL A   1      44.755  37.327  27.189  1.00  0.00    -0.237 OA
ATOM    100  O   UNL A   1      47.077  37.992  27.727  1.00  0.00    -0.237 OA
ATOM    101  O   UNL A   1      46.643  36.363  25.931  1.00  0.00    -0.744 OA
ENDBRANCH  94  98
ENDBRANCH  68  91
ENDBRANCH  42  43
ENDBRANCH  35  37
ENDBRANCH  34  35
ENDBRANCH  33  34
ENDBRANCH  32  33
ENDBRANCH  31  32
ENDBRANCH  30  31
ENDBRANCH   1  30
TORSDOF 23
ENDMDL
MODEL 2
REMARK VINA RESULT:      -9.7      5.582     12.362
REMARK SMILES C[C@H](NC(=O)c1c(C(=O)OCCOCCOCCOC(=O)c2ccc(-c3c4nc(c(-c5cc(S(=O)(=O)[O-])ccc5F)c5ccc([nH]5)c(-c5cc(S(=O)(=O)[O-])ccc5F)c5nc(c(-c6cc(S(=O)(=O)[O-])ccc6F)c6ccc3[nH]6)C=C5)C=C4)cc2)cnn1C)[C@]12C[C@H]3C[C@H](C[C@H](C3)C1)C2
REMARK SMILES IDX 14 1 13 2 12 3 11 4 10 5 8 6 9 7 7 8 6 9 87 10 85 11 86 12
REMARK SMILES IDX 88 13 4 14 3 15 5 17 2 18 1 19 89 20 90 21 97 22 98 23 91 24
REMARK SMILES IDX 95 25 93 26 92 27 96 28 94 29 15 30 16 31 17 32 18 33 19 34
REMARK SMILES IDX 20 35 21 36 22 37 23 38 84 39 24 40 83 41 25 42 26 43 27 44
REMARK SMILES IDX 77 45 28 46 82 47 76 48 78 49 29 50 81 51 75 52 74 53 30 55
REMARK SMILES IDX 62 56 42 57 61 58 43 59 46 60 60 61 79 62 44 63 45 64 59 66
REMARK SMILES IDX 80 67 47 68 31 69 32 70 40 71 33 72 39 73 41 74 38 75 34 76
REMARK SMILES IDX 35 77 36 78 37 79 63 80 64 81 72 82 65 83 71 84 73 85 70 86
REMARK SMILES IDX 66 87 67 88 68 89 69 90 48 91 49 92 57 93 50 94 56 95 58 96
REMARK SMILES IDX 55 97 51 98 52 99 53 100 54 101
REMARK H PARENT 3 16 78 54 46 65
REMARK Flexibility Score: inf
ROOT
ATOM      1  C   UNL A   1      38.414  32.783  38.093  1.00  0.00     0.188 C 
ENDROOT
BRANCH   1   2
ATOM      2  O   UNL A   1      38.058  31.558  37.458  1.00  0.00    -0.376 OA
BRANCH   2   3
ATOM      3  C   UNL A   1      38.235  31.398  36.061  1.00  0.00     0.202 C 
BRANCH   3   4
ATOM      4  C   UNL A   1      37.545  32.434  35.172  1.00  0.00     0.261 C 
BRANCH   4   5
ATOM      5  O   UNL A   1      37.951  32.378  33.792  1.00  0.00    -0.460 OA
BRANCH   5   6
ATOM      6  C   UNL A   1      37.111  31.692  32.968  1.00  0.00     0.342 C 
ATOM      7  O   UNL A   1      37.073  30.469  32.894  1.00  0.00    -0.246 OA
BRANCH   6   8
ATOM      8  C   UNL A   1      36.164  32.511  32.227  1.00  0.00     0.111 A 
ATOM      9  C   UNL A   1      36.263  33.236  31.034  1.00  0.00     0.140 A 
ATOM     10  N   UNL A   1      34.958  33.565  30.741  1.00  0.00    -0.262 N 
ATOM     11  C   UNL A   1      34.828  32.708  32.648  1.00  0.00     0.151 A 
ATOM     12  N   UNL A   1      34.115  33.414  31.774  1.00  0.00    -0.180 NA
ATOM     13  C   UNL A   1      34.377  33.876  29.453  1.00  0.00     0.174 C 
BRANCH   9  14
ATOM     14  C   UNL A   1      37.386  33.424  30.153  1.00  0.00     0.270 C 
ATOM     15  N   UNL A   1      37.903  32.358  29.445  1.00  0.00    -0.348 N 
ATOM     16  H   UNL A   1      38.784  32.530  29.040  1.00  0.00     0.164 HD
ATOM     17  O   UNL A   1      37.926  34.519  29.995  1.00  0.00    -0.267 OA
BRANCH  15  18
ATOM     18  C   UNL A   1      37.369  31.004  29.185  1.00  0.00     0.085 C 
ATOM     19  C   UNL A   1      36.456  31.065  27.961  1.00  0.00     0.031 C 
BRANCH  18  20
ATOM     20  C   UNL A   1      38.482  29.867  29.127  1.00  0.00    -0.009 C 
ATOM     21  C   UNL A   1      39.857  30.362  29.671  1.00  0.00     0.012 C 
ATOM     22  C   UNL A   1      38.698  29.449  27.640  1.00  0.00     0.012 C 
ATOM     23  C   UNL A   1      38.112  28.574  29.912  1.00  0.00     0.012 C 
ATOM     24  C   UNL A   1      40.951  29.292  29.543  1.00  0.00    -0.010 C 
ATOM     25  C   UNL A   1      39.801  28.383  27.503  1.00  0.00    -0.010 C 
ATOM     26  C   UNL A   1      39.212  27.498  29.782  1.00  0.00    -0.010 C 
ATOM     27  C   UNL A   1      40.534  28.045  30.335  1.00  0.00     0.007 C 
ATOM     28  C   UNL A   1      41.123  28.932  28.062  1.00  0.00     0.007 C 
ATOM     29  C   UNL A   1      39.400  27.134  28.300  1.00  0.00     0.007 C 
ENDBRANCH  18  20
ENDBRANCH  15  18
ENDBRANCH   9  14
ENDBRANCH   6   8
ENDBRANCH   5   6
ENDBRANCH   4   5
ENDBRANCH   3   4
ENDBRANCH   2   3
ENDBRANCH   1   2
BRANCH   1  30
ATOM     30  C   UNL A   1      38.910  32.805  39.546  1.00  0.00     0.188 C 
BRANCH  30  31
ATOM     31  O   UNL A   1      38.258  33.763  40.369  1.00  0.00    -0.376 OA
BRANCH  31  32
ATOM     32  C   UNL A   1      39.078  34.817  40.853  1.00  0.00     0.202 C 
BRANCH  32  33
ATOM     33  C   UNL A   1      40.508  34.686  40.327  1.00  0.00     0.261 C 
BRANCH  33  34
ATOM     34  O   UNL A   1      41.078  35.927  39.882  1.00  0.00    -0.460 OA
BRANCH  34  35
ATOM     35  C   UNL A   1      40.475  36.511  38.819  1.00  0.00     0.338 C 
ATOM     36  O   UNL A   1      39.768  37.502  38.834  1.00  0.00    -0.246 OA
BRANCH  35  37
ATOM     37  C   UNL A   1      40.961  35.846  37.597  1.00  0.00     0.060 A 
ATOM     38  C   UNL A   1      40.032  35.469  36.621  1.00  0.00     0.016 A 
ATOM     39  C   UNL A   1      42.323  35.582  37.427  1.00  0.00     0.016 A 
ATOM     40  C   UNL A   1      40.463  34.794  35.479  1.00  0.00     0.010 A 
ATOM     41  C   UNL A   1      42.751  34.898  36.288  1.00  0.00     0.010 A 
ATOM     42  C   UNL A   1      41.820  34.477  35.324  1.00  0.00    -0.014 A 
BRANCH  42  43
ATOM     43  C   UNL A   1      42.257  33.567  34.238  1.00  0.00     0.031 A 
ATOM     44  C   UNL A   1      42.338  32.094  34.526  1.00  0.00     0.074 A 
ATOM     45  C   UNL A   1      42.599  34.046  33.028  1.00  0.00     0.049 A 
ATOM     46  N   UNL A   1      42.750  31.118  33.760  1.00  0.00    -0.248 NA
ATOM     47  C   UNL A   1      41.902  31.666  35.866  1.00  0.00     0.031 C 
ATOM     48  C   UNL A   1      42.539  35.449  32.627  1.00  0.00     0.029 A 
ATOM     49  N   UNL A   1      43.080  33.398  31.918  1.00  0.00    -0.354 N 
ATOM     50  C   UNL A   1      42.626  29.962  34.521  1.00  0.00     0.074 A 
ATOM     51  C   UNL A   1      42.130  30.363  35.821  1.00  0.00     0.031 C 
ATOM     52  C   UNL A   1      42.982  35.560  31.362  1.00  0.00     0.029 A 
ATOM     53  C   UNL A   1      43.390  34.242  30.878  1.00  0.00     0.049 A 
ATOM     54  H   UNL A   1      43.193  32.421  31.871  1.00  0.00     0.167 HD
ATOM     55  C   UNL A   1      42.899  28.682  34.168  1.00  0.00     0.034 A 
ATOM     56  C   UNL A   1      43.960  33.980  29.684  1.00  0.00     0.034 A 
ATOM     57  C   UNL A   1      43.407  28.297  32.876  1.00  0.00     0.049 A 
ATOM     58  C   UNL A   1      44.329  32.554  29.343  1.00  0.00     0.074 A 
ATOM     59  C   UNL A   1      43.680  27.025  32.401  1.00  0.00     0.029 A 
ATOM     60  N   UNL A   1      43.738  29.180  31.858  1.00  0.00    -0.354 N 
ATOM     61  N   UNL A   1      44.168  31.463  30.058  1.00  0.00    -0.248 NA
ATOM     62  C   UNL A   1      44.953  32.326  28.032  1.00  0.00     0.031 C 
ATOM     63  C   UNL A   1      44.240  27.145  31.124  1.00  0.00     0.029 A 
ATOM     64  C   UNL A   1      44.249  28.486  30.772  1.00  0.00     0.049 A 
ATOM     65  H   UNL A   1      43.626  30.158  31.900  1.00  0.00     0.167 HD
ATOM     66  C   UNL A   1      44.638  30.418  29.265  1.00  0.00     0.074 A 
ATOM     67  C   UNL A   1      45.079  31.007  28.019  1.00  0.00     0.031 C 
ATOM     68  C   UNL A   1      44.691  29.089  29.537  1.00  0.00     0.034 A 
BRANCH  55  69
ATOM     69  C   UNL A   1      42.703  27.619  35.219  1.00  0.00     0.023 A 
ATOM     70  C   UNL A   1      43.600  27.462  36.289  1.00  0.00     0.031 A 
ATOM     71  C   UNL A   1      41.614  26.734  35.132  1.00  0.00     0.131 A 
ATOM     72  C   UNL A   1      43.427  26.404  37.195  1.00  0.00     0.055 A 
ATOM     73  C   UNL A   1      41.408  25.728  36.076  1.00  0.00     0.041 A 
ATOM     74  F   UNL A   1      40.741  26.825  34.117  1.00  0.00    -0.206 F 
ATOM     75  C   UNL A   1      42.324  25.550  37.109  1.00  0.00     0.022 A 
BRANCH  72  76
ATOM     76  S   UNL A   1      44.729  26.083  38.415  1.00  0.00     0.124 S 
ATOM     77  O   UNL A   1      44.239  26.825  39.575  1.00  0.00    -0.237 OA
ATOM     78  O   UNL A   1      44.705  24.629  38.531  1.00  0.00    -0.237 OA
ATOM     79  O   UNL A   1      45.928  26.639  37.792  1.00  0.00    -0.744 OA
ENDBRANCH  72  76
ENDBRANCH  55  69
BRANCH  56  80
ATOM     80  C   UNL A   1      44.268  35.082  28.728  1.00  0.00     0.023 A 
ATOM     81  C   UNL A   1      45.499  35.756  28.769  1.00  0.00     0.031 A 
ATOM     82  C   UNL A   1      43.299  35.534  27.813  1.00  0.00     0.131 A 
ATOM     83  C   UNL A   1      45.709  36.879  27.954  1.00  0.00     0.055 A 
ATOM     84  C   UNL A   1      43.535  36.618  26.965  1.00  0.00     0.041 A 
ATOM     85  F   UNL A   1      42.103  34.929  27.736  1.00  0.00    -0.206 F 
ATOM     86  C   UNL A   1      44.740  37.307  27.044  1.00  0.00     0.022 A 
BRANCH  83  87
ATOM     87  S   UNL A   1      47.233  37.839  28.177  1.00  0.00     0.124 S 
ATOM     88  O   UNL A   1      46.734  39.039  28.841  1.00  0.00    -0.237 OA
ATOM     89  O   UNL A   1      48.039  36.942  28.997  1.00  0.00    -0.237 OA
ATOM     90  O   UNL A   1      47.715  38.036  26.811  1.00  0.00    -0.744 OA
ENDBRANCH  83  87
ENDBRANCH  56  80
BRANCH  68  91
ATOM     91  C   UNL A   1      45.195  28.182  28.442  1.00  0.00     0.023 A 
ATOM     92  C   UNL A   1      44.319  27.527  27.557  1.00  0.00     0.031 A 
ATOM     93  C   UNL A   1      46.576  27.967  28.287  1.00  0.00     0.131 A 
ATOM     94  C   UNL A   1      44.832  26.650  26.588  1.00  0.00     0.055 A 
ATOM     95  C   UNL A   1      47.084  27.136  27.288  1.00  0.00     0.041 A 
ATOM     96  F   UNL A   1      47.456  28.568  29.104  1.00  0.00    -0.206 F 
ATOM     97  C   UNL A   1      46.209  26.462  26.439  1.00  0.00     0.022 A 
BRANCH  94  98
ATOM     98  S   UNL A   1      43.672  25.695  25.573  1.00  0.00     0.124 S 
ATOM     99  O   UNL A   1      42.931  24.945  26.581  1.00  0.00    -0.237 OA
ATOM    100  O   UNL A   1      42.928  26.742  24.881  1.00  0.00    -0.237 OA
ATOM    101  O   UNL A   1      44.545  24.890  24.720  1.00  0.00    -0.744 OA
ENDBRANCH  94  98
ENDBRANCH  68  91
ENDBRANCH  42  43
ENDBRANCH  35  37
ENDBRANCH  34  35
ENDBRANCH  33  34
ENDBRANCH  32  33
ENDBRANCH  31  32
ENDBRANCH  30  31
ENDBRANCH   1  30
TORSDOF 23
ENDMDL
MODEL 3
REMARK VINA RESULT:      -9.3      4.796      9.622
REMARK SMILES C[C@H](NC(=O)c1c(C(=O)OCCOCCOCCOC(=O)c2ccc(-c3c4nc(c(-c5cc(S(=O)(=O)[O-])ccc5F)c5ccc([nH]5)c(-c5cc(S(=O)(=O)[O-])ccc5F)c5nc(c(-c6cc(S(=O)(=O)[O-])ccc6F)c6ccc3[nH]6)C=C5)C=C4)cc2)cnn1C)[C@]12C[C@H]3C[C@H](C[C@H](C3)C1)C2
REMARK SMILES IDX 14 1 13 2 12 3 11 4 10 5 8 6 9 7 7 8 6 9 87 10 85 11 86 12
REMARK SMILES IDX 88 13 4 14 3 15 5 17 2 18 1 19 89 20 90 21 97 22 98 23 91 24
REMARK SMILES IDX 95 25 93 26 92 27 96 28 94 29 15 30 16 31 17 32 18 33 19 34
REMARK SMILES IDX 20 35 21 36 22 37 23 38 84 39 24 40 83 41 25 42 26 43 27 44
REMARK SMILES IDX 77 45 28 46 82 47 76 48 78 49 29 50 81 51 75 52 74 53 30 55
REMARK SMILES IDX 62 56 42 57 61 58 43 59 46 60 60 61 79 62 44 63 45 64 59 66
REMARK SMILES IDX 80 67 47 68 31 69 32 70 40 71 33 72 39 73 41 74 38 75 34 76
REMARK SMILES IDX 35 77 36 78 37 79 63 80 64 81 72 82 65 83 71 84 73 85 70 86
REMARK SMILES IDX 66 87 67 88 68 89 69 90 48 91 49 92 57 93 50 94 56 95 58 96
REMARK SMILES IDX 55 97 51 98 52 99 53 100 54 101
REMARK H PARENT 3 16 78 54 46 65
REMARK Flexibility Score: inf
ROOT
ATOM      1  C   UNL A   1      37.895  28.978  29.739  1.00  0.00     0.188 C 
ENDROOT
BRANCH   1   2
ATOM      2  O   UNL A   1      36.611  29.338  29.236  1.00  0.00    -0.376 OA
BRANCH   2   3
ATOM      3  C   UNL A   1      36.465  29.786  27.899  1.00  0.00     0.202 C 
BRANCH   3   4
ATOM      4  C   UNL A   1      35.029  29.968  27.403  1.00  0.00     0.261 C 
BRANCH   4   5
ATOM      5  O   UNL A   1      34.602  28.952  26.477  1.00  0.00    -0.460 OA
BRANCH   5   6
ATOM      6  C   UNL A   1      33.280  28.629  26.540  1.00  0.00     0.342 C 
ATOM      7  O   UNL A   1      32.754  28.086  27.505  1.00  0.00    -0.246 OA
BRANCH   6   8
ATOM      8  C   UNL A   1      32.482  29.065  25.405  1.00  0.00     0.111 A 
ATOM      9  C   UNL A   1      32.580  28.834  24.028  1.00  0.00     0.140 A 
ATOM     10  N   UNL A   1      31.381  29.296  23.531  1.00  0.00    -0.262 N 
ATOM     11  C   UNL A   1      31.331  29.876  25.544  1.00  0.00     0.151 A 
ATOM     12  N   UNL A   1      30.704  30.076  24.388  1.00  0.00    -0.180 NA
ATOM     13  C   UNL A   1      30.707  28.914  22.309  1.00  0.00     0.174 C 
BRANCH   9  14
ATOM     14  C   UNL A   1      33.558  28.089  23.280  1.00  0.00     0.270 C 
ATOM     15  N   UNL A   1      33.619  26.713  23.388  1.00  0.00    -0.348 N 
ATOM     16  H   UNL A   1      34.437  26.314  23.014  1.00  0.00     0.164 HD
ATOM     17  O   UNL A   1      34.368  28.629  22.527  1.00  0.00    -0.267 OA
BRANCH  15  18
ATOM     18  C   UNL A   1      32.673  25.734  23.964  1.00  0.00     0.085 C 
ATOM     19  C   UNL A   1      31.588  25.436  22.930  1.00  0.00     0.031 C 
BRANCH  18  20
ATOM     20  C   UNL A   1      33.370  24.445  24.585  1.00  0.00    -0.009 C 
ATOM     21  C   UNL A   1      34.652  24.804  25.398  1.00  0.00     0.012 C 
ATOM     22  C   UNL A   1      33.811  23.502  23.423  1.00  0.00     0.012 C 
ATOM     23  C   UNL A   1      32.447  23.610  25.520  1.00  0.00     0.012 C 
ATOM     24  C   UNL A   1      35.369  23.555  25.931  1.00  0.00    -0.010 C 
ATOM     25  C   UNL A   1      34.540  22.252  23.950  1.00  0.00    -0.010 C 
ATOM     26  C   UNL A   1      33.169  22.355  26.055  1.00  0.00    -0.010 C 
ATOM     27  C   UNL A   1      34.415  22.775  26.846  1.00  0.00     0.007 C 
ATOM     28  C   UNL A   1      35.785  22.676  24.745  1.00  0.00     0.007 C 
ATOM     29  C   UNL A   1      33.598  21.468  24.875  1.00  0.00     0.007 C 
ENDBRANCH  18  20
ENDBRANCH  15  18
ENDBRANCH   9  14
ENDBRANCH   6   8
ENDBRANCH   5   6
ENDBRANCH   4   5
ENDBRANCH   3   4
ENDBRANCH   2   3
ENDBRANCH   1   2
BRANCH   1  30
ATOM     30  C   UNL A   1      38.057  28.403  31.154  1.00  0.00     0.188 C 
BRANCH  30  31
ATOM     31  O   UNL A   1      37.242  29.033  32.133  1.00  0.00    -0.376 OA
BRANCH  31  32
ATOM     32  C   UNL A   1      37.763  30.232  32.688  1.00  0.00     0.202 C 
BRANCH  32  33
ATOM     33  C   UNL A   1      36.937  31.443  32.253  1.00  0.00     0.261 C 
BRANCH  33  34
ATOM     34  O   UNL A   1      37.673  32.676  32.253  1.00  0.00    -0.460 OA
BRANCH  34  35
ATOM     35  C   UNL A   1      37.391  33.537  31.247  1.00  0.00     0.338 C 
ATOM     36  O   UNL A   1      36.292  33.953  30.926  1.00  0.00    -0.246 OA
BRANCH  35  37
ATOM     37  C   UNL A   1      38.667  34.034  30.702  1.00  0.00     0.060 A 
ATOM     38  C   UNL A   1      38.734  34.371  29.346  1.00  0.00     0.016 A 
ATOM     39  C   UNL A   1      39.792  34.150  31.524  1.00  0.00     0.016 A 
ATOM     40  C   UNL A   1      39.944  34.797  28.798  1.00  0.00     0.010 A 
ATOM     41  C   UNL A   1      41.003  34.567  30.971  1.00  0.00     0.010 A 
ATOM     42  C   UNL A   1      41.092  34.865  29.601  1.00  0.00    -0.014 A 
BRANCH  42  43
ATOM     43  C   UNL A   1      42.423  35.091  28.989  1.00  0.00     0.031 A 
ATOM     44  C   UNL A   1      43.395  33.946  28.942  1.00  0.00     0.074 A 
ATOM     45  C   UNL A   1      42.767  36.299  28.506  1.00  0.00     0.049 A 
ATOM     46  N   UNL A   1      44.630  33.921  28.515  1.00  0.00    -0.248 NA
ATOM     47  C   UNL A   1      42.907  32.655  29.456  1.00  0.00     0.031 C 
ATOM     48  C   UNL A   1      41.901  37.475  28.477  1.00  0.00     0.029 A 
ATOM     49  N   UNL A   1      43.948  36.736  27.961  1.00  0.00    -0.354 N 
ATOM     50  C   UNL A   1      45.070  32.616  28.710  1.00  0.00     0.074 A 
ATOM     51  C   UNL A   1      43.978  31.889  29.322  1.00  0.00     0.031 C 
ATOM     52  C   UNL A   1      42.586  38.508  27.954  1.00  0.00     0.029 A 
ATOM     53  C   UNL A   1      43.949  38.074  27.646  1.00  0.00     0.049 A 
ATOM     54  H   UNL A   1      44.723  36.147  27.811  1.00  0.00     0.167 HD
ATOM     55  C   UNL A   1      46.274  32.074  28.403  1.00  0.00     0.034 A 
ATOM     56  C   UNL A   1      44.944  38.861  27.186  1.00  0.00     0.034 A 
ATOM     57  C   UNL A   1      47.359  32.813  27.807  1.00  0.00     0.049 A 
ATOM     58  C   UNL A   1      46.302  38.250  26.927  1.00  0.00     0.074 A 
ATOM     59  C   UNL A   1      48.606  32.352  27.420  1.00  0.00     0.029 A 
ATOM     60  N   UNL A   1      47.335  34.173  27.530  1.00  0.00    -0.354 N 
ATOM     61  N   UNL A   1      46.692  37.005  27.076  1.00  0.00    -0.248 NA
ATOM     62  C   UNL A   1      47.351  39.152  26.431  1.00  0.00     0.031 C 
ATOM     63  C   UNL A   1      49.357  33.444  26.974  1.00  0.00     0.029 A 
ATOM     64  C   UNL A   1      48.557  34.575  27.013  1.00  0.00     0.049 A 
ATOM     65  H   UNL A   1      46.563  34.766  27.678  1.00  0.00     0.167 HD
ATOM     66  C   UNL A   1      48.021  36.972  26.658  1.00  0.00     0.074 A 
ATOM     67  C   UNL A   1      48.361  38.316  26.244  1.00  0.00     0.031 C 
ATOM     68  C   UNL A   1      48.882  35.922  26.610  1.00  0.00     0.034 A 
BRANCH  55  69
ATOM     69  C   UNL A   1      46.490  30.627  28.762  1.00  0.00     0.023 A 
ATOM     70  C   UNL A   1      46.228  29.591  27.849  1.00  0.00     0.031 A 
ATOM     71  C   UNL A   1      46.941  30.278  30.047  1.00  0.00     0.131 A 
ATOM     72  C   UNL A   1      46.361  28.253  28.254  1.00  0.00     0.055 A 
ATOM     73  C   UNL A   1      47.138  28.948  30.421  1.00  0.00     0.041 A 
ATOM     74  F   UNL A   1      47.183  31.226  30.966  1.00  0.00    -0.206 F 
ATOM     75  C   UNL A   1      46.835  27.926  29.526  1.00  0.00     0.022 A 
BRANCH  72  76
ATOM     76  S   UNL A   1      45.786  26.947  27.136  1.00  0.00     0.124 S 
ATOM     77  O   UNL A   1      46.572  25.801  27.590  1.00  0.00    -0.237 OA
ATOM     78  O   UNL A   1      44.356  26.892  27.419  1.00  0.00    -0.237 OA
ATOM     79  O   UNL A   1      46.141  27.448  25.810  1.00  0.00    -0.744 OA
ENDBRANCH  72  76
ENDBRANCH  55  69
BRANCH  56  80
ATOM     80  C   UNL A   1      44.727  40.321  26.978  1.00  0.00     0.023 A 
ATOM     81  C   UNL A   1      44.282  40.821  25.744  1.00  0.00     0.031 A 
ATOM     82  C   UNL A   1      45.045  41.247  27.989  1.00  0.00     0.131 A 
ATOM     83  C   UNL A   1      44.221  42.207  25.532  1.00  0.00     0.055 A 
ATOM     84  C   UNL A   1      44.928  42.624  27.791  1.00  0.00     0.041 A 
ATOM     85  F   UNL A   1      45.479  40.823  29.187  1.00  0.00    -0.206 F 
ATOM     86  C   UNL A   1      44.529  43.111  26.551  1.00  0.00     0.022 A 
BRANCH  83  87
ATOM     87  S   UNL A   1      43.832  42.814  23.866  1.00  0.00     0.124 S 
ATOM     88  O   UNL A   1      43.611  44.235  24.112  1.00  0.00    -0.237 OA
ATOM     89  O   UNL A   1      45.044  42.472  23.129  1.00  0.00    -0.237 OA
ATOM     90  O   UNL A   1      42.642  42.052  23.495  1.00  0.00    -0.744 OA
ENDBRANCH  83  87
ENDBRANCH  56  80
BRANCH  68  91
ATOM     91  C   UNL A   1      50.254  36.183  26.040  1.00  0.00     0.023 A 
ATOM     92  C   UNL A   1      51.380  36.362  26.864  1.00  0.00     0.031 A 
ATOM     93  C   UNL A   1      50.434  36.261  24.647  1.00  0.00     0.131 A 
ATOM     94  C   UNL A   1      52.626  36.657  26.289  1.00  0.00     0.055 A 
ATOM     95  C   UNL A   1      51.685  36.501  24.079  1.00  0.00     0.041 A 
ATOM     96  F   UNL A   1      49.393  36.098  23.815  1.00  0.00    -0.206 F 
ATOM     97  C   UNL A   1      52.789  36.713  24.902  1.00  0.00     0.022 A 
BRANCH  94  98
ATOM     98  S   UNL A   1      54.022  37.044  27.381  1.00  0.00     0.124 S 
ATOM     99  O   UNL A   1      54.558  35.719  27.672  1.00  0.00    -0.237 OA
ATOM    100  O   UNL A   1      54.851  37.896  26.536  1.00  0.00    -0.237 OA
ATOM    101  O   UNL A   1      53.393  37.721  28.514  1.00  0.00    -0.744 OA
ENDBRANCH  94  98
ENDBRANCH  68  91
ENDBRANCH  42  43
ENDBRANCH  35  37
ENDBRANCH  34  35
ENDBRANCH  33  34
ENDBRANCH  32  33
ENDBRANCH  31  32
ENDBRANCH  30  31
ENDBRANCH   1  30
TORSDOF 23
ENDMDL
