MODEL 1
REMARK VINA RESULT:     -10.0      0.000      0.000
REMARK SMILES Cc1ccccc1CN1C(=O)[C@H](CC(=O)OCCOCCOCCOC(=O)c2ccc(-c3c4nc(c(-c5cc(S(=O)(=O)[O-])ccc5F)c5ccc([nH]5)c(-c5cc(S(=O)(=O)[O-])ccc5F)c5nc(c(-c6cc(S(=O)(=O)[O-])ccc6F)c6ccc3[nH]6)C=C5)C=C4)cc2)n2c(nc3ccccc32)[C@H]1C
REMARK SMILES IDX 20 1 19 2 18 3 17 4 16 5 14 6 15 7 13 8 12 9 9 10 10 11
REMARK SMILES IDX 100 12 11 13 92 14 101 15 91 16 93 17 99 18 94 19 98 20
REMARK SMILES IDX 95 21 97 22 96 23 8 24 7 25 1 26 2 27 3 28 4 29 6 30 5 31
REMARK SMILES IDX 21 32 22 33 23 34 24 35 25 36 26 37 27 38 28 39 29 40 90 41
REMARK SMILES IDX 30 42 89 43 31 44 32 45 33 46 83 47 34 48 88 49 82 50 84 51
REMARK SMILES IDX 35 52 87 53 81 54 80 55 36 57 68 58 48 59 67 60 49 61 52 62
REMARK SMILES IDX 66 63 85 64 50 65 51 66 65 68 86 69 53 70 37 71 38 72 46 73
REMARK SMILES IDX 39 74 45 75 47 76 44 77 40 78 41 79 42 80 43 81 69 82 70 83
REMARK SMILES IDX 78 84 71 85 77 86 79 87 76 88 72 89 73 90 74 91 75 92 54 93
REMARK SMILES IDX 55 94 63 95 56 96 62 97 64 98 61 99 57 100 58 101 59 102
REMARK SMILES IDX 60 103
REMARK H PARENT 84 56 52 67
REMARK Flexibility Score: inf
ROOT
ATOM      1  C   UNL A   1      33.510  32.198  28.112  1.00  0.00     0.188 C 
ENDROOT
BRANCH   1   2
ATOM      2  O   UNL A   1      33.379  31.136  27.157  1.00  0.00    -0.376 OA
BRANCH   2   3
ATOM      3  C   UNL A   1      34.448  30.190  27.106  1.00  0.00     0.202 C 
BRANCH   3   4
ATOM      4  C   UNL A   1      34.083  28.635  27.276  1.00  0.00     0.261 C 
BRANCH   4   5
ATOM      5  O   UNL A   1      33.954  27.651  26.047  1.00  0.00    -0.463 OA
BRANCH   5   6
ATOM      6  C   UNL A   1      33.917  26.334  25.596  1.00  0.00     0.308 C 
ATOM      7  O   UNL A   1      32.782  25.933  25.306  1.00  0.00    -0.252 OA
BRANCH   6   8
ATOM      8  C   UNL A   1      35.139  25.252  25.316  1.00  0.00     0.158 C 
BRANCH   8   9
ATOM      9  C   UNL A   1      35.186  23.717  25.928  1.00  0.00     0.189 C 
ATOM     10  N   UNL A   1      34.499  21.206  25.712  1.00  0.00    -0.327 N 
ATOM     11  C   UNL A   1      34.158  22.573  25.389  1.00  0.00     0.247 C 
ATOM     12  C   UNL A   1      35.628  20.907  24.828  1.00  0.00     0.149 C 
ATOM     13  O   UNL A   1      33.297  22.781  24.542  1.00  0.00    -0.272 OA
ATOM     14  C   UNL A   1      36.741  21.833  25.241  1.00  0.00     0.133 A 
ATOM     15  C   UNL A   1      36.144  19.478  24.743  1.00  0.00     0.040 C 
ATOM     16  N   UNL A   1      36.512  23.087  25.792  1.00  0.00    -0.313 N 
ATOM     17  N   UNL A   1      38.023  21.535  25.249  1.00  0.00    -0.231 NA
ATOM     18  C   UNL A   1      37.679  23.468  26.399  1.00  0.00     0.069 A 
ATOM     19  C   UNL A   1      38.601  22.498  26.019  1.00  0.00     0.089 A 
ATOM     20  C   UNL A   1      38.013  24.513  27.256  1.00  0.00     0.028 A 
ATOM     21  C   UNL A   1      39.919  22.565  26.481  1.00  0.00     0.030 A 
ATOM     22  C   UNL A   1      39.332  24.572  27.709  1.00  0.00     0.002 A 
ATOM     23  C   UNL A   1      40.271  23.613  27.333  1.00  0.00     0.002 A 
BRANCH  10  24
ATOM     24  C   UNL A   1      33.411  20.152  25.931  1.00  0.00     0.156 C 
BRANCH  24  25
ATOM     25  C   UNL A   1      32.965  19.287  24.708  1.00  0.00    -0.026 A 
ATOM     26  C   UNL A   1      32.919  16.947  25.813  1.00  0.00     0.044 C 
ATOM     27  C   UNL A   1      33.030  17.875  24.632  1.00  0.00    -0.046 A 
ATOM     28  C   UNL A   1      32.930  17.207  23.381  1.00  0.00     0.004 A 
ATOM     29  C   UNL A   1      32.544  17.882  22.237  1.00  0.00     0.000 A 
ATOM     30  C   UNL A   1      32.360  19.873  23.585  1.00  0.00     0.006 A 
ATOM     31  C   UNL A   1      32.167  19.202  22.366  1.00  0.00     0.000 A 
ENDBRANCH  24  25
ENDBRANCH  10  24
ENDBRANCH   8   9
ENDBRANCH   6   8
ENDBRANCH   5   6
ENDBRANCH   4   5
ENDBRANCH   3   4
ENDBRANCH   2   3
ENDBRANCH   1   2
BRANCH   1  32
ATOM     32  C   UNL A   1      34.733  33.168  28.048  1.00  0.00     0.188 C 
BRANCH  32  33
ATOM     33  O   UNL A   1      34.699  34.188  29.036  1.00  0.00    -0.376 OA
BRANCH  33  34
ATOM     34  C   UNL A   1      33.414  34.680  29.428  1.00  0.00     0.202 C 
BRANCH  34  35
ATOM     35  C   UNL A   1      33.400  35.725  30.538  1.00  0.00     0.261 C 
BRANCH  35  36
ATOM     36  O   UNL A   1      33.375  35.310  31.913  1.00  0.00    -0.460 OA
BRANCH  36  37
ATOM     37  C   UNL A   1      34.280  35.341  32.898  1.00  0.00     0.338 C 
ATOM     38  O   UNL A   1      34.376  36.357  33.589  1.00  0.00    -0.246 OA
BRANCH  37  39
ATOM     39  C   UNL A   1      35.313  34.314  33.084  1.00  0.00     0.060 A 
ATOM     40  C   UNL A   1      34.992  33.175  32.409  1.00  0.00     0.016 A 
ATOM     41  C   UNL A   1      36.560  34.337  33.706  1.00  0.00     0.016 A 
ATOM     42  C   UNL A   1      35.928  32.142  32.343  1.00  0.00     0.010 A 
ATOM     43  C   UNL A   1      37.442  33.183  33.647  1.00  0.00     0.010 A 
ATOM     44  C   UNL A   1      37.182  32.010  32.902  1.00  0.00    -0.014 A 
BRANCH  44  45
ATOM     45  C   UNL A   1      38.210  30.995  32.146  1.00  0.00     0.031 A 
ATOM     46  C   UNL A   1      38.710  31.787  30.949  1.00  0.00     0.074 A 
ATOM     47  C   UNL A   1      39.043  29.873  32.380  1.00  0.00     0.049 A 
ATOM     48  N   UNL A   1      39.147  32.981  31.211  1.00  0.00    -0.248 NA
ATOM     49  C   UNL A   1      38.896  31.435  29.542  1.00  0.00     0.031 C 
ATOM     50  C   UNL A   1      39.690  29.060  31.304  1.00  0.00     0.029 A 
ATOM     51  N   UNL A   1      39.703  29.273  33.515  1.00  0.00    -0.354 N 
ATOM     52  C   UNL A   1      40.043  33.307  30.249  1.00  0.00     0.074 A 
ATOM     53  C   UNL A   1      39.701  32.436  29.128  1.00  0.00     0.031 C 
ATOM     54  C   UNL A   1      40.780  28.393  31.748  1.00  0.00     0.029 A 
ATOM     55  C   UNL A   1      40.999  28.701  33.154  1.00  0.00     0.049 A 
ATOM     56  H   UNL A   1      39.325  29.250  34.423  1.00  0.00     0.167 HD
ATOM     57  C   UNL A   1      41.269  33.768  30.659  1.00  0.00     0.034 A 
ATOM     58  C   UNL A   1      42.265  28.652  33.741  1.00  0.00     0.034 A 
ATOM     59  C   UNL A   1      41.604  33.242  31.977  1.00  0.00     0.049 A 
ATOM     60  C   UNL A   1      42.457  29.546  34.952  1.00  0.00     0.074 A 
ATOM     61  C   UNL A   1      41.510  31.901  32.239  1.00  0.00     0.029 A 
ATOM     62  N   UNL A   1      41.964  33.832  33.203  1.00  0.00    -0.354 N 
ATOM     63  N   UNL A   1      43.062  30.703  34.890  1.00  0.00    -0.248 NA
ATOM     64  C   UNL A   1      41.920  29.267  36.283  1.00  0.00     0.031 C 
ATOM     65  C   UNL A   1      41.056  31.903  33.526  1.00  0.00     0.029 A 
ATOM     66  C   UNL A   1      41.754  32.869  34.194  1.00  0.00     0.049 A 
ATOM     67  H   UNL A   1      42.300  34.748  33.338  1.00  0.00     0.167 HD
ATOM     68  C   UNL A   1      42.510  31.472  35.911  1.00  0.00     0.074 A 
ATOM     69  C   UNL A   1      42.057  30.468  36.876  1.00  0.00     0.031 C 
ATOM     70  C   UNL A   1      41.944  32.722  35.640  1.00  0.00     0.034 A 
BRANCH  57  71
ATOM     71  C   UNL A   1      42.305  34.188  29.714  1.00  0.00     0.023 A 
ATOM     72  C   UNL A   1      42.379  35.536  29.350  1.00  0.00     0.031 A 
ATOM     73  C   UNL A   1      43.070  33.249  29.012  1.00  0.00     0.131 A 
ATOM     74  C   UNL A   1      43.104  35.902  28.224  1.00  0.00     0.055 A 
ATOM     75  C   UNL A   1      43.840  33.627  27.919  1.00  0.00     0.041 A 
ATOM     76  F   UNL A   1      43.032  31.945  29.336  1.00  0.00    -0.206 F 
ATOM     77  C   UNL A   1      43.832  34.956  27.499  1.00  0.00     0.022 A 
BRANCH  74  78
ATOM     78  S   UNL A   1      42.912  37.597  27.624  1.00  0.00     0.124 S 
ATOM     79  O   UNL A   1      44.298  38.003  27.423  1.00  0.00    -0.237 OA
ATOM     80  O   UNL A   1      42.107  37.404  26.424  1.00  0.00    -0.237 OA
ATOM     81  O   UNL A   1      42.232  38.262  28.735  1.00  0.00    -0.744 OA
ENDBRANCH  74  78
ENDBRANCH  57  71
BRANCH  58  82
ATOM     82  C   UNL A   1      43.624  28.396  33.034  1.00  0.00     0.023 A 
ATOM     83  C   UNL A   1      44.285  29.302  32.171  1.00  0.00     0.031 A 
ATOM     84  C   UNL A   1      44.119  27.069  32.990  1.00  0.00     0.131 A 
ATOM     85  C   UNL A   1      45.329  28.846  31.303  1.00  0.00     0.055 A 
ATOM     86  C   UNL A   1      45.103  26.614  32.107  1.00  0.00     0.041 A 
ATOM     87  F   UNL A   1      43.637  26.144  33.811  1.00  0.00    -0.206 F 
ATOM     88  C   UNL A   1      45.710  27.503  31.246  1.00  0.00     0.022 A 
BRANCH  85  89
ATOM     89  S   UNL A   1      46.269  30.007  30.249  1.00  0.00     0.124 S 
ATOM     90  O   UNL A   1      45.721  29.746  28.922  1.00  0.00    -0.237 OA
ATOM     91  O   UNL A   1      45.934  31.306  30.827  1.00  0.00    -0.237 OA
ATOM     92  O   UNL A   1      47.662  29.603  30.436  1.00  0.00    -0.744 OA
ENDBRANCH  85  89
ENDBRANCH  58  82
BRANCH  70  93
ATOM     93  C   UNL A   1      40.903  33.275  36.594  1.00  0.00     0.023 A 
ATOM     94  C   UNL A   1      39.900  32.479  37.171  1.00  0.00     0.031 A 
ATOM     95  C   UNL A   1      40.833  34.661  36.862  1.00  0.00     0.131 A 
ATOM     96  C   UNL A   1      38.843  33.079  37.884  1.00  0.00     0.055 A 
ATOM     97  C   UNL A   1      39.804  35.247  37.597  1.00  0.00     0.041 A 
ATOM     98  F   UNL A   1      41.756  35.512  36.400  1.00  0.00    -0.206 F 
ATOM     99  C   UNL A   1      38.794  34.455  38.107  1.00  0.00     0.022 A 
BRANCH  96 100
ATOM    100  S   UNL A   1      37.496  32.036  38.503  1.00  0.00     0.124 S 
ATOM    101  O   UNL A   1      36.343  32.939  38.355  1.00  0.00    -0.237 OA
ATOM    102  O   UNL A   1      37.533  30.897  37.637  1.00  0.00    -0.237 OA
ATOM    103  O   UNL A   1      37.892  31.786  39.901  1.00  0.00    -0.744 OA
ENDBRANCH  96 100
ENDBRANCH  70  93
ENDBRANCH  44  45
ENDBRANCH  37  39
ENDBRANCH  36  37
ENDBRANCH  35  36
ENDBRANCH  34  35
ENDBRANCH  33  34
ENDBRANCH  32  33
ENDBRANCH   1  32
TORSDOF 23
ENDMDL
MODEL 2
REMARK VINA RESULT:      -9.9      1.767      2.092
REMARK SMILES Cc1ccccc1CN1C(=O)[C@H](CC(=O)OCCOCCOCCOC(=O)c2ccc(-c3c4nc(c(-c5cc(S(=O)(=O)[O-])ccc5F)c5ccc([nH]5)c(-c5cc(S(=O)(=O)[O-])ccc5F)c5nc(c(-c6cc(S(=O)(=O)[O-])ccc6F)c6ccc3[nH]6)C=C5)C=C4)cc2)n2c(nc3ccccc32)[C@H]1C
REMARK SMILES IDX 20 1 19 2 18 3 17 4 16 5 14 6 15 7 13 8 12 9 9 10 10 11
REMARK SMILES IDX 100 12 11 13 92 14 101 15 91 16 93 17 99 18 94 19 98 20
REMARK SMILES IDX 95 21 97 22 96 23 8 24 7 25 1 26 2 27 3 28 4 29 6 30 5 31
REMARK SMILES IDX 21 32 22 33 23 34 24 35 25 36 26 37 27 38 28 39 29 40 90 41
REMARK SMILES IDX 30 42 89 43 31 44 32 45 33 46 83 47 34 48 88 49 82 50 84 51
REMARK SMILES IDX 35 52 87 53 81 54 80 55 36 57 68 58 48 59 67 60 49 61 52 62
REMARK SMILES IDX 66 63 85 64 50 65 51 66 65 68 86 69 53 70 37 71 38 72 46 73
REMARK SMILES IDX 39 74 45 75 47 76 44 77 40 78 41 79 42 80 43 81 69 82 70 83
REMARK SMILES IDX 78 84 71 85 77 86 79 87 76 88 72 89 73 90 74 91 75 92 54 93
REMARK SMILES IDX 55 94 63 95 56 96 62 97 64 98 61 99 57 100 58 101 59 102
REMARK SMILES IDX 60 103
REMARK H PARENT 84 56 52 67
REMARK Flexibility Score: inf
ROOT
ATOM      1  C   UNL A   1      33.705  32.330  28.375  1.00  0.00     0.188 C 
ENDROOT
BRANCH   1   2
ATOM      2  O   UNL A   1      33.650  31.193  27.502  1.00  0.00    -0.376 OA
BRANCH   2   3
ATOM      3  C   UNL A   1      34.888  30.527  27.245  1.00  0.00     0.202 C 
BRANCH   3   4
ATOM      4  C   UNL A   1      34.916  28.925  27.362  1.00  0.00     0.261 C 
BRANCH   4   5
ATOM      5  O   UNL A   1      34.219  27.982  26.304  1.00  0.00    -0.463 OA
BRANCH   5   6
ATOM      6  C   UNL A   1      34.020  26.684  25.839  1.00  0.00     0.308 C 
ATOM      7  O   UNL A   1      32.829  26.375  25.703  1.00  0.00    -0.252 OA
BRANCH   6   8
ATOM      8  C   UNL A   1      35.106  25.525  25.369  1.00  0.00     0.158 C 
BRANCH   8   9
ATOM      9  C   UNL A   1      35.160  23.992  25.985  1.00  0.00     0.189 C 
ATOM     10  N   UNL A   1      34.501  21.475  25.764  1.00  0.00    -0.327 N 
ATOM     11  C   UNL A   1      34.151  22.837  25.435  1.00  0.00     0.247 C 
ATOM     12  C   UNL A   1      35.644  21.185  24.896  1.00  0.00     0.149 C 
ATOM     13  O   UNL A   1      33.299  23.035  24.575  1.00  0.00    -0.272 OA
ATOM     14  C   UNL A   1      36.742  22.122  25.322  1.00  0.00     0.133 A 
ATOM     15  C   UNL A   1      36.176  19.761  24.821  1.00  0.00     0.040 C 
ATOM     16  N   UNL A   1      36.494  23.375  25.868  1.00  0.00    -0.313 N 
ATOM     17  N   UNL A   1      38.027  21.837  25.347  1.00  0.00    -0.231 NA
ATOM     18  C   UNL A   1      37.649  23.769  26.489  1.00  0.00     0.069 A 
ATOM     19  C   UNL A   1      38.585  22.808  26.123  1.00  0.00     0.089 A 
ATOM     20  C   UNL A   1      37.961  24.819  27.348  1.00  0.00     0.028 A 
ATOM     21  C   UNL A   1      39.896  22.889  26.602  1.00  0.00     0.030 A 
ATOM     22  C   UNL A   1      39.273  24.892  27.819  1.00  0.00     0.002 A 
ATOM     23  C   UNL A   1      40.227  23.941  27.456  1.00  0.00     0.002 A 
BRANCH  10  24
ATOM     24  C   UNL A   1      33.421  20.409  25.971  1.00  0.00     0.156 C 
BRANCH  24  25
ATOM     25  C   UNL A   1      32.958  19.577  24.732  1.00  0.00    -0.026 A 
ATOM     26  C   UNL A   1      32.877  17.216  25.788  1.00  0.00     0.044 C 
ATOM     27  C   UNL A   1      33.001  18.166  24.626  1.00  0.00    -0.046 A 
ATOM     28  C   UNL A   1      32.888  17.526  23.363  1.00  0.00     0.004 A 
ATOM     29  C   UNL A   1      32.511  18.230  22.233  1.00  0.00     0.000 A 
ATOM     30  C   UNL A   1      32.361  20.196  23.622  1.00  0.00     0.006 A 
ATOM     31  C   UNL A   1      32.155  19.554  22.391  1.00  0.00     0.000 A 
ENDBRANCH  24  25
ENDBRANCH  10  24
ENDBRANCH   8   9
ENDBRANCH   6   8
ENDBRANCH   5   6
ENDBRANCH   4   5
ENDBRANCH   3   4
ENDBRANCH   2   3
ENDBRANCH   1   2
BRANCH   1  32
ATOM     32  C   UNL A   1      34.823  33.407  28.194  1.00  0.00     0.188 C 
BRANCH  32  33
ATOM     33  O   UNL A   1      34.602  34.585  28.957  1.00  0.00    -0.376 OA
BRANCH  33  34
ATOM     34  C   UNL A   1      33.249  34.911  29.285  1.00  0.00     0.202 C 
BRANCH  34  35
ATOM     35  C   UNL A   1      33.051  35.994  30.341  1.00  0.00     0.261 C 
BRANCH  35  36
ATOM     36  O   UNL A   1      32.869  35.628  31.718  1.00  0.00    -0.460 OA
BRANCH  36  37
ATOM     37  C   UNL A   1      33.702  35.536  32.760  1.00  0.00     0.338 C 
ATOM     38  O   UNL A   1      33.810  36.497  33.525  1.00  0.00    -0.246 OA
BRANCH  37  39
ATOM     39  C   UNL A   1      34.655  34.434  32.944  1.00  0.00     0.060 A 
ATOM     40  C   UNL A   1      34.293  33.352  32.200  1.00  0.00     0.016 A 
ATOM     41  C   UNL A   1      35.868  34.344  33.623  1.00  0.00     0.016 A 
ATOM     42  C   UNL A   1      35.162  32.261  32.128  1.00  0.00     0.010 A 
ATOM     43  C   UNL A   1      36.674  33.136  33.550  1.00  0.00     0.010 A 
ATOM     44  C   UNL A   1      36.375  32.019  32.737  1.00  0.00    -0.014 A 
BRANCH  44  45
ATOM     45  C   UNL A   1      37.371  30.972  31.982  1.00  0.00     0.031 A 
ATOM     46  C   UNL A   1      37.849  31.726  30.751  1.00  0.00     0.074 A 
ATOM     47  C   UNL A   1      38.196  29.846  32.223  1.00  0.00     0.049 A 
ATOM     48  N   UNL A   1      38.307  32.921  30.971  1.00  0.00    -0.248 NA
ATOM     49  C   UNL A   1      37.992  31.335  29.350  1.00  0.00     0.031 C 
ATOM     50  C   UNL A   1      38.804  28.997  31.152  1.00  0.00     0.029 A 
ATOM     51  N   UNL A   1      38.878  29.266  33.355  1.00  0.00    -0.354 N 
ATOM     52  C   UNL A   1      39.181  33.210  29.978  1.00  0.00     0.074 A 
ATOM     53  C   UNL A   1      38.798  32.316  28.889  1.00  0.00     0.031 C 
ATOM     54  C   UNL A   1      39.897  28.328  31.585  1.00  0.00     0.029 A 
ATOM     55  C   UNL A   1      40.158  28.670  32.976  1.00  0.00     0.049 A 
ATOM     56  H   UNL A   1      38.524  29.272  34.274  1.00  0.00     0.167 HD
ATOM     57  C   UNL A   1      40.423  33.667  30.344  1.00  0.00     0.034 A 
ATOM     58  C   UNL A   1      41.437  28.619  33.531  1.00  0.00     0.034 A 
ATOM     59  C   UNL A   1      40.785  33.170  31.665  1.00  0.00     0.049 A 
ATOM     60  C   UNL A   1      41.672  29.541  34.713  1.00  0.00     0.074 A 
ATOM     61  C   UNL A   1      40.682  31.838  31.965  1.00  0.00     0.029 A 
ATOM     62  N   UNL A   1      41.185  33.788  32.866  1.00  0.00    -0.354 N 
ATOM     63  N   UNL A   1      42.290  30.689  34.605  1.00  0.00    -0.248 NA
ATOM     64  C   UNL A   1      41.168  29.304  36.065  1.00  0.00     0.031 C 
ATOM     65  C   UNL A   1      40.263  31.879  33.263  1.00  0.00     0.029 A 
ATOM     66  C   UNL A   1      40.989  32.853  33.886  1.00  0.00     0.049 A 
ATOM     67  H   UNL A   1      41.536  34.702  32.968  1.00  0.00     0.167 HD
ATOM     68  C   UNL A   1      41.774  31.491  35.619  1.00  0.00     0.074 A 
ATOM     69  C   UNL A   1      41.334  30.518  36.622  1.00  0.00     0.031 C 
ATOM     70  C   UNL A   1      41.216  32.741  35.330  1.00  0.00     0.034 A 
BRANCH  57  71
ATOM     71  C   UNL A   1      41.438  34.048  29.361  1.00  0.00     0.023 A 
ATOM     72  C   UNL A   1      42.696  33.439  29.420  1.00  0.00     0.031 A 
ATOM     73  C   UNL A   1      41.251  35.147  28.515  1.00  0.00     0.131 A 
ATOM     74  C   UNL A   1      43.765  34.010  28.743  1.00  0.00     0.055 A 
ATOM     75  C   UNL A   1      42.312  35.683  27.794  1.00  0.00     0.041 A 
ATOM     76  F   UNL A   1      40.057  35.756  28.424  1.00  0.00    -0.206 F 
ATOM     77  C   UNL A   1      43.586  35.133  27.933  1.00  0.00     0.022 A 
BRANCH  74  78
ATOM     78  S   UNL A   1      45.416  33.368  29.103  1.00  0.00     0.124 S 
ATOM     79  O   UNL A   1      46.239  34.566  28.974  1.00  0.00    -0.237 OA
ATOM     80  O   UNL A   1      45.247  32.834  30.449  1.00  0.00    -0.237 OA
ATOM     81  O   UNL A   1      45.616  32.370  28.053  1.00  0.00    -0.744 OA
ENDBRANCH  74  78
ENDBRANCH  57  71
BRANCH  58  82
ATOM     82  C   UNL A   1      42.774  28.328  32.796  1.00  0.00     0.023 A 
ATOM     83  C   UNL A   1      43.057  28.648  31.447  1.00  0.00     0.031 A 
ATOM     84  C   UNL A   1      43.685  27.420  33.391  1.00  0.00     0.131 A 
ATOM     85  C   UNL A   1      44.158  28.031  30.770  1.00  0.00     0.055 A 
ATOM     86  C   UNL A   1      44.729  26.779  32.716  1.00  0.00     0.041 A 
ATOM     87  F   UNL A   1      43.575  27.103  34.676  1.00  0.00    -0.206 F 
ATOM     88  C   UNL A   1      44.967  27.076  31.391  1.00  0.00     0.022 A 
BRANCH  85  89
ATOM     89  S   UNL A   1      44.611  28.496  29.061  1.00  0.00     0.124 S 
ATOM     90  O   UNL A   1      46.019  28.855  29.191  1.00  0.00    -0.237 OA
ATOM     91  O   UNL A   1      44.338  27.271  28.314  1.00  0.00    -0.237 OA
ATOM     92  O   UNL A   1      43.712  29.606  28.748  1.00  0.00    -0.744 OA
ENDBRANCH  85  89
ENDBRANCH  58  82
BRANCH  70  93
ATOM     93  C   UNL A   1      40.207  33.331  36.297  1.00  0.00     0.023 A 
ATOM     94  C   UNL A   1      40.506  34.411  37.143  1.00  0.00     0.031 A 
ATOM     95  C   UNL A   1      38.935  32.737  36.463  1.00  0.00     0.131 A 
ATOM     96  C   UNL A   1      39.602  34.785  38.159  1.00  0.00     0.055 A 
ATOM     97  C   UNL A   1      38.030  33.133  37.447  1.00  0.00     0.041 A 
ATOM     98  F   UNL A   1      38.524  31.729  35.687  1.00  0.00    -0.206 F 
ATOM     99  C   UNL A   1      38.366  34.158  38.310  1.00  0.00     0.022 A 
BRANCH  96 100
ATOM    100  S   UNL A   1      40.075  36.096  39.318  1.00  0.00     0.124 S 
ATOM    101  O   UNL A   1      39.215  37.202  38.867  1.00  0.00    -0.237 OA
ATOM    102  O   UNL A   1      39.775  35.531  40.598  1.00  0.00    -0.237 OA
ATOM    103  O   UNL A   1      41.508  36.286  39.028  1.00  0.00    -0.744 OA
ENDBRANCH  96 100
ENDBRANCH  70  93
ENDBRANCH  44  45
ENDBRANCH  37  39
ENDBRANCH  36  37
ENDBRANCH  35  36
ENDBRANCH  34  35
ENDBRANCH  33  34
ENDBRANCH  32  33
ENDBRANCH   1  32
TORSDOF 23
ENDMDL
MODEL 3
REMARK VINA RESULT:      -9.7     10.733     17.314
REMARK SMILES Cc1ccccc1CN1C(=O)[C@H](CC(=O)OCCOCCOCCOC(=O)c2ccc(-c3c4nc(c(-c5cc(S(=O)(=O)[O-])ccc5F)c5ccc([nH]5)c(-c5cc(S(=O)(=O)[O-])ccc5F)c5nc(c(-c6cc(S(=O)(=O)[O-])ccc6F)c6ccc3[nH]6)C=C5)C=C4)cc2)n2c(nc3ccccc32)[C@H]1C
REMARK SMILES IDX 20 1 19 2 18 3 17 4 16 5 14 6 15 7 13 8 12 9 9 10 10 11
REMARK SMILES IDX 100 12 11 13 92 14 101 15 91 16 93 17 99 18 94 19 98 20
REMARK SMILES IDX 95 21 97 22 96 23 8 24 7 25 1 26 2 27 3 28 4 29 6 30 5 31
REMARK SMILES IDX 21 32 22 33 23 34 24 35 25 36 26 37 27 38 28 39 29 40 90 41
REMARK SMILES IDX 30 42 89 43 31 44 32 45 33 46 83 47 34 48 88 49 82 50 84 51
REMARK SMILES IDX 35 52 87 53 81 54 80 55 36 57 68 58 48 59 67 60 49 61 52 62
REMARK SMILES IDX 66 63 85 64 50 65 51 66 65 68 86 69 53 70 37 71 38 72 46 73
REMARK SMILES IDX 39 74 45 75 47 76 44 77 40 78 41 79 42 80 43 81 69 82 70 83
REMARK SMILES IDX 78 84 71 85 77 86 79 87 76 88 72 89 73 90 74 91 75 92 54 93
REMARK SMILES IDX 55 94 63 95 56 96 62 97 64 98 61 99 57 100 58 101 59 102
REMARK SMILES IDX 60 103
REMARK H PARENT 84 56 52 67
REMARK Flexibility Score: inf
ROOT
ATOM      1  C   UNL A   1      50.231  46.395  24.556  1.00  0.00     0.188 C 
ENDROOT
BRANCH   1   2
ATOM      2  O   UNL A   1      50.392  46.099  23.162  1.00  0.00    -0.376 OA
BRANCH   2   3
ATOM      3  C   UNL A   1      49.813  44.878  22.700  1.00  0.00     0.202 C 
BRANCH   3   4
ATOM      4  C   UNL A   1      48.505  44.971  21.773  1.00  0.00     0.261 C 
BRANCH   4   5
ATOM      5  O   UNL A   1      48.204  43.937  20.617  1.00  0.00    -0.463 OA
BRANCH   5   6
ATOM      6  C   UNL A   1      47.438  42.863  20.172  1.00  0.00     0.308 C 
ATOM      7  O   UNL A   1      47.883  41.756  20.502  1.00  0.00    -0.252 OA
BRANCH   6   8
ATOM      8  C   UNL A   1      46.002  42.826  19.348  1.00  0.00     0.158 C 
BRANCH   8   9
ATOM      9  C   UNL A   1      44.851  44.009  19.424  1.00  0.00     0.189 C 
ATOM     10  N   UNL A   1      43.046  45.449  18.203  1.00  0.00    -0.327 N 
ATOM     11  C   UNL A   1      44.274  44.700  18.066  1.00  0.00     0.247 C 
ATOM     12  C   UNL A   1      42.020  44.416  18.364  1.00  0.00     0.149 C 
ATOM     13  O   UNL A   1      44.666  44.412  16.941  1.00  0.00    -0.272 OA
ATOM     14  C   UNL A   1      42.342  43.703  19.650  1.00  0.00     0.133 A 
ATOM     15  C   UNL A   1      40.553  44.819  18.345  1.00  0.00     0.040 C 
ATOM     16  N   UNL A   1      43.635  43.579  20.140  1.00  0.00    -0.313 N 
ATOM     17  N   UNL A   1      41.460  43.231  20.505  1.00  0.00    -0.231 NA
ATOM     18  C   UNL A   1      43.524  43.250  21.464  1.00  0.00     0.069 A 
ATOM     19  C   UNL A   1      42.165  43.014  21.650  1.00  0.00     0.089 A 
ATOM     20  C   UNL A   1      44.439  43.175  22.510  1.00  0.00     0.028 A 
ATOM     21  C   UNL A   1      41.681  42.666  22.915  1.00  0.00     0.030 A 
ATOM     22  C   UNL A   1      43.946  42.824  23.768  1.00  0.00     0.002 A 
ATOM     23  C   UNL A   1      42.588  42.576  23.971  1.00  0.00     0.002 A 
BRANCH  10  24
ATOM     24  C   UNL A   1      42.760  46.666  17.319  1.00  0.00     0.156 C 
BRANCH  24  25
ATOM     25  C   UNL A   1      43.842  47.790  17.237  1.00  0.00    -0.026 A 
ATOM     26  C   UNL A   1      42.669  49.636  18.621  1.00  0.00     0.044 C 
ATOM     27  C   UNL A   1      43.644  49.149  17.581  1.00  0.00    -0.046 A 
ATOM     28  C   UNL A   1      44.561  50.149  17.158  1.00  0.00     0.004 A 
ATOM     29  C   UNL A   1      45.781  49.813  16.597  1.00  0.00     0.000 A 
ATOM     30  C   UNL A   1      45.169  47.498  16.884  1.00  0.00     0.006 A 
ATOM     31  C   UNL A   1      46.119  48.476  16.551  1.00  0.00     0.000 A 
ENDBRANCH  24  25
ENDBRANCH  10  24
ENDBRANCH   8   9
ENDBRANCH   6   8
ENDBRANCH   5   6
ENDBRANCH   4   5
ENDBRANCH   3   4
ENDBRANCH   2   3
ENDBRANCH   1   2
BRANCH   1  32
ATOM     32  C   UNL A   1      50.918  45.498  25.636  1.00  0.00     0.188 C 
BRANCH  32  33
ATOM     33  O   UNL A   1      50.574  45.852  26.968  1.00  0.00    -0.376 OA
BRANCH  33  34
ATOM     34  C   UNL A   1      50.334  47.236  27.239  1.00  0.00     0.202 C 
BRANCH  34  35
ATOM     35  C   UNL A   1      48.934  47.596  27.726  1.00  0.00     0.261 C 
BRANCH  35  36
ATOM     36  O   UNL A   1      47.953  46.564  27.914  1.00  0.00    -0.460 OA
BRANCH  36  37
ATOM     37  C   UNL A   1      46.615  46.569  27.964  1.00  0.00     0.338 C 
ATOM     38  O   UNL A   1      46.025  47.647  28.053  1.00  0.00    -0.246 OA
BRANCH  37  39
ATOM     39  C   UNL A   1      45.805  45.354  28.121  1.00  0.00     0.060 A 
ATOM     40  C   UNL A   1      45.532  44.793  26.911  1.00  0.00     0.016 A 
ATOM     41  C   UNL A   1      45.382  44.646  29.244  1.00  0.00     0.016 A 
ATOM     42  C   UNL A   1      44.902  43.548  26.870  1.00  0.00     0.010 A 
ATOM     43  C   UNL A   1      44.665  43.390  29.104  1.00  0.00     0.010 A 
ATOM     44  C   UNL A   1      44.422  42.735  27.875  1.00  0.00    -0.014 A 
BRANCH  44  45
ATOM     45  C   UNL A   1      44.316  41.144  27.534  1.00  0.00     0.031 A 
ATOM     46  C   UNL A   1      45.579  40.843  26.742  1.00  0.00     0.074 A 
ATOM     47  C   UNL A   1      43.721  39.943  27.991  1.00  0.00     0.049 A 
ATOM     48  N   UNL A   1      46.686  41.259  27.278  1.00  0.00    -0.248 NA
ATOM     49  C   UNL A   1      45.817  40.077  25.520  1.00  0.00     0.031 C 
ATOM     50  C   UNL A   1      43.698  38.662  27.219  1.00  0.00     0.029 A 
ATOM     51  N   UNL A   1      43.190  39.441  29.235  1.00  0.00    -0.354 N 
ATOM     52  C   UNL A   1      47.682  40.462  26.822  1.00  0.00     0.074 A 
ATOM     53  C   UNL A   1      47.153  39.896  25.584  1.00  0.00     0.031 C 
ATOM     54  C   UNL A   1      43.533  37.583  28.018  1.00  0.00     0.029 A 
ATOM     55  C   UNL A   1      43.454  38.012  29.406  1.00  0.00     0.049 A 
ATOM     56  H   UNL A   1      42.707  39.993  29.892  1.00  0.00     0.167 HD
ATOM     57  C   UNL A   1      48.520  39.903  27.755  1.00  0.00     0.034 A 
ATOM     58  C   UNL A   1      43.835  37.189  30.466  1.00  0.00     0.034 A 
ATOM     59  C   UNL A   1      47.837  39.748  29.033  1.00  0.00     0.049 A 
ATOM     60  C   UNL A   1      44.283  37.911  31.724  1.00  0.00     0.074 A 
ATOM     61  C   UNL A   1      46.609  39.145  29.102  1.00  0.00     0.029 A 
ATOM     62  N   UNL A   1      48.112  40.174  30.347  1.00  0.00    -0.354 N 
ATOM     63  N   UNL A   1      45.543  38.079  32.034  1.00  0.00    -0.248 NA
ATOM     64  C   UNL A   1      43.383  38.570  32.669  1.00  0.00     0.031 C 
ATOM     65  C   UNL A   1      45.993  39.884  30.069  1.00  0.00     0.029 A 
ATOM     66  C   UNL A   1      46.912  40.093  31.058  1.00  0.00     0.049 A 
ATOM     67  H   UNL A   1      48.983  40.472  30.697  1.00  0.00     0.167 HD
ATOM     68  C   UNL A   1      45.592  39.245  32.793  1.00  0.00     0.074 A 
ATOM     69  C   UNL A   1      44.250  39.320  33.375  1.00  0.00     0.031 C 
ATOM     70  C   UNL A   1      46.432  40.302  32.427  1.00  0.00     0.034 A 
BRANCH  57  71
ATOM     71  C   UNL A   1      49.654  39.056  27.382  1.00  0.00     0.023 A 
ATOM     72  C   UNL A   1      49.438  37.987  26.506  1.00  0.00     0.031 A 
ATOM     73  C   UNL A   1      50.884  39.160  28.042  1.00  0.00     0.131 A 
ATOM     74  C   UNL A   1      50.391  36.982  26.405  1.00  0.00     0.055 A 
ATOM     75  C   UNL A   1      51.859  38.180  27.895  1.00  0.00     0.041 A 
ATOM     76  F   UNL A   1      51.134  40.176  28.885  1.00  0.00    -0.206 F 
ATOM     77  C   UNL A   1      51.600  37.066  27.098  1.00  0.00     0.022 A 
BRANCH  74  78
ATOM     78  S   UNL A   1      49.927  35.483  25.507  1.00  0.00     0.124 S 
ATOM     79  O   UNL A   1      50.631  35.662  24.241  1.00  0.00    -0.237 OA
ATOM     80  O   UNL A   1      50.426  34.435  26.389  1.00  0.00    -0.237 OA
ATOM     81  O   UNL A   1      48.472  35.590  25.420  1.00  0.00    -0.744 OA
ENDBRANCH  74  78
ENDBRANCH  57  71
BRANCH  58  82
ATOM     82  C   UNL A   1      44.496  35.786  30.381  1.00  0.00     0.023 A 
ATOM     83  C   UNL A   1      45.751  35.502  29.792  1.00  0.00     0.031 A 
ATOM     84  C   UNL A   1      43.690  34.647  30.632  1.00  0.00     0.131 A 
ATOM     85  C   UNL A   1      46.104  34.158  29.448  1.00  0.00     0.055 A 
ATOM     86  C   UNL A   1      44.013  33.342  30.251  1.00  0.00     0.041 A 
ATOM     87  F   UNL A   1      42.525  34.773  31.256  1.00  0.00    -0.206 F 
ATOM     88  C   UNL A   1      45.225  33.089  29.643  1.00  0.00     0.022 A 
BRANCH  85  89
ATOM     89  S   UNL A   1      47.753  33.745  28.778  1.00  0.00     0.124 S 
ATOM     90  O   UNL A   1      48.238  32.741  29.721  1.00  0.00    -0.237 OA
ATOM     91  O   UNL A   1      47.440  33.254  27.438  1.00  0.00    -0.237 OA
ATOM     92  O   UNL A   1      48.473  35.018  28.802  1.00  0.00    -0.744 OA
ENDBRANCH  85  89
ENDBRANCH  58  82
BRANCH  70  93
ATOM     93  C   UNL A   1      46.090  41.702  32.898  1.00  0.00     0.023 A 
ATOM     94  C   UNL A   1      44.780  42.207  32.896  1.00  0.00     0.031 A 
ATOM     95  C   UNL A   1      47.111  42.609  33.263  1.00  0.00     0.131 A 
ATOM     96  C   UNL A   1      44.548  43.575  33.149  1.00  0.00     0.055 A 
ATOM     97  C   UNL A   1      46.873  43.954  33.547  1.00  0.00     0.041 A 
ATOM     98  F   UNL A   1      48.391  42.231  33.341  1.00  0.00    -0.206 F 
ATOM     99  C   UNL A   1      45.584  44.446  33.482  1.00  0.00     0.022 A 
BRANCH  96 100
ATOM    100  S   UNL A   1      42.861  44.222  33.009  1.00  0.00     0.124 S 
ATOM    101  O   UNL A   1      42.317  43.372  31.937  1.00  0.00    -0.237 OA
ATOM    102  O   UNL A   1      42.320  44.026  34.319  1.00  0.00    -0.237 OA
ATOM    103  O   UNL A   1      43.081  45.625  32.615  1.00  0.00    -0.744 OA
ENDBRANCH  96 100
ENDBRANCH  70  93
ENDBRANCH  44  45
ENDBRANCH  37  39
ENDBRANCH  36  37
ENDBRANCH  35  36
ENDBRANCH  34  35
ENDBRANCH  33  34
ENDBRANCH  32  33
ENDBRANCH   1  32
TORSDOF 23
ENDMDL
