MODEL 1
REMARK VINA RESULT:     -10.3      0.000      0.000
REMARK SMILES O=C(OCCOCCOCCOC(=O)[C@@H]1C=C[C@H](NC(=O)[C@@H]2Cc3ccccc3O2)C1)c1ccc(-c2c3nc(c(-c4cc(S(=O)(=O)[O-])ccc4F)c4ccc([nH]4)c(-c4cc(S(=O)(=O)[O-])ccc4F)c4nc(c(-c5cc(S(=O)(=O)[O-])ccc5F)c5ccc2[nH]5)C=C4)C=C3)cc1
REMARK SMILES IDX 7 1 6 2 5 3 4 4 3 5 2 6 1 7 32 8 33 9 94 10 34 11 93 12
REMARK SMILES IDX 35 13 36 14 37 15 87 16 38 17 92 18 86 19 88 20 39 21 91 22
REMARK SMILES IDX 85 23 84 24 40 26 72 27 52 28 71 29 53 30 56 31 70 32 89 33
REMARK SMILES IDX 54 34 55 35 69 37 90 38 57 39 41 40 42 41 50 42 43 43 49 44
REMARK SMILES IDX 51 45 48 46 44 47 45 48 46 49 47 50 73 51 74 52 82 53 75 54
REMARK SMILES IDX 81 55 83 56 80 57 76 58 77 59 78 60 79 61 58 62 59 63 67 64
REMARK SMILES IDX 60 65 66 66 68 67 65 68 61 69 62 70 63 71 64 72 8 73 9 74
REMARK SMILES IDX 10 75 11 76 12 77 13 78 14 79 15 80 16 81 31 82 17 83 18 84
REMARK SMILES IDX 19 85 20 86 21 88 22 89 23 90 30 91 24 92 29 93 25 94 28 95
REMARK SMILES IDX 26 96 27 97
REMARK H PARENT 88 25 56 36 19 87
REMARK Flexibility Score: inf
ROOT
ATOM      1  C   UNL A   1      31.954  29.778  25.010  1.00  0.00     0.188 C 
ENDROOT
BRANCH   1   2
ATOM      2  O   UNL A   1      31.263  30.788  25.726  1.00  0.00    -0.376 OA
BRANCH   2   3
ATOM      3  C   UNL A   1      32.072  31.426  26.707  1.00  0.00     0.202 C 
BRANCH   3   4
ATOM      4  C   UNL A   1      31.599  32.856  27.006  1.00  0.00     0.261 C 
BRANCH   4   5
ATOM      5  O   UNL A   1      32.689  33.779  27.218  1.00  0.00    -0.460 OA
BRANCH   5   6
ATOM      6  C   UNL A   1      33.466  34.000  28.307  1.00  0.00     0.338 C 
ATOM      7  O   UNL A   1      33.227  35.009  28.974  1.00  0.00    -0.246 OA
BRANCH   6   8
ATOM      8  C   UNL A   1      34.648  33.167  28.725  1.00  0.00     0.060 A 
ATOM      9  C   UNL A   1      34.596  31.921  29.351  1.00  0.00     0.016 A 
ATOM     10  C   UNL A   1      35.928  33.670  28.402  1.00  0.00     0.016 A 
ATOM     11  C   UNL A   1      35.744  31.181  29.617  1.00  0.00     0.010 A 
ATOM     12  C   UNL A   1      37.095  32.953  28.701  1.00  0.00     0.010 A 
ATOM     13  C   UNL A   1      36.997  31.706  29.326  1.00  0.00    -0.014 A 
BRANCH  13  14
ATOM     14  C   UNL A   1      38.160  31.045  29.946  1.00  0.00     0.031 A 
ATOM     15  C   UNL A   1      38.478  31.439  31.355  1.00  0.00     0.074 A 
ATOM     16  C   UNL A   1      38.789  30.023  29.339  1.00  0.00     0.049 A 
ATOM     17  N   UNL A   1      39.377  30.954  32.164  1.00  0.00    -0.248 NA
ATOM     18  C   UNL A   1      37.626  32.484  31.949  1.00  0.00     0.031 C 
ATOM     19  C   UNL A   1      38.409  29.461  28.049  1.00  0.00     0.029 A 
ATOM     20  N   UNL A   1      39.858  29.261  29.725  1.00  0.00    -0.354 N 
ATOM     21  C   UNL A   1      39.176  31.609  33.372  1.00  0.00     0.074 A 
ATOM     22  C   UNL A   1      38.093  32.544  33.186  1.00  0.00     0.031 C 
ATOM     23  C   UNL A   1      39.260  28.477  27.718  1.00  0.00     0.029 A 
ATOM     24  C   UNL A   1      40.258  28.351  28.771  1.00  0.00     0.049 A 
ATOM     25  H   UNL A   1      40.299  29.355  30.599  1.00  0.00     0.167 HD
ATOM     26  C   UNL A   1      39.846  31.433  34.533  1.00  0.00     0.034 A 
ATOM     27  C   UNL A   1      41.326  27.530  28.755  1.00  0.00     0.034 A 
ATOM     28  C   UNL A   1      40.973  30.549  34.650  1.00  0.00     0.049 A 
ATOM     29  C   UNL A   1      42.187  27.503  29.993  1.00  0.00     0.074 A 
ATOM     30  C   UNL A   1      41.813  30.353  35.728  1.00  0.00     0.029 A 
ATOM     31  N   UNL A   1      41.436  29.726  33.626  1.00  0.00    -0.354 N 
ATOM     32  N   UNL A   1      42.017  28.155  31.123  1.00  0.00    -0.248 NA
ATOM     33  C   UNL A   1      43.359  26.624  29.974  1.00  0.00     0.031 C 
ATOM     34  C   UNL A   1      42.829  29.478  35.330  1.00  0.00     0.029 A 
ATOM     35  C   UNL A   1      42.573  29.054  34.034  1.00  0.00     0.049 A 
ATOM     36  H   UNL A   1      41.014  29.637  32.741  1.00  0.00     0.167 HD
ATOM     37  C   UNL A   1      43.038  27.730  31.965  1.00  0.00     0.074 A 
ATOM     38  C   UNL A   1      43.809  26.759  31.212  1.00  0.00     0.031 C 
ATOM     39  C   UNL A   1      43.315  28.098  33.243  1.00  0.00     0.034 A 
BRANCH  26  40
ATOM     40  C   UNL A   1      39.434  32.306  35.689  1.00  0.00     0.023 A 
ATOM     41  C   UNL A   1      40.054  33.544  35.941  1.00  0.00     0.031 A 
ATOM     42  C   UNL A   1      38.479  31.845  36.610  1.00  0.00     0.131 A 
ATOM     43  C   UNL A   1      39.758  34.245  37.121  1.00  0.00     0.055 A 
ATOM     44  C   UNL A   1      38.135  32.581  37.743  1.00  0.00     0.041 A 
ATOM     45  F   UNL A   1      37.891  30.650  36.441  1.00  0.00    -0.206 F 
ATOM     46  C   UNL A   1      38.785  33.783  38.012  1.00  0.00     0.022 A 
BRANCH  43  47
ATOM     47  S   UNL A   1      40.768  35.688  37.555  1.00  0.00     0.124 S 
ATOM     48  O   UNL A   1      41.278  35.308  38.869  1.00  0.00    -0.237 OA
ATOM     49  O   UNL A   1      41.749  35.726  36.476  1.00  0.00    -0.237 OA
ATOM     50  O   UNL A   1      39.807  36.790  37.562  1.00  0.00    -0.744 OA
ENDBRANCH  43  47
ENDBRANCH  26  40
BRANCH  27  51
ATOM     51  C   UNL A   1      41.668  26.726  27.543  1.00  0.00     0.023 A 
ATOM     52  C   UNL A   1      41.402  25.349  27.468  1.00  0.00     0.031 A 
ATOM     53  C   UNL A   1      42.343  27.317  26.456  1.00  0.00     0.131 A 
ATOM     54  C   UNL A   1      41.857  24.603  26.366  1.00  0.00     0.055 A 
ATOM     55  C   UNL A   1      42.745  26.583  25.339  1.00  0.00     0.041 A 
ATOM     56  F   UNL A   1      42.627  28.630  26.465  1.00  0.00    -0.206 F 
ATOM     57  C   UNL A   1      42.518  25.212  25.297  1.00  0.00     0.022 A 
BRANCH  54  58
ATOM     58  S   UNL A   1      41.673  22.797  26.402  1.00  0.00     0.124 S 
ATOM     59  O   UNL A   1      40.245  22.639  26.156  1.00  0.00    -0.237 OA
ATOM     60  O   UNL A   1      42.561  22.385  25.321  1.00  0.00    -0.237 OA
ATOM     61  O   UNL A   1      42.119  22.437  27.747  1.00  0.00    -0.744 OA
ENDBRANCH  54  58
ENDBRANCH  27  51
BRANCH  39  62
ATOM     62  C   UNL A   1      44.475  27.405  33.905  1.00  0.00     0.023 A 
ATOM     63  C   UNL A   1      44.321  26.162  34.541  1.00  0.00     0.031 A 
ATOM     64  C   UNL A   1      45.748  28.001  33.900  1.00  0.00     0.131 A 
ATOM     65  C   UNL A   1      45.411  25.583  35.201  1.00  0.00     0.055 A 
ATOM     66  C   UNL A   1      46.846  27.383  34.495  1.00  0.00     0.041 A 
ATOM     67  F   UNL A   1      45.944  29.189  33.307  1.00  0.00    -0.206 F 
ATOM     68  C   UNL A   1      46.678  26.174  35.163  1.00  0.00     0.022 A 
BRANCH  65  69
ATOM     69  S   UNL A   1      45.123  24.100  36.201  1.00  0.00     0.124 S 
ATOM     70  O   UNL A   1      46.137  23.187  35.683  1.00  0.00    -0.237 OA
ATOM     71  O   UNL A   1      45.340  24.591  37.558  1.00  0.00    -0.237 OA
ATOM     72  O   UNL A   1      43.742  23.740  35.885  1.00  0.00    -0.744 OA
ENDBRANCH  65  69
ENDBRANCH  39  62
ENDBRANCH  13  14
ENDBRANCH   6   8
ENDBRANCH   5   6
ENDBRANCH   4   5
ENDBRANCH   3   4
ENDBRANCH   2   3
ENDBRANCH   1   2
BRANCH   1  73
ATOM     73  C   UNL A   1      31.435  28.380  25.290  1.00  0.00     0.188 C 
BRANCH  73  74
ATOM     74  O   UNL A   1      32.331  27.450  25.881  1.00  0.00    -0.376 OA
BRANCH  74  75
ATOM     75  C   UNL A   1      31.766  26.557  26.850  1.00  0.00     0.202 C 
BRANCH  75  76
ATOM     76  C   UNL A   1      31.267  25.206  26.316  1.00  0.00     0.261 C 
BRANCH  76  77
ATOM     77  O   UNL A   1      32.356  24.267  26.207  1.00  0.00    -0.463 OA
BRANCH  77  78
ATOM     78  C   UNL A   1      32.020  22.945  26.225  1.00  0.00     0.312 C 
ATOM     79  O   UNL A   1      30.937  22.496  25.859  1.00  0.00    -0.252 OA
BRANCH  78  80
ATOM     80  C   UNL A   1      33.144  22.076  26.797  1.00  0.00     0.124 C 
ATOM     81  C   UNL A   1      34.312  22.867  27.302  1.00  0.00    -0.014 C 
ATOM     82  C   UNL A   1      33.796  21.142  25.753  1.00  0.00     0.048 C 
ATOM     83  C   UNL A   1      35.468  22.547  26.715  1.00  0.00    -0.006 C 
ATOM     84  C   UNL A   1      35.299  21.450  25.732  1.00  0.00     0.106 C 
BRANCH  84  85
ATOM     85  N   UNL A   1      35.937  21.793  24.468  1.00  0.00    -0.347 N 
ATOM     86  C   UNL A   1      35.718  22.713  23.483  1.00  0.00     0.261 C 
ATOM     87  H   UNL A   1      36.716  21.223  24.278  1.00  0.00     0.164 HD
ATOM     88  O   UNL A   1      36.562  22.786  22.585  1.00  0.00    -0.271 OA
BRANCH  86  89
ATOM     89  C   UNL A   1      34.483  23.605  23.497  1.00  0.00     0.266 C 
ATOM     90  C   UNL A   1      33.246  22.914  22.917  1.00  0.00     0.095 C 
ATOM     91  O   UNL A   1      34.635  24.833  22.727  1.00  0.00    -0.480 OA
ATOM     92  C   UNL A   1      32.442  24.143  22.717  1.00  0.00    -0.002 A 
ATOM     93  C   UNL A   1      33.320  25.200  22.522  1.00  0.00     0.123 A 
ATOM     94  C   UNL A   1      31.080  24.355  22.790  1.00  0.00     0.008 A 
ATOM     95  C   UNL A   1      32.877  26.490  22.313  1.00  0.00     0.047 A 
ATOM     96  C   UNL A   1      30.614  25.669  22.672  1.00  0.00     0.001 A 
ATOM     97  C   UNL A   1      31.506  26.727  22.426  1.00  0.00     0.004 A 
ENDBRANCH  86  89
ENDBRANCH  84  85
ENDBRANCH  78  80
ENDBRANCH  77  78
ENDBRANCH  76  77
ENDBRANCH  75  76
ENDBRANCH  74  75
ENDBRANCH  73  74
ENDBRANCH   1  73
TORSDOF 22
ENDMDL
MODEL 2
REMARK VINA RESULT:     -10.3      4.784     10.262
REMARK SMILES O=C(OCCOCCOCCOC(=O)[C@@H]1C=C[C@H](NC(=O)[C@@H]2Cc3ccccc3O2)C1)c1ccc(-c2c3nc(c(-c4cc(S(=O)(=O)[O-])ccc4F)c4ccc([nH]4)c(-c4cc(S(=O)(=O)[O-])ccc4F)c4nc(c(-c5cc(S(=O)(=O)[O-])ccc5F)c5ccc2[nH]5)C=C4)C=C3)cc1
REMARK SMILES IDX 7 1 6 2 5 3 4 4 3 5 2 6 1 7 32 8 33 9 94 10 34 11 93 12
REMARK SMILES IDX 35 13 36 14 37 15 87 16 38 17 92 18 86 19 88 20 39 21 91 22
REMARK SMILES IDX 85 23 84 24 40 26 72 27 52 28 71 29 53 30 56 31 70 32 89 33
REMARK SMILES IDX 54 34 55 35 69 37 90 38 57 39 41 40 42 41 50 42 43 43 49 44
REMARK SMILES IDX 51 45 48 46 44 47 45 48 46 49 47 50 73 51 74 52 82 53 75 54
REMARK SMILES IDX 81 55 83 56 80 57 76 58 77 59 78 60 79 61 58 62 59 63 67 64
REMARK SMILES IDX 60 65 66 66 68 67 65 68 61 69 62 70 63 71 64 72 8 73 9 74
REMARK SMILES IDX 10 75 11 76 12 77 13 78 14 79 15 80 16 81 31 82 17 83 18 84
REMARK SMILES IDX 19 85 20 86 21 88 22 89 23 90 30 91 24 92 29 93 25 94 28 95
REMARK SMILES IDX 26 96 27 97
REMARK H PARENT 88 25 56 36 19 87
REMARK Flexibility Score: inf
ROOT
ATOM      1  C   UNL A   1      36.858  23.190  24.612  1.00  0.00     0.188 C 
ENDROOT
BRANCH   1   2
ATOM      2  O   UNL A   1      37.552  21.992  24.304  1.00  0.00    -0.376 OA
BRANCH   2   3
ATOM      3  C   UNL A   1      37.851  21.210  25.453  1.00  0.00     0.202 C 
BRANCH   3   4
ATOM      4  C   UNL A   1      38.608  19.923  25.098  1.00  0.00     0.261 C 
BRANCH   4   5
ATOM      5  O   UNL A   1      39.586  19.550  26.093  1.00  0.00    -0.460 OA
BRANCH   5   6
ATOM      6  C   UNL A   1      40.900  19.864  26.208  1.00  0.00     0.338 C 
ATOM      7  O   UNL A   1      41.713  18.953  26.040  1.00  0.00    -0.246 OA
BRANCH   6   8
ATOM      8  C   UNL A   1      41.449  21.208  26.604  1.00  0.00     0.060 A 
ATOM      9  C   UNL A   1      41.731  21.632  27.904  1.00  0.00     0.016 A 
ATOM     10  C   UNL A   1      41.760  22.103  25.556  1.00  0.00     0.016 A 
ATOM     11  C   UNL A   1      42.326  22.862  28.166  1.00  0.00     0.010 A 
ATOM     12  C   UNL A   1      42.321  23.362  25.809  1.00  0.00     0.010 A 
ATOM     13  C   UNL A   1      42.591  23.745  27.126  1.00  0.00    -0.014 A 
BRANCH  13  14
ATOM     14  C   UNL A   1      42.882  25.143  27.494  1.00  0.00     0.031 A 
ATOM     15  C   UNL A   1      44.242  25.658  27.137  1.00  0.00     0.074 A 
ATOM     16  C   UNL A   1      41.921  25.956  27.966  1.00  0.00     0.049 A 
ATOM     17  N   UNL A   1      44.726  26.862  27.258  1.00  0.00    -0.248 NA
ATOM     18  C   UNL A   1      45.160  24.694  26.505  1.00  0.00     0.031 C 
ATOM     19  C   UNL A   1      40.526  25.572  28.156  1.00  0.00     0.029 A 
ATOM     20  N   UNL A   1      41.953  27.269  28.350  1.00  0.00    -0.354 N 
ATOM     21  C   UNL A   1      45.990  26.809  26.686  1.00  0.00     0.074 A 
ATOM     22  C   UNL A   1      46.212  25.453  26.244  1.00  0.00     0.031 C 
ATOM     23  C   UNL A   1      39.841  26.606  28.670  1.00  0.00     0.029 A 
ATOM     24  C   UNL A   1      40.757  27.723  28.860  1.00  0.00     0.049 A 
ATOM     25  H   UNL A   1      42.754  27.834  28.269  1.00  0.00     0.167 HD
ATOM     26  C   UNL A   1      46.881  27.816  26.546  1.00  0.00     0.034 A 
ATOM     27  C   UNL A   1      40.455  28.904  29.434  1.00  0.00     0.034 A 
ATOM     28  C   UNL A   1      46.650  29.132  27.076  1.00  0.00     0.049 A 
ATOM     29  C   UNL A   1      41.540  29.952  29.453  1.00  0.00     0.074 A 
ATOM     30  C   UNL A   1      47.505  30.216  27.106  1.00  0.00     0.029 A 
ATOM     31  N   UNL A   1      45.472  29.532  27.701  1.00  0.00    -0.354 N 
ATOM     32  N   UNL A   1      42.752  29.886  28.944  1.00  0.00    -0.248 NA
ATOM     33  C   UNL A   1      41.223  31.232  30.091  1.00  0.00     0.031 C 
ATOM     34  C   UNL A   1      46.876  31.241  27.820  1.00  0.00     0.029 A 
ATOM     35  C   UNL A   1      45.593  30.832  28.157  1.00  0.00     0.049 A 
ATOM     36  H   UNL A   1      44.669  28.970  27.803  1.00  0.00     0.167 HD
ATOM     37  C   UNL A   1      43.325  31.132  29.164  1.00  0.00     0.074 A 
ATOM     38  C   UNL A   1      42.320  31.930  29.841  1.00  0.00     0.031 C 
ATOM     39  C   UNL A   1      44.563  31.585  28.835  1.00  0.00     0.034 A 
BRANCH  26  40
ATOM     40  C   UNL A   1      48.199  27.467  25.908  1.00  0.00     0.023 A 
ATOM     41  C   UNL A   1      48.432  27.661  24.533  1.00  0.00     0.031 A 
ATOM     42  C   UNL A   1      49.200  26.837  26.666  1.00  0.00     0.131 A 
ATOM     43  C   UNL A   1      49.609  27.167  23.949  1.00  0.00     0.055 A 
ATOM     44  C   UNL A   1      50.400  26.416  26.094  1.00  0.00     0.041 A 
ATOM     45  F   UNL A   1      49.011  26.588  27.971  1.00  0.00    -0.206 F 
ATOM     46  C   UNL A   1      50.606  26.568  24.725  1.00  0.00     0.022 A 
BRANCH  43  47
ATOM     47  S   UNL A   1      49.758  27.182  22.141  1.00  0.00     0.124 S 
ATOM     48  O   UNL A   1      49.461  28.578  21.831  1.00  0.00    -0.237 OA
ATOM     49  O   UNL A   1      51.139  26.762  21.932  1.00  0.00    -0.237 OA
ATOM     50  O   UNL A   1      48.744  26.224  21.705  1.00  0.00    -0.744 OA
ENDBRANCH  43  47
ENDBRANCH  26  40
BRANCH  27  51
ATOM     51  C   UNL A   1      39.123  29.141  30.070  1.00  0.00     0.023 A 
ATOM     52  C   UNL A   1      38.150  29.955  29.469  1.00  0.00     0.031 A 
ATOM     53  C   UNL A   1      38.830  28.608  31.341  1.00  0.00     0.131 A 
ATOM     54  C   UNL A   1      36.963  30.259  30.158  1.00  0.00     0.055 A 
ATOM     55  C   UNL A   1      37.627  28.868  32.000  1.00  0.00     0.041 A 
ATOM     56  F   UNL A   1      39.719  27.821  31.971  1.00  0.00    -0.206 F 
ATOM     57  C   UNL A   1      36.690  29.713  31.415  1.00  0.00     0.022 A 
BRANCH  54  58
ATOM     58  S   UNL A   1      35.823  31.473  29.436  1.00  0.00     0.124 S 
ATOM     59  O   UNL A   1      35.070  31.908  30.606  1.00  0.00    -0.237 OA
ATOM     60  O   UNL A   1      36.747  32.447  28.867  1.00  0.00    -0.237 OA
ATOM     61  O   UNL A   1      35.066  30.689  28.461  1.00  0.00    -0.744 OA
ENDBRANCH  54  58
ENDBRANCH  27  51
BRANCH  39  62
ATOM     62  C   UNL A   1      44.864  33.021  29.169  1.00  0.00     0.023 A 
ATOM     63  C   UNL A   1      45.461  33.382  30.387  1.00  0.00     0.031 A 
ATOM     64  C   UNL A   1      44.546  34.039  28.252  1.00  0.00     0.131 A 
ATOM     65  C   UNL A   1      45.663  34.735  30.685  1.00  0.00     0.055 A 
ATOM     66  C   UNL A   1      44.819  35.378  28.524  1.00  0.00     0.041 A 
ATOM     67  F   UNL A   1      43.972  33.744  27.074  1.00  0.00    -0.206 F 
ATOM     68  C   UNL A   1      45.368  35.734  29.753  1.00  0.00     0.022 A 
BRANCH  65  69
ATOM     69  S   UNL A   1      46.220  35.175  32.351  1.00  0.00     0.124 S 
ATOM     70  O   UNL A   1      47.434  34.376  32.484  1.00  0.00    -0.237 OA
ATOM     71  O   UNL A   1      46.416  36.617  32.245  1.00  0.00    -0.237 OA
ATOM     72  O   UNL A   1      45.107  34.762  33.203  1.00  0.00    -0.744 OA
ENDBRANCH  65  69
ENDBRANCH  39  62
ENDBRANCH  13  14
ENDBRANCH   6   8
ENDBRANCH   5   6
ENDBRANCH   4   5
ENDBRANCH   3   4
ENDBRANCH   2   3
ENDBRANCH   1   2
BRANCH   1  73
ATOM     73  C   UNL A   1      35.508  23.294  23.928  1.00  0.00     0.188 C 
BRANCH  73  74
ATOM     74  O   UNL A   1      34.769  24.495  24.107  1.00  0.00    -0.376 OA
BRANCH  74  75
ATOM     75  C   UNL A   1      33.864  24.842  23.051  1.00  0.00     0.202 C 
BRANCH  75  76
ATOM     76  C   UNL A   1      33.594  26.341  22.855  1.00  0.00     0.261 C 
BRANCH  76  77
ATOM     77  O   UNL A   1      32.364  26.727  23.500  1.00  0.00    -0.463 OA
BRANCH  77  78
ATOM     78  C   UNL A   1      31.213  26.472  22.813  1.00  0.00     0.312 C 
ATOM     79  O   UNL A   1      30.972  26.884  21.682  1.00  0.00    -0.252 OA
BRANCH  78  80
ATOM     80  C   UNL A   1      30.228  25.636  23.635  1.00  0.00     0.124 C 
ATOM     81  C   UNL A   1      29.848  26.272  24.938  1.00  0.00    -0.014 C 
ATOM     82  C   UNL A   1      30.796  24.271  24.081  1.00  0.00     0.048 C 
ATOM     83  C   UNL A   1      30.119  25.513  26.002  1.00  0.00    -0.006 C 
ATOM     84  C   UNL A   1      30.697  24.205  25.611  1.00  0.00     0.106 C 
BRANCH  84  85
ATOM     85  N   UNL A   1      31.895  23.922  26.390  1.00  0.00    -0.347 N 
ATOM     86  C   UNL A   1      32.765  22.874  26.495  1.00  0.00     0.261 C 
ATOM     87  H   UNL A   1      32.137  24.668  26.984  1.00  0.00     0.164 HD
ATOM     88  O   UNL A   1      33.764  23.043  27.199  1.00  0.00    -0.271 OA
BRANCH  86  89
ATOM     89  C   UNL A   1      32.504  21.557  25.775  1.00  0.00     0.266 C 
ATOM     90  C   UNL A   1      33.570  20.499  26.070  1.00  0.00     0.095 C 
ATOM     91  O   UNL A   1      32.471  21.678  24.322  1.00  0.00    -0.480 OA
ATOM     92  C   UNL A   1      33.232  19.598  24.941  1.00  0.00    -0.002 A 
ATOM     93  C   UNL A   1      32.682  20.371  23.928  1.00  0.00     0.123 A 
ATOM     94  C   UNL A   1      33.302  18.224  24.828  1.00  0.00     0.008 A 
ATOM     95  C   UNL A   1      32.255  19.820  22.738  1.00  0.00     0.047 A 
ATOM     96  C   UNL A   1      32.792  17.636  23.666  1.00  0.00     0.001 A 
ATOM     97  C   UNL A   1      32.281  18.429  22.625  1.00  0.00     0.004 A 
ENDBRANCH  86  89
ENDBRANCH  84  85
ENDBRANCH  78  80
ENDBRANCH  77  78
ENDBRANCH  76  77
ENDBRANCH  75  76
ENDBRANCH  74  75
ENDBRANCH  73  74
ENDBRANCH   1  73
TORSDOF 22
ENDMDL
MODEL 3
REMARK VINA RESULT:      -9.9      4.827      7.488
REMARK SMILES O=C(OCCOCCOCCOC(=O)[C@@H]1C=C[C@H](NC(=O)[C@@H]2Cc3ccccc3O2)C1)c1ccc(-c2c3nc(c(-c4cc(S(=O)(=O)[O-])ccc4F)c4ccc([nH]4)c(-c4cc(S(=O)(=O)[O-])ccc4F)c4nc(c(-c5cc(S(=O)(=O)[O-])ccc5F)c5ccc2[nH]5)C=C4)C=C3)cc1
REMARK SMILES IDX 7 1 6 2 5 3 4 4 3 5 2 6 1 7 32 8 33 9 94 10 34 11 93 12
REMARK SMILES IDX 35 13 36 14 37 15 87 16 38 17 92 18 86 19 88 20 39 21 91 22
REMARK SMILES IDX 85 23 84 24 40 26 72 27 52 28 71 29 53 30 56 31 70 32 89 33
REMARK SMILES IDX 54 34 55 35 69 37 90 38 57 39 41 40 42 41 50 42 43 43 49 44
REMARK SMILES IDX 51 45 48 46 44 47 45 48 46 49 47 50 73 51 74 52 82 53 75 54
REMARK SMILES IDX 81 55 83 56 80 57 76 58 77 59 78 60 79 61 58 62 59 63 67 64
REMARK SMILES IDX 60 65 66 66 68 67 65 68 61 69 62 70 63 71 64 72 8 73 9 74
REMARK SMILES IDX 10 75 11 76 12 77 13 78 14 79 15 80 16 81 31 82 17 83 18 84
REMARK SMILES IDX 19 85 20 86 21 88 22 89 23 90 30 91 24 92 29 93 25 94 28 95
REMARK SMILES IDX 26 96 27 97
REMARK H PARENT 88 25 56 36 19 87
REMARK Flexibility Score: inf
ROOT
ATOM      1  C   UNL A   1      34.673  31.867  29.295  1.00  0.00     0.188 C 
ENDROOT
BRANCH   1   2
ATOM      2  O   UNL A   1      34.742  33.283  29.322  1.00  0.00    -0.376 OA
BRANCH   2   3
ATOM      3  C   UNL A   1      34.500  33.829  30.613  1.00  0.00     0.202 C 
BRANCH   3   4
ATOM      4  C   UNL A   1      34.523  32.755  31.709  1.00  0.00     0.261 C 
BRANCH   4   5
ATOM      5  O   UNL A   1      35.466  33.043  32.763  1.00  0.00    -0.460 OA
BRANCH   5   6
ATOM      6  C   UNL A   1      36.570  32.371  33.175  1.00  0.00     0.338 C 
ATOM      7  O   UNL A   1      36.655  32.109  34.376  1.00  0.00    -0.246 OA
BRANCH   6   8
ATOM      8  C   UNL A   1      37.740  31.990  32.307  1.00  0.00     0.060 A 
ATOM      9  C   UNL A   1      37.906  32.318  30.960  1.00  0.00     0.016 A 
ATOM     10  C   UNL A   1      38.792  31.284  32.930  1.00  0.00     0.016 A 
ATOM     11  C   UNL A   1      39.067  32.001  30.262  1.00  0.00     0.010 A 
ATOM     12  C   UNL A   1      39.950  30.922  32.228  1.00  0.00     0.010 A 
ATOM     13  C   UNL A   1      40.078  31.273  30.881  1.00  0.00    -0.014 A 
BRANCH  13  14
ATOM     14  C   UNL A   1      41.100  30.672  30.005  1.00  0.00     0.031 A 
ATOM     15  C   UNL A   1      42.321  31.497  29.740  1.00  0.00     0.074 A 
ATOM     16  C   UNL A   1      41.016  29.389  29.611  1.00  0.00     0.049 A 
ATOM     17  N   UNL A   1      43.405  31.182  29.090  1.00  0.00    -0.248 NA
ATOM     18  C   UNL A   1      42.342  32.843  30.340  1.00  0.00     0.031 C 
ATOM     19  C   UNL A   1      39.950  28.470  29.993  1.00  0.00     0.029 A 
ATOM     20  N   UNL A   1      41.839  28.627  28.828  1.00  0.00    -0.354 N 
ATOM     21  C   UNL A   1      44.250  32.274  29.232  1.00  0.00     0.074 A 
ATOM     22  C   UNL A   1      43.547  33.271  30.004  1.00  0.00     0.031 C 
ATOM     23  C   UNL A   1      40.149  27.280  29.404  1.00  0.00     0.029 A 
ATOM     24  C   UNL A   1      41.354  27.360  28.588  1.00  0.00     0.049 A 
ATOM     25  H   UNL A   1      42.696  28.953  28.470  1.00  0.00     0.167 HD
ATOM     26  C   UNL A   1      45.507  32.419  28.756  1.00  0.00     0.034 A 
ATOM     27  C   UNL A   1      41.828  26.391  27.781  1.00  0.00     0.034 A 
ATOM     28  C   UNL A   1      46.136  31.432  27.922  1.00  0.00     0.049 A 
ATOM     29  C   UNL A   1      43.141  26.660  27.089  1.00  0.00     0.074 A 
ATOM     30  C   UNL A   1      47.357  31.492  27.279  1.00  0.00     0.029 A 
ATOM     31  N   UNL A   1      45.569  30.204  27.591  1.00  0.00    -0.354 N 
ATOM     32  N   UNL A   1      43.922  27.713  27.196  1.00  0.00    -0.248 NA
ATOM     33  C   UNL A   1      43.652  25.617  26.197  1.00  0.00     0.031 C 
ATOM     34  C   UNL A   1      47.489  30.340  26.497  1.00  0.00     0.029 A 
ATOM     35  C   UNL A   1      46.395  29.517  26.721  1.00  0.00     0.049 A 
ATOM     36  H   UNL A   1      44.704  29.874  27.930  1.00  0.00     0.167 HD
ATOM     37  C   UNL A   1      45.039  27.439  26.416  1.00  0.00     0.074 A 
ATOM     38  C   UNL A   1      44.831  26.116  25.857  1.00  0.00     0.031 C 
ATOM     39  C   UNL A   1      46.140  28.200  26.183  1.00  0.00     0.034 A 
BRANCH  26  40
ATOM     40  C   UNL A   1      46.189  33.731  29.038  1.00  0.00     0.023 A 
ATOM     41  C   UNL A   1      46.171  34.791  28.111  1.00  0.00     0.031 A 
ATOM     42  C   UNL A   1      46.953  33.887  30.205  1.00  0.00     0.131 A 
ATOM     43  C   UNL A   1      46.958  35.930  28.339  1.00  0.00     0.055 A 
ATOM     44  C   UNL A   1      47.674  35.053  30.462  1.00  0.00     0.041 A 
ATOM     45  F   UNL A   1      47.042  32.891  31.101  1.00  0.00    -0.206 F 
ATOM     46  C   UNL A   1      47.690  36.079  29.520  1.00  0.00     0.022 A 
BRANCH  43  47
ATOM     47  S   UNL A   1      47.134  37.150  27.007  1.00  0.00     0.124 S 
ATOM     48  O   UNL A   1      47.793  36.362  25.970  1.00  0.00    -0.237 OA
ATOM     49  O   UNL A   1      45.751  37.528  26.739  1.00  0.00    -0.237 OA
ATOM     50  O   UNL A   1      47.960  38.196  27.606  1.00  0.00    -0.744 OA
ENDBRANCH  43  47
ENDBRANCH  26  40
BRANCH  27  51
ATOM     51  C   UNL A   1      41.057  25.134  27.542  1.00  0.00     0.023 A 
ATOM     52  C   UNL A   1      41.641  23.867  27.697  1.00  0.00     0.031 A 
ATOM     53  C   UNL A   1      39.728  25.184  27.076  1.00  0.00     0.131 A 
ATOM     54  C   UNL A   1      40.924  22.711  27.336  1.00  0.00     0.055 A 
ATOM     55  C   UNL A   1      39.000  24.032  26.771  1.00  0.00     0.041 A 
ATOM     56  F   UNL A   1      39.110  26.365  26.907  1.00  0.00    -0.206 F 
ATOM     57  C   UNL A   1      39.605  22.785  26.884  1.00  0.00     0.022 A 
BRANCH  54  58
ATOM     58  S   UNL A   1      41.782  21.112  27.360  1.00  0.00     0.124 S 
ATOM     59  O   UNL A   1      40.778  20.245  27.964  1.00  0.00    -0.237 OA
ATOM     60  O   UNL A   1      42.049  20.897  25.942  1.00  0.00    -0.237 OA
ATOM     61  O   UNL A   1      42.961  21.371  28.184  1.00  0.00    -0.744 OA
ENDBRANCH  54  58
ENDBRANCH  27  51
BRANCH  39  62
ATOM     62  C   UNL A   1      47.212  27.587  25.323  1.00  0.00     0.023 A 
ATOM     63  C   UNL A   1      47.378  27.961  23.980  1.00  0.00     0.031 A 
ATOM     64  C   UNL A   1      48.074  26.615  25.858  1.00  0.00     0.131 A 
ATOM     65  C   UNL A   1      48.345  27.318  23.197  1.00  0.00     0.055 A 
ATOM     66  C   UNL A   1      49.083  26.033  25.093  1.00  0.00     0.041 A 
ATOM     67  F   UNL A   1      47.954  26.222  27.137  1.00  0.00    -0.206 F 
ATOM     68  C   UNL A   1      49.214  26.373  23.750  1.00  0.00     0.022 A 
BRANCH  65  69
ATOM     69  S   UNL A   1      48.378  27.660  21.418  1.00  0.00     0.124 S 
ATOM     70  O   UNL A   1      49.466  28.627  21.318  1.00  0.00    -0.237 OA
ATOM     71  O   UNL A   1      48.642  26.342  20.851  1.00  0.00    -0.237 OA
ATOM     72  O   UNL A   1      47.044  28.195  21.149  1.00  0.00    -0.744 OA
ENDBRANCH  65  69
ENDBRANCH  39  62
ENDBRANCH  13  14
ENDBRANCH   6   8
ENDBRANCH   5   6
ENDBRANCH   4   5
ENDBRANCH   3   4
ENDBRANCH   2   3
ENDBRANCH   1   2
BRANCH   1  73
ATOM     73  C   UNL A   1      34.812  31.285  27.901  1.00  0.00     0.188 C 
BRANCH  73  74
ATOM     74  O   UNL A   1      33.618  30.993  27.187  1.00  0.00    -0.376 OA
BRANCH  74  75
ATOM     75  C   UNL A   1      33.308  29.604  27.019  1.00  0.00     0.202 C 
BRANCH  75  76
ATOM     76  C   UNL A   1      33.820  28.947  25.728  1.00  0.00     0.261 C 
BRANCH  76  77
ATOM     77  O   UNL A   1      32.809  28.095  25.153  1.00  0.00    -0.463 OA
BRANCH  77  78
ATOM     78  C   UNL A   1      32.694  28.124  23.794  1.00  0.00     0.312 C 
ATOM     79  O   UNL A   1      33.358  28.844  23.053  1.00  0.00    -0.252 OA
BRANCH  78  80
ATOM     80  C   UNL A   1      31.602  27.175  23.291  1.00  0.00     0.124 C 
ATOM     81  C   UNL A   1      30.249  27.463  23.868  1.00  0.00    -0.014 C 
ATOM     82  C   UNL A   1      31.831  25.701  23.691  1.00  0.00     0.048 C 
ATOM     83  C   UNL A   1      29.713  26.426  24.517  1.00  0.00    -0.006 C 
ATOM     84  C   UNL A   1      30.590  25.233  24.464  1.00  0.00     0.106 C 
BRANCH  84  85
ATOM     85  N   UNL A   1      30.755  24.659  25.792  1.00  0.00    -0.347 N 
ATOM     86  C   UNL A   1      31.703  23.897  26.415  1.00  0.00     0.261 C 
ATOM     87  H   UNL A   1      30.000  24.873  26.386  1.00  0.00     0.164 HD
ATOM     88  O   UNL A   1      31.552  23.691  27.623  1.00  0.00    -0.271 OA
BRANCH  86  89
ATOM     89  C   UNL A   1      32.888  23.328  25.646  1.00  0.00     0.266 C 
ATOM     90  C   UNL A   1      33.389  22.002  26.224  1.00  0.00     0.095 C 
ATOM     91  O   UNL A   1      34.053  24.204  25.626  1.00  0.00    -0.480 OA
ATOM     92  C   UNL A   1      34.702  22.001  25.535  1.00  0.00    -0.002 A 
ATOM     93  C   UNL A   1      35.063  23.320  25.304  1.00  0.00     0.123 A 
ATOM     94  C   UNL A   1      35.476  20.959  25.064  1.00  0.00     0.008 A 
ATOM     95  C   UNL A   1      36.240  23.655  24.668  1.00  0.00     0.047 A 
ATOM     96  C   UNL A   1      36.628  21.276  24.338  1.00  0.00     0.001 A 
ATOM     97  C   UNL A   1      37.012  22.614  24.149  1.00  0.00     0.004 A 
ENDBRANCH  86  89
ENDBRANCH  84  85
ENDBRANCH  78  80
ENDBRANCH  77  78
ENDBRANCH  76  77
ENDBRANCH  75  76
ENDBRANCH  74  75
ENDBRANCH  73  74
ENDBRANCH   1  73
TORSDOF 22
ENDMDL
