MODEL 1
REMARK VINA RESULT:     -10.1      0.000      0.000
REMARK SMILES CCc1ccc(C(=O)NCc2ccc(C(=O)OCCOCCOCCOC(=O)c3ccc(-c4c5nc(c(-c6cc(S(=O)(=O)[O-])ccc6F)c6ccc([nH]6)c(-c6cc(S(=O)(=O)[O-])ccc6F)c6nc(c(-c7cc(S(=O)(=O)[O-])ccc7F)c7ccc4[nH]7)C=C6)C=C5)cc3)cc2)cc1
REMARK SMILES IDX 21 1 20 2 19 3 18 4 17 5 15 6 16 7 14 8 11 9 12 10 93 11
REMARK SMILES IDX 13 12 92 13 10 14 9 15 7 16 8 17 6 19 3 20 4 21 95 22 5 23
REMARK SMILES IDX 94 24 2 25 1 26 22 27 23 28 24 29 25 30 26 31 27 32 28 33
REMARK SMILES IDX 29 34 30 35 91 36 31 37 90 38 32 39 33 40 34 41 84 42 35 43
REMARK SMILES IDX 89 44 83 45 85 46 36 47 88 48 82 49 81 50 37 52 69 53 49 54
REMARK SMILES IDX 68 55 50 56 53 57 67 58 86 59 51 60 52 61 66 63 87 64 54 65
REMARK SMILES IDX 38 66 39 67 47 68 40 69 46 70 48 71 45 72 41 73 42 74 43 75
REMARK SMILES IDX 44 76 70 77 71 78 79 79 72 80 78 81 80 82 77 83 73 84 74 85
REMARK SMILES IDX 75 86 76 87 55 88 56 89 64 90 57 91 63 92 65 93 62 94 58 95
REMARK SMILES IDX 59 96 60 97 61 98
REMARK H PARENT 9 18 85 51 53 62
REMARK Flexibility Score: inf
ROOT
ATOM      1  C   UNL A   1      38.795  22.907  26.281  1.00  0.00     0.188 C 
ENDROOT
BRANCH   1   2
ATOM      2  O   UNL A   1      37.398  22.936  26.097  1.00  0.00    -0.376 OA
BRANCH   2   3
ATOM      3  C   UNL A   1      36.716  21.855  25.485  1.00  0.00     0.202 C 
BRANCH   3   4
ATOM      4  C   UNL A   1      35.310  21.347  25.852  1.00  0.00     0.261 C 
BRANCH   4   5
ATOM      5  O   UNL A   1      34.776  20.260  25.093  1.00  0.00    -0.460 OA
BRANCH   5   6
ATOM      6  C   UNL A   1      33.456  20.025  25.297  1.00  0.00     0.338 C 
ATOM      7  O   UNL A   1      32.972  19.137  25.983  1.00  0.00    -0.246 OA
BRANCH   6   8
ATOM      8  C   UNL A   1      32.636  21.097  24.698  1.00  0.00     0.060 A 
ATOM      9  C   UNL A   1      31.379  23.293  23.476  1.00  0.00    -0.029 A 
ATOM     10  C   UNL A   1      32.092  22.358  22.710  1.00  0.00     0.006 A 
ATOM     11  C   UNL A   1      31.217  23.046  24.853  1.00  0.00     0.006 A 
ATOM     12  C   UNL A   1      32.729  21.276  23.316  1.00  0.00     0.016 A 
ATOM     13  C   UNL A   1      31.834  21.946  25.463  1.00  0.00     0.016 A 
BRANCH   9  14
ATOM     14  C   UNL A   1      30.934  24.623  22.897  1.00  0.00     0.152 C 
BRANCH  14  15
ATOM     15  N   UNL A   1      31.955  25.267  22.101  1.00  0.00    -0.348 N 
ATOM     16  C   UNL A   1      32.941  26.177  22.352  1.00  0.00     0.251 C 
ATOM     17  O   UNL A   1      33.670  26.469  21.403  1.00  0.00    -0.269 OA
ATOM     18  H   UNL A   1      31.935  24.982  21.159  1.00  0.00     0.164 HD
BRANCH  16  19
ATOM     19  C   UNL A   1      33.220  26.773  23.687  1.00  0.00     0.039 A 
ATOM     20  C   UNL A   1      33.796  28.120  26.105  1.00  0.00    -0.048 A 
ATOM     21  C   UNL A   1      33.393  28.837  24.976  1.00  0.00     0.004 A 
ATOM     22  C   UNL A   1      33.857  26.723  26.029  1.00  0.00     0.004 A 
ATOM     23  C   UNL A   1      33.112  28.171  23.781  1.00  0.00     0.014 A 
ATOM     24  C   UNL A   1      33.543  26.054  24.838  1.00  0.00     0.014 A 
BRANCH  20  25
ATOM     25  C   UNL A   1      34.129  28.838  27.387  1.00  0.00     0.032 C 
ATOM     26  C   UNL A   1      34.967  30.085  27.155  1.00  0.00     0.009 C 
ENDBRANCH  20  25
ENDBRANCH  16  19
ENDBRANCH  14  15
ENDBRANCH   9  14
ENDBRANCH   6   8
ENDBRANCH   5   6
ENDBRANCH   4   5
ENDBRANCH   3   4
ENDBRANCH   2   3
ENDBRANCH   1   2
BRANCH   1  27
ATOM     27  C   UNL A   1      39.521  21.557  26.116  1.00  0.00     0.188 C 
BRANCH  27  28
ATOM     28  O   UNL A   1      40.844  21.418  26.589  1.00  0.00    -0.376 OA
BRANCH  28  29
ATOM     29  C   UNL A   1      41.315  20.159  27.039  1.00  0.00     0.202 C 
BRANCH  29  30
ATOM     30  C   UNL A   1      42.200  19.189  26.230  1.00  0.00     0.261 C 
BRANCH  30  31
ATOM     31  O   UNL A   1      42.698  19.626  24.964  1.00  0.00    -0.460 OA
BRANCH  31  32
ATOM     32  C   UNL A   1      44.046  19.729  24.874  1.00  0.00     0.338 C 
ATOM     33  O   UNL A   1      44.826  18.862  24.500  1.00  0.00    -0.246 OA
BRANCH  32  34
ATOM     34  C   UNL A   1      44.438  21.126  25.127  1.00  0.00     0.060 A 
ATOM     35  C   UNL A   1      45.021  21.453  26.360  1.00  0.00     0.016 A 
ATOM     36  C   UNL A   1      44.205  22.114  24.169  1.00  0.00     0.016 A 
ATOM     37  C   UNL A   1      45.362  22.775  26.643  1.00  0.00     0.010 A 
ATOM     38  C   UNL A   1      44.526  23.441  24.464  1.00  0.00     0.010 A 
ATOM     39  C   UNL A   1      45.085  23.782  25.710  1.00  0.00    -0.014 A 
BRANCH  39  40
ATOM     40  C   UNL A   1      45.213  25.209  26.103  1.00  0.00     0.031 A 
ATOM     41  C   UNL A   1      46.573  25.847  26.052  1.00  0.00     0.074 A 
ATOM     42  C   UNL A   1      44.141  25.927  26.483  1.00  0.00     0.049 A 
ATOM     43  N   UNL A   1      46.945  27.046  26.418  1.00  0.00    -0.248 NA
ATOM     44  C   UNL A   1      47.663  25.012  25.521  1.00  0.00     0.031 C 
ATOM     45  C   UNL A   1      42.765  25.435  26.519  1.00  0.00     0.029 A 
ATOM     46  N   UNL A   1      44.047  27.225  26.921  1.00  0.00    -0.354 N 
ATOM     47  C   UNL A   1      48.312  27.109  26.168  1.00  0.00     0.074 A 
ATOM     48  C   UNL A   1      48.707  25.813  25.659  1.00  0.00     0.031 C 
ATOM     49  C   UNL A   1      41.964  26.418  26.967  1.00  0.00     0.029 A 
ATOM     50  C   UNL A   1      42.774  27.592  27.293  1.00  0.00     0.049 A 
ATOM     51  H   UNL A   1      44.817  27.836  26.964  1.00  0.00     0.167 HD
ATOM     52  C   UNL A   1      49.157  28.156  26.343  1.00  0.00     0.034 A 
ATOM     53  C   UNL A   1      42.323  28.730  27.860  1.00  0.00     0.034 A 
ATOM     54  C   UNL A   1      48.750  29.437  26.867  1.00  0.00     0.049 A 
ATOM     55  C   UNL A   1      43.304  29.845  28.148  1.00  0.00     0.074 A 
ATOM     56  C   UNL A   1      49.520  30.568  27.072  1.00  0.00     0.029 A 
ATOM     57  N   UNL A   1      47.463  29.753  27.286  1.00  0.00    -0.354 N 
ATOM     58  N   UNL A   1      44.593  29.897  27.906  1.00  0.00    -0.248 NA
ATOM     59  C   UNL A   1      42.765  31.057  28.782  1.00  0.00     0.031 C 
ATOM     60  C   UNL A   1      48.723  31.535  27.693  1.00  0.00     0.029 A 
ATOM     61  C   UNL A   1      47.430  31.045  27.788  1.00  0.00     0.049 A 
ATOM     62  H   UNL A   1      46.688  29.148  27.233  1.00  0.00     0.167 HD
ATOM     63  C   UNL A   1      45.010  31.159  28.326  1.00  0.00     0.074 A 
ATOM     64  C   UNL A   1      43.832  31.839  28.825  1.00  0.00     0.031 C 
ATOM     65  C   UNL A   1      46.251  31.711  28.296  1.00  0.00     0.034 A 
BRANCH  52  66
ATOM     66  C   UNL A   1      50.616  27.930  26.019  1.00  0.00     0.023 A 
ATOM     67  C   UNL A   1      51.096  27.960  24.697  1.00  0.00     0.031 A 
ATOM     68  C   UNL A   1      51.533  27.651  27.046  1.00  0.00     0.131 A 
ATOM     69  C   UNL A   1      52.437  27.641  24.434  1.00  0.00     0.055 A 
ATOM     70  C   UNL A   1      52.885  27.420  26.784  1.00  0.00     0.041 A 
ATOM     71  F   UNL A   1      51.130  27.583  28.325  1.00  0.00    -0.206 F 
ATOM     72  C   UNL A   1      53.341  27.398  25.471  1.00  0.00     0.022 A 
BRANCH  69  73
ATOM     73  S   UNL A   1      52.948  27.396  22.710  1.00  0.00     0.124 S 
ATOM     74  O   UNL A   1      53.337  25.988  22.714  1.00  0.00    -0.237 OA
ATOM     75  O   UNL A   1      51.733  27.720  21.971  1.00  0.00    -0.237 OA
ATOM     76  O   UNL A   1      54.051  28.339  22.542  1.00  0.00    -0.744 OA
ENDBRANCH  69  73
ENDBRANCH  52  66
BRANCH  53  77
ATOM     77  C   UNL A   1      40.887  28.868  28.250  1.00  0.00     0.023 A 
ATOM     78  C   UNL A   1      40.476  28.720  29.583  1.00  0.00     0.031 A 
ATOM     79  C   UNL A   1      39.894  29.085  27.276  1.00  0.00     0.131 A 
ATOM     80  C   UNL A   1      39.108  28.741  29.901  1.00  0.00     0.055 A 
ATOM     81  C   UNL A   1      38.541  29.166  27.606  1.00  0.00     0.041 A 
ATOM     82  F   UNL A   1      40.228  29.223  25.983  1.00  0.00    -0.206 F 
ATOM     83  C   UNL A   1      38.139  28.981  28.924  1.00  0.00     0.022 A 
BRANCH  80  84
ATOM     84  S   UNL A   1      38.603  28.347  31.599  1.00  0.00     0.124 S 
ATOM     85  O   UNL A   1      39.624  29.038  32.379  1.00  0.00    -0.237 OA
ATOM     86  O   UNL A   1      37.259  28.913  31.655  1.00  0.00    -0.237 OA
ATOM     87  O   UNL A   1      38.664  26.888  31.643  1.00  0.00    -0.744 OA
ENDBRANCH  80  84
ENDBRANCH  53  77
BRANCH  65  88
ATOM     88  C   UNL A   1      46.390  33.139  28.772  1.00  0.00     0.023 A 
ATOM     89  C   UNL A   1      46.192  34.234  27.913  1.00  0.00     0.031 A 
ATOM     90  C   UNL A   1      46.725  33.406  30.113  1.00  0.00     0.131 A 
ATOM     91  C   UNL A   1      46.381  35.541  28.390  1.00  0.00     0.055 A 
ATOM     92  C   UNL A   1      46.846  34.708  30.597  1.00  0.00     0.041 A 
ATOM     93  F   UNL A   1      46.931  32.400  30.979  1.00  0.00    -0.206 F 
ATOM     94  C   UNL A   1      46.687  35.785  29.732  1.00  0.00     0.022 A 
BRANCH  91  95
ATOM     95  S   UNL A   1      46.314  36.919  27.212  1.00  0.00     0.124 S 
ATOM     96  O   UNL A   1      44.876  37.123  27.065  1.00  0.00    -0.237 OA
ATOM     97  O   UNL A   1      47.037  37.970  27.920  1.00  0.00    -0.237 OA
ATOM     98  O   UNL A   1      46.990  36.393  26.028  1.00  0.00    -0.744 OA
ENDBRANCH  91  95
ENDBRANCH  65  88
ENDBRANCH  39  40
ENDBRANCH  32  34
ENDBRANCH  31  32
ENDBRANCH  30  31
ENDBRANCH  29  30
ENDBRANCH  28  29
ENDBRANCH  27  28
ENDBRANCH   1  27
TORSDOF 24
ENDMDL
MODEL 2
REMARK VINA RESULT:      -9.3      5.730     12.928
REMARK SMILES CCc1ccc(C(=O)NCc2ccc(C(=O)OCCOCCOCCOC(=O)c3ccc(-c4c5nc(c(-c6cc(S(=O)(=O)[O-])ccc6F)c6ccc([nH]6)c(-c6cc(S(=O)(=O)[O-])ccc6F)c6nc(c(-c7cc(S(=O)(=O)[O-])ccc7F)c7ccc4[nH]7)C=C6)C=C5)cc3)cc2)cc1
REMARK SMILES IDX 21 1 20 2 19 3 18 4 17 5 15 6 16 7 14 8 11 9 12 10 93 11
REMARK SMILES IDX 13 12 92 13 10 14 9 15 7 16 8 17 6 19 3 20 4 21 95 22 5 23
REMARK SMILES IDX 94 24 2 25 1 26 22 27 23 28 24 29 25 30 26 31 27 32 28 33
REMARK SMILES IDX 29 34 30 35 91 36 31 37 90 38 32 39 33 40 34 41 84 42 35 43
REMARK SMILES IDX 89 44 83 45 85 46 36 47 88 48 82 49 81 50 37 52 69 53 49 54
REMARK SMILES IDX 68 55 50 56 53 57 67 58 86 59 51 60 52 61 66 63 87 64 54 65
REMARK SMILES IDX 38 66 39 67 47 68 40 69 46 70 48 71 45 72 41 73 42 74 43 75
REMARK SMILES IDX 44 76 70 77 71 78 79 79 72 80 78 81 80 82 77 83 73 84 74 85
REMARK SMILES IDX 75 86 76 87 55 88 56 89 64 90 57 91 63 92 65 93 62 94 58 95
REMARK SMILES IDX 59 96 60 97 61 98
REMARK H PARENT 9 18 85 51 53 62
REMARK Flexibility Score: inf
ROOT
ATOM      1  C   UNL A   1      35.794  32.333  32.718  1.00  0.00     0.188 C 
ENDROOT
BRANCH   1   2
ATOM      2  O   UNL A   1      36.603  33.466  32.938  1.00  0.00    -0.376 OA
BRANCH   2   3
ATOM      3  C   UNL A   1      37.521  33.914  31.957  1.00  0.00     0.202 C 
BRANCH   3   4
ATOM      4  C   UNL A   1      38.855  34.632  32.226  1.00  0.00     0.261 C 
BRANCH   4   5
ATOM      5  O   UNL A   1      39.940  33.854  32.739  1.00  0.00    -0.460 OA
BRANCH   5   6
ATOM      6  C   UNL A   1      41.061  34.564  33.016  1.00  0.00     0.338 C 
ATOM      7  O   UNL A   1      41.228  35.324  33.956  1.00  0.00    -0.246 OA
BRANCH   6   8
ATOM      8  C   UNL A   1      42.157  34.184  32.101  1.00  0.00     0.060 A 
ATOM      9  C   UNL A   1      44.457  33.510  30.633  1.00  0.00    -0.029 A 
ATOM     10  C   UNL A   1      43.976  32.661  31.642  1.00  0.00     0.006 A 
ATOM     11  C   UNL A   1      43.700  34.650  30.300  1.00  0.00     0.006 A 
ATOM     12  C   UNL A   1      42.844  33.001  32.381  1.00  0.00     0.016 A 
ATOM     13  C   UNL A   1      42.548  34.983  31.024  1.00  0.00     0.016 A 
BRANCH   9  14
ATOM     14  C   UNL A   1      45.833  33.321  30.023  1.00  0.00     0.152 C 
BRANCH  14  15
ATOM     15  N   UNL A   1      46.387  32.008  30.266  1.00  0.00    -0.348 N 
ATOM     16  C   UNL A   1      46.126  30.752  29.801  1.00  0.00     0.251 C 
ATOM     17  O   UNL A   1      46.859  29.852  30.217  1.00  0.00    -0.269 OA
ATOM     18  H   UNL A   1      47.126  32.024  30.917  1.00  0.00     0.164 HD
BRANCH  16  19
ATOM     19  C   UNL A   1      45.077  30.422  28.799  1.00  0.00     0.039 A 
ATOM     20  C   UNL A   1      42.976  29.657  27.069  1.00  0.00    -0.048 A 
ATOM     21  C   UNL A   1      42.804  29.606  28.454  1.00  0.00     0.004 A 
ATOM     22  C   UNL A   1      44.186  30.143  26.558  1.00  0.00     0.004 A 
ATOM     23  C   UNL A   1      43.844  29.981  29.308  1.00  0.00     0.014 A 
ATOM     24  C   UNL A   1      45.217  30.549  27.417  1.00  0.00     0.014 A 
BRANCH  20  25
ATOM     25  C   UNL A   1      41.867  29.225  26.145  1.00  0.00     0.032 C 
ATOM     26  C   UNL A   1      42.261  28.041  25.276  1.00  0.00     0.009 C 
ENDBRANCH  20  25
ENDBRANCH  16  19
ENDBRANCH  14  15
ENDBRANCH   9  14
ENDBRANCH   6   8
ENDBRANCH   5   6
ENDBRANCH   4   5
ENDBRANCH   3   4
ENDBRANCH   2   3
ENDBRANCH   1   2
BRANCH   1  27
ATOM     27  C   UNL A   1      34.797  32.370  31.543  1.00  0.00     0.188 C 
BRANCH  27  28
ATOM     28  O   UNL A   1      34.021  33.530  31.328  1.00  0.00    -0.376 OA
BRANCH  28  29
ATOM     29  C   UNL A   1      34.208  34.309  30.159  1.00  0.00     0.202 C 
BRANCH  29  30
ATOM     30  C   UNL A   1      33.899  33.855  28.718  1.00  0.00     0.261 C 
BRANCH  30  31
ATOM     31  O   UNL A   1      34.903  33.120  28.013  1.00  0.00    -0.460 OA
BRANCH  31  32
ATOM     32  C   UNL A   1      34.642  31.802  27.836  1.00  0.00     0.338 C 
ATOM     33  O   UNL A   1      33.640  31.312  27.331  1.00  0.00    -0.246 OA
BRANCH  32  34
ATOM     34  C   UNL A   1      35.843  31.026  28.186  1.00  0.00     0.060 A 
ATOM     35  C   UNL A   1      35.692  29.698  28.609  1.00  0.00     0.016 A 
ATOM     36  C   UNL A   1      37.109  31.611  28.127  1.00  0.00     0.016 A 
ATOM     37  C   UNL A   1      36.809  28.953  28.987  1.00  0.00     0.010 A 
ATOM     38  C   UNL A   1      38.224  30.871  28.529  1.00  0.00     0.010 A 
ATOM     39  C   UNL A   1      38.077  29.546  28.982  1.00  0.00    -0.014 A 
BRANCH  39  40
ATOM     40  C   UNL A   1      39.223  28.846  29.616  1.00  0.00     0.031 A 
ATOM     41  C   UNL A   1      39.718  29.341  30.947  1.00  0.00     0.074 A 
ATOM     42  C   UNL A   1      39.803  27.783  29.030  1.00  0.00     0.049 A 
ATOM     43  N   UNL A   1      40.744  28.945  31.654  1.00  0.00    -0.248 NA
ATOM     44  C   UNL A   1      38.952  30.439  31.557  1.00  0.00     0.031 C 
ATOM     45  C   UNL A   1      39.377  27.178  27.770  1.00  0.00     0.029 A 
ATOM     46  N   UNL A   1      40.884  27.031  29.417  1.00  0.00    -0.354 N 
ATOM     47  C   UNL A   1      40.752  29.747  32.790  1.00  0.00     0.074 A 
ATOM     48  C   UNL A   1      39.652  30.679  32.654  1.00  0.00     0.031 C 
ATOM     49  C   UNL A   1      40.197  26.151  27.482  1.00  0.00     0.029 A 
ATOM     50  C   UNL A   1      41.232  26.055  28.511  1.00  0.00     0.049 A 
ATOM     51  H   UNL A   1      41.364  27.174  30.264  1.00  0.00     0.167 HD
ATOM     52  C   UNL A   1      41.596  29.706  33.851  1.00  0.00     0.034 A 
ATOM     53  C   UNL A   1      42.282  25.208  28.498  1.00  0.00     0.034 A 
ATOM     54  C   UNL A   1      42.698  28.781  33.963  1.00  0.00     0.049 A 
ATOM     55  C   UNL A   1      43.275  25.253  29.639  1.00  0.00     0.074 A 
ATOM     56  C   UNL A   1      43.605  28.643  34.998  1.00  0.00     0.029 A 
ATOM     57  N   UNL A   1      43.054  27.845  32.999  1.00  0.00    -0.354 N 
ATOM     58  N   UNL A   1      43.272  26.014  30.710  1.00  0.00    -0.248 NA
ATOM     59  C   UNL A   1      44.409  24.322  29.570  1.00  0.00     0.031 C 
ATOM     60  C   UNL A   1      44.557  27.690  34.624  1.00  0.00     0.029 A 
ATOM     61  C   UNL A   1      44.191  27.160  33.397  1.00  0.00     0.049 A 
ATOM     62  H   UNL A   1      42.568  27.691  32.156  1.00  0.00     0.167 HD
ATOM     63  C   UNL A   1      44.384  25.626  31.457  1.00  0.00     0.074 A 
ATOM     64  C   UNL A   1      45.025  24.557  30.718  1.00  0.00     0.031 C 
ATOM     65  C   UNL A   1      44.832  26.103  32.647  1.00  0.00     0.034 A 
BRANCH  52  66
ATOM     66  C   UNL A   1      41.391  30.732  34.941  1.00  0.00     0.023 A 
ATOM     67  C   UNL A   1      40.147  30.904  35.574  1.00  0.00     0.031 A 
ATOM     68  C   UNL A   1      42.449  31.571  35.330  1.00  0.00     0.131 A 
ATOM     69  C   UNL A   1      39.975  31.940  36.505  1.00  0.00     0.055 A 
ATOM     70  C   UNL A   1      42.293  32.543  36.320  1.00  0.00     0.041 A 
ATOM     71  F   UNL A   1      43.653  31.473  34.743  1.00  0.00    -0.206 F 
ATOM     72  C   UNL A   1      41.047  32.743  36.903  1.00  0.00     0.022 A 
BRANCH  69  73
ATOM     73  S   UNL A   1      38.295  32.323  37.076  1.00  0.00     0.124 S 
ATOM     74  O   UNL A   1      38.203  31.513  38.288  1.00  0.00    -0.237 OA
ATOM     75  O   UNL A   1      38.352  33.767  37.276  1.00  0.00    -0.237 OA
ATOM     76  O   UNL A   1      37.448  31.878  35.972  1.00  0.00    -0.744 OA
ENDBRANCH  69  73
ENDBRANCH  52  66
BRANCH  53  77
ATOM     77  C   UNL A   1      42.493  24.277  27.350  1.00  0.00     0.023 A 
ATOM     78  C   UNL A   1      41.866  23.022  27.304  1.00  0.00     0.031 A 
ATOM     79  C   UNL A   1      43.383  24.605  26.310  1.00  0.00     0.131 A 
ATOM     80  C   UNL A   1      42.173  22.123  26.270  1.00  0.00     0.055 A 
ATOM     81  C   UNL A   1      43.638  23.731  25.252  1.00  0.00     0.041 A 
ATOM     82  F   UNL A   1      44.021  25.787  26.308  1.00  0.00    -0.206 F 
ATOM     83  C   UNL A   1      43.041  22.476  25.235  1.00  0.00     0.022 A 
BRANCH  80  84
ATOM     84  S   UNL A   1      41.499  20.440  26.351  1.00  0.00     0.124 S 
ATOM     85  O   UNL A   1      42.244  19.771  25.290  1.00  0.00    -0.237 OA
ATOM     86  O   UNL A   1      41.830  20.045  27.716  1.00  0.00    -0.237 OA
ATOM     87  O   UNL A   1      40.074  20.631  26.088  1.00  0.00    -0.744 OA
ENDBRANCH  80  84
ENDBRANCH  53  77
BRANCH  65  88
ATOM     88  C   UNL A   1      46.047  25.438  33.251  1.00  0.00     0.023 A 
ATOM     89  C   UNL A   1      45.968  24.201  33.914  1.00  0.00     0.031 A 
ATOM     90  C   UNL A   1      47.309  26.056  33.158  1.00  0.00     0.131 A 
ATOM     91  C   UNL A   1      47.117  23.647  34.501  1.00  0.00     0.055 A 
ATOM     92  C   UNL A   1      48.459  25.469  33.686  1.00  0.00     0.041 A 
ATOM     93  F   UNL A   1      47.445  27.241  32.540  1.00  0.00    -0.206 F 
ATOM     94  C   UNL A   1      48.365  24.263  34.373  1.00  0.00     0.022 A 
BRANCH  91  95
ATOM     95  S   UNL A   1      46.946  22.153  35.517  1.00  0.00     0.124 S 
ATOM     96  O   UNL A   1      48.336  21.741  35.686  1.00  0.00    -0.237 OA
ATOM     97  O   UNL A   1      46.282  22.663  36.712  1.00  0.00    -0.237 OA
ATOM     98  O   UNL A   1      46.133  21.265  34.688  1.00  0.00    -0.744 OA
ENDBRANCH  91  95
ENDBRANCH  65  88
ENDBRANCH  39  40
ENDBRANCH  32  34
ENDBRANCH  31  32
ENDBRANCH  30  31
ENDBRANCH  29  30
ENDBRANCH  28  29
ENDBRANCH  27  28
ENDBRANCH   1  27
TORSDOF 24
ENDMDL
MODEL 3
REMARK VINA RESULT:      -9.3      6.851     11.620
REMARK SMILES CCc1ccc(C(=O)NCc2ccc(C(=O)OCCOCCOCCOC(=O)c3ccc(-c4c5nc(c(-c6cc(S(=O)(=O)[O-])ccc6F)c6ccc([nH]6)c(-c6cc(S(=O)(=O)[O-])ccc6F)c6nc(c(-c7cc(S(=O)(=O)[O-])ccc7F)c7ccc4[nH]7)C=C6)C=C5)cc3)cc2)cc1
REMARK SMILES IDX 21 1 20 2 19 3 18 4 17 5 15 6 16 7 14 8 11 9 12 10 93 11
REMARK SMILES IDX 13 12 92 13 10 14 9 15 7 16 8 17 6 19 3 20 4 21 95 22 5 23
REMARK SMILES IDX 94 24 2 25 1 26 22 27 23 28 24 29 25 30 26 31 27 32 28 33
REMARK SMILES IDX 29 34 30 35 91 36 31 37 90 38 32 39 33 40 34 41 84 42 35 43
REMARK SMILES IDX 89 44 83 45 85 46 36 47 88 48 82 49 81 50 37 52 69 53 49 54
REMARK SMILES IDX 68 55 50 56 53 57 67 58 86 59 51 60 52 61 66 63 87 64 54 65
REMARK SMILES IDX 38 66 39 67 47 68 40 69 46 70 48 71 45 72 41 73 42 74 43 75
REMARK SMILES IDX 44 76 70 77 71 78 79 79 72 80 78 81 80 82 77 83 73 84 74 85
REMARK SMILES IDX 75 86 76 87 55 88 56 89 64 90 57 91 63 92 65 93 62 94 58 95
REMARK SMILES IDX 59 96 60 97 61 98
REMARK H PARENT 9 18 85 51 53 62
REMARK Flexibility Score: inf
ROOT
ATOM      1  C   UNL A   1      32.051  29.966  25.055  1.00  0.00     0.188 C 
ENDROOT
BRANCH   1   2
ATOM      2  O   UNL A   1      30.919  29.146  24.870  1.00  0.00    -0.376 OA
BRANCH   2   3
ATOM      3  C   UNL A   1      30.515  28.735  23.576  1.00  0.00     0.202 C 
BRANCH   3   4
ATOM      4  C   UNL A   1      31.447  28.296  22.432  1.00  0.00     0.261 C 
BRANCH   4   5
ATOM      5  O   UNL A   1      32.766  27.865  22.775  1.00  0.00    -0.460 OA
BRANCH   5   6
ATOM      6  C   UNL A   1      33.005  26.549  22.555  1.00  0.00     0.338 C 
ATOM      7  O   UNL A   1      33.849  26.077  21.810  1.00  0.00    -0.246 OA
BRANCH   6   8
ATOM      8  C   UNL A   1      32.199  25.713  23.469  1.00  0.00     0.060 A 
ATOM      9  C   UNL A   1      30.967  23.961  25.288  1.00  0.00    -0.029 A 
ATOM     10  C   UNL A   1      31.828  24.975  25.739  1.00  0.00     0.006 A 
ATOM     11  C   UNL A   1      30.650  23.913  23.917  1.00  0.00     0.006 A 
ATOM     12  C   UNL A   1      32.451  25.834  24.837  1.00  0.00     0.016 A 
ATOM     13  C   UNL A   1      31.255  24.792  23.009  1.00  0.00     0.016 A 
BRANCH   9  14
ATOM     14  C   UNL A   1      30.514  22.838  26.200  1.00  0.00     0.152 C 
BRANCH  14  15
ATOM     15  N   UNL A   1      30.967  21.535  25.766  1.00  0.00    -0.348 N 
ATOM     16  C   UNL A   1      32.174  21.003  25.415  1.00  0.00     0.251 C 
ATOM     17  O   UNL A   1      32.181  19.804  25.134  1.00  0.00    -0.269 OA
ATOM     18  H   UNL A   1      30.235  20.878  25.714  1.00  0.00     0.164 HD
BRANCH  16  19
ATOM     19  C   UNL A   1      33.459  21.753  25.414  1.00  0.00     0.039 A 
ATOM     20  C   UNL A   1      35.934  23.099  25.178  1.00  0.00    -0.048 A 
ATOM     21  C   UNL A   1      35.195  22.774  24.038  1.00  0.00     0.004 A 
ATOM     22  C   UNL A   1      35.400  22.793  26.436  1.00  0.00     0.004 A 
ATOM     23  C   UNL A   1      33.975  22.106  24.156  1.00  0.00     0.014 A 
ATOM     24  C   UNL A   1      34.160  22.151  26.553  1.00  0.00     0.014 A 
BRANCH  20  25
ATOM     25  C   UNL A   1      37.266  23.793  25.054  1.00  0.00     0.032 C 
ATOM     26  C   UNL A   1      38.247  23.369  26.135  1.00  0.00     0.009 C 
ENDBRANCH  20  25
ENDBRANCH  16  19
ENDBRANCH  14  15
ENDBRANCH   9  14
ENDBRANCH   6   8
ENDBRANCH   5   6
ENDBRANCH   4   5
ENDBRANCH   3   4
ENDBRANCH   2   3
ENDBRANCH   1   2
BRANCH   1  27
ATOM     27  C   UNL A   1      32.243  30.638  26.429  1.00  0.00     0.188 C 
BRANCH  27  28
ATOM     28  O   UNL A   1      33.542  30.995  26.850  1.00  0.00    -0.376 OA
BRANCH  28  29
ATOM     29  C   UNL A   1      33.723  31.938  27.894  1.00  0.00     0.202 C 
BRANCH  29  30
ATOM     30  C   UNL A   1      33.191  33.385  27.898  1.00  0.00     0.261 C 
BRANCH  30  31
ATOM     31  O   UNL A   1      32.541  33.862  29.079  1.00  0.00    -0.460 OA
BRANCH  31  32
ATOM     32  C   UNL A   1      33.013  35.034  29.570  1.00  0.00     0.338 C 
ATOM     33  O   UNL A   1      32.566  36.154  29.357  1.00  0.00    -0.246 OA
BRANCH  32  34
ATOM     34  C   UNL A   1      34.061  34.748  30.564  1.00  0.00     0.060 A 
ATOM     35  C   UNL A   1      34.349  35.711  31.541  1.00  0.00     0.016 A 
ATOM     36  C   UNL A   1      34.778  33.551  30.515  1.00  0.00     0.016 A 
ATOM     37  C   UNL A   1      35.365  35.484  32.468  1.00  0.00     0.010 A 
ATOM     38  C   UNL A   1      35.812  33.336  31.430  1.00  0.00     0.010 A 
ATOM     39  C   UNL A   1      36.126  34.310  32.397  1.00  0.00    -0.014 A 
BRANCH  39  40
ATOM     40  C   UNL A   1      37.360  34.178  33.213  1.00  0.00     0.031 A 
ATOM     41  C   UNL A   1      38.691  34.300  32.524  1.00  0.00     0.074 A 
ATOM     42  C   UNL A   1      37.300  33.968  34.540  1.00  0.00     0.049 A 
ATOM     43  N   UNL A   1      39.896  34.146  33.008  1.00  0.00    -0.248 NA
ATOM     44  C   UNL A   1      38.653  34.637  31.092  1.00  0.00     0.031 C 
ATOM     45  C   UNL A   1      36.071  33.886  35.327  1.00  0.00     0.029 A 
ATOM     46  N   UNL A   1      38.302  33.775  35.459  1.00  0.00    -0.354 N 
ATOM     47  C   UNL A   1      40.761  34.359  31.939  1.00  0.00     0.074 A 
ATOM     48  C   UNL A   1      39.938  34.614  30.776  1.00  0.00     0.031 C 
ATOM     49  C   UNL A   1      36.392  33.649  36.611  1.00  0.00     0.029 A 
ATOM     50  C   UNL A   1      37.844  33.515  36.730  1.00  0.00     0.049 A 
ATOM     51  H   UNL A   1      39.258  33.819  35.230  1.00  0.00     0.167 HD
ATOM     52  C   UNL A   1      42.117  34.350  31.933  1.00  0.00     0.034 A 
ATOM     53  C   UNL A   1      38.517  33.177  37.849  1.00  0.00     0.034 A 
ATOM     54  C   UNL A   1      42.923  34.079  33.099  1.00  0.00     0.049 A 
ATOM     55  C   UNL A   1      40.024  33.065  37.794  1.00  0.00     0.074 A 
ATOM     56  C   UNL A   1      44.302  34.058  33.207  1.00  0.00     0.029 A 
ATOM     57  N   UNL A   1      42.423  33.765  34.357  1.00  0.00    -0.354 N 
ATOM     58  N   UNL A   1      40.834  33.272  36.780  1.00  0.00    -0.248 NA
ATOM     59  C   UNL A   1      40.708  32.678  39.036  1.00  0.00     0.031 C 
ATOM     60  C   UNL A   1      44.635  33.647  34.501  1.00  0.00     0.029 A 
ATOM     61  C   UNL A   1      43.466  33.506  35.233  1.00  0.00     0.049 A 
ATOM     62  H   UNL A   1      41.468  33.732  34.592  1.00  0.00     0.167 HD
ATOM     63  C   UNL A   1      42.122  33.074  37.274  1.00  0.00     0.074 A 
ATOM     64  C   UNL A   1      41.982  32.743  38.677  1.00  0.00     0.031 C 
ATOM     65  C   UNL A   1      43.315  33.164  36.629  1.00  0.00     0.034 A 
BRANCH  52  66
ATOM     66  C   UNL A   1      42.806  34.582  30.608  1.00  0.00     0.023 A 
ATOM     67  C   UNL A   1      43.234  35.861  30.208  1.00  0.00     0.031 A 
ATOM     68  C   UNL A   1      43.009  33.512  29.720  1.00  0.00     0.131 A 
ATOM     69  C   UNL A   1      43.773  36.047  28.926  1.00  0.00     0.055 A 
ATOM     70  C   UNL A   1      43.626  33.691  28.480  1.00  0.00     0.041 A 
ATOM     71  F   UNL A   1      42.598  32.274  30.034  1.00  0.00    -0.206 F 
ATOM     72  C   UNL A   1      43.997  34.967  28.070  1.00  0.00     0.022 A 
BRANCH  69  73
ATOM     73  S   UNL A   1      44.035  37.742  28.333  1.00  0.00     0.124 S 
ATOM     74  O   UNL A   1      42.851  38.423  28.850  1.00  0.00    -0.237 OA
ATOM     75  O   UNL A   1      45.303  38.103  28.957  1.00  0.00    -0.237 OA
ATOM     76  O   UNL A   1      44.075  37.595  26.880  1.00  0.00    -0.744 OA
ENDBRANCH  69  73
ENDBRANCH  52  66
BRANCH  53  77
ATOM     77  C   UNL A   1      37.783  32.864  39.112  1.00  0.00     0.023 A 
ATOM     78  C   UNL A   1      37.805  33.745  40.205  1.00  0.00     0.031 A 
ATOM     79  C   UNL A   1      37.101  31.643  39.266  1.00  0.00     0.131 A 
ATOM     80  C   UNL A   1      37.201  33.372  41.417  1.00  0.00     0.055 A 
ATOM     81  C   UNL A   1      36.450  31.304  40.453  1.00  0.00     0.041 A 
ATOM     82  F   UNL A   1      37.056  30.757  38.258  1.00  0.00    -0.206 F 
ATOM     83  C   UNL A   1      36.509  32.165  41.543  1.00  0.00     0.022 A 
BRANCH  80  84
ATOM     84  S   UNL A   1      37.421  34.443  42.865  1.00  0.00     0.124 S 
ATOM     85  O   UNL A   1      38.369  33.673  43.663  1.00  0.00    -0.237 OA
ATOM     86  O   UNL A   1      37.935  35.668  42.262  1.00  0.00    -0.237 OA
ATOM     87  O   UNL A   1      36.073  34.544  43.421  1.00  0.00    -0.744 OA
ENDBRANCH  80  84
ENDBRANCH  53  77
BRANCH  65  88
ATOM     88  C   UNL A   1      44.567  32.949  37.449  1.00  0.00     0.023 A 
ATOM     89  C   UNL A   1      45.117  31.671  37.648  1.00  0.00     0.031 A 
ATOM     90  C   UNL A   1      45.222  34.047  38.038  1.00  0.00     0.131 A 
ATOM     91  C   UNL A   1      46.254  31.517  38.458  1.00  0.00     0.055 A 
ATOM     92  C   UNL A   1      46.389  33.896  38.786  1.00  0.00     0.041 A 
ATOM     93  F   UNL A   1      44.740  35.292  37.886  1.00  0.00    -0.206 F 
ATOM     94  C   UNL A   1      46.905  32.623  39.011  1.00  0.00     0.022 A 
BRANCH  91  95
ATOM     95  S   UNL A   1      46.822  29.841  38.858  1.00  0.00     0.124 S 
ATOM     96  O   UNL A   1      45.576  29.179  39.230  1.00  0.00    -0.237 OA
ATOM     97  O   UNL A   1      47.424  29.407  37.602  1.00  0.00    -0.237 OA
ATOM     98  O   UNL A   1      47.764  30.050  39.956  1.00  0.00    -0.744 OA
ENDBRANCH  91  95
ENDBRANCH  65  88
ENDBRANCH  39  40
ENDBRANCH  32  34
ENDBRANCH  31  32
ENDBRANCH  30  31
ENDBRANCH  29  30
ENDBRANCH  28  29
ENDBRANCH  27  28
ENDBRANCH   1  27
TORSDOF 24
ENDMDL
