MODEL 1
REMARK VINA RESULT:     -10.3      0.000      0.000
REMARK SMILES N#CCCn1cc(C(=O)OCCOCCOCCOC(=O)c2ccc(-c3c4nc(c(-c5cc(S(=O)(=O)[O-])ccc5F)c5ccc([nH]5)c(-c5cc(S(=O)(=O)[O-])ccc5F)c5nc(c(-c6cc(S(=O)(=O)[O-])ccc6F)c6ccc3[nH]6)C=C5)C=C4)cc2)c(-c2cccc([N+](=O)[O-])c2)n1
REMARK SMILES IDX 14 1 13 2 12 3 11 4 10 5 8 6 9 7 7 8 5 9 6 10 95 11 85 12
REMARK SMILES IDX 4 13 3 14 2 15 1 16 86 17 87 18 94 19 88 20 90 21 89 22
REMARK SMILES IDX 91 23 92 24 93 25 15 26 16 27 17 28 18 29 19 30 20 31 21 32
REMARK SMILES IDX 22 33 23 34 84 35 24 36 83 37 25 38 26 39 27 40 77 41 28 42
REMARK SMILES IDX 82 43 76 44 78 45 29 46 81 47 75 48 74 49 30 51 62 52 42 53
REMARK SMILES IDX 61 54 43 55 46 56 60 57 79 58 44 59 45 60 59 62 80 63 47 64
REMARK SMILES IDX 31 65 32 66 40 67 33 68 39 69 41 70 38 71 34 72 35 73 36 74
REMARK SMILES IDX 37 75 63 76 64 77 72 78 65 79 71 80 73 81 70 82 66 83 67 84
REMARK SMILES IDX 68 85 69 86 48 87 49 88 57 89 50 90 56 91 58 92 55 93 51 94
REMARK SMILES IDX 52 95 53 96 54 97
REMARK H PARENT 78 50 46 61
REMARK Flexibility Score: inf
ROOT
ATOM      1  C   UNL A   1      33.413  31.573  27.360  1.00  0.00     0.188 C 
ENDROOT
BRANCH   1   2
ATOM      2  O   UNL A   1      34.588  30.850  27.624  1.00  0.00    -0.376 OA
BRANCH   2   3
ATOM      3  C   UNL A   1      34.585  29.438  27.542  1.00  0.00     0.202 C 
BRANCH   3   4
ATOM      4  C   UNL A   1      33.363  28.543  27.225  1.00  0.00     0.261 C 
BRANCH   4   5
ATOM      5  O   UNL A   1      33.423  27.627  26.127  1.00  0.00    -0.460 OA
BRANCH   5   6
ATOM      6  C   UNL A   1      33.328  28.159  24.872  1.00  0.00     0.342 C 
ATOM      7  O   UNL A   1      34.281  28.324  24.120  1.00  0.00    -0.246 OA
BRANCH   6   8
ATOM      8  C   UNL A   1      31.954  28.413  24.467  1.00  0.00     0.106 A 
ATOM      9  N   UNL A   1      30.054  29.357  23.881  1.00  0.00    -0.270 N 
ATOM     10  C   UNL A   1      31.315  29.633  24.329  1.00  0.00     0.125 A 
ATOM     11  N   UNL A   1      29.803  28.042  23.775  1.00  0.00    -0.172 NA
ATOM     12  C   UNL A   1      30.938  27.453  24.184  1.00  0.00     0.107 A 
BRANCH   9  13
ATOM     13  C   UNL A   1      29.086  30.317  23.374  1.00  0.00     0.159 C 
BRANCH  13  14
ATOM     14  C   UNL A   1      28.129  29.788  22.308  1.00  0.00     0.144 C 
BRANCH  14  15
ATOM     15  C   UNL A   1      27.935  30.836  21.225  1.00  0.00     0.064 C 
ATOM     16  N   UNL A   1      27.774  31.706  20.326  1.00  0.00    -0.198 NA
ENDBRANCH  14  15
ENDBRANCH  13  14
ENDBRANCH   9  13
BRANCH  12  17
ATOM     17  C   UNL A   1      31.022  26.005  24.316  1.00  0.00     0.010 A 
ATOM     18  C   UNL A   1      31.235  25.197  23.188  1.00  0.00     0.011 A 
ATOM     19  C   UNL A   1      30.858  25.414  25.568  1.00  0.00     0.096 A 
ATOM     20  C   UNL A   1      31.207  23.803  23.294  1.00  0.00     0.008 A 
ATOM     21  C   UNL A   1      30.866  24.018  25.674  1.00  0.00     0.270 A 
ATOM     22  C   UNL A   1      31.015  23.208  24.539  1.00  0.00     0.085 A 
BRANCH  21  23
ATOM     23  N   UNL A   1      30.725  23.401  26.996  1.00  0.00     0.062 N 
ATOM     24  O   UNL A   1      31.760  23.118  27.617  1.00  0.00    -0.258 OA
ATOM     25  O   UNL A   1      29.577  23.199  27.419  1.00  0.00    -0.258 OA
ENDBRANCH  21  23
ENDBRANCH  12  17
ENDBRANCH   6   8
ENDBRANCH   5   6
ENDBRANCH   4   5
ENDBRANCH   3   4
ENDBRANCH   2   3
ENDBRANCH   1   2
BRANCH   1  26
ATOM     26  C   UNL A   1      33.266  32.896  28.138  1.00  0.00     0.188 C 
BRANCH  26  27
ATOM     27  O   UNL A   1      34.296  33.353  28.995  1.00  0.00    -0.376 OA
BRANCH  27  28
ATOM     28  C   UNL A   1      34.440  34.719  29.352  1.00  0.00     0.202 C 
BRANCH  28  29
ATOM     29  C   UNL A   1      33.318  35.574  29.937  1.00  0.00     0.261 C 
BRANCH  29  30
ATOM     30  O   UNL A   1      33.542  36.055  31.241  1.00  0.00    -0.460 OA
BRANCH  30  31
ATOM     31  C   UNL A   1      32.990  35.282  32.203  1.00  0.00     0.338 C 
ATOM     32  O   UNL A   1      31.817  35.217  32.507  1.00  0.00    -0.246 OA
BRANCH  31  33
ATOM     33  C   UNL A   1      34.081  34.609  32.916  1.00  0.00     0.060 A 
ATOM     34  C   UNL A   1      35.216  35.384  33.145  1.00  0.00     0.016 A 
ATOM     35  C   UNL A   1      34.111  33.208  32.902  1.00  0.00     0.016 A 
ATOM     36  C   UNL A   1      36.435  34.763  33.027  1.00  0.00     0.010 A 
ATOM     37  C   UNL A   1      35.325  32.599  32.738  1.00  0.00     0.010 A 
ATOM     38  C   UNL A   1      36.460  33.403  32.698  1.00  0.00    -0.014 A 
BRANCH  38  39
ATOM     39  C   UNL A   1      37.738  32.785  32.444  1.00  0.00     0.031 A 
ATOM     40  C   UNL A   1      38.539  32.715  33.678  1.00  0.00     0.074 A 
ATOM     41  C   UNL A   1      38.098  32.269  31.254  1.00  0.00     0.049 A 
ATOM     42  N   UNL A   1      39.469  33.536  34.032  1.00  0.00    -0.248 NA
ATOM     43  C   UNL A   1      38.067  31.837  34.761  1.00  0.00     0.031 C 
ATOM     44  C   UNL A   1      37.286  32.068  30.055  1.00  0.00     0.029 A 
ATOM     45  N   UNL A   1      39.294  31.731  30.901  1.00  0.00    -0.354 N 
ATOM     46  C   UNL A   1      39.892  33.078  35.270  1.00  0.00     0.074 A 
ATOM     47  C   UNL A   1      38.820  32.267  35.773  1.00  0.00     0.031 C 
ATOM     48  C   UNL A   1      37.950  31.250  29.200  1.00  0.00     0.029 A 
ATOM     49  C   UNL A   1      39.275  30.969  29.737  1.00  0.00     0.049 A 
ATOM     50  H   UNL A   1      40.113  31.869  31.430  1.00  0.00     0.167 HD
ATOM     51  C   UNL A   1      41.208  33.131  35.609  1.00  0.00     0.034 A 
ATOM     52  C   UNL A   1      40.257  30.124  29.312  1.00  0.00     0.034 A 
ATOM     53  C   UNL A   1      41.928  34.021  34.720  1.00  0.00     0.049 A 
ATOM     54  C   UNL A   1      41.511  30.550  29.996  1.00  0.00     0.074 A 
ATOM     55  C   UNL A   1      41.801  35.354  34.375  1.00  0.00     0.029 A 
ATOM     56  N   UNL A   1      42.693  33.453  33.722  1.00  0.00    -0.354 N 
ATOM     57  N   UNL A   1      42.101  31.688  29.753  1.00  0.00    -0.248 NA
ATOM     58  C   UNL A   1      41.806  29.973  31.301  1.00  0.00     0.031 C 
ATOM     59  C   UNL A   1      42.067  35.405  32.975  1.00  0.00     0.029 A 
ATOM     60  C   UNL A   1      42.438  34.127  32.552  1.00  0.00     0.049 A 
ATOM     61  H   UNL A   1      43.313  32.697  33.829  1.00  0.00     0.167 HD
ATOM     62  C   UNL A   1      42.462  32.183  30.998  1.00  0.00     0.074 A 
ATOM     63  C   UNL A   1      42.331  31.042  31.907  1.00  0.00     0.031 C 
ATOM     64  C   UNL A   1      42.536  33.527  31.231  1.00  0.00     0.034 A 
BRANCH  51  65
ATOM     65  C   UNL A   1      41.912  32.082  36.444  1.00  0.00     0.023 A 
ATOM     66  C   UNL A   1      42.634  32.555  37.552  1.00  0.00     0.031 A 
ATOM     67  C   UNL A   1      42.159  30.737  36.082  1.00  0.00     0.131 A 
ATOM     68  C   UNL A   1      43.629  31.770  38.152  1.00  0.00     0.055 A 
ATOM     69  C   UNL A   1      43.103  29.936  36.728  1.00  0.00     0.041 A 
ATOM     70  F   UNL A   1      41.581  30.134  35.038  1.00  0.00    -0.206 F 
ATOM     71  C   UNL A   1      43.873  30.462  37.746  1.00  0.00     0.022 A 
BRANCH  68  72
ATOM     72  S   UNL A   1      44.725  32.564  39.351  1.00  0.00     0.124 S 
ATOM     73  O   UNL A   1      45.272  33.660  38.559  1.00  0.00    -0.237 OA
ATOM     74  O   UNL A   1      43.790  32.935  40.407  1.00  0.00    -0.237 OA
ATOM     75  O   UNL A   1      45.670  31.505  39.696  1.00  0.00    -0.744 OA
ENDBRANCH  68  72
ENDBRANCH  51  65
BRANCH  52  76
ATOM     76  C   UNL A   1      40.106  28.786  28.661  1.00  0.00     0.023 A 
ATOM     77  C   UNL A   1      40.875  28.382  27.542  1.00  0.00     0.031 A 
ATOM     78  C   UNL A   1      39.368  27.773  29.311  1.00  0.00     0.131 A 
ATOM     79  C   UNL A   1      40.887  27.025  27.131  1.00  0.00     0.055 A 
ATOM     80  C   UNL A   1      39.385  26.435  28.903  1.00  0.00     0.041 A 
ATOM     81  F   UNL A   1      38.670  28.025  30.429  1.00  0.00    -0.206 F 
ATOM     82  C   UNL A   1      40.156  26.054  27.818  1.00  0.00     0.022 A 
BRANCH  79  83
ATOM     83  S   UNL A   1      41.939  26.468  25.746  1.00  0.00     0.124 S 
ATOM     84  O   UNL A   1      43.088  25.897  26.439  1.00  0.00    -0.237 OA
ATOM     85  O   UNL A   1      41.070  25.530  25.044  1.00  0.00    -0.237 OA
ATOM     86  O   UNL A   1      42.218  27.703  25.012  1.00  0.00    -0.744 OA
ENDBRANCH  79  83
ENDBRANCH  52  76
BRANCH  64  87
ATOM     87  C   UNL A   1      42.541  34.470  30.042  1.00  0.00     0.023 A 
ATOM     88  C   UNL A   1      43.689  34.882  29.322  1.00  0.00     0.031 A 
ATOM     89  C   UNL A   1      41.290  34.899  29.564  1.00  0.00     0.131 A 
ATOM     90  C   UNL A   1      43.550  35.704  28.184  1.00  0.00     0.055 A 
ATOM     91  C   UNL A   1      41.156  35.688  28.424  1.00  0.00     0.041 A 
ATOM     92  F   UNL A   1      40.159  34.529  30.189  1.00  0.00    -0.206 F 
ATOM     93  C   UNL A   1      42.287  36.102  27.734  1.00  0.00     0.022 A 
BRANCH  90  94
ATOM     94  S   UNL A   1      45.013  36.316  27.285  1.00  0.00     0.124 S 
ATOM     95  O   UNL A   1      45.183  35.351  26.206  1.00  0.00    -0.237 OA
ATOM     96  O   UNL A   1      44.594  37.656  26.882  1.00  0.00    -0.237 OA
ATOM     97  O   UNL A   1      46.069  36.290  28.299  1.00  0.00    -0.744 OA
ENDBRANCH  90  94
ENDBRANCH  64  87
ENDBRANCH  38  39
ENDBRANCH  31  33
ENDBRANCH  30  31
ENDBRANCH  29  30
ENDBRANCH  28  29
ENDBRANCH  27  28
ENDBRANCH  26  27
ENDBRANCH   1  26
TORSDOF 25
ENDMDL
MODEL 2
REMARK VINA RESULT:      -8.8      4.451      5.826
REMARK SMILES N#CCCn1cc(C(=O)OCCOCCOCCOC(=O)c2ccc(-c3c4nc(c(-c5cc(S(=O)(=O)[O-])ccc5F)c5ccc([nH]5)c(-c5cc(S(=O)(=O)[O-])ccc5F)c5nc(c(-c6cc(S(=O)(=O)[O-])ccc6F)c6ccc3[nH]6)C=C5)C=C4)cc2)c(-c2cccc([N+](=O)[O-])c2)n1
REMARK SMILES IDX 14 1 13 2 12 3 11 4 10 5 8 6 9 7 7 8 5 9 6 10 95 11 85 12
REMARK SMILES IDX 4 13 3 14 2 15 1 16 86 17 87 18 94 19 88 20 90 21 89 22
REMARK SMILES IDX 91 23 92 24 93 25 15 26 16 27 17 28 18 29 19 30 20 31 21 32
REMARK SMILES IDX 22 33 23 34 84 35 24 36 83 37 25 38 26 39 27 40 77 41 28 42
REMARK SMILES IDX 82 43 76 44 78 45 29 46 81 47 75 48 74 49 30 51 62 52 42 53
REMARK SMILES IDX 61 54 43 55 46 56 60 57 79 58 44 59 45 60 59 62 80 63 47 64
REMARK SMILES IDX 31 65 32 66 40 67 33 68 39 69 41 70 38 71 34 72 35 73 36 74
REMARK SMILES IDX 37 75 63 76 64 77 72 78 65 79 71 80 73 81 70 82 66 83 67 84
REMARK SMILES IDX 68 85 69 86 48 87 49 88 57 89 50 90 56 91 58 92 55 93 51 94
REMARK SMILES IDX 52 95 53 96 54 97
REMARK H PARENT 78 50 46 61
REMARK Flexibility Score: inf
ROOT
ATOM      1  C   UNL A   1      35.378  31.387  27.591  1.00  0.00     0.188 C 
ENDROOT
BRANCH   1   2
ATOM      2  O   UNL A   1      35.464  29.996  27.772  1.00  0.00    -0.376 OA
BRANCH   2   3
ATOM      3  C   UNL A   1      34.359  29.172  27.457  1.00  0.00     0.202 C 
BRANCH   3   4
ATOM      4  C   UNL A   1      33.080  29.605  26.700  1.00  0.00     0.261 C 
BRANCH   4   5
ATOM      5  O   UNL A   1      33.062  29.574  25.269  1.00  0.00    -0.460 OA
BRANCH   5   6
ATOM      6  C   UNL A   1      32.673  28.403  24.680  1.00  0.00     0.342 C 
ATOM      7  O   UNL A   1      33.345  27.379  24.674  1.00  0.00    -0.246 OA
BRANCH   6   8
ATOM      8  C   UNL A   1      31.319  28.459  24.150  1.00  0.00     0.106 A 
ATOM      9  N   UNL A   1      29.379  29.122  23.350  1.00  0.00    -0.270 N 
ATOM     10  C   UNL A   1      30.553  29.580  23.878  1.00  0.00     0.125 A 
ATOM     11  N   UNL A   1      29.298  27.782  23.313  1.00  0.00    -0.172 NA
ATOM     12  C   UNL A   1      30.455  27.364  23.852  1.00  0.00     0.107 A 
BRANCH   9  13
ATOM     13  C   UNL A   1      28.351  29.922  22.702  1.00  0.00     0.159 C 
BRANCH  13  14
ATOM     14  C   UNL A   1      27.716  31.007  23.569  1.00  0.00     0.144 C 
BRANCH  14  15
ATOM     15  C   UNL A   1      28.120  32.379  23.055  1.00  0.00     0.064 C 
ATOM     16  N   UNL A   1      28.455  33.518  22.628  1.00  0.00    -0.198 NA
ENDBRANCH  14  15
ENDBRANCH  13  14
ENDBRANCH   9  13
BRANCH  12  17
ATOM     17  C   UNL A   1      30.700  25.948  24.088  1.00  0.00     0.010 A 
ATOM     18  C   UNL A   1      31.021  25.093  23.023  1.00  0.00     0.011 A 
ATOM     19  C   UNL A   1      30.584  25.433  25.378  1.00  0.00     0.096 A 
ATOM     20  C   UNL A   1      31.150  23.716  23.228  1.00  0.00     0.008 A 
ATOM     21  C   UNL A   1      30.748  24.057  25.585  1.00  0.00     0.270 A 
ATOM     22  C   UNL A   1      31.006  23.192  24.512  1.00  0.00     0.085 A 
BRANCH  21  23
ATOM     23  N   UNL A   1      30.656  23.523  26.946  1.00  0.00     0.062 N 
ATOM     24  O   UNL A   1      29.531  23.433  27.458  1.00  0.00    -0.258 OA
ATOM     25  O   UNL A   1      31.710  23.187  27.507  1.00  0.00    -0.258 OA
ENDBRANCH  21  23
ENDBRANCH  12  17
ENDBRANCH   6   8
ENDBRANCH   5   6
ENDBRANCH   4   5
ENDBRANCH   3   4
ENDBRANCH   2   3
ENDBRANCH   1   2
BRANCH   1  26
ATOM     26  C   UNL A   1      34.929  32.184  28.831  1.00  0.00     0.188 C 
BRANCH  26  27
ATOM     27  O   UNL A   1      35.656  32.112  30.045  1.00  0.00    -0.376 OA
BRANCH  27  28
ATOM     28  C   UNL A   1      35.058  32.362  31.308  1.00  0.00     0.202 C 
BRANCH  28  29
ATOM     29  C   UNL A   1      35.842  32.528  32.607  1.00  0.00     0.261 C 
BRANCH  29  30
ATOM     30  O   UNL A   1      36.593  31.407  33.009  1.00  0.00    -0.460 OA
BRANCH  30  31
ATOM     31  C   UNL A   1      37.597  31.707  33.861  1.00  0.00     0.338 C 
ATOM     32  O   UNL A   1      37.929  32.811  34.242  1.00  0.00    -0.246 OA
BRANCH  31  33
ATOM     33  C   UNL A   1      38.312  30.463  34.165  1.00  0.00     0.060 A 
ATOM     34  C   UNL A   1      39.486  30.611  34.900  1.00  0.00     0.016 A 
ATOM     35  C   UNL A   1      38.057  29.344  33.362  1.00  0.00     0.016 A 
ATOM     36  C   UNL A   1      40.543  29.799  34.568  1.00  0.00     0.010 A 
ATOM     37  C   UNL A   1      39.123  28.567  32.998  1.00  0.00     0.010 A 
ATOM     38  C   UNL A   1      40.372  28.877  33.529  1.00  0.00    -0.014 A 
BRANCH  38  39
ATOM     39  C   UNL A   1      41.518  28.119  33.092  1.00  0.00     0.031 A 
ATOM     40  C   UNL A   1      42.037  27.281  34.186  1.00  0.00     0.074 A 
ATOM     41  C   UNL A   1      41.983  28.124  31.829  1.00  0.00     0.049 A 
ATOM     42  N   UNL A   1      43.032  27.561  34.957  1.00  0.00    -0.248 NA
ATOM     43  C   UNL A   1      41.196  26.173  34.669  1.00  0.00     0.031 C 
ATOM     44  C   UNL A   1      41.389  28.720  30.632  1.00  0.00     0.029 A 
ATOM     45  N   UNL A   1      43.086  27.501  31.340  1.00  0.00    -0.354 N 
ATOM     46  C   UNL A   1      43.109  26.495  35.839  1.00  0.00     0.074 A 
ATOM     47  C   UNL A   1      41.816  25.872  35.809  1.00  0.00     0.031 C 
ATOM     48  C   UNL A   1      42.020  28.233  29.534  1.00  0.00     0.029 A 
ATOM     49  C   UNL A   1      43.130  27.389  29.953  1.00  0.00     0.049 A 
ATOM     50  H   UNL A   1      43.800  27.154  31.922  1.00  0.00     0.167 HD
ATOM     51  C   UNL A   1      44.317  26.027  36.248  1.00  0.00     0.034 A 
ATOM     52  C   UNL A   1      43.979  26.597  29.237  1.00  0.00     0.034 A 
ATOM     53  C   UNL A   1      45.362  26.989  35.957  1.00  0.00     0.049 A 
ATOM     54  C   UNL A   1      45.140  26.306  30.124  1.00  0.00     0.074 A 
ATOM     55  C   UNL A   1      45.582  28.311  36.299  1.00  0.00     0.029 A 
ATOM     56  N   UNL A   1      46.168  26.752  34.863  1.00  0.00    -0.354 N 
ATOM     57  N   UNL A   1      45.989  27.219  30.508  1.00  0.00    -0.248 NA
ATOM     58  C   UNL A   1      45.056  25.142  30.998  1.00  0.00     0.031 C 
ATOM     59  C   UNL A   1      46.114  28.917  35.123  1.00  0.00     0.029 A 
ATOM     60  C   UNL A   1      46.286  27.924  34.156  1.00  0.00     0.049 A 
ATOM     61  H   UNL A   1      46.586  25.892  34.629  1.00  0.00     0.167 HD
ATOM     62  C   UNL A   1      46.200  26.975  31.857  1.00  0.00     0.074 A 
ATOM     63  C   UNL A   1      45.666  25.630  32.083  1.00  0.00     0.031 C 
ATOM     64  C   UNL A   1      46.507  27.989  32.721  1.00  0.00     0.034 A 
BRANCH  51  65
ATOM     65  C   UNL A   1      44.617  24.566  36.511  1.00  0.00     0.023 A 
ATOM     66  C   UNL A   1      45.280  24.276  37.715  1.00  0.00     0.031 A 
ATOM     67  C   UNL A   1      44.564  23.508  35.572  1.00  0.00     0.131 A 
ATOM     68  C   UNL A   1      45.956  23.060  37.891  1.00  0.00     0.055 A 
ATOM     69  C   UNL A   1      45.181  22.274  35.781  1.00  0.00     0.041 A 
ATOM     70  F   UNL A   1      43.998  23.618  34.366  1.00  0.00    -0.206 F 
ATOM     71  C   UNL A   1      45.915  22.055  36.930  1.00  0.00     0.022 A 
BRANCH  68  72
ATOM     72  S   UNL A   1      47.045  22.897  39.324  1.00  0.00     0.124 S 
ATOM     73  O   UNL A   1      47.050  24.262  39.838  1.00  0.00    -0.237 OA
ATOM     74  O   UNL A   1      46.334  21.908  40.127  1.00  0.00    -0.237 OA
ATOM     75  O   UNL A   1      48.304  22.441  38.740  1.00  0.00    -0.744 OA
ENDBRANCH  68  72
ENDBRANCH  51  65
BRANCH  52  76
ATOM     76  C   UNL A   1      43.680  25.800  28.007  1.00  0.00     0.023 A 
ATOM     77  C   UNL A   1      43.093  24.512  28.049  1.00  0.00     0.031 A 
ATOM     78  C   UNL A   1      43.731  26.424  26.741  1.00  0.00     0.131 A 
ATOM     79  C   UNL A   1      42.587  23.915  26.866  1.00  0.00     0.055 A 
ATOM     80  C   UNL A   1      43.229  25.832  25.578  1.00  0.00     0.041 A 
ATOM     81  F   UNL A   1      44.190  27.677  26.597  1.00  0.00    -0.206 F 
ATOM     82  C   UNL A   1      42.643  24.579  25.639  1.00  0.00     0.022 A 
BRANCH  79  83
ATOM     83  S   UNL A   1      41.749  22.293  26.911  1.00  0.00     0.124 S 
ATOM     84  O   UNL A   1      42.350  21.666  28.083  1.00  0.00    -0.237 OA
ATOM     85  O   UNL A   1      40.343  22.665  27.021  1.00  0.00    -0.237 OA
ATOM     86  O   UNL A   1      42.118  21.683  25.633  1.00  0.00    -0.744 OA
ENDBRANCH  79  83
ENDBRANCH  52  76
BRANCH  64  87
ATOM     87  C   UNL A   1      46.933  29.327  32.146  1.00  0.00     0.023 A 
ATOM     88  C   UNL A   1      48.248  29.673  31.753  1.00  0.00     0.031 A 
ATOM     89  C   UNL A   1      45.916  30.269  31.904  1.00  0.00     0.131 A 
ATOM     90  C   UNL A   1      48.500  30.928  31.160  1.00  0.00     0.055 A 
ATOM     91  C   UNL A   1      46.165  31.496  31.292  1.00  0.00     0.041 A 
ATOM     92  F   UNL A   1      44.643  29.997  32.235  1.00  0.00    -0.206 F 
ATOM     93  C   UNL A   1      47.461  31.835  30.926  1.00  0.00     0.022 A 
BRANCH  90  94
ATOM     94  S   UNL A   1      50.195  31.435  30.718  1.00  0.00     0.124 S 
ATOM     95  O   UNL A   1      50.160  31.524  29.263  1.00  0.00    -0.237 OA
ATOM     96  O   UNL A   1      50.338  32.700  31.431  1.00  0.00    -0.237 OA
ATOM     97  O   UNL A   1      51.021  30.345  31.243  1.00  0.00    -0.744 OA
ENDBRANCH  90  94
ENDBRANCH  64  87
ENDBRANCH  38  39
ENDBRANCH  31  33
ENDBRANCH  30  31
ENDBRANCH  29  30
ENDBRANCH  28  29
ENDBRANCH  27  28
ENDBRANCH  26  27
ENDBRANCH   1  26
TORSDOF 25
ENDMDL
MODEL 3
REMARK VINA RESULT:      -8.4      3.243      5.290
REMARK SMILES N#CCCn1cc(C(=O)OCCOCCOCCOC(=O)c2ccc(-c3c4nc(c(-c5cc(S(=O)(=O)[O-])ccc5F)c5ccc([nH]5)c(-c5cc(S(=O)(=O)[O-])ccc5F)c5nc(c(-c6cc(S(=O)(=O)[O-])ccc6F)c6ccc3[nH]6)C=C5)C=C4)cc2)c(-c2cccc([N+](=O)[O-])c2)n1
REMARK SMILES IDX 14 1 13 2 12 3 11 4 10 5 8 6 9 7 7 8 5 9 6 10 95 11 85 12
REMARK SMILES IDX 4 13 3 14 2 15 1 16 86 17 87 18 94 19 88 20 90 21 89 22
REMARK SMILES IDX 91 23 92 24 93 25 15 26 16 27 17 28 18 29 19 30 20 31 21 32
REMARK SMILES IDX 22 33 23 34 84 35 24 36 83 37 25 38 26 39 27 40 77 41 28 42
REMARK SMILES IDX 82 43 76 44 78 45 29 46 81 47 75 48 74 49 30 51 62 52 42 53
REMARK SMILES IDX 61 54 43 55 46 56 60 57 79 58 44 59 45 60 59 62 80 63 47 64
REMARK SMILES IDX 31 65 32 66 40 67 33 68 39 69 41 70 38 71 34 72 35 73 36 74
REMARK SMILES IDX 37 75 63 76 64 77 72 78 65 79 71 80 73 81 70 82 66 83 67 84
REMARK SMILES IDX 68 85 69 86 48 87 49 88 57 89 50 90 56 91 58 92 55 93 51 94
REMARK SMILES IDX 52 95 53 96 54 97
REMARK H PARENT 78 50 46 61
REMARK Flexibility Score: inf
ROOT
ATOM      1  C   UNL A   1      36.126  31.870  28.356  1.00  0.00     0.188 C 
ENDROOT
BRANCH   1   2
ATOM      2  O   UNL A   1      35.411  30.678  28.561  1.00  0.00    -0.376 OA
BRANCH   2   3
ATOM      3  C   UNL A   1      35.174  29.799  27.479  1.00  0.00     0.202 C 
BRANCH   3   4
ATOM      4  C   UNL A   1      33.913  28.927  27.268  1.00  0.00     0.261 C 
BRANCH   4   5
ATOM      5  O   UNL A   1      32.827  29.432  26.484  1.00  0.00    -0.460 OA
BRANCH   5   6
ATOM      6  C   UNL A   1      32.806  29.087  25.161  1.00  0.00     0.342 C 
ATOM      7  O   UNL A   1      33.734  28.541  24.577  1.00  0.00    -0.246 OA
BRANCH   6   8
ATOM      8  C   UNL A   1      31.518  29.338  24.532  1.00  0.00     0.106 A 
ATOM      9  N   UNL A   1      29.658  30.256  23.798  1.00  0.00    -0.270 N 
ATOM     10  C   UNL A   1      30.751  30.489  24.584  1.00  0.00     0.125 A 
ATOM     11  N   UNL A   1      29.625  29.014  23.286  1.00  0.00    -0.172 NA
ATOM     12  C   UNL A   1      30.728  28.425  23.773  1.00  0.00     0.107 A 
BRANCH   9  13
ATOM     13  C   UNL A   1      28.683  31.241  23.358  1.00  0.00     0.159 C 
BRANCH  13  14
ATOM     14  C   UNL A   1      28.093  31.011  21.968  1.00  0.00     0.144 C 
BRANCH  14  15
ATOM     15  C   UNL A   1      27.810  32.347  21.300  1.00  0.00     0.064 C 
ATOM     16  N   UNL A   1      27.576  33.455  20.747  1.00  0.00    -0.198 NA
ENDBRANCH  14  15
ENDBRANCH  13  14
ENDBRANCH   9  13
BRANCH  12  17
ATOM     17  C   UNL A   1      30.991  27.014  23.525  1.00  0.00     0.010 A 
ATOM     18  C   UNL A   1      30.487  26.031  24.392  1.00  0.00     0.011 A 
ATOM     19  C   UNL A   1      31.776  26.638  22.436  1.00  0.00     0.096 A 
ATOM     20  C   UNL A   1      30.828  24.687  24.220  1.00  0.00     0.008 A 
ATOM     21  C   UNL A   1      32.086  25.285  22.248  1.00  0.00     0.270 A 
ATOM     22  C   UNL A   1      31.636  24.309  23.148  1.00  0.00     0.085 A 
BRANCH  21  23
ATOM     23  N   UNL A   1      32.885  24.890  21.085  1.00  0.00     0.062 N 
ATOM     24  O   UNL A   1      33.111  25.747  20.219  1.00  0.00    -0.258 OA
ATOM     25  O   UNL A   1      33.293  23.720  21.036  1.00  0.00    -0.258 OA
ENDBRANCH  21  23
ENDBRANCH  12  17
ENDBRANCH   6   8
ENDBRANCH   5   6
ENDBRANCH   4   5
ENDBRANCH   3   4
ENDBRANCH   2   3
ENDBRANCH   1   2
BRANCH   1  26
ATOM     26  C   UNL A   1      35.268  33.093  27.978  1.00  0.00     0.188 C 
BRANCH  26  27
ATOM     27  O   UNL A   1      34.103  33.420  28.713  1.00  0.00    -0.376 OA
BRANCH  27  28
ATOM     28  C   UNL A   1      34.078  34.457  29.682  1.00  0.00     0.202 C 
BRANCH  28  29
ATOM     29  C   UNL A   1      34.079  34.220  31.190  1.00  0.00     0.261 C 
BRANCH  29  30
ATOM     30  O   UNL A   1      35.169  34.773  31.889  1.00  0.00    -0.460 OA
BRANCH  30  31
ATOM     31  C   UNL A   1      35.392  34.192  33.088  1.00  0.00     0.338 C 
ATOM     32  O   UNL A   1      34.563  33.722  33.840  1.00  0.00    -0.246 OA
BRANCH  31  33
ATOM     33  C   UNL A   1      36.820  34.333  33.394  1.00  0.00     0.060 A 
ATOM     34  C   UNL A   1      37.635  34.661  32.313  1.00  0.00     0.016 A 
ATOM     35  C   UNL A   1      37.310  33.713  34.552  1.00  0.00     0.016 A 
ATOM     36  C   UNL A   1      38.872  34.067  32.255  1.00  0.00     0.010 A 
ATOM     37  C   UNL A   1      38.522  33.084  34.471  1.00  0.00     0.010 A 
ATOM     38  C   UNL A   1      39.235  33.186  33.280  1.00  0.00    -0.014 A 
BRANCH  38  39
ATOM     39  C   UNL A   1      40.476  32.462  33.152  1.00  0.00     0.031 A 
ATOM     40  C   UNL A   1      41.621  33.388  33.129  1.00  0.00     0.074 A 
ATOM     41  C   UNL A   1      40.562  31.119  33.142  1.00  0.00     0.049 A 
ATOM     42  N   UNL A   1      42.238  33.815  32.080  1.00  0.00    -0.248 NA
ATOM     43  C   UNL A   1      41.921  34.147  34.354  1.00  0.00     0.031 C 
ATOM     44  C   UNL A   1      39.520  30.128  33.409  1.00  0.00     0.029 A 
ATOM     45  N   UNL A   1      41.668  30.352  32.960  1.00  0.00    -0.354 N 
ATOM     46  C   UNL A   1      43.205  34.680  32.566  1.00  0.00     0.074 A 
ATOM     47  C   UNL A   1      42.762  35.064  33.876  1.00  0.00     0.031 C 
ATOM     48  C   UNL A   1      40.098  28.915  33.594  1.00  0.00     0.029 A 
ATOM     49  C   UNL A   1      41.529  29.021  33.343  1.00  0.00     0.049 A 
ATOM     50  H   UNL A   1      42.505  30.710  32.585  1.00  0.00     0.167 HD
ATOM     51  C   UNL A   1      44.434  34.732  31.988  1.00  0.00     0.034 A 
ATOM     52  C   UNL A   1      42.540  28.120  33.504  1.00  0.00     0.034 A 
ATOM     53  C   UNL A   1      44.410  34.101  30.683  1.00  0.00     0.049 A 
ATOM     54  C   UNL A   1      43.697  28.634  32.719  1.00  0.00     0.074 A 
ATOM     55  C   UNL A   1      43.683  34.303  29.524  1.00  0.00     0.029 A 
ATOM     56  N   UNL A   1      44.931  32.828  30.574  1.00  0.00    -0.354 N 
ATOM     57  N   UNL A   1      43.695  28.707  31.416  1.00  0.00    -0.248 NA
ATOM     58  C   UNL A   1      44.622  29.544  33.382  1.00  0.00     0.031 C 
ATOM     59  C   UNL A   1      43.404  32.997  29.025  1.00  0.00     0.029 A 
ATOM     60  C   UNL A   1      44.052  32.067  29.842  1.00  0.00     0.049 A 
ATOM     61  H   UNL A   1      45.784  32.518  30.956  1.00  0.00     0.167 HD
ATOM     62  C   UNL A   1      44.256  29.942  31.121  1.00  0.00     0.074 A 
ATOM     63  C   UNL A   1      44.887  30.376  32.369  1.00  0.00     0.031 C 
ATOM     64  C   UNL A   1      43.900  30.630  29.995  1.00  0.00     0.034 A 
BRANCH  51  65
ATOM     65  C   UNL A   1      45.722  34.958  32.751  1.00  0.00     0.023 A 
ATOM     66  C   UNL A   1      46.081  33.958  33.671  1.00  0.00     0.031 A 
ATOM     67  C   UNL A   1      46.445  36.170  32.853  1.00  0.00     0.131 A 
ATOM     68  C   UNL A   1      46.997  34.220  34.700  1.00  0.00     0.055 A 
ATOM     69  C   UNL A   1      47.408  36.401  33.837  1.00  0.00     0.041 A 
ATOM     70  F   UNL A   1      46.217  37.234  32.077  1.00  0.00    -0.206 F 
ATOM     71  C   UNL A   1      47.664  35.438  34.793  1.00  0.00     0.022 A 
BRANCH  68  72
ATOM     72  S   UNL A   1      47.158  32.998  36.021  1.00  0.00     0.124 S 
ATOM     73  O   UNL A   1      45.775  32.874  36.468  1.00  0.00    -0.237 OA
ATOM     74  O   UNL A   1      47.709  31.854  35.303  1.00  0.00    -0.237 OA
ATOM     75  O   UNL A   1      48.068  33.641  36.966  1.00  0.00    -0.744 OA
ENDBRANCH  68  72
ENDBRANCH  51  65
BRANCH  52  76
ATOM     76  C   UNL A   1      42.681  27.072  34.561  1.00  0.00     0.023 A 
ATOM     77  C   UNL A   1      43.323  25.830  34.334  1.00  0.00     0.031 A 
ATOM     78  C   UNL A   1      42.410  27.398  35.909  1.00  0.00     0.131 A 
ATOM     79  C   UNL A   1      43.666  24.989  35.423  1.00  0.00     0.055 A 
ATOM     80  C   UNL A   1      42.753  26.565  36.979  1.00  0.00     0.041 A 
ATOM     81  F   UNL A   1      41.881  28.583  36.248  1.00  0.00    -0.206 F 
ATOM     82  C   UNL A   1      43.395  25.362  36.740  1.00  0.00     0.022 A 
BRANCH  79  83
ATOM     83  S   UNL A   1      44.571  23.424  35.157  1.00  0.00     0.124 S 
ATOM     84  O   UNL A   1      45.078  23.128  36.492  1.00  0.00    -0.237 OA
ATOM     85  O   UNL A   1      43.531  22.540  34.644  1.00  0.00    -0.237 OA
ATOM     86  O   UNL A   1      45.598  23.786  34.178  1.00  0.00    -0.744 OA
ENDBRANCH  79  83
ENDBRANCH  52  76
BRANCH  64  87
ATOM     87  C   UNL A   1      43.136  29.896  28.907  1.00  0.00     0.023 A 
ATOM     88  C   UNL A   1      43.718  29.169  27.841  1.00  0.00     0.031 A 
ATOM     89  C   UNL A   1      41.735  29.865  29.023  1.00  0.00     0.131 A 
ATOM     90  C   UNL A   1      42.896  28.465  26.936  1.00  0.00     0.055 A 
ATOM     91  C   UNL A   1      40.928  29.145  28.143  1.00  0.00     0.041 A 
ATOM     92  F   UNL A   1      41.120  30.517  30.023  1.00  0.00    -0.206 F 
ATOM     93  C   UNL A   1      41.505  28.449  27.090  1.00  0.00     0.022 A 
BRANCH  90  94
ATOM     94  S   UNL A   1      43.609  27.587  25.506  1.00  0.00     0.124 S 
ATOM     95  O   UNL A   1      42.585  27.714  24.477  1.00  0.00    -0.237 OA
ATOM     96  O   UNL A   1      44.846  28.327  25.271  1.00  0.00    -0.237 OA
ATOM     97  O   UNL A   1      43.804  26.225  26.009  1.00  0.00    -0.744 OA
ENDBRANCH  90  94
ENDBRANCH  64  87
ENDBRANCH  38  39
ENDBRANCH  31  33
ENDBRANCH  30  31
ENDBRANCH  29  30
ENDBRANCH  28  29
ENDBRANCH  27  28
ENDBRANCH  26  27
ENDBRANCH   1  26
TORSDOF 25
ENDMDL
