MODEL 1
REMARK VINA RESULT:     -10.3      0.000      0.000
REMARK SMILES CC(C)[NH2+][C@@]1(C(=O)OCCOCCOCCOC(=O)c2ccc(-c3c4nc(c(-c5cc(S(=O)(=O)[O-])ccc5F)c5ccc([nH]5)c(-c5cc(S(=O)(=O)[O-])ccc5F)c5nc(c(-c6cc(S(=O)(=O)[O-])ccc6F)c6ccc3[nH]6)C=C5)C=C4)cc2)CCC[C@@H](Sc2nncn2C)C1
REMARK SMILES IDX 13 1 12 2 11 3 10 4 9 5 8 6 6 7 7 8 5 9 83 10 94 11 84 12
REMARK SMILES IDX 86 13 85 14 4 15 2 18 1 19 3 20 87 21 88 22 89 23 92 24
REMARK SMILES IDX 90 25 91 26 93 27 14 28 15 29 16 30 17 31 18 32 19 33 20 34
REMARK SMILES IDX 21 35 82 36 22 37 81 38 23 39 24 40 25 41 75 42 26 43 80 44
REMARK SMILES IDX 74 45 76 46 27 47 79 48 73 49 72 50 28 52 60 53 40 54 59 55
REMARK SMILES IDX 41 56 44 57 58 58 77 59 42 60 43 61 57 63 78 64 45 65 29 66
REMARK SMILES IDX 30 67 38 68 31 69 37 70 39 71 36 72 32 73 33 74 34 75 35 76
REMARK SMILES IDX 61 77 62 78 70 79 63 80 69 81 71 82 68 83 64 84 65 85 66 86
REMARK SMILES IDX 67 87 46 88 47 89 55 90 48 91 54 92 56 93 53 94 49 95 50 96
REMARK SMILES IDX 51 97 52 98
REMARK H PARENT 4 16 4 17 76 51 44 62
REMARK Flexibility Score: inf
ROOT
ATOM      1  C   UNL A   1      33.287  29.327  24.231  1.00  0.00     0.188 C 
ENDROOT
BRANCH   1   2
ATOM      2  C   UNL A   1      33.853  28.606  22.995  1.00  0.00     0.188 C 
BRANCH   2   3
ATOM      3  O   UNL A   1      33.438  27.248  22.896  1.00  0.00    -0.376 OA
BRANCH   3   4
ATOM      4  C   UNL A   1      32.445  26.972  21.918  1.00  0.00     0.202 C 
BRANCH   4   5
ATOM      5  C   UNL A   1      32.623  25.628  21.217  1.00  0.00     0.261 C 
BRANCH   5   6
ATOM      6  O   UNL A   1      33.669  24.829  21.798  1.00  0.00    -0.459 OA
BRANCH   6   7
ATOM      7  C   UNL A   1      33.324  23.687  22.433  1.00  0.00     0.368 C 
ATOM      8  O   UNL A   1      32.899  22.695  21.848  1.00  0.00    -0.245 OA
BRANCH   7   9
ATOM      9  C   UNL A   1      33.470  23.790  23.989  1.00  0.00     0.195 C 
ATOM     10  C   UNL A   1      34.986  24.022  24.238  1.00  0.00     0.081 C 
ATOM     11  C   UNL A   1      33.067  22.568  24.868  1.00  0.00     0.096 C 
ATOM     12  C   UNL A   1      35.827  22.781  23.908  1.00  0.00     0.008 C 
ATOM     13  C   UNL A   1      33.898  21.303  24.587  1.00  0.00     0.061 C 
ATOM     14  C   UNL A   1      35.399  21.559  24.720  1.00  0.00     0.015 C 
BRANCH   9  15
ATOM     15  N   UNL A   1      32.742  25.012  24.448  1.00  0.00    -0.330 N 
ATOM     16  H   UNL A   1      33.429  25.640  24.863  1.00  0.00     0.347 HD
ATOM     17  H   UNL A   1      32.278  25.371  23.614  1.00  0.00     0.347 HD
BRANCH  15  18
ATOM     18  C   UNL A   1      31.664  24.821  25.431  1.00  0.00     0.176 C 
ATOM     19  C   UNL A   1      31.806  25.900  26.506  1.00  0.00     0.075 C 
ATOM     20  C   UNL A   1      30.267  24.924  24.810  1.00  0.00     0.075 C 
ENDBRANCH  15  18
ENDBRANCH   9  15
BRANCH  13  21
ATOM     21  S   UNL A   1      33.345  19.824  25.514  1.00  0.00    -0.082 SA
BRANCH  21  22
ATOM     22  C   UNL A   1      33.050  18.659  24.283  1.00  0.00     0.191 A 
ATOM     23  N   UNL A   1      32.679  18.891  23.047  1.00  0.00    -0.124 NA
ATOM     24  N   UNL A   1      33.207  17.317  24.467  1.00  0.00    -0.312 N 
ATOM     25  N   UNL A   1      32.598  17.676  22.400  1.00  0.00    -0.138 NA
ATOM     26  C   UNL A   1      32.926  16.744  23.264  1.00  0.00     0.226 A 
ATOM     27  C   UNL A   1      33.543  16.618  25.678  1.00  0.00     0.153 C 
ENDBRANCH  21  22
ENDBRANCH  13  21
ENDBRANCH   7   9
ENDBRANCH   6   7
ENDBRANCH   5   6
ENDBRANCH   4   5
ENDBRANCH   3   4
ENDBRANCH   2   3
ENDBRANCH   1   2
BRANCH   1  28
ATOM     28  O   UNL A   1      31.881  29.406  24.421  1.00  0.00    -0.376 OA
BRANCH  28  29
ATOM     29  C   UNL A   1      31.394  29.739  25.708  1.00  0.00     0.202 C 
BRANCH  29  30
ATOM     30  C   UNL A   1      31.736  31.132  26.241  1.00  0.00     0.261 C 
BRANCH  30  31
ATOM     31  O   UNL A   1      32.478  31.128  27.475  1.00  0.00    -0.460 OA
BRANCH  31  32
ATOM     32  C   UNL A   1      33.350  32.160  27.627  1.00  0.00     0.338 C 
ATOM     33  O   UNL A   1      33.066  33.344  27.666  1.00  0.00    -0.246 OA
BRANCH  32  34
ATOM     34  C   UNL A   1      34.720  31.664  27.898  1.00  0.00     0.060 A 
ATOM     35  C   UNL A   1      34.908  30.278  28.005  1.00  0.00     0.016 A 
ATOM     36  C   UNL A   1      35.783  32.533  28.157  1.00  0.00     0.016 A 
ATOM     37  C   UNL A   1      36.134  29.761  28.432  1.00  0.00     0.010 A 
ATOM     38  C   UNL A   1      37.009  32.013  28.605  1.00  0.00     0.010 A 
ATOM     39  C   UNL A   1      37.178  30.628  28.785  1.00  0.00    -0.014 A 
BRANCH  39  40
ATOM     40  C   UNL A   1      38.351  30.093  29.531  1.00  0.00     0.031 A 
ATOM     41  C   UNL A   1      38.572  30.551  30.950  1.00  0.00     0.074 A 
ATOM     42  C   UNL A   1      39.186  29.188  28.988  1.00  0.00     0.049 A 
ATOM     43  N   UNL A   1      39.519  30.229  31.794  1.00  0.00    -0.248 NA
ATOM     44  C   UNL A   1      37.593  31.511  31.481  1.00  0.00     0.031 C 
ATOM     45  C   UNL A   1      39.072  28.645  27.637  1.00  0.00     0.029 A 
ATOM     46  N   UNL A   1      40.291  28.560  29.508  1.00  0.00    -0.354 N 
ATOM     47  C   UNL A   1      39.256  30.950  32.955  1.00  0.00     0.074 A 
ATOM     48  C   UNL A   1      38.076  31.747  32.691  1.00  0.00     0.031 C 
ATOM     49  C   UNL A   1      40.052  27.746  27.443  1.00  0.00     0.029 A 
ATOM     50  C   UNL A   1      40.897  27.685  28.637  1.00  0.00     0.049 A 
ATOM     51  H   UNL A   1      40.620  28.721  30.422  1.00  0.00     0.167 HD
ATOM     52  C   UNL A   1      39.934  30.951  34.130  1.00  0.00     0.034 A 
ATOM     53  C   UNL A   1      42.013  26.938  28.776  1.00  0.00     0.034 A 
ATOM     54  C   UNL A   1      41.126  30.174  34.377  1.00  0.00     0.049 A 
ATOM     55  C   UNL A   1      42.791  27.006  30.072  1.00  0.00     0.074 A 
ATOM     56  C   UNL A   1      41.892  30.112  35.529  1.00  0.00     0.029 A 
ATOM     57  N   UNL A   1      41.736  29.335  33.454  1.00  0.00    -0.354 N 
ATOM     58  N   UNL A   1      42.531  27.694  31.161  1.00  0.00    -0.248 NA
ATOM     59  C   UNL A   1      44.014  26.194  30.156  1.00  0.00     0.031 C 
ATOM     60  C   UNL A   1      43.001  29.297  35.278  1.00  0.00     0.029 A 
ATOM     61  C   UNL A   1      42.886  28.779  33.999  1.00  0.00     0.049 A 
ATOM     62  H   UNL A   1      41.402  29.159  32.544  1.00  0.00     0.167 HD
ATOM     63  C   UNL A   1      43.547  27.378  32.064  1.00  0.00     0.074 A 
ATOM     64  C   UNL A   1      44.407  26.420  31.400  1.00  0.00     0.031 C 
ATOM     65  C   UNL A   1      43.750  27.837  33.325  1.00  0.00     0.034 A 
BRANCH  52  66
ATOM     66  C   UNL A   1      39.433  31.880  35.211  1.00  0.00     0.023 A 
ATOM     67  C   UNL A   1      39.917  33.194  35.346  1.00  0.00     0.031 A 
ATOM     68  C   UNL A   1      38.487  31.428  36.147  1.00  0.00     0.131 A 
ATOM     69  C   UNL A   1      39.509  33.981  36.435  1.00  0.00     0.055 A 
ATOM     70  C   UNL A   1      38.023  32.244  37.181  1.00  0.00     0.041 A 
ATOM     71  F   UNL A   1      38.006  30.175  36.084  1.00  0.00    -0.206 F 
ATOM     72  C   UNL A   1      38.546  33.524  37.338  1.00  0.00     0.022 A 
BRANCH  69  73
ATOM     73  S   UNL A   1      40.364  35.552  36.740  1.00  0.00     0.124 S 
ATOM     74  O   UNL A   1      39.631  36.462  35.864  1.00  0.00    -0.237 OA
ATOM     75  O   UNL A   1      40.167  35.744  38.172  1.00  0.00    -0.237 OA
ATOM     76  O   UNL A   1      41.740  35.278  36.331  1.00  0.00    -0.744 OA
ENDBRANCH  69  73
ENDBRANCH  52  66
BRANCH  53  77
ATOM     77  C   UNL A   1      42.514  26.094  27.647  1.00  0.00     0.023 A 
ATOM     78  C   UNL A   1      42.017  24.799  27.426  1.00  0.00     0.031 A 
ATOM     79  C   UNL A   1      43.558  26.546  26.820  1.00  0.00     0.131 A 
ATOM     80  C   UNL A   1      42.599  23.983  26.441  1.00  0.00     0.055 A 
ATOM     81  C   UNL A   1      44.091  25.754  25.802  1.00  0.00     0.041 A 
ATOM     82  F   UNL A   1      44.079  27.772  26.991  1.00  0.00    -0.206 F 
ATOM     83  C   UNL A   1      43.621  24.459  25.617  1.00  0.00     0.022 A 
BRANCH  80  84
ATOM     84  S   UNL A   1      42.069  22.251  26.316  1.00  0.00     0.124 S 
ATOM     85  O   UNL A   1      40.617  22.382  26.326  1.00  0.00    -0.237 OA
ATOM     86  O   UNL A   1      42.669  21.840  25.052  1.00  0.00    -0.237 OA
ATOM     87  O   UNL A   1      42.649  21.632  27.507  1.00  0.00    -0.744 OA
ENDBRANCH  80  84
ENDBRANCH  53  77
BRANCH  65  88
ATOM     88  C   UNL A   1      44.932  27.273  34.083  1.00  0.00     0.023 A 
ATOM     89  C   UNL A   1      44.792  26.220  35.006  1.00  0.00     0.031 A 
ATOM     90  C   UNL A   1      46.218  27.815  33.895  1.00  0.00     0.131 A 
ATOM     91  C   UNL A   1      45.900  25.787  35.750  1.00  0.00     0.055 A 
ATOM     92  C   UNL A   1      47.328  27.337  34.592  1.00  0.00     0.041 A 
ATOM     93  F   UNL A   1      46.415  28.823  33.030  1.00  0.00    -0.206 F 
ATOM     94  C   UNL A   1      47.171  26.328  35.537  1.00  0.00     0.022 A 
BRANCH  91  95
ATOM     95  S   UNL A   1      45.643  24.579  37.081  1.00  0.00     0.124 S 
ATOM     96  O   UNL A   1      44.232  24.770  37.397  1.00  0.00    -0.237 OA
ATOM     97  O   UNL A   1      45.986  23.319  36.428  1.00  0.00    -0.237 OA
ATOM     98  O   UNL A   1      46.575  25.010  38.121  1.00  0.00    -0.744 OA
ENDBRANCH  91  95
ENDBRANCH  65  88
ENDBRANCH  39  40
ENDBRANCH  32  34
ENDBRANCH  31  32
ENDBRANCH  30  31
ENDBRANCH  29  30
ENDBRANCH  28  29
ENDBRANCH   1  28
TORSDOF 24
ENDMDL
MODEL 2
REMARK VINA RESULT:      -9.8      2.154      7.531
REMARK SMILES CC(C)[NH2+][C@@]1(C(=O)OCCOCCOCCOC(=O)c2ccc(-c3c4nc(c(-c5cc(S(=O)(=O)[O-])ccc5F)c5ccc([nH]5)c(-c5cc(S(=O)(=O)[O-])ccc5F)c5nc(c(-c6cc(S(=O)(=O)[O-])ccc6F)c6ccc3[nH]6)C=C5)C=C4)cc2)CCC[C@@H](Sc2nncn2C)C1
REMARK SMILES IDX 13 1 12 2 11 3 10 4 9 5 8 6 6 7 7 8 5 9 83 10 94 11 84 12
REMARK SMILES IDX 86 13 85 14 4 15 2 18 1 19 3 20 87 21 88 22 89 23 92 24
REMARK SMILES IDX 90 25 91 26 93 27 14 28 15 29 16 30 17 31 18 32 19 33 20 34
REMARK SMILES IDX 21 35 82 36 22 37 81 38 23 39 24 40 25 41 75 42 26 43 80 44
REMARK SMILES IDX 74 45 76 46 27 47 79 48 73 49 72 50 28 52 60 53 40 54 59 55
REMARK SMILES IDX 41 56 44 57 58 58 77 59 42 60 43 61 57 63 78 64 45 65 29 66
REMARK SMILES IDX 30 67 38 68 31 69 37 70 39 71 36 72 32 73 33 74 34 75 35 76
REMARK SMILES IDX 61 77 62 78 70 79 63 80 69 81 71 82 68 83 64 84 65 85 66 86
REMARK SMILES IDX 67 87 46 88 47 89 55 90 48 91 54 92 56 93 53 94 49 95 50 96
REMARK SMILES IDX 51 97 52 98
REMARK H PARENT 4 16 4 17 76 51 44 62
REMARK Flexibility Score: inf
ROOT
ATOM      1  C   UNL A   1      33.230  29.188  25.090  1.00  0.00     0.188 C 
ENDROOT
BRANCH   1   2
ATOM      2  C   UNL A   1      33.484  28.927  23.595  1.00  0.00     0.188 C 
BRANCH   2   3
ATOM      3  O   UNL A   1      33.344  27.560  23.229  1.00  0.00    -0.376 OA
BRANCH   3   4
ATOM      4  C   UNL A   1      32.582  27.305  22.057  1.00  0.00     0.202 C 
BRANCH   4   5
ATOM      5  C   UNL A   1      32.946  25.999  21.354  1.00  0.00     0.261 C 
BRANCH   5   6
ATOM      6  O   UNL A   1      33.866  25.194  22.112  1.00  0.00    -0.459 OA
BRANCH   6   7
ATOM      7  C   UNL A   1      33.417  24.032  22.635  1.00  0.00     0.368 C 
ATOM      8  O   UNL A   1      32.948  23.124  21.954  1.00  0.00    -0.245 OA
BRANCH   7   9
ATOM      9  C   UNL A   1      33.506  23.996  24.198  1.00  0.00     0.195 C 
ATOM     10  C   UNL A   1      35.021  24.125  24.520  1.00  0.00     0.081 C 
ATOM     11  C   UNL A   1      33.007  22.730  24.956  1.00  0.00     0.096 C 
ATOM     12  C   UNL A   1      35.809  22.871  24.115  1.00  0.00     0.008 C 
ATOM     13  C   UNL A   1      33.783  21.449  24.597  1.00  0.00     0.061 C 
ATOM     14  C   UNL A   1      35.288  21.611  24.804  1.00  0.00     0.015 C 
BRANCH   9  15
ATOM     15  N   UNL A   1      32.824  25.214  24.734  1.00  0.00    -0.330 N 
ATOM     16  H   UNL A   1      33.541  25.814  25.140  1.00  0.00     0.347 HD
ATOM     17  H   UNL A   1      32.330  25.612  23.936  1.00  0.00     0.347 HD
BRANCH  15  18
ATOM     18  C   UNL A   1      31.788  25.006  25.758  1.00  0.00     0.176 C 
ATOM     19  C   UNL A   1      31.986  26.056  26.853  1.00  0.00     0.075 C 
ATOM     20  C   UNL A   1      30.366  25.136  25.202  1.00  0.00     0.075 C 
ENDBRANCH  15  18
ENDBRANCH   9  15
BRANCH  13  21
ATOM     21  S   UNL A   1      33.118  19.930  25.374  1.00  0.00    -0.082 SA
BRANCH  21  22
ATOM     22  C   UNL A   1      33.107  18.786  24.088  1.00  0.00     0.191 A 
ATOM     23  N   UNL A   1      32.196  18.655  23.154  1.00  0.00    -0.124 NA
ATOM     24  N   UNL A   1      34.104  17.878  23.884  1.00  0.00    -0.312 N 
ATOM     25  N   UNL A   1      32.606  17.644  22.310  1.00  0.00    -0.138 NA
ATOM     26  C   UNL A   1      33.755  17.196  22.758  1.00  0.00     0.226 A 
ATOM     27  C   UNL A   1      35.263  17.631  24.697  1.00  0.00     0.153 C 
ENDBRANCH  21  22
ENDBRANCH  13  21
ENDBRANCH   7   9
ENDBRANCH   6   7
ENDBRANCH   5   6
ENDBRANCH   4   5
ENDBRANCH   3   4
ENDBRANCH   2   3
ENDBRANCH   1   2
BRANCH   1  28
ATOM     28  O   UNL A   1      32.221  30.108  25.485  1.00  0.00    -0.376 OA
BRANCH  28  29
ATOM     29  C   UNL A   1      32.208  30.556  26.828  1.00  0.00     0.202 C 
BRANCH  29  30
ATOM     30  C   UNL A   1      33.514  31.134  27.380  1.00  0.00     0.261 C 
BRANCH  30  31
ATOM     31  O   UNL A   1      33.752  32.508  27.019  1.00  0.00    -0.460 OA
BRANCH  31  32
ATOM     32  C   UNL A   1      33.610  33.403  28.033  1.00  0.00     0.338 C 
ATOM     33  O   UNL A   1      32.675  34.167  28.193  1.00  0.00    -0.246 OA
BRANCH  32  34
ATOM     34  C   UNL A   1      34.683  33.239  29.043  1.00  0.00     0.060 A 
ATOM     35  C   UNL A   1      35.995  33.553  28.663  1.00  0.00     0.016 A 
ATOM     36  C   UNL A   1      34.436  32.680  30.299  1.00  0.00     0.016 A 
ATOM     37  C   UNL A   1      37.067  33.254  29.509  1.00  0.00     0.010 A 
ATOM     38  C   UNL A   1      35.514  32.362  31.140  1.00  0.00     0.010 A 
ATOM     39  C   UNL A   1      36.839  32.608  30.732  1.00  0.00    -0.014 A 
BRANCH  39  40
ATOM     40  C   UNL A   1      37.988  32.013  31.470  1.00  0.00     0.031 A 
ATOM     41  C   UNL A   1      38.775  30.911  30.808  1.00  0.00     0.074 A 
ATOM     42  C   UNL A   1      38.360  32.459  32.683  1.00  0.00     0.049 A 
ATOM     43  N   UNL A   1      39.808  30.239  31.251  1.00  0.00    -0.248 NA
ATOM     44  C   UNL A   1      38.326  30.508  29.467  1.00  0.00     0.031 C 
ATOM     45  C   UNL A   1      37.702  33.531  33.423  1.00  0.00     0.029 A 
ATOM     46  N   UNL A   1      39.390  32.070  33.505  1.00  0.00    -0.354 N 
ATOM     47  C   UNL A   1      40.130  29.331  30.248  1.00  0.00     0.074 A 
ATOM     48  C   UNL A   1      39.162  29.520  29.188  1.00  0.00     0.031 C 
ATOM     49  C   UNL A   1      38.358  33.733  34.579  1.00  0.00     0.029 A 
ATOM     50  C   UNL A   1      39.454  32.770  34.688  1.00  0.00     0.049 A 
ATOM     51  H   UNL A   1      40.025  31.355  33.270  1.00  0.00     0.167 HD
ATOM     52  C   UNL A   1      41.136  28.421  30.213  1.00  0.00     0.034 A 
ATOM     53  C   UNL A   1      40.284  32.637  35.744  1.00  0.00     0.034 A 
ATOM     54  C   UNL A   1      42.081  28.218  31.285  1.00  0.00     0.049 A 
ATOM     55  C   UNL A   1      41.357  31.570  35.710  1.00  0.00     0.074 A 
ATOM     56  C   UNL A   1      43.130  27.317  31.351  1.00  0.00     0.029 A 
ATOM     57  N   UNL A   1      42.085  28.914  32.487  1.00  0.00    -0.354 N 
ATOM     58  N   UNL A   1      41.649  30.716  34.755  1.00  0.00    -0.248 NA
ATOM     59  C   UNL A   1      42.213  31.451  36.900  1.00  0.00     0.031 C 
ATOM     60  C   UNL A   1      43.719  27.417  32.617  1.00  0.00     0.029 A 
ATOM     61  C   UNL A   1      43.096  28.440  33.312  1.00  0.00     0.049 A 
ATOM     62  H   UNL A   1      41.462  29.640  32.720  1.00  0.00     0.167 HD
ATOM     63  C   UNL A   1      42.736  29.977  35.224  1.00  0.00     0.074 A 
ATOM     64  C   UNL A   1      43.061  30.502  36.533  1.00  0.00     0.031 C 
ATOM     65  C   UNL A   1      43.404  28.957  34.626  1.00  0.00     0.034 A 
BRANCH  52  66
ATOM     66  C   UNL A   1      41.214  27.529  28.995  1.00  0.00     0.023 A 
ATOM     67  C   UNL A   1      42.185  27.719  27.996  1.00  0.00     0.031 A 
ATOM     68  C   UNL A   1      40.274  26.500  28.812  1.00  0.00     0.131 A 
ATOM     69  C   UNL A   1      42.148  26.941  26.828  1.00  0.00     0.055 A 
ATOM     70  C   UNL A   1      40.292  25.676  27.685  1.00  0.00     0.041 A 
ATOM     71  F   UNL A   1      39.308  26.286  29.721  1.00  0.00    -0.206 F 
ATOM     72  C   UNL A   1      41.223  25.905  26.677  1.00  0.00     0.022 A 
BRANCH  69  73
ATOM     73  S   UNL A   1      43.226  27.401  25.443  1.00  0.00     0.124 S 
ATOM     74  O   UNL A   1      44.235  28.217  26.112  1.00  0.00    -0.237 OA
ATOM     75  O   UNL A   1      43.674  26.105  24.949  1.00  0.00    -0.237 OA
ATOM     76  O   UNL A   1      42.336  28.137  24.546  1.00  0.00    -0.744 OA
ENDBRANCH  69  73
ENDBRANCH  52  66
BRANCH  53  77
ATOM     77  C   UNL A   1      40.117  33.490  36.960  1.00  0.00     0.023 A 
ATOM     78  C   UNL A   1      39.615  32.961  38.161  1.00  0.00     0.031 A 
ATOM     79  C   UNL A   1      40.382  34.871  36.912  1.00  0.00     0.131 A 
ATOM     80  C   UNL A   1      39.346  33.814  39.245  1.00  0.00     0.055 A 
ATOM     81  C   UNL A   1      40.171  35.704  38.012  1.00  0.00     0.041 A 
ATOM     82  F   UNL A   1      40.853  35.433  35.788  1.00  0.00    -0.206 F 
ATOM     83  C   UNL A   1      39.636  35.179  39.183  1.00  0.00     0.022 A 
BRANCH  80  84
ATOM     84  S   UNL A   1      38.513  33.133  40.708  1.00  0.00     0.124 S 
ATOM     85  O   UNL A   1      38.350  31.734  40.332  1.00  0.00    -0.237 OA
ATOM     86  O   UNL A   1      39.483  33.406  41.763  1.00  0.00    -0.237 OA
ATOM     87  O   UNL A   1      37.276  33.908  40.786  1.00  0.00    -0.744 OA
ENDBRANCH  80  84
ENDBRANCH  53  77
BRANCH  65  88
ATOM     88  C   UNL A   1      44.582  28.371  35.373  1.00  0.00     0.023 A 
ATOM     89  C   UNL A   1      44.471  27.193  36.134  1.00  0.00     0.031 A 
ATOM     90  C   UNL A   1      45.833  29.016  35.339  1.00  0.00     0.131 A 
ATOM     91  C   UNL A   1      45.568  26.733  36.880  1.00  0.00     0.055 A 
ATOM     92  C   UNL A   1      46.938  28.518  36.032  1.00  0.00     0.041 A 
ATOM     93  F   UNL A   1      46.001  30.144  34.632  1.00  0.00    -0.206 F 
ATOM     94  C   UNL A   1      46.805  27.380  36.821  1.00  0.00     0.022 A 
BRANCH  91  95
ATOM     95  S   UNL A   1      45.330  25.338  38.017  1.00  0.00     0.124 S 
ATOM     96  O   UNL A   1      44.012  24.847  37.627  1.00  0.00    -0.237 OA
ATOM     97  O   UNL A   1      46.457  24.472  37.687  1.00  0.00    -0.237 OA
ATOM     98  O   UNL A   1      45.393  25.958  39.339  1.00  0.00    -0.744 OA
ENDBRANCH  91  95
ENDBRANCH  65  88
ENDBRANCH  39  40
ENDBRANCH  32  34
ENDBRANCH  31  32
ENDBRANCH  30  31
ENDBRANCH  29  30
ENDBRANCH  28  29
ENDBRANCH   1  28
TORSDOF 24
ENDMDL
MODEL 3
REMARK VINA RESULT:      -9.6      1.370      7.438
REMARK SMILES CC(C)[NH2+][C@@]1(C(=O)OCCOCCOCCOC(=O)c2ccc(-c3c4nc(c(-c5cc(S(=O)(=O)[O-])ccc5F)c5ccc([nH]5)c(-c5cc(S(=O)(=O)[O-])ccc5F)c5nc(c(-c6cc(S(=O)(=O)[O-])ccc6F)c6ccc3[nH]6)C=C5)C=C4)cc2)CCC[C@@H](Sc2nncn2C)C1
REMARK SMILES IDX 13 1 12 2 11 3 10 4 9 5 8 6 6 7 7 8 5 9 83 10 94 11 84 12
REMARK SMILES IDX 86 13 85 14 4 15 2 18 1 19 3 20 87 21 88 22 89 23 92 24
REMARK SMILES IDX 90 25 91 26 93 27 14 28 15 29 16 30 17 31 18 32 19 33 20 34
REMARK SMILES IDX 21 35 82 36 22 37 81 38 23 39 24 40 25 41 75 42 26 43 80 44
REMARK SMILES IDX 74 45 76 46 27 47 79 48 73 49 72 50 28 52 60 53 40 54 59 55
REMARK SMILES IDX 41 56 44 57 58 58 77 59 42 60 43 61 57 63 78 64 45 65 29 66
REMARK SMILES IDX 30 67 38 68 31 69 37 70 39 71 36 72 32 73 33 74 34 75 35 76
REMARK SMILES IDX 61 77 62 78 70 79 63 80 69 81 71 82 68 83 64 84 65 85 66 86
REMARK SMILES IDX 67 87 46 88 47 89 55 90 48 91 54 92 56 93 53 94 49 95 50 96
REMARK SMILES IDX 51 97 52 98
REMARK H PARENT 4 16 4 17 76 51 44 62
REMARK Flexibility Score: inf
ROOT
ATOM      1  C   UNL A   1      32.658  28.913  24.872  1.00  0.00     0.188 C 
ENDROOT
BRANCH   1   2
ATOM      2  C   UNL A   1      33.066  28.665  23.409  1.00  0.00     0.188 C 
BRANCH   2   3
ATOM      3  O   UNL A   1      33.116  27.286  23.063  1.00  0.00    -0.376 OA
BRANCH   3   4
ATOM      4  C   UNL A   1      32.458  26.924  21.857  1.00  0.00     0.202 C 
BRANCH   4   5
ATOM      5  C   UNL A   1      32.976  25.630  21.234  1.00  0.00     0.261 C 
BRANCH   5   6
ATOM      6  O   UNL A   1      33.811  24.874  22.129  1.00  0.00    -0.459 OA
BRANCH   6   7
ATOM      7  C   UNL A   1      33.315  23.733  22.655  1.00  0.00     0.368 C 
ATOM      8  O   UNL A   1      32.840  22.829  21.973  1.00  0.00    -0.245 OA
BRANCH   7   9
ATOM      9  C   UNL A   1      33.360  23.717  24.221  1.00  0.00     0.195 C 
ATOM     10  C   UNL A   1      34.849  23.971  24.584  1.00  0.00     0.081 C 
ATOM     11  C   UNL A   1      32.943  22.420  24.976  1.00  0.00     0.096 C 
ATOM     12  C   UNL A   1      35.749  22.782  24.216  1.00  0.00     0.008 C 
ATOM     13  C   UNL A   1      33.830  21.204  24.653  1.00  0.00     0.061 C 
ATOM     14  C   UNL A   1      35.310  21.489  24.902  1.00  0.00     0.015 C 
BRANCH   9  15
ATOM     15  N   UNL A   1      32.566  24.879  24.724  1.00  0.00    -0.330 N 
ATOM     16  H   UNL A   1      32.958  25.152  25.624  1.00  0.00     0.347 HD
ATOM     17  H   UNL A   1      32.638  25.585  23.991  1.00  0.00     0.347 HD
BRANCH  15  18
ATOM     18  C   UNL A   1      31.122  24.672  24.913  1.00  0.00     0.176 C 
ATOM     19  C   UNL A   1      30.698  25.417  26.180  1.00  0.00     0.075 C 
ATOM     20  C   UNL A   1      30.287  25.189  23.736  1.00  0.00     0.075 C 
ENDBRANCH  15  18
ENDBRANCH   9  15
BRANCH  13  21
ATOM     21  S   UNL A   1      33.268  19.642  25.426  1.00  0.00    -0.082 SA
BRANCH  21  22
ATOM     22  C   UNL A   1      33.251  18.524  24.118  1.00  0.00     0.191 A 
ATOM     23  N   UNL A   1      32.462  18.544  23.071  1.00  0.00    -0.124 NA
ATOM     24  N   UNL A   1      34.113  17.472  24.020  1.00  0.00    -0.312 N 
ATOM     25  N   UNL A   1      32.819  17.488  22.260  1.00  0.00    -0.138 NA
ATOM     26  C   UNL A   1      33.815  16.861  22.840  1.00  0.00     0.226 A 
ATOM     27  C   UNL A   1      35.102  17.039  24.970  1.00  0.00     0.153 C 
ENDBRANCH  21  22
ENDBRANCH  13  21
ENDBRANCH   7   9
ENDBRANCH   6   7
ENDBRANCH   5   6
ENDBRANCH   4   5
ENDBRANCH   3   4
ENDBRANCH   2   3
ENDBRANCH   1   2
BRANCH   1  28
ATOM     28  O   UNL A   1      31.868  30.047  25.202  1.00  0.00    -0.376 OA
BRANCH  28  29
ATOM     29  C   UNL A   1      31.756  30.415  26.565  1.00  0.00     0.202 C 
BRANCH  29  30
ATOM     30  C   UNL A   1      33.039  30.864  27.270  1.00  0.00     0.261 C 
BRANCH  30  31
ATOM     31  O   UNL A   1      33.323  32.270  27.143  1.00  0.00    -0.460 OA
BRANCH  31  32
ATOM     32  C   UNL A   1      33.964  32.827  28.205  1.00  0.00     0.338 C 
ATOM     33  O   UNL A   1      33.516  33.678  28.953  1.00  0.00    -0.246 OA
BRANCH  32  34
ATOM     34  C   UNL A   1      35.262  32.155  28.455  1.00  0.00     0.060 A 
ATOM     35  C   UNL A   1      35.238  30.862  28.997  1.00  0.00     0.016 A 
ATOM     36  C   UNL A   1      36.481  32.813  28.274  1.00  0.00     0.016 A 
ATOM     37  C   UNL A   1      36.422  30.249  29.417  1.00  0.00     0.010 A 
ATOM     38  C   UNL A   1      37.668  32.205  28.715  1.00  0.00     0.010 A 
ATOM     39  C   UNL A   1      37.641  30.937  29.326  1.00  0.00    -0.014 A 
BRANCH  39  40
ATOM     40  C   UNL A   1      38.830  30.417  30.058  1.00  0.00     0.031 A 
ATOM     41  C   UNL A   1      39.654  29.332  29.413  1.00  0.00     0.074 A 
ATOM     42  C   UNL A   1      39.204  30.917  31.250  1.00  0.00     0.049 A 
ATOM     43  N   UNL A   1      40.724  28.722  29.856  1.00  0.00    -0.248 NA
ATOM     44  C   UNL A   1      39.198  28.868  28.094  1.00  0.00     0.031 C 
ATOM     45  C   UNL A   1      38.511  31.981  31.970  1.00  0.00     0.029 A 
ATOM     46  N   UNL A   1      40.266  30.600  32.063  1.00  0.00    -0.354 N 
ATOM     47  C   UNL A   1      41.069  27.798  28.874  1.00  0.00     0.074 A 
ATOM     48  C   UNL A   1      40.073  27.911  27.828  1.00  0.00     0.031 C 
ATOM     49  C   UNL A   1      39.179  32.247  33.106  1.00  0.00     0.029 A 
ATOM     50  C   UNL A   1      40.319  31.338  33.222  1.00  0.00     0.049 A 
ATOM     51  H   UNL A   1      40.928  29.907  31.836  1.00  0.00     0.167 HD
ATOM     52  C   UNL A   1      42.114  26.934  28.846  1.00  0.00     0.034 A 
ATOM     53  C   UNL A   1      41.175  31.275  34.265  1.00  0.00     0.034 A 
ATOM     54  C   UNL A   1      43.088  26.807  29.905  1.00  0.00     0.049 A 
ATOM     55  C   UNL A   1      42.294  30.258  34.241  1.00  0.00     0.074 A 
ATOM     56  C   UNL A   1      44.178  25.956  29.977  1.00  0.00     0.029 A 
ATOM     57  N   UNL A   1      43.082  27.540  31.085  1.00  0.00    -0.354 N 
ATOM     58  N   UNL A   1      42.607  29.389  33.306  1.00  0.00    -0.248 NA
ATOM     59  C   UNL A   1      43.176  30.214  35.416  1.00  0.00     0.031 C 
ATOM     60  C   UNL A   1      44.785  26.122  31.227  1.00  0.00     0.029 A 
ATOM     61  C   UNL A   1      44.129  27.137  31.904  1.00  0.00     0.049 A 
ATOM     62  H   UNL A   1      42.431  28.243  31.308  1.00  0.00     0.167 HD
ATOM     63  C   UNL A   1      43.735  28.714  33.775  1.00  0.00     0.074 A 
ATOM     64  C   UNL A   1      44.060  29.294  35.061  1.00  0.00     0.031 C 
ATOM     65  C   UNL A   1      44.437  27.707  33.195  1.00  0.00     0.034 A 
BRANCH  52  66
ATOM     66  C   UNL A   1      42.210  26.009  27.654  1.00  0.00     0.023 A 
ATOM     67  C   UNL A   1      41.553  24.766  27.624  1.00  0.00     0.031 A 
ATOM     68  C   UNL A   1      43.004  26.362  26.550  1.00  0.00     0.131 A 
ATOM     69  C   UNL A   1      41.764  23.890  26.546  1.00  0.00     0.055 A 
ATOM     70  C   UNL A   1      43.145  25.521  25.444  1.00  0.00     0.041 A 
ATOM     71  F   UNL A   1      43.673  27.526  26.532  1.00  0.00    -0.206 F 
ATOM     72  C   UNL A   1      42.535  24.270  25.445  1.00  0.00     0.022 A 
BRANCH  69  73
ATOM     73  S   UNL A   1      41.141  22.191  26.672  1.00  0.00     0.124 S 
ATOM     74  O   UNL A   1      41.981  21.496  25.700  1.00  0.00    -0.237 OA
ATOM     75  O   UNL A   1      41.383  21.870  28.074  1.00  0.00    -0.237 OA
ATOM     76  O   UNL A   1      39.735  22.313  26.294  1.00  0.00    -0.744 OA
ENDBRANCH  69  73
ENDBRANCH  52  66
BRANCH  53  77
ATOM     77  C   UNL A   1      40.991  32.158  35.458  1.00  0.00     0.023 A 
ATOM     78  C   UNL A   1      40.008  31.886  36.424  1.00  0.00     0.031 A 
ATOM     79  C   UNL A   1      41.747  33.335  35.605  1.00  0.00     0.131 A 
ATOM     80  C   UNL A   1      39.773  32.802  37.463  1.00  0.00     0.055 A 
ATOM     81  C   UNL A   1      41.551  34.211  36.673  1.00  0.00     0.041 A 
ATOM     82  F   UNL A   1      42.693  33.652  34.707  1.00  0.00    -0.206 F 
ATOM     83  C   UNL A   1      40.549  33.955  37.602  1.00  0.00     0.022 A 
BRANCH  80  84
ATOM     84  S   UNL A   1      38.366  32.520  38.576  1.00  0.00     0.124 S 
ATOM     85  O   UNL A   1      37.721  33.828  38.578  1.00  0.00    -0.237 OA
ATOM     86  O   UNL A   1      37.648  31.450  37.892  1.00  0.00    -0.237 OA
ATOM     87  O   UNL A   1      39.001  32.134  39.835  1.00  0.00    -0.744 OA
ENDBRANCH  80  84
ENDBRANCH  53  77
BRANCH  65  88
ATOM     88  C   UNL A   1      45.655  27.198  33.935  1.00  0.00     0.023 A 
ATOM     89  C   UNL A   1      45.587  26.109  34.823  1.00  0.00     0.031 A 
ATOM     90  C   UNL A   1      46.902  27.829  33.765  1.00  0.00     0.131 A 
ATOM     91  C   UNL A   1      46.723  25.726  35.553  1.00  0.00     0.055 A 
ATOM     92  C   UNL A   1      48.043  27.403  34.446  1.00  0.00     0.041 A 
ATOM     93  F   UNL A   1      47.030  28.875  32.933  1.00  0.00    -0.206 F 
ATOM     94  C   UNL A   1      47.954  26.356  35.358  1.00  0.00     0.022 A 
BRANCH  91  95
ATOM     95  S   UNL A   1      46.548  24.461  36.844  1.00  0.00     0.124 S 
ATOM     96  O   UNL A   1      46.858  23.236  36.115  1.00  0.00    -0.237 OA
ATOM     97  O   UNL A   1      47.537  24.885  37.830  1.00  0.00    -0.237 OA
ATOM     98  O   UNL A   1      45.155  24.594  37.268  1.00  0.00    -0.744 OA
ENDBRANCH  91  95
ENDBRANCH  65  88
ENDBRANCH  39  40
ENDBRANCH  32  34
ENDBRANCH  31  32
ENDBRANCH  30  31
ENDBRANCH  29  30
ENDBRANCH  28  29
ENDBRANCH   1  28
TORSDOF 24
ENDMDL
