MODEL 1
REMARK VINA RESULT:     -11.9      0.000      0.000
REMARK SMILES O=C(OCCOCCOCCOC(=O)c1ccc(-c2c3nc(c(-c4cc(S(=O)(=O)[O-])ccc4F)c4ccc([nH]4)c(-c4cc(S(=O)(=O)[O-])ccc4F)c4nc(c(-c5cc(S(=O)(=O)[O-])ccc5F)c5ccc2[nH]5)C=C4)C=C3)cc1)C1=Cc2cc(Cl)cc(-c3ccc(CO)cc3)c2O[C@@H]1C(F)(F)F
REMARK SMILES IDX 7 1 6 2 5 3 4 4 3 5 2 6 1 7 78 8 79 9 96 10 80 11 95 12
REMARK SMILES IDX 81 13 94 14 82 15 85 16 83 17 84 18 97 19 98 20 99 21 100 22
REMARK SMILES IDX 86 23 87 24 93 25 88 26 92 27 89 28 90 29 91 30 8 32 9 33
REMARK SMILES IDX 10 34 11 35 12 36 13 37 14 38 15 39 16 40 77 41 17 42 76 43
REMARK SMILES IDX 18 44 19 45 20 46 70 47 21 48 75 49 69 50 71 51 22 52 74 53
REMARK SMILES IDX 68 54 67 55 23 57 55 58 35 59 54 60 36 61 39 62 53 63 72 64
REMARK SMILES IDX 37 65 38 66 52 68 73 69 40 70 24 71 25 72 33 73 26 74 32 75
REMARK SMILES IDX 34 76 31 77 27 78 28 79 29 80 30 81 56 82 57 83 65 84 58 85
REMARK SMILES IDX 64 86 66 87 63 88 59 89 60 90 61 91 62 92 41 93 42 94 50 95
REMARK SMILES IDX 43 96 49 97 51 98 48 99 44 100 45 101 46 102 47 103
REMARK H PARENT 91 31 71 56 39 67
REMARK Flexibility Score: inf
ROOT
ATOM      1  C   UNL A   1      35.634  20.799  25.541  1.00  0.00     0.188 C 
ENDROOT
BRANCH   1   2
ATOM      2  O   UNL A   1      34.678  19.976  24.690  1.00  0.00    -0.376 OA
BRANCH   2   3
ATOM      3  C   UNL A   1      32.978  20.363  24.345  1.00  0.00     0.202 C 
BRANCH   3   4
ATOM      4  C   UNL A   1      31.813  21.646  25.660  1.00  0.00     0.261 C 
BRANCH   4   5
ATOM      5  O   UNL A   1      30.749  22.647  25.229  1.00  0.00    -0.460 OA
BRANCH   5   6
ATOM      6  C   UNL A   1      30.859  23.808  25.894  1.00  0.00     0.338 C 
ATOM      7  O   UNL A   1      30.147  24.226  26.774  1.00  0.00    -0.246 OA
BRANCH   6   8
ATOM      8  C   UNL A   1      31.668  24.502  24.901  1.00  0.00     0.087 C 
ATOM      9  C   UNL A   1      30.965  25.286  23.913  1.00  0.00     0.027 C 
ATOM     10  C   UNL A   1      32.842  25.219  26.221  1.00  0.00     0.316 C 
ATOM     11  C   UNL A   1      30.811  27.063  23.962  1.00  0.00     0.019 A 
ATOM     12  O   UNL A   1      32.557  27.159  26.428  1.00  0.00    -0.475 OA
ATOM     13  C   UNL A   1      29.982  27.629  23.031  1.00  0.00     0.032 A 
ATOM     14  C   UNL A   1      31.516  28.050  25.205  1.00  0.00     0.135 A 
ATOM     15  C   UNL A   1      29.824  29.010  23.141  1.00  0.00     0.042 A 
ATOM     16  C   UNL A   1      31.335  29.429  25.199  1.00  0.00     0.026 A 
ATOM     17  Cl  UNL A   1      28.781  29.785  21.993  1.00  0.00    -0.084 Cl
ATOM     18  C   UNL A   1      30.462  29.840  24.134  1.00  0.00     0.033 A 
BRANCH  10  19
ATOM     19  C   UNL A   1      34.166  24.300  25.558  1.00  0.00     0.430 C 
ATOM     20  F   UNL A   1      34.051  23.696  24.364  1.00  0.00    -0.167 F 
ATOM     21  F   UNL A   1      35.275  25.077  25.519  1.00  0.00    -0.167 F 
ATOM     22  F   UNL A   1      34.496  23.255  26.382  1.00  0.00    -0.167 F 
ENDBRANCH  10  19
BRANCH  16  23
ATOM     23  C   UNL A   1      31.899  30.524  25.989  1.00  0.00    -0.015 A 
ATOM     24  C   UNL A   1      33.004  30.344  26.825  1.00  0.00     0.009 A 
ATOM     25  C   UNL A   1      31.189  31.738  26.116  1.00  0.00     0.009 A 
ATOM     26  C   UNL A   1      33.481  31.394  27.625  1.00  0.00     0.007 A 
ATOM     27  C   UNL A   1      31.678  32.800  26.893  1.00  0.00     0.007 A 
ATOM     28  C   UNL A   1      32.875  32.657  27.598  1.00  0.00    -0.023 A 
BRANCH  28  29
ATOM     29  C   UNL A   1      33.526  33.838  28.269  1.00  0.00     0.191 C 
BRANCH  29  30
ATOM     30  O   UNL A   1      34.269  33.444  29.411  1.00  0.00    -0.392 OA
ATOM     31  H   UNL A   1      33.980  33.962  30.179  1.00  0.00     0.211 HD
ENDBRANCH  29  30
ENDBRANCH  28  29
ENDBRANCH  16  23
ENDBRANCH   6   8
ENDBRANCH   5   6
ENDBRANCH   4   5
ENDBRANCH   3   4
ENDBRANCH   2   3
ENDBRANCH   1   2
BRANCH   1  32
ATOM     32  C   UNL A   1      36.950  21.402  25.023  1.00  0.00     0.188 C 
BRANCH  32  33
ATOM     33  O   UNL A   1      38.099  21.319  25.818  1.00  0.00    -0.376 OA
BRANCH  33  34
ATOM     34  C   UNL A   1      39.118  20.509  25.280  1.00  0.00     0.202 C 
BRANCH  34  35
ATOM     35  C   UNL A   1      40.231  19.960  26.178  1.00  0.00     0.261 C 
BRANCH  35  36
ATOM     36  O   UNL A   1      41.390  19.497  25.482  1.00  0.00    -0.460 OA
BRANCH  36  37
ATOM     37  C   UNL A   1      42.563  19.584  26.155  1.00  0.00     0.338 C 
ATOM     38  O   UNL A   1      43.385  18.704  26.331  1.00  0.00    -0.246 OA
BRANCH  37  39
ATOM     39  C   UNL A   1      42.762  21.002  26.495  1.00  0.00     0.060 A 
ATOM     40  C   UNL A   1      42.932  21.962  25.484  1.00  0.00     0.016 A 
ATOM     41  C   UNL A   1      42.793  21.360  27.840  1.00  0.00     0.016 A 
ATOM     42  C   UNL A   1      43.114  23.300  25.820  1.00  0.00     0.010 A 
ATOM     43  C   UNL A   1      43.029  22.686  28.176  1.00  0.00     0.010 A 
ATOM     44  C   UNL A   1      43.215  23.651  27.169  1.00  0.00    -0.014 A 
BRANCH  44  45
ATOM     45  C   UNL A   1      43.821  24.939  27.552  1.00  0.00     0.031 A 
ATOM     46  C   UNL A   1      42.885  26.010  28.025  1.00  0.00     0.074 A 
ATOM     47  C   UNL A   1      45.133  25.169  27.398  1.00  0.00     0.049 A 
ATOM     48  N   UNL A   1      43.105  27.281  28.221  1.00  0.00    -0.248 NA
ATOM     49  C   UNL A   1      41.498  25.585  28.276  1.00  0.00     0.031 C 
ATOM     50  C   UNL A   1      46.121  24.175  26.988  1.00  0.00     0.029 A 
ATOM     51  N   UNL A   1      45.848  26.331  27.533  1.00  0.00    -0.354 N 
ATOM     52  C   UNL A   1      41.877  27.814  28.593  1.00  0.00     0.074 A 
ATOM     53  C   UNL A   1      40.915  26.735  28.562  1.00  0.00     0.031 C 
ATOM     54  C   UNL A   1      47.315  24.780  26.870  1.00  0.00     0.029 A 
ATOM     55  C   UNL A   1      47.159  26.210  27.138  1.00  0.00     0.049 A 
ATOM     56  H   UNL A   1      45.461  27.168  27.877  1.00  0.00     0.167 HD
ATOM     57  C   UNL A   1      41.584  29.095  28.921  1.00  0.00     0.034 A 
ATOM     58  C   UNL A   1      48.100  27.160  26.960  1.00  0.00     0.034 A 
ATOM     59  C   UNL A   1      42.562  30.151  28.889  1.00  0.00     0.049 A 
ATOM     60  C   UNL A   1      47.739  28.600  27.239  1.00  0.00     0.074 A 
ATOM     61  C   UNL A   1      42.400  31.484  29.212  1.00  0.00     0.029 A 
ATOM     62  N   UNL A   1      43.882  29.997  28.473  1.00  0.00    -0.354 N 
ATOM     63  N   UNL A   1      46.582  29.107  27.607  1.00  0.00    -0.248 NA
ATOM     64  C   UNL A   1      48.805  29.597  27.082  1.00  0.00     0.031 C 
ATOM     65  C   UNL A   1      43.584  32.154  28.889  1.00  0.00     0.029 A 
ATOM     66  C   UNL A   1      44.529  31.221  28.485  1.00  0.00     0.049 A 
ATOM     67  H   UNL A   1      44.294  29.144  28.209  1.00  0.00     0.167 HD
ATOM     68  C   UNL A   1      46.793  30.475  27.761  1.00  0.00     0.074 A 
ATOM     69  C   UNL A   1      48.185  30.714  27.439  1.00  0.00     0.031 C 
ATOM     70  C   UNL A   1      45.920  31.441  28.152  1.00  0.00     0.034 A 
BRANCH  57  71
ATOM     71  C   UNL A   1      40.142  29.410  29.238  1.00  0.00     0.023 A 
ATOM     72  C   UNL A   1      39.681  29.529  30.560  1.00  0.00     0.031 A 
ATOM     73  C   UNL A   1      39.193  29.497  28.202  1.00  0.00     0.131 A 
ATOM     74  C   UNL A   1      38.304  29.606  30.817  1.00  0.00     0.055 A 
ATOM     75  C   UNL A   1      37.836  29.689  28.461  1.00  0.00     0.041 A 
ATOM     76  F   UNL A   1      39.564  29.358  26.920  1.00  0.00    -0.206 F 
ATOM     77  C   UNL A   1      37.380  29.720  29.776  1.00  0.00     0.022 A 
BRANCH  74  78
ATOM     78  S   UNL A   1      37.728  29.332  32.516  1.00  0.00     0.124 S 
ATOM     79  O   UNL A   1      38.546  30.286  33.261  1.00  0.00    -0.237 OA
ATOM     80  O   UNL A   1      36.307  29.646  32.423  1.00  0.00    -0.237 OA
ATOM     81  O   UNL A   1      38.044  27.926  32.762  1.00  0.00    -0.744 OA
ENDBRANCH  74  78
ENDBRANCH  57  71
BRANCH  58  82
ATOM     82  C   UNL A   1      49.445  26.780  26.439  1.00  0.00     0.023 A 
ATOM     83  C   UNL A   1      50.562  26.689  27.284  1.00  0.00     0.031 A 
ATOM     84  C   UNL A   1      49.626  26.493  25.073  1.00  0.00     0.131 A 
ATOM     85  C   UNL A   1      51.814  26.340  26.749  1.00  0.00     0.055 A 
ATOM     86  C   UNL A   1      50.859  26.091  24.559  1.00  0.00     0.041 A 
ATOM     87  F   UNL A   1      48.593  26.576  24.219  1.00  0.00    -0.206 F 
ATOM     88  C   UNL A   1      51.964  26.018  25.399  1.00  0.00     0.022 A 
BRANCH  85  89
ATOM     89  S   UNL A   1      53.268  26.379  27.833  1.00  0.00     0.124 S 
ATOM     90  O   UNL A   1      53.759  27.736  27.620  1.00  0.00    -0.237 OA
ATOM     91  O   UNL A   1      52.682  26.106  29.141  1.00  0.00    -0.237 OA
ATOM     92  O   UNL A   1      54.118  25.317  27.300  1.00  0.00    -0.744 OA
ENDBRANCH  85  89
ENDBRANCH  58  82
BRANCH  70  93
ATOM     93  C   UNL A   1      46.456  32.843  28.330  1.00  0.00     0.023 A 
ATOM     94  C   UNL A   1      47.063  33.274  29.520  1.00  0.00     0.031 A 
ATOM     95  C   UNL A   1      46.395  33.748  27.253  1.00  0.00     0.131 A 
ATOM     96  C   UNL A   1      47.553  34.586  29.616  1.00  0.00     0.055 A 
ATOM     97  C   UNL A   1      46.949  35.025  27.330  1.00  0.00     0.041 A 
ATOM     98  F   UNL A   1      45.815  33.394  26.094  1.00  0.00    -0.206 F 
ATOM     99  C   UNL A   1      47.524  35.454  28.520  1.00  0.00     0.022 A 
BRANCH  96 100
ATOM    100  S   UNL A   1      48.146  35.184  31.223  1.00  0.00     0.124 S 
ATOM    101  O   UNL A   1      47.427  36.446  31.358  1.00  0.00    -0.237 OA
ATOM    102  O   UNL A   1      47.737  34.115  32.127  1.00  0.00    -0.237 OA
ATOM    103  O   UNL A   1      49.590  35.312  31.028  1.00  0.00    -0.744 OA
ENDBRANCH  96 100
ENDBRANCH  70  93
ENDBRANCH  44  45
ENDBRANCH  37  39
ENDBRANCH  36  37
ENDBRANCH  35  36
ENDBRANCH  34  35
ENDBRANCH  33  34
ENDBRANCH  32  33
ENDBRANCH   1  32
TORSDOF 24
ENDMDL
MODEL 2
REMARK VINA RESULT:     -11.4      2.394      7.510
REMARK SMILES O=C(OCCOCCOCCOC(=O)c1ccc(-c2c3nc(c(-c4cc(S(=O)(=O)[O-])ccc4F)c4ccc([nH]4)c(-c4cc(S(=O)(=O)[O-])ccc4F)c4nc(c(-c5cc(S(=O)(=O)[O-])ccc5F)c5ccc2[nH]5)C=C4)C=C3)cc1)C1=Cc2cc(Cl)cc(-c3ccc(CO)cc3)c2O[C@@H]1C(F)(F)F
REMARK SMILES IDX 7 1 6 2 5 3 4 4 3 5 2 6 1 7 78 8 79 9 96 10 80 11 95 12
REMARK SMILES IDX 81 13 94 14 82 15 85 16 83 17 84 18 97 19 98 20 99 21 100 22
REMARK SMILES IDX 86 23 87 24 93 25 88 26 92 27 89 28 90 29 91 30 8 32 9 33
REMARK SMILES IDX 10 34 11 35 12 36 13 37 14 38 15 39 16 40 77 41 17 42 76 43
REMARK SMILES IDX 18 44 19 45 20 46 70 47 21 48 75 49 69 50 71 51 22 52 74 53
REMARK SMILES IDX 68 54 67 55 23 57 55 58 35 59 54 60 36 61 39 62 53 63 72 64
REMARK SMILES IDX 37 65 38 66 52 68 73 69 40 70 24 71 25 72 33 73 26 74 32 75
REMARK SMILES IDX 34 76 31 77 27 78 28 79 29 80 30 81 56 82 57 83 65 84 58 85
REMARK SMILES IDX 64 86 66 87 63 88 59 89 60 90 61 91 62 92 41 93 42 94 50 95
REMARK SMILES IDX 43 96 49 97 51 98 48 99 44 100 45 101 46 102 47 103
REMARK H PARENT 91 31 71 56 39 67
REMARK Flexibility Score: inf
ROOT
ATOM      1  C   UNL A   1      36.225  21.631  25.724  1.00  0.00     0.188 C 
ENDROOT
BRANCH   1   2
ATOM      2  O   UNL A   1      34.906  20.941  25.410  1.00  0.00    -0.376 OA
BRANCH   2   3
ATOM      3  C   UNL A   1      33.456  20.924  26.438  1.00  0.00     0.202 C 
BRANCH   3   4
ATOM      4  C   UNL A   1      31.589  21.831  25.788  1.00  0.00     0.261 C 
BRANCH   4   5
ATOM      5  O   UNL A   1      31.432  22.886  24.701  1.00  0.00    -0.460 OA
BRANCH   5   6
ATOM      6  C   UNL A   1      31.034  24.065  25.206  1.00  0.00     0.338 C 
ATOM      7  O   UNL A   1      30.126  24.272  25.973  1.00  0.00    -0.246 OA
BRANCH   6   8
ATOM      8  C   UNL A   1      31.636  24.905  24.179  1.00  0.00     0.087 C 
ATOM      9  C   UNL A   1      30.748  25.753  23.419  1.00  0.00     0.027 C 
ATOM     10  C   UNL A   1      32.993  25.537  25.361  1.00  0.00     0.316 C 
ATOM     11  C   UNL A   1      30.542  27.503  23.700  1.00  0.00     0.019 A 
ATOM     12  O   UNL A   1      32.680  27.425  25.836  1.00  0.00    -0.475 OA
ATOM     13  C   UNL A   1      29.547  28.122  22.991  1.00  0.00     0.032 A 
ATOM     14  C   UNL A   1      31.414  28.386  24.914  1.00  0.00     0.135 A 
ATOM     15  C   UNL A   1      29.361  29.472  23.285  1.00  0.00     0.042 A 
ATOM     16  C   UNL A   1      31.187  29.746  25.099  1.00  0.00     0.026 A 
ATOM     17  Cl  UNL A   1      28.112  30.309  22.424  1.00  0.00    -0.084 Cl
ATOM     18  C   UNL A   1      30.131  30.222  24.249  1.00  0.00     0.033 A 
BRANCH  10  19
ATOM     19  C   UNL A   1      34.216  24.769  24.385  1.00  0.00     0.430 C 
ATOM     20  F   UNL A   1      34.474  25.206  23.141  1.00  0.00    -0.167 F 
ATOM     21  F   UNL A   1      35.386  24.753  25.066  1.00  0.00    -0.167 F 
ATOM     22  F   UNL A   1      33.912  23.450  24.172  1.00  0.00    -0.167 F 
ENDBRANCH  10  19
BRANCH  16  23
ATOM     23  C   UNL A   1      31.839  30.778  25.906  1.00  0.00    -0.015 A 
ATOM     24  C   UNL A   1      32.962  30.507  26.691  1.00  0.00     0.009 A 
ATOM     25  C   UNL A   1      31.202  32.021  26.106  1.00  0.00     0.009 A 
ATOM     26  C   UNL A   1      33.526  31.497  27.510  1.00  0.00     0.007 A 
ATOM     27  C   UNL A   1      31.776  33.025  26.902  1.00  0.00     0.007 A 
ATOM     28  C   UNL A   1      32.989  32.791  27.554  1.00  0.00    -0.023 A 
BRANCH  28  29
ATOM     29  C   UNL A   1      33.728  33.908  28.241  1.00  0.00     0.191 C 
BRANCH  29  30
ATOM     30  O   UNL A   1      34.619  34.567  27.356  1.00  0.00    -0.392 OA
ATOM     31  H   UNL A   1      35.126  33.907  26.857  1.00  0.00     0.211 HD
ENDBRANCH  29  30
ENDBRANCH  28  29
ENDBRANCH  16  23
ENDBRANCH   6   8
ENDBRANCH   5   6
ENDBRANCH   4   5
ENDBRANCH   3   4
ENDBRANCH   2   3
ENDBRANCH   1   2
BRANCH   1  32
ATOM     32  C   UNL A   1      37.503  21.478  24.882  1.00  0.00     0.188 C 
BRANCH  32  33
ATOM     33  O   UNL A   1      38.668  21.000  25.490  1.00  0.00    -0.376 OA
BRANCH  33  34
ATOM     34  C   UNL A   1      38.908  19.627  25.284  1.00  0.00     0.202 C 
BRANCH  34  35
ATOM     35  C   UNL A   1      40.223  18.989  25.744  1.00  0.00     0.261 C 
BRANCH  35  36
ATOM     36  O   UNL A   1      40.831  19.616  26.875  1.00  0.00    -0.460 OA
BRANCH  36  37
ATOM     37  C   UNL A   1      42.074  20.118  26.681  1.00  0.00     0.338 C 
ATOM     38  O   UNL A   1      43.055  19.530  26.266  1.00  0.00    -0.246 OA
BRANCH  37  39
ATOM     39  C   UNL A   1      41.992  21.571  26.894  1.00  0.00     0.060 A 
ATOM     40  C   UNL A   1      41.787  22.442  25.811  1.00  0.00     0.016 A 
ATOM     41  C   UNL A   1      42.138  22.058  28.190  1.00  0.00     0.016 A 
ATOM     42  C   UNL A   1      41.706  23.814  26.027  1.00  0.00     0.010 A 
ATOM     43  C   UNL A   1      42.113  23.430  28.399  1.00  0.00     0.010 A 
ATOM     44  C   UNL A   1      41.922  24.309  27.316  1.00  0.00    -0.014 A 
BRANCH  44  45
ATOM     45  C   UNL A   1      42.267  25.729  27.513  1.00  0.00     0.031 A 
ATOM     46  C   UNL A   1      43.626  26.161  27.054  1.00  0.00     0.074 A 
ATOM     47  C   UNL A   1      41.440  26.569  28.152  1.00  0.00     0.049 A 
ATOM     48  N   UNL A   1      44.269  27.273  27.286  1.00  0.00    -0.248 NA
ATOM     49  C   UNL A   1      44.375  25.181  26.251  1.00  0.00     0.031 C 
ATOM     50  C   UNL A   1      40.085  26.246  28.591  1.00  0.00     0.029 A 
ATOM     51  N   UNL A   1      41.643  27.856  28.577  1.00  0.00    -0.354 N 
ATOM     52  C   UNL A   1      45.509  27.116  26.678  1.00  0.00     0.074 A 
ATOM     53  C   UNL A   1      45.536  25.791  26.099  1.00  0.00     0.031 C 
ATOM     54  C   UNL A   1      39.588  27.301  29.259  1.00  0.00     0.029 A 
ATOM     55  C   UNL A   1      40.611  28.344  29.341  1.00  0.00     0.049 A 
ATOM     56  H   UNL A   1      42.448  28.379  28.356  1.00  0.00     0.167 HD
ATOM     57  C   UNL A   1      46.532  28.001  26.622  1.00  0.00     0.034 A 
ATOM     58  C   UNL A   1      40.533  29.478  30.068  1.00  0.00     0.034 A 
ATOM     59  C   UNL A   1      46.483  29.292  27.258  1.00  0.00     0.049 A 
ATOM     60  C   UNL A   1      41.716  30.417  30.075  1.00  0.00     0.074 A 
ATOM     61  C   UNL A   1      47.442  30.286  27.263  1.00  0.00     0.029 A 
ATOM     62  N   UNL A   1      45.424  29.753  28.035  1.00  0.00    -0.354 N 
ATOM     63  N   UNL A   1      42.885  30.280  29.488  1.00  0.00    -0.248 NA
ATOM     64  C   UNL A   1      41.574  31.663  30.838  1.00  0.00     0.031 C 
ATOM     65  C   UNL A   1      47.012  31.296  28.128  1.00  0.00     0.029 A 
ATOM     66  C   UNL A   1      45.730  30.996  28.564  1.00  0.00     0.049 A 
ATOM     67  H   UNL A   1      44.582  29.267  28.187  1.00  0.00     0.167 HD
ATOM     68  C   UNL A   1      43.602  31.438  29.780  1.00  0.00     0.074 A 
ATOM     69  C   UNL A   1      42.734  32.259  30.601  1.00  0.00     0.031 C 
ATOM     70  C   UNL A   1      44.853  31.797  29.390  1.00  0.00     0.034 A 
BRANCH  57  71
ATOM     71  C   UNL A   1      47.797  27.544  25.935  1.00  0.00     0.023 A 
ATOM     72  C   UNL A   1      48.040  27.806  24.576  1.00  0.00     0.031 A 
ATOM     73  C   UNL A   1      48.730  26.751  26.628  1.00  0.00     0.131 A 
ATOM     74  C   UNL A   1      49.116  27.184  23.925  1.00  0.00     0.055 A 
ATOM     75  C   UNL A   1      49.861  26.228  26.000  1.00  0.00     0.041 A 
ATOM     76  F   UNL A   1      48.539  26.436  27.918  1.00  0.00    -0.206 F 
ATOM     77  C   UNL A   1      50.048  26.423  24.634  1.00  0.00     0.022 A 
BRANCH  74  78
ATOM     78  S   UNL A   1      49.152  27.202  22.111  1.00  0.00     0.124 S 
ATOM     79  O   UNL A   1      48.445  28.446  21.816  1.00  0.00    -0.237 OA
ATOM     80  O   UNL A   1      50.581  27.195  21.823  1.00  0.00    -0.237 OA
ATOM     81  O   UNL A   1      48.433  25.984  21.742  1.00  0.00    -0.744 OA
ENDBRANCH  74  78
ENDBRANCH  57  71
BRANCH  58  82
ATOM     82  C   UNL A   1      39.318  29.748  30.890  1.00  0.00     0.023 A 
ATOM     83  C   UNL A   1      38.345  30.673  30.481  1.00  0.00     0.031 A 
ATOM     84  C   UNL A   1      39.114  29.069  32.106  1.00  0.00     0.131 A 
ATOM     85  C   UNL A   1      37.220  30.907  31.291  1.00  0.00     0.055 A 
ATOM     86  C   UNL A   1      37.967  29.263  32.877  1.00  0.00     0.041 A 
ATOM     87  F   UNL A   1      40.019  28.183  32.549  1.00  0.00    -0.206 F 
ATOM     88  C   UNL A   1      37.015  30.192  32.473  1.00  0.00     0.022 A 
BRANCH  85  89
ATOM     89  S   UNL A   1      36.058  32.215  30.815  1.00  0.00     0.124 S 
ATOM     90  O   UNL A   1      35.530  32.628  32.110  1.00  0.00    -0.237 OA
ATOM     91  O   UNL A   1      36.930  33.170  30.141  1.00  0.00    -0.237 OA
ATOM     92  O   UNL A   1      35.106  31.524  29.946  1.00  0.00    -0.744 OA
ENDBRANCH  85  89
ENDBRANCH  58  82
BRANCH  70  93
ATOM     93  C   UNL A   1      45.343  33.173  29.778  1.00  0.00     0.023 A 
ATOM     94  C   UNL A   1      45.106  34.310  28.989  1.00  0.00     0.031 A 
ATOM     95  C   UNL A   1      46.022  33.345  30.999  1.00  0.00     0.131 A 
ATOM     96  C   UNL A   1      45.577  35.563  29.414  1.00  0.00     0.055 A 
ATOM     97  C   UNL A   1      46.423  34.603  31.450  1.00  0.00     0.041 A 
ATOM     98  F   UNL A   1      46.286  32.292  31.790  1.00  0.00    -0.206 F 
ATOM     99  C   UNL A   1      46.209  35.720  30.652  1.00  0.00     0.022 A 
BRANCH  96 100
ATOM    100  S   UNL A   1      45.441  36.978  28.287  1.00  0.00     0.124 S 
ATOM    101  O   UNL A   1      45.596  38.106  29.200  1.00  0.00    -0.237 OA
ATOM    102  O   UNL A   1      46.544  36.750  27.361  1.00  0.00    -0.237 OA
ATOM    103  O   UNL A   1      44.106  36.829  27.710  1.00  0.00    -0.744 OA
ENDBRANCH  96 100
ENDBRANCH  70  93
ENDBRANCH  44  45
ENDBRANCH  37  39
ENDBRANCH  36  37
ENDBRANCH  35  36
ENDBRANCH  34  35
ENDBRANCH  33  34
ENDBRANCH  32  33
ENDBRANCH   1  32
TORSDOF 24
ENDMDL
MODEL 3
REMARK VINA RESULT:     -11.4      2.408      7.549
REMARK SMILES O=C(OCCOCCOCCOC(=O)c1ccc(-c2c3nc(c(-c4cc(S(=O)(=O)[O-])ccc4F)c4ccc([nH]4)c(-c4cc(S(=O)(=O)[O-])ccc4F)c4nc(c(-c5cc(S(=O)(=O)[O-])ccc5F)c5ccc2[nH]5)C=C4)C=C3)cc1)C1=Cc2cc(Cl)cc(-c3ccc(CO)cc3)c2O[C@@H]1C(F)(F)F
REMARK SMILES IDX 7 1 6 2 5 3 4 4 3 5 2 6 1 7 78 8 79 9 96 10 80 11 95 12
REMARK SMILES IDX 81 13 94 14 82 15 85 16 83 17 84 18 97 19 98 20 99 21 100 22
REMARK SMILES IDX 86 23 87 24 93 25 88 26 92 27 89 28 90 29 91 30 8 32 9 33
REMARK SMILES IDX 10 34 11 35 12 36 13 37 14 38 15 39 16 40 77 41 17 42 76 43
REMARK SMILES IDX 18 44 19 45 20 46 70 47 21 48 75 49 69 50 71 51 22 52 74 53
REMARK SMILES IDX 68 54 67 55 23 57 55 58 35 59 54 60 36 61 39 62 53 63 72 64
REMARK SMILES IDX 37 65 38 66 52 68 73 69 40 70 24 71 25 72 33 73 26 74 32 75
REMARK SMILES IDX 34 76 31 77 27 78 28 79 29 80 30 81 56 82 57 83 65 84 58 85
REMARK SMILES IDX 64 86 66 87 63 88 59 89 60 90 61 91 62 92 41 93 42 94 50 95
REMARK SMILES IDX 43 96 49 97 51 98 48 99 44 100 45 101 46 102 47 103
REMARK H PARENT 91 31 71 56 39 67
REMARK Flexibility Score: inf
ROOT
ATOM      1  C   UNL A   1      37.298  19.677  25.009  1.00  0.00     0.188 C 
ENDROOT
BRANCH   1   2
ATOM      2  O   UNL A   1      36.426  18.453  24.775  1.00  0.00    -0.376 OA
BRANCH   2   3
ATOM      3  C   UNL A   1      34.659  18.440  24.588  1.00  0.00     0.202 C 
BRANCH   3   4
ATOM      4  C   UNL A   1      33.407  19.963  25.508  1.00  0.00     0.261 C 
BRANCH   4   5
ATOM      5  O   UNL A   1      32.546  20.984  24.774  1.00  0.00    -0.460 OA
BRANCH   5   6
ATOM      6  C   UNL A   1      32.422  22.124  25.471  1.00  0.00     0.338 C 
ATOM      7  O   UNL A   1      31.793  22.305  26.484  1.00  0.00    -0.246 OA
BRANCH   6   8
ATOM      8  C   UNL A   1      32.785  23.030  24.389  1.00  0.00     0.087 C 
ATOM      9  C   UNL A   1      31.711  23.753  23.750  1.00  0.00     0.027 C 
ATOM     10  C   UNL A   1      34.180  23.836  25.408  1.00  0.00     0.316 C 
ATOM     11  C   UNL A   1      31.318  25.463  24.071  1.00  0.00     0.019 A 
ATOM     12  O   UNL A   1      33.687  25.670  25.937  1.00  0.00    -0.475 OA
ATOM     13  C   UNL A   1      30.174  25.946  23.493  1.00  0.00     0.032 A 
ATOM     14  C   UNL A   1      32.208  26.456  25.183  1.00  0.00     0.135 A 
ATOM     15  C   UNL A   1      29.854  27.262  23.821  1.00  0.00     0.042 A 
ATOM     16  C   UNL A   1      31.832  27.777  25.408  1.00  0.00     0.026 A 
ATOM     17  Cl  UNL A   1      28.414  27.928  23.124  1.00  0.00    -0.084 Cl
ATOM     18  C   UNL A   1      30.631  28.109  24.694  1.00  0.00     0.033 A 
BRANCH  10  19
ATOM     19  C   UNL A   1      35.366  23.227  24.285  1.00  0.00     0.430 C 
ATOM     20  F   UNL A   1      35.356  21.936  23.911  1.00  0.00    -0.167 F 
ATOM     21  F   UNL A   1      35.347  23.980  23.160  1.00  0.00    -0.167 F 
ATOM     22  F   UNL A   1      36.633  23.373  24.788  1.00  0.00    -0.167 F 
ENDBRANCH  10  19
BRANCH  16  23
ATOM     23  C   UNL A   1      32.439  28.887  26.142  1.00  0.00    -0.015 A 
ATOM     24  C   UNL A   1      31.825  30.139  26.237  1.00  0.00     0.009 A 
ATOM     25  C   UNL A   1      33.782  28.798  26.570  1.00  0.00     0.009 A 
ATOM     26  C   UNL A   1      32.462  31.207  26.888  1.00  0.00     0.007 A 
ATOM     27  C   UNL A   1      34.412  29.854  27.246  1.00  0.00     0.007 A 
ATOM     28  C   UNL A   1      33.724  31.047  27.475  1.00  0.00    -0.023 A 
BRANCH  28  29
ATOM     29  C   UNL A   1      34.297  32.113  28.371  1.00  0.00     0.191 C 
BRANCH  29  30
ATOM     30  O   UNL A   1      34.758  31.571  29.598  1.00  0.00    -0.392 OA
ATOM     31  H   UNL A   1      35.551  31.036  29.437  1.00  0.00     0.211 HD
ENDBRANCH  29  30
ENDBRANCH  28  29
ENDBRANCH  16  23
ENDBRANCH   6   8
ENDBRANCH   5   6
ENDBRANCH   4   5
ENDBRANCH   3   4
ENDBRANCH   2   3
ENDBRANCH   1   2
BRANCH   1  32
ATOM     32  C   UNL A   1      38.801  19.619  25.331  1.00  0.00     0.188 C 
BRANCH  32  33
ATOM     33  O   UNL A   1      39.398  20.693  25.999  1.00  0.00    -0.376 OA
BRANCH  33  34
ATOM     34  C   UNL A   1      40.641  20.389  26.590  1.00  0.00     0.202 C 
BRANCH  34  35
ATOM     35  C   UNL A   1      41.649  19.493  25.865  1.00  0.00     0.261 C 
BRANCH  35  36
ATOM     36  O   UNL A   1      43.018  19.751  26.182  1.00  0.00    -0.460 OA
BRANCH  36  37
ATOM     37  C   UNL A   1      43.735  20.407  25.237  1.00  0.00     0.338 C 
ATOM     38  O   UNL A   1      44.168  19.959  24.191  1.00  0.00    -0.246 OA
BRANCH  37  39
ATOM     39  C   UNL A   1      43.748  21.829  25.614  1.00  0.00     0.060 A 
ATOM     40  C   UNL A   1      43.487  22.824  24.657  1.00  0.00     0.016 A 
ATOM     41  C   UNL A   1      44.041  22.159  26.934  1.00  0.00     0.016 A 
ATOM     42  C   UNL A   1      43.498  24.165  25.029  1.00  0.00     0.010 A 
ATOM     43  C   UNL A   1      44.106  23.499  27.292  1.00  0.00     0.010 A 
ATOM     44  C   UNL A   1      43.860  24.501  26.336  1.00  0.00    -0.014 A 
BRANCH  44  45
ATOM     45  C   UNL A   1      44.295  25.875  26.650  1.00  0.00     0.031 A 
ATOM     46  C   UNL A   1      45.694  26.243  26.263  1.00  0.00     0.074 A 
ATOM     47  C   UNL A   1      43.507  26.721  27.330  1.00  0.00     0.049 A 
ATOM     48  N   UNL A   1      46.403  27.286  26.597  1.00  0.00    -0.248 NA
ATOM     49  C   UNL A   1      46.400  25.275  25.407  1.00  0.00     0.031 C 
ATOM     50  C   UNL A   1      42.119  26.462  27.706  1.00  0.00     0.029 A 
ATOM     51  N   UNL A   1      43.783  27.955  27.858  1.00  0.00    -0.354 N 
ATOM     52  C   UNL A   1      47.649  27.088  26.013  1.00  0.00     0.074 A 
ATOM     53  C   UNL A   1      47.604  25.812  25.335  1.00  0.00     0.031 C 
ATOM     54  C   UNL A   1      41.674  27.497  28.439  1.00  0.00     0.029 A 
ATOM     55  C   UNL A   1      42.762  28.457  28.629  1.00  0.00     0.049 A 
ATOM     56  H   UNL A   1      44.629  28.435  27.700  1.00  0.00     0.167 HD
ATOM     57  C   UNL A   1      48.731  27.900  26.052  1.00  0.00     0.034 A 
ATOM     58  C   UNL A   1      42.739  29.535  29.438  1.00  0.00     0.034 A 
ATOM     59  C   UNL A   1      48.750  29.140  26.784  1.00  0.00     0.049 A 
ATOM     60  C   UNL A   1      43.982  30.386  29.550  1.00  0.00     0.074 A 
ATOM     61  C   UNL A   1      49.774  30.061  26.892  1.00  0.00     0.029 A 
ATOM     62  N   UNL A   1      47.701  29.615  27.565  1.00  0.00    -0.354 N 
ATOM     63  N   UNL A   1      45.158  30.210  28.986  1.00  0.00    -0.248 NA
ATOM     64  C   UNL A   1      43.901  31.578  30.402  1.00  0.00     0.031 C 
ATOM     65  C   UNL A   1      49.387  31.031  27.820  1.00  0.00     0.029 A 
ATOM     66  C   UNL A   1      48.074  30.790  28.197  1.00  0.00     0.049 A 
ATOM     67  H   UNL A   1      46.823  29.180  27.657  1.00  0.00     0.167 HD
ATOM     68  C   UNL A   1      45.942  31.289  29.385  1.00  0.00     0.074 A 
ATOM     69  C   UNL A   1      45.107  32.106  30.243  1.00  0.00     0.031 C 
ATOM     70  C   UNL A   1      47.227  31.588  29.058  1.00  0.00     0.034 A 
BRANCH  57  71
ATOM     71  C   UNL A   1      49.984  27.408  25.367  1.00  0.00     0.023 A 
ATOM     72  C   UNL A   1      50.272  27.726  24.029  1.00  0.00     0.031 A 
ATOM     73  C   UNL A   1      50.854  26.526  26.034  1.00  0.00     0.131 A 
ATOM     74  C   UNL A   1      51.326  27.078  23.367  1.00  0.00     0.055 A 
ATOM     75  C   UNL A   1      51.968  25.973  25.402  1.00  0.00     0.041 A 
ATOM     76  F   UNL A   1      50.616  26.156  27.301  1.00  0.00    -0.206 F 
ATOM     77  C   UNL A   1      52.196  26.228  24.052  1.00  0.00     0.022 A 
BRANCH  74  78
ATOM     78  S   UNL A   1      51.403  27.190  21.557  1.00  0.00     0.124 S 
ATOM     79  O   UNL A   1      52.532  26.313  21.257  1.00  0.00    -0.237 OA
ATOM     80  O   UNL A   1      50.090  26.702  21.154  1.00  0.00    -0.237 OA
ATOM     81  O   UNL A   1      51.646  28.611  21.312  1.00  0.00    -0.744 OA
ENDBRANCH  74  78
ENDBRANCH  57  71
BRANCH  58  82
ATOM     82  C   UNL A   1      41.519  29.828  30.245  1.00  0.00     0.023 A 
ATOM     83  C   UNL A   1      40.521  30.697  29.779  1.00  0.00     0.031 A 
ATOM     84  C   UNL A   1      41.336  29.228  31.505  1.00  0.00     0.131 A 
ATOM     85  C   UNL A   1      39.393  30.956  30.577  1.00  0.00     0.055 A 
ATOM     86  C   UNL A   1      40.187  29.444  32.267  1.00  0.00     0.041 A 
ATOM     87  F   UNL A   1      42.266  28.397  32.003  1.00  0.00    -0.206 F 
ATOM     88  C   UNL A   1      39.209  30.317  31.805  1.00  0.00     0.022 A 
BRANCH  85  89
ATOM     89  S   UNL A   1      38.195  32.198  30.018  1.00  0.00     0.124 S 
ATOM     90  O   UNL A   1      37.228  32.189  31.110  1.00  0.00    -0.237 OA
ATOM     91  O   UNL A   1      39.023  33.393  29.902  1.00  0.00    -0.237 OA
ATOM     92  O   UNL A   1      37.708  31.655  28.751  1.00  0.00    -0.744 OA
ENDBRANCH  85  89
ENDBRANCH  58  82
BRANCH  70  93
ATOM     93  C   UNL A   1      47.797  32.893  29.564  1.00  0.00     0.023 A 
ATOM     94  C   UNL A   1      47.679  34.096  28.850  1.00  0.00     0.031 A 
ATOM     95  C   UNL A   1      48.432  32.928  30.820  1.00  0.00     0.131 A 
ATOM     96  C   UNL A   1      48.220  35.278  29.383  1.00  0.00     0.055 A 
ATOM     97  C   UNL A   1      48.901  34.117  31.377  1.00  0.00     0.041 A 
ATOM     98  F   UNL A   1      48.583  31.806  31.542  1.00  0.00    -0.206 F 
ATOM     99  C   UNL A   1      48.805  35.300  30.653  1.00  0.00     0.022 A 
BRANCH  96 100
ATOM    100  S   UNL A   1      48.237  36.774  28.358  1.00  0.00     0.124 S 
ATOM    101  O   UNL A   1      46.882  36.783  27.816  1.00  0.00    -0.237 OA
ATOM    102  O   UNL A   1      48.543  37.818  29.329  1.00  0.00    -0.237 OA
ATOM    103  O   UNL A   1      49.292  36.507  27.380  1.00  0.00    -0.744 OA
ENDBRANCH  96 100
ENDBRANCH  70  93
ENDBRANCH  44  45
ENDBRANCH  37  39
ENDBRANCH  36  37
ENDBRANCH  35  36
ENDBRANCH  34  35
ENDBRANCH  33  34
ENDBRANCH  32  33
ENDBRANCH   1  32
TORSDOF 24
ENDMDL
