MODEL 1
REMARK VINA RESULT:      -9.9      0.000      0.000
REMARK SMILES CCOc1ccc2[nH]c(C)c/c(=N\c3cccc(C(=O)OCCOCCOCCOC(=O)c4ccc(-c5c6nc(c(-c7cc(S(=O)(=O)[O-])ccc7F)c7ccc([nH]7)c(-c7cc(S(=O)(=O)[O-])ccc7F)c7nc(c(-c8cc(S(=O)(=O)[O-])ccc8F)c8ccc5[nH]8)C=C7)C=C6)cc4)c3)c2c1
REMARK SMILES IDX 25 1 24 2 23 3 22 4 21 5 19 6 20 7 18 8 14 9 15 10 96 11
REMARK SMILES IDX 16 12 17 13 13 14 4 15 5 16 98 17 6 18 97 19 7 20 12 21 8 22
REMARK SMILES IDX 11 23 9 24 10 26 3 27 2 28 1 29 26 30 27 31 28 32 29 33
REMARK SMILES IDX 30 34 31 35 32 36 33 37 34 38 95 39 35 40 94 41 36 42 37 43
REMARK SMILES IDX 38 44 88 45 39 46 93 47 87 48 89 49 40 50 92 51 86 52 85 53
REMARK SMILES IDX 41 55 73 56 53 57 72 58 54 59 57 60 71 61 90 62 55 63 56 64
REMARK SMILES IDX 70 66 91 67 58 68 42 69 43 70 51 71 44 72 50 73 52 74 49 75
REMARK SMILES IDX 45 76 46 77 47 78 48 79 74 80 75 81 83 82 76 83 82 84 84 85
REMARK SMILES IDX 81 86 77 87 78 88 79 89 80 90 59 91 60 92 68 93 61 94 67 95
REMARK SMILES IDX 69 96 66 97 62 98 63 99 64 100 65 101
REMARK H PARENT 8 25 89 54 57 65
REMARK Flexibility Score: inf
ROOT
ATOM      1  C   UNL A   1      31.779  28.885  25.770  1.00  0.00     0.188 C 
ENDROOT
BRANCH   1   2
ATOM      2  O   UNL A   1      31.220  27.603  25.595  1.00  0.00    -0.376 OA
BRANCH   2   3
ATOM      3  C   UNL A   1      32.070  26.479  25.464  1.00  0.00     0.202 C 
BRANCH   3   4
ATOM      4  C   UNL A   1      31.944  25.208  26.326  1.00  0.00     0.261 C 
BRANCH   4   5
ATOM      5  O   UNL A   1      32.249  23.957  25.700  1.00  0.00    -0.460 OA
BRANCH   5   6
ATOM      6  C   UNL A   1      33.195  23.194  26.298  1.00  0.00     0.338 C 
ATOM      7  O   UNL A   1      33.091  22.615  27.365  1.00  0.00    -0.246 OA
BRANCH   6   8
ATOM      8  C   UNL A   1      34.335  23.015  25.370  1.00  0.00     0.062 A 
ATOM      9  C   UNL A   1      36.639  22.399  24.900  1.00  0.00     0.065 A 
ATOM     10  C   UNL A   1      36.431  22.754  23.559  1.00  0.00     0.028 A 
ATOM     11  C   UNL A   1      35.574  22.514  25.800  1.00  0.00     0.044 A 
ATOM     12  C   UNL A   1      35.209  23.283  23.134  1.00  0.00     0.003 A 
ATOM     13  C   UNL A   1      34.158  23.408  24.038  1.00  0.00     0.016 A 
BRANCH   9  14
ATOM     14  N   UNL A   1      37.855  21.852  25.343  1.00  0.00    -0.248 NA
ATOM     15  C   UNL A   1      41.524  19.996  26.405  1.00  0.00     0.120 A 
ATOM     16  C   UNL A   1      42.461  20.733  27.125  1.00  0.00     0.048 A 
ATOM     17  C   UNL A   1      40.290  20.551  26.069  1.00  0.00     0.059 A 
ATOM     18  C   UNL A   1      42.149  22.019  27.561  1.00  0.00     0.030 A 
ATOM     19  C   UNL A   1      39.976  21.850  26.499  1.00  0.00     0.027 A 
ATOM     20  C   UNL A   1      40.910  22.588  27.252  1.00  0.00     0.048 A 
ATOM     21  C   UNL A   1      38.665  22.493  26.136  1.00  0.00     0.075 A 
ATOM     22  N   UNL A   1      40.612  23.887  27.675  1.00  0.00    -0.359 N 
ATOM     23  C   UNL A   1      38.428  23.854  26.730  1.00  0.00     0.050 A 
ATOM     24  C   UNL A   1      39.396  24.474  27.424  1.00  0.00     0.014 A 
ATOM     25  H   UNL A   1      41.296  24.396  28.168  1.00  0.00     0.166 HD
ATOM     26  C   UNL A   1      39.199  25.867  27.959  1.00  0.00     0.064 C 
BRANCH  15  27
ATOM     27  O   UNL A   1      41.865  18.765  25.913  1.00  0.00    -0.494 OA
BRANCH  27  28
ATOM     28  C   UNL A   1      43.257  18.467  26.090  1.00  0.00     0.226 C 
ATOM     29  C   UNL A   1      44.066  18.804  24.846  1.00  0.00     0.049 C 
ENDBRANCH  27  28
ENDBRANCH  15  27
ENDBRANCH   9  14
ENDBRANCH   6   8
ENDBRANCH   5   6
ENDBRANCH   4   5
ENDBRANCH   3   4
ENDBRANCH   2   3
ENDBRANCH   1   2
BRANCH   1  30
ATOM     30  C   UNL A   1      33.248  28.845  26.249  1.00  0.00     0.188 C 
BRANCH  30  31
ATOM     31  O   UNL A   1      33.945  30.062  26.496  1.00  0.00    -0.376 OA
BRANCH  31  32
ATOM     32  C   UNL A   1      33.596  30.841  27.636  1.00  0.00     0.202 C 
BRANCH  32  33
ATOM     33  C   UNL A   1      32.861  32.172  27.436  1.00  0.00     0.261 C 
BRANCH  33  34
ATOM     34  O   UNL A   1      33.676  33.340  27.623  1.00  0.00    -0.460 OA
BRANCH  34  35
ATOM     35  C   UNL A   1      33.562  33.952  28.830  1.00  0.00     0.338 C 
ATOM     36  O   UNL A   1      32.608  34.585  29.252  1.00  0.00    -0.246 OA
BRANCH  35  37
ATOM     37  C   UNL A   1      34.721  33.576  29.661  1.00  0.00     0.060 A 
ATOM     38  C   UNL A   1      34.585  32.653  30.698  1.00  0.00     0.016 A 
ATOM     39  C   UNL A   1      35.963  34.166  29.390  1.00  0.00     0.016 A 
ATOM     40  C   UNL A   1      35.701  32.323  31.472  1.00  0.00     0.010 A 
ATOM     41  C   UNL A   1      37.071  33.849  30.176  1.00  0.00     0.010 A 
ATOM     42  C   UNL A   1      36.949  32.920  31.220  1.00  0.00    -0.014 A 
BRANCH  42  43
ATOM     43  C   UNL A   1      38.147  32.493  31.980  1.00  0.00     0.031 A 
ATOM     44  C   UNL A   1      39.251  31.722  31.324  1.00  0.00     0.074 A 
ATOM     45  C   UNL A   1      38.219  32.805  33.289  1.00  0.00     0.049 A 
ATOM     46  N   UNL A   1      40.394  31.341  31.831  1.00  0.00    -0.248 NA
ATOM     47  C   UNL A   1      39.049  31.325  29.923  1.00  0.00     0.031 C 
ATOM     48  C   UNL A   1      37.185  33.528  34.026  1.00  0.00     0.029 A 
ATOM     49  N   UNL A   1      39.192  32.558  34.224  1.00  0.00    -0.354 N 
ATOM     50  C   UNL A   1      41.064  30.681  30.807  1.00  0.00     0.074 A 
ATOM     51  C   UNL A   1      40.173  30.667  29.666  1.00  0.00     0.031 C 
ATOM     52  C   UNL A   1      37.583  33.681  35.297  1.00  0.00     0.029 A 
ATOM     53  C   UNL A   1      38.887  33.044  35.475  1.00  0.00     0.049 A 
ATOM     54  H   UNL A   1      40.026  32.078  34.021  1.00  0.00     0.167 HD
ATOM     55  C   UNL A   1      42.314  30.159  30.821  1.00  0.00     0.034 A 
ATOM     56  C   UNL A   1      39.577  32.986  36.633  1.00  0.00     0.034 A 
ATOM     57  C   UNL A   1      43.176  30.173  31.978  1.00  0.00     0.049 A 
ATOM     58  C   UNL A   1      40.948  32.360  36.635  1.00  0.00     0.074 A 
ATOM     59  C   UNL A   1      44.476  29.711  32.076  1.00  0.00     0.029 A 
ATOM     60  N   UNL A   1      42.831  30.658  33.232  1.00  0.00    -0.354 N 
ATOM     61  N   UNL A   1      41.615  31.839  35.631  1.00  0.00    -0.248 NA
ATOM     62  C   UNL A   1      41.672  32.321  37.914  1.00  0.00     0.031 C 
ATOM     63  C   UNL A   1      44.889  29.844  33.401  1.00  0.00     0.029 A 
ATOM     64  C   UNL A   1      43.881  30.471  34.116  1.00  0.00     0.049 A 
ATOM     65  H   UNL A   1      41.968  31.075  33.459  1.00  0.00     0.167 HD
ATOM     66  C   UNL A   1      42.846  31.445  36.148  1.00  0.00     0.074 A 
ATOM     67  C   UNL A   1      42.837  31.797  37.552  1.00  0.00     0.031 C 
ATOM     68  C   UNL A   1      43.884  30.848  35.511  1.00  0.00     0.034 A 
BRANCH  55  69
ATOM     69  C   UNL A   1      42.866  29.549  29.556  1.00  0.00     0.023 A 
ATOM     70  C   UNL A   1      42.833  28.154  29.369  1.00  0.00     0.031 A 
ATOM     71  C   UNL A   1      43.572  30.329  28.623  1.00  0.00     0.131 A 
ATOM     72  C   UNL A   1      43.530  27.578  28.299  1.00  0.00     0.055 A 
ATOM     73  C   UNL A   1      44.230  29.753  27.534  1.00  0.00     0.041 A 
ATOM     74  F   UNL A   1      43.641  31.662  28.761  1.00  0.00    -0.206 F 
ATOM     75  C   UNL A   1      44.222  28.370  27.377  1.00  0.00     0.022 A 
BRANCH  72  76
ATOM     76  S   UNL A   1      43.635  25.776  28.108  1.00  0.00     0.124 S 
ATOM     77  O   UNL A   1      42.884  25.563  26.873  1.00  0.00    -0.237 OA
ATOM     78  O   UNL A   1      45.076  25.564  28.006  1.00  0.00    -0.237 OA
ATOM     79  O   UNL A   1      43.003  25.258  29.316  1.00  0.00    -0.744 OA
ENDBRANCH  72  76
ENDBRANCH  55  69
BRANCH  56  80
ATOM     80  C   UNL A   1      38.991  33.615  37.853  1.00  0.00     0.023 A 
ATOM     81  C   UNL A   1      39.315  34.938  38.208  1.00  0.00     0.031 A 
ATOM     82  C   UNL A   1      38.204  32.866  38.742  1.00  0.00     0.131 A 
ATOM     83  C   UNL A   1      38.914  35.444  39.452  1.00  0.00     0.055 A 
ATOM     84  C   UNL A   1      37.745  33.399  39.948  1.00  0.00     0.041 A 
ATOM     85  F   UNL A   1      37.883  31.595  38.454  1.00  0.00    -0.206 F 
ATOM     86  C   UNL A   1      38.117  34.688  40.317  1.00  0.00     0.022 A 
BRANCH  83  87
ATOM     87  S   UNL A   1      39.532  37.043  40.046  1.00  0.00     0.124 S 
ATOM     88  O   UNL A   1      40.893  37.059  39.520  1.00  0.00    -0.237 OA
ATOM     89  O   UNL A   1      38.601  37.975  39.416  1.00  0.00    -0.237 OA
ATOM     90  O   UNL A   1      39.418  36.939  41.497  1.00  0.00    -0.744 OA
ENDBRANCH  83  87
ENDBRANCH  56  80
BRANCH  68  91
ATOM     91  C   UNL A   1      45.141  30.531  36.287  1.00  0.00     0.023 A 
ATOM     92  C   UNL A   1      45.199  29.361  37.070  1.00  0.00     0.031 A 
ATOM     93  C   UNL A   1      46.178  31.470  36.419  1.00  0.00     0.131 A 
ATOM     94  C   UNL A   1      46.234  29.193  37.999  1.00  0.00     0.055 A 
ATOM     95  C   UNL A   1      47.236  31.273  37.307  1.00  0.00     0.041 A 
ATOM     96  F   UNL A   1      46.163  32.606  35.703  1.00  0.00    -0.206 F 
ATOM     97  C   UNL A   1      47.257  30.139  38.116  1.00  0.00     0.022 A 
BRANCH  94  98
ATOM     98  S   UNL A   1      46.234  27.796  39.159  1.00  0.00     0.124 S 
ATOM     99  O   UNL A   1      46.551  26.673  38.281  1.00  0.00    -0.237 OA
ATOM    100  O   UNL A   1      47.290  28.176  40.093  1.00  0.00    -0.237 OA
ATOM    101  O   UNL A   1      44.881  27.793  39.705  1.00  0.00    -0.744 OA
ENDBRANCH  94  98
ENDBRANCH  68  91
ENDBRANCH  42  43
ENDBRANCH  35  37
ENDBRANCH  34  35
ENDBRANCH  33  34
ENDBRANCH  32  33
ENDBRANCH  31  32
ENDBRANCH  30  31
ENDBRANCH   1  30
TORSDOF 23
ENDMDL
MODEL 2
REMARK VINA RESULT:      -9.7      4.256      6.727
REMARK SMILES CCOc1ccc2[nH]c(C)c/c(=N\c3cccc(C(=O)OCCOCCOCCOC(=O)c4ccc(-c5c6nc(c(-c7cc(S(=O)(=O)[O-])ccc7F)c7ccc([nH]7)c(-c7cc(S(=O)(=O)[O-])ccc7F)c7nc(c(-c8cc(S(=O)(=O)[O-])ccc8F)c8ccc5[nH]8)C=C7)C=C6)cc4)c3)c2c1
REMARK SMILES IDX 25 1 24 2 23 3 22 4 21 5 19 6 20 7 18 8 14 9 15 10 96 11
REMARK SMILES IDX 16 12 17 13 13 14 4 15 5 16 98 17 6 18 97 19 7 20 12 21 8 22
REMARK SMILES IDX 11 23 9 24 10 26 3 27 2 28 1 29 26 30 27 31 28 32 29 33
REMARK SMILES IDX 30 34 31 35 32 36 33 37 34 38 95 39 35 40 94 41 36 42 37 43
REMARK SMILES IDX 38 44 88 45 39 46 93 47 87 48 89 49 40 50 92 51 86 52 85 53
REMARK SMILES IDX 41 55 73 56 53 57 72 58 54 59 57 60 71 61 90 62 55 63 56 64
REMARK SMILES IDX 70 66 91 67 58 68 42 69 43 70 51 71 44 72 50 73 52 74 49 75
REMARK SMILES IDX 45 76 46 77 47 78 48 79 74 80 75 81 83 82 76 83 82 84 84 85
REMARK SMILES IDX 81 86 77 87 78 88 79 89 80 90 59 91 60 92 68 93 61 94 67 95
REMARK SMILES IDX 69 96 66 97 62 98 63 99 64 100 65 101
REMARK H PARENT 8 25 89 54 57 65
REMARK Flexibility Score: inf
ROOT
ATOM      1  C   UNL A   1      34.026  29.300  26.513  1.00  0.00     0.188 C 
ENDROOT
BRANCH   1   2
ATOM      2  O   UNL A   1      33.192  29.248  25.378  1.00  0.00    -0.376 OA
BRANCH   2   3
ATOM      3  C   UNL A   1      31.812  29.537  25.509  1.00  0.00     0.202 C 
BRANCH   3   4
ATOM      4  C   UNL A   1      30.804  29.435  24.348  1.00  0.00     0.261 C 
BRANCH   4   5
ATOM      5  O   UNL A   1      30.006  28.250  24.273  1.00  0.00    -0.460 OA
BRANCH   5   6
ATOM      6  C   UNL A   1      30.542  27.199  23.607  1.00  0.00     0.338 C 
ATOM      7  O   UNL A   1      30.759  27.134  22.409  1.00  0.00    -0.246 OA
BRANCH   6   8
ATOM      8  C   UNL A   1      31.002  26.185  24.584  1.00  0.00     0.062 A 
ATOM      9  C   UNL A   1      32.710  24.733  25.521  1.00  0.00     0.065 A 
ATOM     10  C   UNL A   1      31.760  24.248  26.431  1.00  0.00     0.028 A 
ATOM     11  C   UNL A   1      32.326  25.722  24.609  1.00  0.00     0.044 A 
ATOM     12  C   UNL A   1      30.432  24.683  26.388  1.00  0.00     0.003 A 
ATOM     13  C   UNL A   1      30.054  25.658  25.468  1.00  0.00     0.016 A 
BRANCH   9  14
ATOM     14  N   UNL A   1      34.053  24.319  25.558  1.00  0.00    -0.248 NA
ATOM     15  C   UNL A   1      38.168  23.323  25.891  1.00  0.00     0.120 A 
ATOM     16  C   UNL A   1      38.548  21.992  25.734  1.00  0.00     0.048 A 
ATOM     17  C   UNL A   1      36.833  23.702  25.750  1.00  0.00     0.059 A 
ATOM     18  C   UNL A   1      37.598  21.035  25.383  1.00  0.00     0.030 A 
ATOM     19  C   UNL A   1      35.873  22.738  25.406  1.00  0.00     0.027 A 
ATOM     20  C   UNL A   1      36.257  21.396  25.218  1.00  0.00     0.048 A 
ATOM     21  C   UNL A   1      34.419  23.103  25.270  1.00  0.00     0.075 A 
ATOM     22  N   UNL A   1      35.308  20.426  24.887  1.00  0.00    -0.359 N 
ATOM     23  C   UNL A   1      33.515  21.990  24.819  1.00  0.00     0.050 A 
ATOM     24  C   UNL A   1      33.986  20.739  24.683  1.00  0.00     0.014 A 
ATOM     25  H   UNL A   1      35.595  19.488  24.798  1.00  0.00     0.166 HD
ATOM     26  C   UNL A   1      33.076  19.603  24.304  1.00  0.00     0.064 C 
BRANCH  15  27
ATOM     27  O   UNL A   1      39.089  24.244  26.312  1.00  0.00    -0.494 OA
BRANCH  27  28
ATOM     28  C   UNL A   1      39.287  24.216  27.732  1.00  0.00     0.226 C 
ATOM     29  C   UNL A   1      39.553  25.608  28.288  1.00  0.00     0.049 C 
ENDBRANCH  27  28
ENDBRANCH  15  27
ENDBRANCH   9  14
ENDBRANCH   6   8
ENDBRANCH   5   6
ENDBRANCH   4   5
ENDBRANCH   3   4
ENDBRANCH   2   3
ENDBRANCH   1   2
BRANCH   1  30
ATOM     30  C   UNL A   1      33.703  30.484  27.450  1.00  0.00     0.188 C 
BRANCH  30  31
ATOM     31  O   UNL A   1      34.698  31.469  27.717  1.00  0.00    -0.376 OA
BRANCH  31  32
ATOM     32  C   UNL A   1      35.195  31.607  29.043  1.00  0.00     0.202 C 
BRANCH  32  33
ATOM     33  C   UNL A   1      36.484  30.876  29.440  1.00  0.00     0.261 C 
BRANCH  33  34
ATOM     34  O   UNL A   1      36.357  30.016  30.583  1.00  0.00    -0.460 OA
BRANCH  34  35
ATOM     35  C   UNL A   1      36.880  30.493  31.741  1.00  0.00     0.338 C 
ATOM     36  O   UNL A   1      36.324  31.194  32.571  1.00  0.00    -0.246 OA
BRANCH  35  37
ATOM     37  C   UNL A   1      38.201  29.872  31.954  1.00  0.00     0.060 A 
ATOM     38  C   UNL A   1      38.315  28.503  32.198  1.00  0.00     0.016 A 
ATOM     39  C   UNL A   1      39.342  30.686  31.910  1.00  0.00     0.016 A 
ATOM     40  C   UNL A   1      39.580  27.946  32.402  1.00  0.00     0.010 A 
ATOM     41  C   UNL A   1      40.602  30.130  32.133  1.00  0.00     0.010 A 
ATOM     42  C   UNL A   1      40.730  28.755  32.376  1.00  0.00    -0.014 A 
BRANCH  42  43
ATOM     43  C   UNL A   1      42.075  28.143  32.496  1.00  0.00     0.031 A 
ATOM     44  C   UNL A   1      42.863  27.752  31.284  1.00  0.00     0.074 A 
ATOM     45  C   UNL A   1      42.574  27.933  33.729  1.00  0.00     0.049 A 
ATOM     46  N   UNL A   1      44.079  27.276  31.219  1.00  0.00    -0.248 NA
ATOM     47  C   UNL A   1      42.206  27.910  29.978  1.00  0.00     0.031 C 
ATOM     48  C   UNL A   1      41.874  28.254  34.972  1.00  0.00     0.029 A 
ATOM     49  N   UNL A   1      43.772  27.406  34.142  1.00  0.00    -0.354 N 
ATOM     50  C   UNL A   1      44.348  27.101  29.866  1.00  0.00     0.074 A 
ATOM     51  C   UNL A   1      43.146  27.472  29.150  1.00  0.00     0.031 C 
ATOM     52  C   UNL A   1      42.660  27.932  36.009  1.00  0.00     0.029 A 
ATOM     53  C   UNL A   1      43.908  27.356  35.510  1.00  0.00     0.049 A 
ATOM     54  H   UNL A   1      44.466  27.093  33.519  1.00  0.00     0.167 HD
ATOM     55  C   UNL A   1      45.501  26.690  29.286  1.00  0.00     0.034 A 
ATOM     56  C   UNL A   1      44.920  26.901  36.277  1.00  0.00     0.034 A 
ATOM     57  C   UNL A   1      46.681  26.313  30.025  1.00  0.00     0.049 A 
ATOM     58  C   UNL A   1      46.177  26.406  35.608  1.00  0.00     0.074 A 
ATOM     59  C   UNL A   1      47.912  25.928  29.525  1.00  0.00     0.029 A 
ATOM     60  N   UNL A   1      46.780  26.258  31.409  1.00  0.00    -0.354 N 
ATOM     61  N   UNL A   1      46.459  26.352  34.327  1.00  0.00    -0.248 NA
ATOM     62  C   UNL A   1      47.261  25.925  36.477  1.00  0.00     0.031 C 
ATOM     63  C   UNL A   1      48.727  25.568  30.597  1.00  0.00     0.029 A 
ATOM     64  C   UNL A   1      48.039  25.810  31.775  1.00  0.00     0.049 A 
ATOM     65  H   UNL A   1      46.062  26.502  32.037  1.00  0.00     0.167 HD
ATOM     66  C   UNL A   1      47.761  25.866  34.239  1.00  0.00     0.074 A 
ATOM     67  C   UNL A   1      48.216  25.651  35.595  1.00  0.00     0.031 C 
ATOM     68  C   UNL A   1      48.504  25.624  33.130  1.00  0.00     0.034 A 
BRANCH  55  69
ATOM     69  C   UNL A   1      45.587  26.648  27.780  1.00  0.00     0.023 A 
ATOM     70  C   UNL A   1      45.508  25.417  27.101  1.00  0.00     0.031 A 
ATOM     71  C   UNL A   1      45.915  27.796  27.039  1.00  0.00     0.131 A 
ATOM     72  C   UNL A   1      45.797  25.357  25.731  1.00  0.00     0.055 A 
ATOM     73  C   UNL A   1      46.161  27.737  25.666  1.00  0.00     0.041 A 
ATOM     74  F   UNL A   1      46.012  28.992  27.640  1.00  0.00    -0.206 F 
ATOM     75  C   UNL A   1      46.116  26.511  25.009  1.00  0.00     0.022 A 
BRANCH  72  76
ATOM     76  S   UNL A   1      45.850  23.770  24.852  1.00  0.00     0.124 S 
ATOM     77  O   UNL A   1      44.515  23.711  24.262  1.00  0.00    -0.237 OA
ATOM     78  O   UNL A   1      46.941  23.983  23.905  1.00  0.00    -0.237 OA
ATOM     79  O   UNL A   1      46.108  22.794  25.904  1.00  0.00    -0.744 OA
ENDBRANCH  72  76
ENDBRANCH  55  69
BRANCH  56  80
ATOM     80  C   UNL A   1      44.790  26.977  37.762  1.00  0.00     0.023 A 
ATOM     81  C   UNL A   1      45.321  28.067  38.477  1.00  0.00     0.031 A 
ATOM     82  C   UNL A   1      44.247  25.908  38.493  1.00  0.00     0.131 A 
ATOM     83  C   UNL A   1      45.362  28.028  39.877  1.00  0.00     0.055 A 
ATOM     84  C   UNL A   1      44.225  25.906  39.889  1.00  0.00     0.041 A 
ATOM     85  F   UNL A   1      43.744  24.839  37.856  1.00  0.00    -0.206 F 
ATOM     86  C   UNL A   1      44.802  26.962  40.588  1.00  0.00     0.022 A 
BRANCH  83  87
ATOM     87  S   UNL A   1      46.268  29.290  40.814  1.00  0.00     0.124 S 
ATOM     88  O   UNL A   1      45.498  30.496  40.525  1.00  0.00    -0.237 OA
ATOM     89  O   UNL A   1      46.159  28.784  42.180  1.00  0.00    -0.237 OA
ATOM     90  O   UNL A   1      47.610  29.246  40.244  1.00  0.00    -0.744 OA
ENDBRANCH  83  87
ENDBRANCH  56  80
BRANCH  68  91
ATOM     91  C   UNL A   1      49.916  25.110  33.288  1.00  0.00     0.023 A 
ATOM     92  C   UNL A   1      50.169  23.728  33.192  1.00  0.00     0.031 A 
ATOM     93  C   UNL A   1      50.954  25.946  33.735  1.00  0.00     0.131 A 
ATOM     94  C   UNL A   1      51.406  23.213  33.602  1.00  0.00     0.055 A 
ATOM     95  C   UNL A   1      52.203  25.435  34.092  1.00  0.00     0.041 A 
ATOM     96  F   UNL A   1      50.760  27.269  33.854  1.00  0.00    -0.206 F 
ATOM     97  C   UNL A   1      52.426  24.061  34.045  1.00  0.00     0.022 A 
BRANCH  94  98
ATOM     98  S   UNL A   1      51.698  21.423  33.677  1.00  0.00     0.124 S 
ATOM     99  O   UNL A   1      50.392  20.920  34.096  1.00  0.00    -0.237 OA
ATOM    100  O   UNL A   1      52.071  21.117  32.298  1.00  0.00    -0.237 OA
ATOM    101  O   UNL A   1      52.762  21.282  34.664  1.00  0.00    -0.744 OA
ENDBRANCH  94  98
ENDBRANCH  68  91
ENDBRANCH  42  43
ENDBRANCH  35  37
ENDBRANCH  34  35
ENDBRANCH  33  34
ENDBRANCH  32  33
ENDBRANCH  31  32
ENDBRANCH  30  31
ENDBRANCH   1  30
TORSDOF 23
ENDMDL
MODEL 3
REMARK VINA RESULT:      -9.6      2.966      4.604
REMARK SMILES CCOc1ccc2[nH]c(C)c/c(=N\c3cccc(C(=O)OCCOCCOCCOC(=O)c4ccc(-c5c6nc(c(-c7cc(S(=O)(=O)[O-])ccc7F)c7ccc([nH]7)c(-c7cc(S(=O)(=O)[O-])ccc7F)c7nc(c(-c8cc(S(=O)(=O)[O-])ccc8F)c8ccc5[nH]8)C=C7)C=C6)cc4)c3)c2c1
REMARK SMILES IDX 25 1 24 2 23 3 22 4 21 5 19 6 20 7 18 8 14 9 15 10 96 11
REMARK SMILES IDX 16 12 17 13 13 14 4 15 5 16 98 17 6 18 97 19 7 20 12 21 8 22
REMARK SMILES IDX 11 23 9 24 10 26 3 27 2 28 1 29 26 30 27 31 28 32 29 33
REMARK SMILES IDX 30 34 31 35 32 36 33 37 34 38 95 39 35 40 94 41 36 42 37 43
REMARK SMILES IDX 38 44 88 45 39 46 93 47 87 48 89 49 40 50 92 51 86 52 85 53
REMARK SMILES IDX 41 55 73 56 53 57 72 58 54 59 57 60 71 61 90 62 55 63 56 64
REMARK SMILES IDX 70 66 91 67 58 68 42 69 43 70 51 71 44 72 50 73 52 74 49 75
REMARK SMILES IDX 45 76 46 77 47 78 48 79 74 80 75 81 83 82 76 83 82 84 84 85
REMARK SMILES IDX 81 86 77 87 78 88 79 89 80 90 59 91 60 92 68 93 61 94 67 95
REMARK SMILES IDX 69 96 66 97 62 98 63 99 64 100 65 101
REMARK H PARENT 8 25 89 54 57 65
REMARK Flexibility Score: inf
ROOT
ATOM      1  C   UNL A   1      34.655  33.557  28.440  1.00  0.00     0.188 C 
ENDROOT
BRANCH   1   2
ATOM      2  O   UNL A   1      34.343  32.450  27.625  1.00  0.00    -0.376 OA
BRANCH   2   3
ATOM      3  C   UNL A   1      34.182  31.172  28.211  1.00  0.00     0.202 C 
BRANCH   3   4
ATOM      4  C   UNL A   1      34.132  29.861  27.400  1.00  0.00     0.261 C 
BRANCH   4   5
ATOM      5  O   UNL A   1      32.898  29.536  26.753  1.00  0.00    -0.460 OA
BRANCH   5   6
ATOM      6  C   UNL A   1      32.448  28.267  26.908  1.00  0.00     0.338 C 
ATOM      7  O   UNL A   1      31.748  27.852  27.816  1.00  0.00    -0.246 OA
BRANCH   6   8
ATOM      8  C   UNL A   1      32.785  27.479  25.701  1.00  0.00     0.062 A 
ATOM      9  C   UNL A   1      33.269  25.377  24.581  1.00  0.00     0.065 A 
ATOM     10  C   UNL A   1      33.467  26.089  23.389  1.00  0.00     0.028 A 
ATOM     11  C   UNL A   1      32.907  26.081  25.734  1.00  0.00     0.044 A 
ATOM     12  C   UNL A   1      33.378  27.484  23.359  1.00  0.00     0.003 A 
ATOM     13  C   UNL A   1      33.031  28.179  24.514  1.00  0.00     0.016 A 
BRANCH   9  14
ATOM     14  N   UNL A   1      33.339  23.974  24.628  1.00  0.00    -0.248 NA
ATOM     15  C   UNL A   1      33.283  19.728  24.553  1.00  0.00     0.120 A 
ATOM     16  C   UNL A   1      34.482  19.041  24.730  1.00  0.00     0.048 A 
ATOM     17  C   UNL A   1      33.247  21.121  24.610  1.00  0.00     0.059 A 
ATOM     18  C   UNL A   1      35.650  19.744  25.017  1.00  0.00     0.030 A 
ATOM     19  C   UNL A   1      34.425  21.832  24.889  1.00  0.00     0.027 A 
ATOM     20  C   UNL A   1      35.633  21.140  25.097  1.00  0.00     0.048 A 
ATOM     21  C   UNL A   1      34.432  23.337  24.935  1.00  0.00     0.075 A 
ATOM     22  N   UNL A   1      36.814  21.839  25.365  1.00  0.00    -0.359 N 
ATOM     23  C   UNL A   1      35.742  23.963  25.324  1.00  0.00     0.050 A 
ATOM     24  C   UNL A   1      36.840  23.206  25.486  1.00  0.00     0.014 A 
ATOM     25  H   UNL A   1      37.653  21.334  25.469  1.00  0.00     0.166 HD
ATOM     26  C   UNL A   1      38.173  23.829  25.802  1.00  0.00     0.064 C 
BRANCH  15  27
ATOM     27  O   UNL A   1      32.156  19.040  24.194  1.00  0.00    -0.494 OA
BRANCH  27  28
ATOM     28  C   UNL A   1      32.434  17.953  23.301  1.00  0.00     0.226 C 
ATOM     29  C   UNL A   1      32.337  18.386  21.845  1.00  0.00     0.049 C 
ENDBRANCH  27  28
ENDBRANCH  15  27
ENDBRANCH   9  14
ENDBRANCH   6   8
ENDBRANCH   5   6
ENDBRANCH   4   5
ENDBRANCH   3   4
ENDBRANCH   2   3
ENDBRANCH   1   2
BRANCH   1  30
ATOM     30  C   UNL A   1      34.689  34.892  27.664  1.00  0.00     0.188 C 
BRANCH  30  31
ATOM     31  O   UNL A   1      34.448  36.117  28.350  1.00  0.00    -0.376 OA
BRANCH  31  32
ATOM     32  C   UNL A   1      33.142  36.383  28.851  1.00  0.00     0.202 C 
BRANCH  32  33
ATOM     33  C   UNL A   1      32.897  36.339  30.364  1.00  0.00     0.261 C 
BRANCH  33  34
ATOM     34  O   UNL A   1      34.003  35.846  31.136  1.00  0.00    -0.460 OA
BRANCH  34  35
ATOM     35  C   UNL A   1      33.693  34.940  32.099  1.00  0.00     0.338 C 
ATOM     36  O   UNL A   1      32.582  34.648  32.510  1.00  0.00    -0.246 OA
BRANCH  35  37
ATOM     37  C   UNL A   1      34.916  34.200  32.462  1.00  0.00     0.060 A 
ATOM     38  C   UNL A   1      34.852  33.083  33.295  1.00  0.00     0.016 A 
ATOM     39  C   UNL A   1      36.145  34.642  31.954  1.00  0.00     0.016 A 
ATOM     40  C   UNL A   1      36.030  32.406  33.625  1.00  0.00     0.010 A 
ATOM     41  C   UNL A   1      37.321  33.976  32.301  1.00  0.00     0.010 A 
ATOM     42  C   UNL A   1      37.271  32.850  33.135  1.00  0.00    -0.014 A 
BRANCH  42  43
ATOM     43  C   UNL A   1      38.502  32.072  33.409  1.00  0.00     0.031 A 
ATOM     44  C   UNL A   1      38.968  30.997  32.475  1.00  0.00     0.074 A 
ATOM     45  C   UNL A   1      39.194  32.344  34.532  1.00  0.00     0.049 A 
ATOM     46  N   UNL A   1      40.059  30.279  32.535  1.00  0.00    -0.248 NA
ATOM     47  C   UNL A   1      38.100  30.683  31.330  1.00  0.00     0.031 C 
ATOM     48  C   UNL A   1      38.809  33.352  35.518  1.00  0.00     0.029 A 
ATOM     49  N   UNL A   1      40.354  31.807  35.032  1.00  0.00    -0.354 N 
ATOM     50  C   UNL A   1      40.028  29.445  31.423  1.00  0.00     0.074 A 
ATOM     51  C   UNL A   1      38.781  29.709  30.737  1.00  0.00     0.031 C 
ATOM     52  C   UNL A   1      39.724  33.373  36.499  1.00  0.00     0.029 A 
ATOM     53  C   UNL A   1      40.745  32.362  36.228  1.00  0.00     0.049 A 
ATOM     54  H   UNL A   1      40.856  31.092  34.579  1.00  0.00     0.167 HD
ATOM     55  C   UNL A   1      40.968  28.561  31.011  1.00  0.00     0.034 A 
ATOM     56  C   UNL A   1      41.806  32.093  37.018  1.00  0.00     0.034 A 
ATOM     57  C   UNL A   1      42.196  28.306  31.722  1.00  0.00     0.049 A 
ATOM     58  C   UNL A   1      42.816  31.072  36.560  1.00  0.00     0.074 A 
ATOM     59  C   UNL A   1      43.232  27.463  31.358  1.00  0.00     0.029 A 
ATOM     60  N   UNL A   1      42.555  28.873  32.938  1.00  0.00    -0.354 N 
ATOM     61  N   UNL A   1      42.830  30.371  35.450  1.00  0.00    -0.248 NA
ATOM     62  C   UNL A   1      43.961  30.809  37.443  1.00  0.00     0.031 C 
ATOM     63  C   UNL A   1      44.175  27.460  32.385  1.00  0.00     0.029 A 
ATOM     64  C   UNL A   1      43.776  28.368  33.353  1.00  0.00     0.049 A 
ATOM     65  H   UNL A   1      42.020  29.536  33.431  1.00  0.00     0.167 HD
ATOM     66  C   UNL A   1      43.998  29.614  35.486  1.00  0.00     0.074 A 
ATOM     67  C   UNL A   1      44.671  29.950  36.722  1.00  0.00     0.031 C 
ATOM     68  C   UNL A   1      44.463  28.725  34.572  1.00  0.00     0.034 A 
BRANCH  55  69
ATOM     69  C   UNL A   1      40.749  27.812  29.719  1.00  0.00     0.023 A 
ATOM     70  C   UNL A   1      41.548  28.092  28.594  1.00  0.00     0.031 A 
ATOM     71  C   UNL A   1      39.649  26.952  29.556  1.00  0.00     0.131 A 
ATOM     72  C   UNL A   1      41.209  27.552  27.347  1.00  0.00     0.055 A 
ATOM     73  C   UNL A   1      39.340  26.382  28.319  1.00  0.00     0.041 A 
ATOM     74  F   UNL A   1      38.851  26.660  30.595  1.00  0.00    -0.206 F 
ATOM     75  C   UNL A   1      40.114  26.694  27.205  1.00  0.00     0.022 A 
BRANCH  72  76
ATOM     76  S   UNL A   1      42.124  28.006  25.847  1.00  0.00     0.124 S 
ATOM     77  O   UNL A   1      41.402  29.197  25.406  1.00  0.00    -0.237 OA
ATOM     78  O   UNL A   1      43.466  28.248  26.369  1.00  0.00    -0.237 OA
ATOM     79  O   UNL A   1      41.983  26.840  24.983  1.00  0.00    -0.744 OA
ENDBRANCH  72  76
ENDBRANCH  55  69
BRANCH  56  80
ATOM     80  C   UNL A   1      41.982  32.871  38.279  1.00  0.00     0.023 A 
ATOM     81  C   UNL A   1      41.435  32.412  39.491  1.00  0.00     0.031 A 
ATOM     82  C   UNL A   1      42.588  34.138  38.265  1.00  0.00     0.131 A 
ATOM     83  C   UNL A   1      41.441  33.244  40.618  1.00  0.00     0.055 A 
ATOM     84  C   UNL A   1      42.656  34.934  39.409  1.00  0.00     0.041 A 
ATOM     85  F   UNL A   1      43.109  34.625  37.128  1.00  0.00    -0.206 F 
ATOM     86  C   UNL A   1      42.063  34.496  40.589  1.00  0.00     0.022 A 
BRANCH  83  87
ATOM     87  S   UNL A   1      40.520  32.789  42.114  1.00  0.00     0.124 S 
ATOM     88  O   UNL A   1      39.528  33.857  42.198  1.00  0.00    -0.237 OA
ATOM     89  O   UNL A   1      39.999  31.472  41.755  1.00  0.00    -0.237 OA
ATOM     90  O   UNL A   1      41.537  32.789  43.160  1.00  0.00    -0.744 OA
ENDBRANCH  83  87
ENDBRANCH  56  80
BRANCH  68  91
ATOM     91  C   UNL A   1      45.783  28.033  34.825  1.00  0.00     0.023 A 
ATOM     92  C   UNL A   1      45.810  26.836  35.567  1.00  0.00     0.031 A 
ATOM     93  C   UNL A   1      47.006  28.654  34.521  1.00  0.00     0.131 A 
ATOM     94  C   UNL A   1      47.029  26.335  36.039  1.00  0.00     0.055 A 
ATOM     95  C   UNL A   1      48.223  28.122  34.947  1.00  0.00     0.041 A 
ATOM     96  F   UNL A   1      47.032  29.802  33.824  1.00  0.00    -0.206 F 
ATOM     97  C   UNL A   1      48.237  26.968  35.727  1.00  0.00     0.022 A 
BRANCH  94  98
ATOM     98  S   UNL A   1      47.085  24.908  37.160  1.00  0.00     0.124 S 
ATOM     99  O   UNL A   1      48.263  24.190  36.679  1.00  0.00    -0.237 OA
ATOM    100  O   UNL A   1      47.235  25.550  38.464  1.00  0.00    -0.237 OA
ATOM    101  O   UNL A   1      45.813  24.233  36.933  1.00  0.00    -0.744 OA
ENDBRANCH  94  98
ENDBRANCH  68  91
ENDBRANCH  42  43
ENDBRANCH  35  37
ENDBRANCH  34  35
ENDBRANCH  33  34
ENDBRANCH  32  33
ENDBRANCH  31  32
ENDBRANCH  30  31
ENDBRANCH   1  30
TORSDOF 23
ENDMDL
