MODEL 1
REMARK VINA RESULT:     -12.0      0.000      0.000
REMARK SMILES Cc1ccc2nc(-c3cccc(NC(=O)c4ccccc4C(=O)OCCOCCOCCOC(=O)c4ccc(-c5c6nc(c(-c7cc(S(=O)(=O)[O-])ccc7F)c7ccc([nH]7)c(-c7cc(S(=O)(=O)[O-])ccc7F)c7nc(c(-c8cc(S(=O)(=O)[O-])ccc8F)c8ccc5[nH]8)C=C7)C=C6)cc4)c3)[nH]c2c1
REMARK SMILES IDX 28 1 27 2 26 3 25 4 24 5 22 6 23 7 21 8 16 9 17 10 18 11
REMARK SMILES IDX 20 12 19 13 14 14 13 15 15 17 12 18 8 19 9 20 99 21 10 22
REMARK SMILES IDX 11 23 7 24 1 25 2 26 3 27 102 28 4 29 101 30 5 31 100 32
REMARK SMILES IDX 6 33 29 35 30 36 31 37 32 38 33 39 34 40 35 41 36 42 37 43
REMARK SMILES IDX 98 44 38 45 97 46 39 47 40 48 41 49 91 50 42 51 96 52 90 53
REMARK SMILES IDX 92 54 43 55 95 56 89 57 88 58 44 60 76 61 56 62 75 63 57 64
REMARK SMILES IDX 60 65 74 66 93 67 58 68 59 69 73 71 94 72 61 73 45 74 46 75
REMARK SMILES IDX 54 76 47 77 53 78 55 79 52 80 48 81 49 82 50 83 51 84 77 85
REMARK SMILES IDX 78 86 86 87 79 88 85 89 87 90 84 91 80 92 81 93 82 94 83 95
REMARK SMILES IDX 62 96 63 97 71 98 64 99 70 100 72 101 69 102 65 103 66 104
REMARK SMILES IDX 67 105 68 106
REMARK H PARENT 13 16 100 34 92 59 60 70
REMARK Flexibility Score: inf
ROOT
ATOM      1  C   UNL A   1      31.736  28.944  27.376  1.00  0.00     0.188 C 
ENDROOT
BRANCH   1   2
ATOM      2  O   UNL A   1      31.439  27.560  27.462  1.00  0.00    -0.376 OA
BRANCH   2   3
ATOM      3  C   UNL A   1      31.615  26.744  26.318  1.00  0.00     0.202 C 
BRANCH   3   4
ATOM      4  C   UNL A   1      31.649  25.221  26.445  1.00  0.00     0.261 C 
BRANCH   4   5
ATOM      5  O   UNL A   1      32.963  24.637  26.468  1.00  0.00    -0.460 OA
BRANCH   5   6
ATOM      6  C   UNL A   1      33.017  23.372  26.952  1.00  0.00     0.339 C 
ATOM      7  O   UNL A   1      32.292  22.921  27.829  1.00  0.00    -0.246 OA
BRANCH   6   8
ATOM      8  C   UNL A   1      33.970  22.497  26.218  1.00  0.00     0.072 A 
ATOM      9  C   UNL A   1      33.666  21.612  25.171  1.00  0.00     0.054 A 
ATOM     10  C   UNL A   1      34.713  20.857  24.596  1.00  0.00     0.015 A 
ATOM     11  C   UNL A   1      36.034  21.003  25.023  1.00  0.00     0.001 A 
ATOM     12  C   UNL A   1      35.313  22.633  26.636  1.00  0.00     0.016 A 
ATOM     13  C   UNL A   1      36.336  21.895  26.043  1.00  0.00     0.001 A 
BRANCH   9  14
ATOM     14  C   UNL A   1      32.325  21.346  24.587  1.00  0.00     0.256 C 
ATOM     15  N   UNL A   1      31.680  22.196  23.717  1.00  0.00    -0.322 N 
ATOM     16  H   UNL A   1      30.761  21.929  23.489  1.00  0.00     0.170 HD
ATOM     17  O   UNL A   1      31.752  20.300  24.905  1.00  0.00    -0.269 OA
BRANCH  15  18
ATOM     18  C   UNL A   1      32.115  23.378  23.103  1.00  0.00     0.042 A 
ATOM     19  C   UNL A   1      31.672  25.732  22.772  1.00  0.00     0.019 A 
ATOM     20  C   UNL A   1      33.021  25.918  22.444  1.00  0.00     0.012 A 
ATOM     21  C   UNL A   1      31.214  24.451  23.084  1.00  0.00     0.038 A 
ATOM     22  C   UNL A   1      33.882  24.831  22.342  1.00  0.00     0.003 A 
ATOM     23  C   UNL A   1      33.415  23.553  22.630  1.00  0.00     0.026 A 
BRANCH  19  24
ATOM     24  C   UNL A   1      30.777  26.875  22.679  1.00  0.00     0.138 A 
ATOM     25  C   UNL A   1      28.088  32.189  22.033  1.00  0.00     0.044 C 
ATOM     26  C   UNL A   1      28.444  30.761  22.339  1.00  0.00    -0.049 A 
ATOM     27  C   UNL A   1      27.518  29.953  23.015  1.00  0.00     0.006 A 
ATOM     28  C   UNL A   1      29.695  30.246  21.939  1.00  0.00     0.031 A 
ATOM     29  C   UNL A   1      27.810  28.623  23.319  1.00  0.00     0.031 A 
ATOM     30  C   UNL A   1      29.968  28.915  22.278  1.00  0.00     0.066 A 
ATOM     31  C   UNL A   1      29.053  28.112  22.946  1.00  0.00     0.089 A 
ATOM     32  N   UNL A   1      31.058  28.093  22.097  1.00  0.00    -0.338 N 
ATOM     33  N   UNL A   1      29.552  26.865  23.158  1.00  0.00    -0.229 NA
ATOM     34  H   UNL A   1      31.891  28.333  21.633  1.00  0.00     0.168 HD
ENDBRANCH  19  24
ENDBRANCH  15  18
ENDBRANCH   9  14
ENDBRANCH   6   8
ENDBRANCH   5   6
ENDBRANCH   4   5
ENDBRANCH   3   4
ENDBRANCH   2   3
ENDBRANCH   1   2
BRANCH   1  35
ATOM     35  C   UNL A   1      33.202  29.387  27.175  1.00  0.00     0.188 C 
BRANCH  35  36
ATOM     36  O   UNL A   1      33.478  30.766  27.228  1.00  0.00    -0.376 OA
BRANCH  36  37
ATOM     37  C   UNL A   1      32.421  31.705  27.303  1.00  0.00     0.202 C 
BRANCH  37  38
ATOM     38  C   UNL A   1      32.564  33.242  27.338  1.00  0.00     0.261 C 
BRANCH  38  39
ATOM     39  O   UNL A   1      32.455  33.914  28.595  1.00  0.00    -0.460 OA
BRANCH  39  40
ATOM     40  C   UNL A   1      33.443  34.801  28.881  1.00  0.00     0.338 C 
ATOM     41  O   UNL A   1      33.342  36.016  28.916  1.00  0.00    -0.246 OA
BRANCH  40  42
ATOM     42  C   UNL A   1      34.614  34.051  29.393  1.00  0.00     0.060 A 
ATOM     43  C   UNL A   1      34.399  33.032  30.335  1.00  0.00     0.016 A 
ATOM     44  C   UNL A   1      35.901  34.315  28.921  1.00  0.00     0.016 A 
ATOM     45  C   UNL A   1      35.477  32.296  30.831  1.00  0.00     0.010 A 
ATOM     46  C   UNL A   1      36.982  33.597  29.444  1.00  0.00     0.010 A 
ATOM     47  C   UNL A   1      36.780  32.609  30.426  1.00  0.00    -0.014 A 
BRANCH  47  48
ATOM     48  C   UNL A   1      37.935  32.099  31.210  1.00  0.00     0.031 A 
ATOM     49  C   UNL A   1      38.747  30.983  30.607  1.00  0.00     0.074 A 
ATOM     50  C   UNL A   1      38.278  32.612  32.406  1.00  0.00     0.049 A 
ATOM     51  N   UNL A   1      39.749  30.310  31.111  1.00  0.00    -0.248 NA
ATOM     52  C   UNL A   1      38.365  30.568  29.248  1.00  0.00     0.031 C 
ATOM     53  C   UNL A   1      37.615  33.732  33.071  1.00  0.00     0.029 A 
ATOM     54  N   UNL A   1      39.273  32.243  33.280  1.00  0.00    -0.354 N 
ATOM     55  C   UNL A   1      40.114  29.390  30.133  1.00  0.00     0.074 A 
ATOM     56  C   UNL A   1      39.200  29.566  29.026  1.00  0.00     0.031 C 
ATOM     57  C   UNL A   1      38.214  33.950  34.257  1.00  0.00     0.029 A 
ATOM     58  C   UNL A   1      39.274  32.960  34.454  1.00  0.00     0.049 A 
ATOM     59  H   UNL A   1      39.925  31.532  33.083  1.00  0.00     0.167 HD
ATOM     60  C   UNL A   1      41.124  28.487  30.151  1.00  0.00     0.034 A 
ATOM     61  C   UNL A   1      40.024  32.812  35.568  1.00  0.00     0.034 A 
ATOM     62  C   UNL A   1      42.016  28.304  31.269  1.00  0.00     0.049 A 
ATOM     63  C   UNL A   1      41.072  31.721  35.611  1.00  0.00     0.074 A 
ATOM     64  C   UNL A   1      43.068  27.415  31.394  1.00  0.00     0.029 A 
ATOM     65  N   UNL A   1      41.951  29.013  32.462  1.00  0.00    -0.354 N 
ATOM     66  N   UNL A   1      41.408  30.854  34.682  1.00  0.00    -0.248 NA
ATOM     67  C   UNL A   1      41.846  31.592  36.855  1.00  0.00     0.031 C 
ATOM     68  C   UNL A   1      43.589  27.531  32.687  1.00  0.00     0.029 A 
ATOM     69  C   UNL A   1      42.923  28.557  33.339  1.00  0.00     0.049 A 
ATOM     70  H   UNL A   1      41.308  29.733  32.656  1.00  0.00     0.167 HD
ATOM     71  C   UNL A   1      42.458  30.108  35.218  1.00  0.00     0.074 A 
ATOM     72  C   UNL A   1      42.705  30.633  36.544  1.00  0.00     0.031 C 
ATOM     73  C   UNL A   1      43.159  29.085  34.662  1.00  0.00     0.034 A 
BRANCH  60  74
ATOM     74  C   UNL A   1      41.269  27.593  28.944  1.00  0.00     0.023 A 
ATOM     75  C   UNL A   1      42.276  27.802  27.985  1.00  0.00     0.031 A 
ATOM     76  C   UNL A   1      40.362  26.541  28.727  1.00  0.00     0.131 A 
ATOM     77  C   UNL A   1      42.305  27.022  26.819  1.00  0.00     0.055 A 
ATOM     78  C   UNL A   1      40.448  25.713  27.607  1.00  0.00     0.041 A 
ATOM     79  F   UNL A   1      39.362  26.311  29.593  1.00  0.00    -0.206 F 
ATOM     80  C   UNL A   1      41.414  25.961  26.636  1.00  0.00     0.022 A 
BRANCH  77  81
ATOM     81  S   UNL A   1      43.423  27.510  25.478  1.00  0.00     0.124 S 
ATOM     82  O   UNL A   1      42.478  27.885  24.428  1.00  0.00    -0.237 OA
ATOM     83  O   UNL A   1      44.177  28.604  26.078  1.00  0.00    -0.237 OA
ATOM     84  O   UNL A   1      44.189  26.295  25.210  1.00  0.00    -0.744 OA
ENDBRANCH  77  81
ENDBRANCH  60  74
BRANCH  61  85
ATOM     85  C   UNL A   1      39.794  33.678  36.764  1.00  0.00     0.023 A 
ATOM     86  C   UNL A   1      40.648  34.755  37.058  1.00  0.00     0.031 A 
ATOM     87  C   UNL A   1      38.766  33.388  37.678  1.00  0.00     0.131 A 
ATOM     88  C   UNL A   1      40.491  35.468  38.257  1.00  0.00     0.055 A 
ATOM     89  C   UNL A   1      38.576  34.138  38.841  1.00  0.00     0.041 A 
ATOM     90  F   UNL A   1      37.928  32.364  37.456  1.00  0.00    -0.206 F 
ATOM     91  C   UNL A   1      39.451  35.176  39.143  1.00  0.00     0.022 A 
BRANCH  88  92
ATOM     92  S   UNL A   1      41.729  36.721  38.693  1.00  0.00     0.124 S 
ATOM     93  O   UNL A   1      40.900  37.756  39.299  1.00  0.00    -0.237 OA
ATOM     94  O   UNL A   1      42.598  35.982  39.602  1.00  0.00    -0.237 OA
ATOM     95  O   UNL A   1      42.327  37.071  37.407  1.00  0.00    -0.744 OA
ENDBRANCH  88  92
ENDBRANCH  61  85
BRANCH  73  96
ATOM     96  C   UNL A   1      44.304  28.509  35.465  1.00  0.00     0.023 A 
ATOM     97  C   UNL A   1      44.103  27.547  36.470  1.00  0.00     0.031 A 
ATOM     98  C   UNL A   1      45.622  28.935  35.216  1.00  0.00     0.131 A 
ATOM     99  C   UNL A   1      45.192  27.087  37.228  1.00  0.00     0.055 A 
ATOM    100  C   UNL A   1      46.708  28.425  35.927  1.00  0.00     0.041 A 
ATOM    101  F   UNL A   1      45.876  29.854  34.270  1.00  0.00    -0.206 F 
ATOM    102  C   UNL A   1      46.495  27.506  36.950  1.00  0.00     0.022 A 
BRANCH  99 103
ATOM    103  S   UNL A   1      44.873  26.006  38.650  1.00  0.00     0.124 S 
ATOM    104  O   UNL A   1      45.911  26.422  39.586  1.00  0.00    -0.237 OA
ATOM    105  O   UNL A   1      43.506  26.365  39.013  1.00  0.00    -0.237 OA
ATOM    106  O   UNL A   1      45.035  24.661  38.101  1.00  0.00    -0.744 OA
ENDBRANCH  99 103
ENDBRANCH  73  96
ENDBRANCH  47  48
ENDBRANCH  40  42
ENDBRANCH  39  40
ENDBRANCH  38  39
ENDBRANCH  37  38
ENDBRANCH  36  37
ENDBRANCH  35  36
ENDBRANCH   1  35
TORSDOF 23
ENDMDL
MODEL 2
REMARK VINA RESULT:     -11.5      0.844      7.044
REMARK SMILES Cc1ccc2nc(-c3cccc(NC(=O)c4ccccc4C(=O)OCCOCCOCCOC(=O)c4ccc(-c5c6nc(c(-c7cc(S(=O)(=O)[O-])ccc7F)c7ccc([nH]7)c(-c7cc(S(=O)(=O)[O-])ccc7F)c7nc(c(-c8cc(S(=O)(=O)[O-])ccc8F)c8ccc5[nH]8)C=C7)C=C6)cc4)c3)[nH]c2c1
REMARK SMILES IDX 28 1 27 2 26 3 25 4 24 5 22 6 23 7 21 8 16 9 17 10 18 11
REMARK SMILES IDX 20 12 19 13 14 14 13 15 15 17 12 18 8 19 9 20 99 21 10 22
REMARK SMILES IDX 11 23 7 24 1 25 2 26 3 27 102 28 4 29 101 30 5 31 100 32
REMARK SMILES IDX 6 33 29 35 30 36 31 37 32 38 33 39 34 40 35 41 36 42 37 43
REMARK SMILES IDX 98 44 38 45 97 46 39 47 40 48 41 49 91 50 42 51 96 52 90 53
REMARK SMILES IDX 92 54 43 55 95 56 89 57 88 58 44 60 76 61 56 62 75 63 57 64
REMARK SMILES IDX 60 65 74 66 93 67 58 68 59 69 73 71 94 72 61 73 45 74 46 75
REMARK SMILES IDX 54 76 47 77 53 78 55 79 52 80 48 81 49 82 50 83 51 84 77 85
REMARK SMILES IDX 78 86 86 87 79 88 85 89 87 90 84 91 80 92 81 93 82 94 83 95
REMARK SMILES IDX 62 96 63 97 71 98 64 99 70 100 72 101 69 102 65 103 66 104
REMARK SMILES IDX 67 105 68 106
REMARK H PARENT 13 16 100 34 92 59 60 70
REMARK Flexibility Score: inf
ROOT
ATOM      1  C   UNL A   1      31.955  29.066  25.890  1.00  0.00     0.188 C 
ENDROOT
BRANCH   1   2
ATOM      2  O   UNL A   1      31.577  28.104  26.860  1.00  0.00    -0.376 OA
BRANCH   2   3
ATOM      3  C   UNL A   1      31.008  26.879  26.432  1.00  0.00     0.202 C 
BRANCH   3   4
ATOM      4  C   UNL A   1      31.874  25.627  26.287  1.00  0.00     0.261 C 
BRANCH   4   5
ATOM      5  O   UNL A   1      31.449  24.495  27.064  1.00  0.00    -0.460 OA
BRANCH   5   6
ATOM      6  C   UNL A   1      31.358  23.331  26.374  1.00  0.00     0.339 C 
ATOM      7  O   UNL A   1      30.346  22.912  25.830  1.00  0.00    -0.246 OA
BRANCH   6   8
ATOM      8  C   UNL A   1      32.663  22.637  26.210  1.00  0.00     0.072 A 
ATOM      9  C   UNL A   1      33.099  21.919  25.083  1.00  0.00     0.054 A 
ATOM     10  C   UNL A   1      34.379  21.322  25.114  1.00  0.00     0.015 A 
ATOM     11  C   UNL A   1      35.221  21.464  26.218  1.00  0.00     0.001 A 
ATOM     12  C   UNL A   1      33.530  22.771  27.317  1.00  0.00     0.016 A 
ATOM     13  C   UNL A   1      34.797  22.192  27.321  1.00  0.00     0.001 A 
BRANCH   9  14
ATOM     14  C   UNL A   1      32.341  21.683  23.826  1.00  0.00     0.256 C 
ATOM     15  N   UNL A   1      32.091  22.655  22.883  1.00  0.00    -0.322 N 
ATOM     16  H   UNL A   1      31.499  22.371  22.150  1.00  0.00     0.170 HD
ATOM     17  O   UNL A   1      31.906  20.548  23.616  1.00  0.00    -0.269 OA
BRANCH  15  18
ATOM     18  C   UNL A   1      32.538  23.980  22.794  1.00  0.00     0.042 A 
ATOM     19  C   UNL A   1      31.895  26.310  22.860  1.00  0.00     0.019 A 
ATOM     20  C   UNL A   1      33.218  26.644  23.172  1.00  0.00     0.012 A 
ATOM     21  C   UNL A   1      31.559  24.971  22.650  1.00  0.00     0.038 A 
ATOM     22  C   UNL A   1      34.211  25.670  23.190  1.00  0.00     0.003 A 
ATOM     23  C   UNL A   1      33.875  24.341  22.957  1.00  0.00     0.026 A 
BRANCH  19  24
ATOM     24  C   UNL A   1      30.939  27.389  22.668  1.00  0.00     0.138 A 
ATOM     25  C   UNL A   1      27.971  32.489  21.632  1.00  0.00     0.044 C 
ATOM     26  C   UNL A   1      28.397  31.102  22.026  1.00  0.00    -0.049 A 
ATOM     27  C   UNL A   1      27.491  30.273  22.704  1.00  0.00     0.006 A 
ATOM     28  C   UNL A   1      29.693  30.646  21.708  1.00  0.00     0.031 A 
ATOM     29  C   UNL A   1      27.846  28.980  23.089  1.00  0.00     0.031 A 
ATOM     30  C   UNL A   1      30.029  29.353  22.127  1.00  0.00     0.066 A 
ATOM     31  C   UNL A   1      29.134  28.529  22.796  1.00  0.00     0.089 A 
ATOM     32  N   UNL A   1      31.173  28.591  22.037  1.00  0.00    -0.338 N 
ATOM     33  N   UNL A   1      29.695  27.327  23.095  1.00  0.00    -0.229 NA
ATOM     34  H   UNL A   1      32.011  28.859  21.597  1.00  0.00     0.168 HD
ENDBRANCH  19  24
ENDBRANCH  15  18
ENDBRANCH   9  14
ENDBRANCH   6   8
ENDBRANCH   5   6
ENDBRANCH   4   5
ENDBRANCH   3   4
ENDBRANCH   2   3
ENDBRANCH   1   2
BRANCH   1  35
ATOM     35  C   UNL A   1      33.298  29.810  26.052  1.00  0.00     0.188 C 
BRANCH  35  36
ATOM     36  O   UNL A   1      33.648  30.250  27.342  1.00  0.00    -0.376 OA
BRANCH  36  37
ATOM     37  C   UNL A   1      33.961  31.612  27.573  1.00  0.00     0.202 C 
BRANCH  37  38
ATOM     38  C   UNL A   1      32.950  32.762  27.764  1.00  0.00     0.261 C 
BRANCH  38  39
ATOM     39  O   UNL A   1      33.437  34.105  27.816  1.00  0.00    -0.460 OA
BRANCH  39  40
ATOM     40  C   UNL A   1      33.438  34.689  29.042  1.00  0.00     0.338 C 
ATOM     41  O   UNL A   1      32.557  35.384  29.519  1.00  0.00    -0.246 OA
BRANCH  40  42
ATOM     42  C   UNL A   1      34.577  34.144  29.819  1.00  0.00     0.060 A 
ATOM     43  C   UNL A   1      35.879  34.341  29.331  1.00  0.00     0.016 A 
ATOM     44  C   UNL A   1      34.372  33.488  31.034  1.00  0.00     0.016 A 
ATOM     45  C   UNL A   1      36.977  33.853  30.041  1.00  0.00     0.010 A 
ATOM     46  C   UNL A   1      35.473  32.973  31.728  1.00  0.00     0.010 A 
ATOM     47  C   UNL A   1      36.776  33.122  31.218  1.00  0.00    -0.014 A 
BRANCH  47  48
ATOM     48  C   UNL A   1      37.883  32.295  31.768  1.00  0.00     0.031 A 
ATOM     49  C   UNL A   1      38.399  32.647  33.139  1.00  0.00     0.074 A 
ATOM     50  C   UNL A   1      38.408  31.254  31.096  1.00  0.00     0.049 A 
ATOM     51  N   UNL A   1      39.399  32.141  33.811  1.00  0.00    -0.248 NA
ATOM     52  C   UNL A   1      37.685  33.726  33.840  1.00  0.00     0.031 C 
ATOM     53  C   UNL A   1      37.960  30.772  29.791  1.00  0.00     0.029 A 
ATOM     54  N   UNL A   1      39.449  30.418  31.424  1.00  0.00    -0.354 N 
ATOM     55  C   UNL A   1      39.438  32.841  35.012  1.00  0.00     0.074 A 
ATOM     56  C   UNL A   1      38.386  33.834  34.956  1.00  0.00     0.031 C 
ATOM     57  C   UNL A   1      38.731  29.733  29.423  1.00  0.00     0.029 A 
ATOM     58  C   UNL A   1      39.754  29.502  30.445  1.00  0.00     0.049 A 
ATOM     59  H   UNL A   1      39.931  30.471  32.281  1.00  0.00     0.167 HD
ATOM     60  C   UNL A   1      40.267  32.670  36.070  1.00  0.00     0.034 A 
ATOM     61  C   UNL A   1      40.761  28.604  30.371  1.00  0.00     0.034 A 
ATOM     62  C   UNL A   1      41.327  31.693  36.107  1.00  0.00     0.049 A 
ATOM     63  C   UNL A   1      41.747  28.506  31.515  1.00  0.00     0.074 A 
ATOM     64  C   UNL A   1      42.228  31.438  37.126  1.00  0.00     0.029 A 
ATOM     65  N   UNL A   1      41.639  30.819  35.074  1.00  0.00    -0.354 N 
ATOM     66  N   UNL A   1      41.776  29.175  32.645  1.00  0.00    -0.248 NA
ATOM     67  C   UNL A   1      42.834  27.526  31.374  1.00  0.00     0.031 C 
ATOM     68  C   UNL A   1      43.131  30.467  36.680  1.00  0.00     0.029 A 
ATOM     69  C   UNL A   1      42.739  30.049  35.418  1.00  0.00     0.049 A 
ATOM     70  H   UNL A   1      41.150  30.756  34.221  1.00  0.00     0.167 HD
ATOM     71  C   UNL A   1      42.859  28.666  33.362  1.00  0.00     0.074 A 
ATOM     72  C   UNL A   1      43.448  27.629  32.542  1.00  0.00     0.031 C 
ATOM     73  C   UNL A   1      43.321  29.018  34.591  1.00  0.00     0.034 A 
BRANCH  60  74
ATOM     74  C   UNL A   1      40.090  33.604  37.242  1.00  0.00     0.023 A 
ATOM     75  C   UNL A   1      40.933  34.712  37.439  1.00  0.00     0.031 A 
ATOM     76  C   UNL A   1      39.089  33.359  38.199  1.00  0.00     0.131 A 
ATOM     77  C   UNL A   1      40.809  35.488  38.602  1.00  0.00     0.055 A 
ATOM     78  C   UNL A   1      38.916  34.186  39.310  1.00  0.00     0.041 A 
ATOM     79  F   UNL A   1      38.273  32.300  38.079  1.00  0.00    -0.206 F 
ATOM     80  C   UNL A   1      39.788  35.248  39.525  1.00  0.00     0.022 A 
BRANCH  77  81
ATOM     81  S   UNL A   1      42.093  36.715  38.965  1.00  0.00     0.124 S 
ATOM     82  O   UNL A   1      42.509  37.114  37.623  1.00  0.00    -0.237 OA
ATOM     83  O   UNL A   1      41.363  37.717  39.733  1.00  0.00    -0.237 OA
ATOM     84  O   UNL A   1      43.090  35.956  39.717  1.00  0.00    -0.744 OA
ENDBRANCH  77  81
ENDBRANCH  60  74
BRANCH  61  85
ATOM     85  C   UNL A   1      40.935  27.750  29.157  1.00  0.00     0.023 A 
ATOM     86  C   UNL A   1      41.888  28.066  28.175  1.00  0.00     0.031 A 
ATOM     87  C   UNL A   1      40.090  26.650  28.921  1.00  0.00     0.131 A 
ATOM     88  C   UNL A   1      41.940  27.326  26.983  1.00  0.00     0.055 A 
ATOM     89  C   UNL A   1      40.185  25.881  27.759  1.00  0.00     0.041 A 
ATOM     90  F   UNL A   1      39.152  26.309  29.819  1.00  0.00    -0.206 F 
ATOM     91  C   UNL A   1      41.103  26.227  26.775  1.00  0.00     0.022 A 
BRANCH  88  92
ATOM     92  S   UNL A   1      43.047  27.885  25.658  1.00  0.00     0.124 S 
ATOM     93  O   UNL A   1      42.457  27.244  24.489  1.00  0.00    -0.237 OA
ATOM     94  O   UNL A   1      42.904  29.335  25.736  1.00  0.00    -0.237 OA
ATOM     95  O   UNL A   1      44.352  27.367  26.064  1.00  0.00    -0.744 OA
ENDBRANCH  88  92
ENDBRANCH  61  85
BRANCH  73  96
ATOM     96  C   UNL A   1      44.486  28.231  35.148  1.00  0.00     0.023 A 
ATOM     97  C   UNL A   1      44.305  27.045  35.881  1.00  0.00     0.031 A 
ATOM     98  C   UNL A   1      45.804  28.682  34.941  1.00  0.00     0.131 A 
ATOM     99  C   UNL A   1      45.416  26.384  36.429  1.00  0.00     0.055 A 
ATOM    100  C   UNL A   1      46.907  27.984  35.430  1.00  0.00     0.041 A 
ATOM    101  F   UNL A   1      46.039  29.809  34.250  1.00  0.00    -0.206 F 
ATOM    102  C   UNL A   1      46.716  26.835  36.192  1.00  0.00     0.022 A 
BRANCH  99 103
ATOM    103  S   UNL A   1      45.135  24.977  37.539  1.00  0.00     0.124 S 
ATOM    104  O   UNL A   1      46.265  25.083  38.456  1.00  0.00    -0.237 OA
ATOM    105  O   UNL A   1      43.825  25.283  38.104  1.00  0.00    -0.237 OA
ATOM    106  O   UNL A   1      45.168  23.822  36.645  1.00  0.00    -0.744 OA
ENDBRANCH  99 103
ENDBRANCH  73  96
ENDBRANCH  47  48
ENDBRANCH  40  42
ENDBRANCH  39  40
ENDBRANCH  38  39
ENDBRANCH  37  38
ENDBRANCH  36  37
ENDBRANCH  35  36
ENDBRANCH   1  35
TORSDOF 23
ENDMDL
MODEL 3
REMARK VINA RESULT:     -11.4      1.857      2.204
REMARK SMILES Cc1ccc2nc(-c3cccc(NC(=O)c4ccccc4C(=O)OCCOCCOCCOC(=O)c4ccc(-c5c6nc(c(-c7cc(S(=O)(=O)[O-])ccc7F)c7ccc([nH]7)c(-c7cc(S(=O)(=O)[O-])ccc7F)c7nc(c(-c8cc(S(=O)(=O)[O-])ccc8F)c8ccc5[nH]8)C=C7)C=C6)cc4)c3)[nH]c2c1
REMARK SMILES IDX 28 1 27 2 26 3 25 4 24 5 22 6 23 7 21 8 16 9 17 10 18 11
REMARK SMILES IDX 20 12 19 13 14 14 13 15 15 17 12 18 8 19 9 20 99 21 10 22
REMARK SMILES IDX 11 23 7 24 1 25 2 26 3 27 102 28 4 29 101 30 5 31 100 32
REMARK SMILES IDX 6 33 29 35 30 36 31 37 32 38 33 39 34 40 35 41 36 42 37 43
REMARK SMILES IDX 98 44 38 45 97 46 39 47 40 48 41 49 91 50 42 51 96 52 90 53
REMARK SMILES IDX 92 54 43 55 95 56 89 57 88 58 44 60 76 61 56 62 75 63 57 64
REMARK SMILES IDX 60 65 74 66 93 67 58 68 59 69 73 71 94 72 61 73 45 74 46 75
REMARK SMILES IDX 54 76 47 77 53 78 55 79 52 80 48 81 49 82 50 83 51 84 77 85
REMARK SMILES IDX 78 86 86 87 79 88 85 89 87 90 84 91 80 92 81 93 82 94 83 95
REMARK SMILES IDX 62 96 63 97 71 98 64 99 70 100 72 101 69 102 65 103 66 104
REMARK SMILES IDX 67 105 68 106
REMARK H PARENT 13 16 100 34 92 59 60 70
REMARK Flexibility Score: inf
ROOT
ATOM      1  C   UNL A   1      32.142  28.582  25.944  1.00  0.00     0.188 C 
ENDROOT
BRANCH   1   2
ATOM      2  O   UNL A   1      31.593  27.740  26.945  1.00  0.00    -0.376 OA
BRANCH   2   3
ATOM      3  C   UNL A   1      30.906  26.564  26.556  1.00  0.00     0.202 C 
BRANCH   3   4
ATOM      4  C   UNL A   1      31.673  25.275  26.262  1.00  0.00     0.261 C 
BRANCH   4   5
ATOM      5  O   UNL A   1      31.362  24.167  27.122  1.00  0.00    -0.460 OA
BRANCH   5   6
ATOM      6  C   UNL A   1      31.332  22.958  26.508  1.00  0.00     0.339 C 
ATOM      7  O   UNL A   1      30.324  22.408  26.085  1.00  0.00    -0.246 OA
BRANCH   6   8
ATOM      8  C   UNL A   1      32.682  22.388  26.257  1.00  0.00     0.072 A 
ATOM      9  C   UNL A   1      33.132  21.775  25.075  1.00  0.00     0.054 A 
ATOM     10  C   UNL A   1      34.457  21.287  25.026  1.00  0.00     0.015 A 
ATOM     11  C   UNL A   1      35.326  21.435  26.108  1.00  0.00     0.001 A 
ATOM     12  C   UNL A   1      33.577  22.529  27.341  1.00  0.00     0.016 A 
ATOM     13  C   UNL A   1      34.887  22.061  27.267  1.00  0.00     0.001 A 
BRANCH   9  14
ATOM     14  C   UNL A   1      32.348  21.549  23.832  1.00  0.00     0.256 C 
ATOM     15  N   UNL A   1      32.084  22.527  22.899  1.00  0.00    -0.322 N 
ATOM     16  H   UNL A   1      31.476  22.250  22.177  1.00  0.00     0.170 HD
ATOM     17  O   UNL A   1      31.902  20.417  23.626  1.00  0.00    -0.269 OA
BRANCH  15  18
ATOM     18  C   UNL A   1      32.536  23.850  22.807  1.00  0.00     0.042 A 
ATOM     19  C   UNL A   1      31.903  26.183  22.871  1.00  0.00     0.019 A 
ATOM     20  C   UNL A   1      33.229  26.512  23.181  1.00  0.00     0.012 A 
ATOM     21  C   UNL A   1      31.561  24.845  22.664  1.00  0.00     0.038 A 
ATOM     22  C   UNL A   1      34.217  25.534  23.198  1.00  0.00     0.003 A 
ATOM     23  C   UNL A   1      33.875  24.205  22.967  1.00  0.00     0.026 A 
BRANCH  19  24
ATOM     24  C   UNL A   1      30.951  27.265  22.680  1.00  0.00     0.138 A 
ATOM     25  C   UNL A   1      27.998  32.364  21.596  1.00  0.00     0.044 C 
ATOM     26  C   UNL A   1      28.424  30.984  22.015  1.00  0.00    -0.049 A 
ATOM     27  C   UNL A   1      27.532  30.184  22.744  1.00  0.00     0.006 A 
ATOM     28  C   UNL A   1      29.705  30.507  21.668  1.00  0.00     0.031 A 
ATOM     29  C   UNL A   1      27.889  28.898  23.154  1.00  0.00     0.031 A 
ATOM     30  C   UNL A   1      30.042  29.223  22.113  1.00  0.00     0.066 A 
ATOM     31  C   UNL A   1      29.162  28.426  22.834  1.00  0.00     0.089 A 
ATOM     32  N   UNL A   1      31.175  28.447  22.007  1.00  0.00    -0.338 N 
ATOM     33  N   UNL A   1      29.721  27.228  23.148  1.00  0.00    -0.229 NA
ATOM     34  H   UNL A   1      32.002  28.694  21.533  1.00  0.00     0.168 HD
ENDBRANCH  19  24
ENDBRANCH  15  18
ENDBRANCH   9  14
ENDBRANCH   6   8
ENDBRANCH   5   6
ENDBRANCH   4   5
ENDBRANCH   3   4
ENDBRANCH   2   3
ENDBRANCH   1   2
BRANCH   1  35
ATOM     35  C   UNL A   1      33.655  28.891  25.968  1.00  0.00     0.188 C 
BRANCH  35  36
ATOM     36  O   UNL A   1      34.218  29.295  27.192  1.00  0.00    -0.376 OA
BRANCH  36  37
ATOM     37  C   UNL A   1      34.422  30.669  27.467  1.00  0.00     0.202 C 
BRANCH  37  38
ATOM     38  C   UNL A   1      33.334  31.764  27.504  1.00  0.00     0.261 C 
BRANCH  38  39
ATOM     39  O   UNL A   1      33.725  33.129  27.338  1.00  0.00    -0.460 OA
BRANCH  39  40
ATOM     40  C   UNL A   1      33.638  33.910  28.445  1.00  0.00     0.338 C 
ATOM     41  O   UNL A   1      32.698  34.618  28.764  1.00  0.00    -0.246 OA
BRANCH  40  42
ATOM     42  C   UNL A   1      34.768  33.578  29.344  1.00  0.00     0.060 A 
ATOM     43  C   UNL A   1      36.047  34.059  29.022  1.00  0.00     0.016 A 
ATOM     44  C   UNL A   1      34.568  32.841  30.512  1.00  0.00     0.016 A 
ATOM     45  C   UNL A   1      37.134  33.777  29.850  1.00  0.00     0.010 A 
ATOM     46  C   UNL A   1      35.665  32.532  31.325  1.00  0.00     0.010 A 
ATOM     47  C   UNL A   1      36.958  32.969  30.980  1.00  0.00    -0.014 A 
BRANCH  47  48
ATOM     48  C   UNL A   1      38.142  32.365  31.644  1.00  0.00     0.031 A 
ATOM     49  C   UNL A   1      38.894  31.300  30.889  1.00  0.00     0.074 A 
ATOM     50  C   UNL A   1      38.561  32.749  32.864  1.00  0.00     0.049 A 
ATOM     51  N   UNL A   1      39.907  30.564  31.267  1.00  0.00    -0.248 NA
ATOM     52  C   UNL A   1      38.430  31.030  29.519  1.00  0.00     0.031 C 
ATOM     53  C   UNL A   1      37.960  33.808  33.673  1.00  0.00     0.029 A 
ATOM     54  N   UNL A   1      39.593  32.278  33.640  1.00  0.00    -0.354 N 
ATOM     55  C   UNL A   1      40.198  29.740  30.185  1.00  0.00     0.074 A 
ATOM     56  C   UNL A   1      39.229  30.041  29.153  1.00  0.00     0.031 C 
ATOM     57  C   UNL A   1      38.627  33.896  34.838  1.00  0.00     0.029 A 
ATOM     58  C   UNL A   1      39.674  32.874  34.877  1.00  0.00     0.049 A 
ATOM     59  H   UNL A   1      40.217  31.579  33.338  1.00  0.00     0.167 HD
ATOM     60  C   UNL A   1      41.186  28.822  30.056  1.00  0.00     0.034 A 
ATOM     61  C   UNL A   1      40.480  32.602  35.927  1.00  0.00     0.034 A 
ATOM     62  C   UNL A   1      42.133  28.513  31.099  1.00  0.00     0.049 A 
ATOM     63  C   UNL A   1      41.504  31.495  35.804  1.00  0.00     0.074 A 
ATOM     64  C   UNL A   1      43.170  27.598  31.077  1.00  0.00     0.029 A 
ATOM     65  N   UNL A   1      42.149  29.100  32.358  1.00  0.00    -0.354 N 
ATOM     66  N   UNL A   1      41.769  30.720  34.776  1.00  0.00    -0.248 NA
ATOM     67  C   UNL A   1      42.341  31.229  36.983  1.00  0.00     0.031 C 
ATOM     68  C   UNL A   1      43.763  27.576  32.343  1.00  0.00     0.029 A 
ATOM     69  C   UNL A   1      43.156  28.542  33.130  1.00  0.00     0.049 A 
ATOM     70  H   UNL A   1      41.534  29.809  32.658  1.00  0.00     0.167 HD
ATOM     71  C   UNL A   1      42.829  29.906  35.176  1.00  0.00     0.074 A 
ATOM     72  C   UNL A   1      43.160  30.292  36.531  1.00  0.00     0.031 C 
ATOM     73  C   UNL A   1      43.476  28.932  34.483  1.00  0.00     0.034 A 
BRANCH  60  74
ATOM     74  C   UNL A   1      41.245  28.051  28.760  1.00  0.00     0.023 A 
ATOM     75  C   UNL A   1      40.825  26.711  28.677  1.00  0.00     0.031 A 
ATOM     76  C   UNL A   1      41.768  28.651  27.601  1.00  0.00     0.131 A 
ATOM     77  C   UNL A   1      41.004  25.995  27.484  1.00  0.00     0.055 A 
ATOM     78  C   UNL A   1      41.864  27.958  26.393  1.00  0.00     0.041 A 
ATOM     79  F   UNL A   1      42.211  29.918  27.627  1.00  0.00    -0.206 F 
ATOM     80  C   UNL A   1      41.496  26.617  26.333  1.00  0.00     0.022 A 
BRANCH  77  81
ATOM     81  S   UNL A   1      40.731  24.203  27.500  1.00  0.00     0.124 S 
ATOM     82  O   UNL A   1      41.533  23.792  28.650  1.00  0.00    -0.237 OA
ATOM     83  O   UNL A   1      39.285  24.106  27.662  1.00  0.00    -0.237 OA
ATOM     84  O   UNL A   1      41.245  23.765  26.204  1.00  0.00    -0.744 OA
ENDBRANCH  77  81
ENDBRANCH  60  74
BRANCH  61  85
ATOM     85  C   UNL A   1      40.335  33.349  37.214  1.00  0.00     0.023 A 
ATOM     86  C   UNL A   1      39.448  32.912  38.213  1.00  0.00     0.031 A 
ATOM     87  C   UNL A   1      41.019  34.558  37.428  1.00  0.00     0.131 A 
ATOM     88  C   UNL A   1      39.231  33.702  39.352  1.00  0.00     0.055 A 
ATOM     89  C   UNL A   1      40.845  35.311  38.591  1.00  0.00     0.041 A 
ATOM     90  F   UNL A   1      41.870  35.031  36.503  1.00  0.00    -0.206 F 
ATOM     91  C   UNL A   1      39.934  34.892  39.555  1.00  0.00     0.022 A 
BRANCH  88  92
ATOM     92  S   UNL A   1      37.937  33.204  40.523  1.00  0.00     0.124 S 
ATOM     93  O   UNL A   1      38.611  32.156  41.280  1.00  0.00    -0.237 OA
ATOM     94  O   UNL A   1      37.682  34.450  41.239  1.00  0.00    -0.237 OA
ATOM     95  O   UNL A   1      36.850  32.751  39.658  1.00  0.00    -0.744 OA
ENDBRANCH  88  92
ENDBRANCH  61  85
BRANCH  73  96
ATOM     96  C   UNL A   1      44.649  28.259  35.160  1.00  0.00     0.023 A 
ATOM     97  C   UNL A   1      44.552  26.975  35.723  1.00  0.00     0.031 A 
ATOM     98  C   UNL A   1      45.889  28.921  35.241  1.00  0.00     0.131 A 
ATOM     99  C   UNL A   1      45.654  26.418  36.392  1.00  0.00     0.055 A 
ATOM    100  C   UNL A   1      46.999  28.335  35.848  1.00  0.00     0.041 A 
ATOM    101  F   UNL A   1      46.042  30.150  34.722  1.00  0.00    -0.206 F 
ATOM    102  C   UNL A   1      46.881  27.082  36.442  1.00  0.00     0.022 A 
BRANCH  99 103
ATOM    103  S   UNL A   1      45.434  24.854  37.285  1.00  0.00     0.124 S 
ATOM    104  O   UNL A   1      44.175  25.080  37.987  1.00  0.00    -0.237 OA
ATOM    105  O   UNL A   1      45.393  23.879  36.200  1.00  0.00    -0.237 OA
ATOM    106  O   UNL A   1      46.616  24.779  38.141  1.00  0.00    -0.744 OA
ENDBRANCH  99 103
ENDBRANCH  73  96
ENDBRANCH  47  48
ENDBRANCH  40  42
ENDBRANCH  39  40
ENDBRANCH  38  39
ENDBRANCH  37  38
ENDBRANCH  36  37
ENDBRANCH  35  36
ENDBRANCH   1  35
TORSDOF 23
ENDMDL
