MODEL 1
REMARK VINA RESULT:     -10.7      0.000      0.000
REMARK SMILES CCc1noc(C)c1C(=O)Nc1cc(Cl)ccc1C(=O)OCCOCCOCCOC(=O)c1ccc(-c2c3nc(c(-c4cc(S(=O)(=O)[O-])ccc4F)c4ccc([nH]4)c(-c4cc(S(=O)(=O)[O-])ccc4F)c4nc(c(-c5cc(S(=O)(=O)[O-])ccc5F)c5ccc2[nH]5)C=C4)C=C3)cc1
REMARK SMILES IDX 25 1 24 2 23 3 22 4 21 5 19 6 20 7 18 8 12 9 13 10 14 11
REMARK SMILES IDX 17 12 15 13 16 14 11 15 9 16 10 17 8 19 3 20 4 21 5 22 6 23
REMARK SMILES IDX 7 24 2 25 1 26 26 27 27 28 28 29 29 30 30 31 31 32 32 33
REMARK SMILES IDX 33 34 34 35 95 36 35 37 94 38 36 39 37 40 38 41 88 42 39 43
REMARK SMILES IDX 93 44 87 45 89 46 40 47 92 48 86 49 85 50 41 52 73 53 53 54
REMARK SMILES IDX 72 55 54 56 57 57 71 58 90 59 55 60 56 61 70 63 91 64 58 65
REMARK SMILES IDX 42 66 43 67 51 68 44 69 50 70 52 71 49 72 45 73 46 74 47 75
REMARK SMILES IDX 48 76 74 77 75 78 83 79 76 80 82 81 84 82 81 83 77 84 78 85
REMARK SMILES IDX 79 86 80 87 59 88 60 89 68 90 61 91 67 92 69 93 66 94 62 95
REMARK SMILES IDX 63 96 64 97 65 98
REMARK H PARENT 11 18 89 51 57 62
REMARK Flexibility Score: inf
ROOT
ATOM      1  C   UNL A   1      33.918  23.119  22.789  1.00  0.00     0.188 C 
ENDROOT
BRANCH   1   2
ATOM      2  O   UNL A   1      32.770  23.963  22.785  1.00  0.00    -0.376 OA
BRANCH   2   3
ATOM      3  C   UNL A   1      31.495  23.432  23.127  1.00  0.00     0.202 C 
BRANCH   3   4
ATOM      4  C   UNL A   1      30.314  24.402  23.219  1.00  0.00     0.261 C 
BRANCH   4   5
ATOM      5  O   UNL A   1      30.658  25.767  22.908  1.00  0.00    -0.460 OA
BRANCH   5   6
ATOM      6  C   UNL A   1      30.254  26.685  23.819  1.00  0.00     0.340 C 
ATOM      7  O   UNL A   1      30.268  26.532  25.034  1.00  0.00    -0.246 OA
BRANCH   6   8
ATOM      8  C   UNL A   1      29.829  27.975  23.203  1.00  0.00     0.083 A 
ATOM      9  C   UNL A   1      30.646  28.844  22.438  1.00  0.00     0.057 A 
ATOM     10  C   UNL A   1      30.024  29.876  21.727  1.00  0.00     0.047 A 
ATOM     11  C   UNL A   1      28.670  30.168  21.929  1.00  0.00     0.043 A 
ATOM     12  C   UNL A   1      28.475  28.302  23.416  1.00  0.00     0.019 A 
ATOM     13  Cl  UNL A   1      27.954  31.497  21.104  1.00  0.00    -0.084 Cl
ATOM     14  C   UNL A   1      27.905  29.417  22.809  1.00  0.00     0.021 A 
BRANCH   9  15
ATOM     15  N   UNL A   1      32.043  28.658  22.413  1.00  0.00    -0.321 N 
ATOM     16  C   UNL A   1      33.065  28.699  23.338  1.00  0.00     0.261 C 
ATOM     17  O   UNL A   1      34.206  28.681  22.866  1.00  0.00    -0.269 OA
ATOM     18  H   UNL A   1      32.371  28.446  21.509  1.00  0.00     0.170 HD
BRANCH  16  19
ATOM     19  C   UNL A   1      32.885  28.737  24.781  1.00  0.00     0.105 A 
ATOM     20  C   UNL A   1      33.299  27.713  25.700  1.00  0.00     0.096 A 
ATOM     21  N   UNL A   1      33.028  28.045  26.967  1.00  0.00    -0.084 NA
ATOM     22  O   UNL A   1      32.302  29.208  26.896  1.00  0.00    -0.361 OA
ATOM     23  C   UNL A   1      32.140  29.576  25.596  1.00  0.00     0.146 A 
ATOM     24  C   UNL A   1      31.193  30.697  25.426  1.00  0.00     0.092 C 
BRANCH  20  25
ATOM     25  C   UNL A   1      33.874  26.361  25.426  1.00  0.00     0.057 C 
ATOM     26  C   UNL A   1      33.156  25.224  26.127  1.00  0.00     0.011 C 
ENDBRANCH  20  25
ENDBRANCH  16  19
ENDBRANCH   9  15
ENDBRANCH   6   8
ENDBRANCH   5   6
ENDBRANCH   4   5
ENDBRANCH   3   4
ENDBRANCH   2   3
ENDBRANCH   1   2
BRANCH   1  27
ATOM     27  C   UNL A   1      34.193  22.226  24.013  1.00  0.00     0.188 C 
BRANCH  27  28
ATOM     28  O   UNL A   1      35.384  22.551  24.698  1.00  0.00    -0.376 OA
BRANCH  28  29
ATOM     29  C   UNL A   1      36.616  22.200  24.095  1.00  0.00     0.202 C 
BRANCH  29  30
ATOM     30  C   UNL A   1      37.583  21.262  24.837  1.00  0.00     0.261 C 
BRANCH  30  31
ATOM     31  O   UNL A   1      38.113  21.725  26.085  1.00  0.00    -0.460 OA
BRANCH  31  32
ATOM     32  C   UNL A   1      39.427  21.511  26.328  1.00  0.00     0.338 C 
ATOM     33  O   UNL A   1      40.070  20.519  26.043  1.00  0.00    -0.246 OA
BRANCH  32  34
ATOM     34  C   UNL A   1      39.987  22.786  26.833  1.00  0.00     0.060 A 
ATOM     35  C   UNL A   1      39.508  23.997  26.317  1.00  0.00     0.016 A 
ATOM     36  C   UNL A   1      40.948  22.782  27.848  1.00  0.00     0.016 A 
ATOM     37  C   UNL A   1      39.990  25.210  26.822  1.00  0.00     0.010 A 
ATOM     38  C   UNL A   1      41.444  23.994  28.334  1.00  0.00     0.010 A 
ATOM     39  C   UNL A   1      40.976  25.215  27.820  1.00  0.00    -0.014 A 
BRANCH  39  40
ATOM     40  C   UNL A   1      41.620  26.481  28.250  1.00  0.00     0.031 A 
ATOM     41  C   UNL A   1      40.769  27.545  28.885  1.00  0.00     0.074 A 
ATOM     42  C   UNL A   1      42.932  26.696  28.046  1.00  0.00     0.049 A 
ATOM     43  N   UNL A   1      41.077  28.773  29.209  1.00  0.00    -0.248 NA
ATOM     44  C   UNL A   1      39.381  27.167  29.192  1.00  0.00     0.031 C 
ATOM     45  C   UNL A   1      43.869  25.728  27.480  1.00  0.00     0.029 A 
ATOM     46  N   UNL A   1      43.698  27.815  28.268  1.00  0.00    -0.354 N 
ATOM     47  C   UNL A   1      39.925  29.316  29.766  1.00  0.00     0.074 A 
ATOM     48  C   UNL A   1      38.904  28.290  29.704  1.00  0.00     0.031 C 
ATOM     49  C   UNL A   1      45.078  26.306  27.367  1.00  0.00     0.029 A 
ATOM     50  C   UNL A   1      44.991  27.697  27.807  1.00  0.00     0.049 A 
ATOM     51  H   UNL A   1      43.357  28.624  28.714  1.00  0.00     0.167 HD
ATOM     52  C   UNL A   1      39.737  30.554  30.286  1.00  0.00     0.034 A 
ATOM     53  C   UNL A   1      45.971  28.620  27.707  1.00  0.00     0.034 A 
ATOM     54  C   UNL A   1      40.749  31.581  30.303  1.00  0.00     0.049 A 
ATOM     55  C   UNL A   1      45.702  30.032  28.176  1.00  0.00     0.074 A 
ATOM     56  C   UNL A   1      40.661  32.873  30.791  1.00  0.00     0.029 A 
ATOM     57  N   UNL A   1      42.032  31.439  29.791  1.00  0.00    -0.354 N 
ATOM     58  N   UNL A   1      44.607  30.536  28.699  1.00  0.00    -0.248 NA
ATOM     59  C   UNL A   1      46.799  31.000  28.037  1.00  0.00     0.031 C 
ATOM     60  C   UNL A   1      41.865  33.530  30.517  1.00  0.00     0.029 A 
ATOM     61  C   UNL A   1      42.732  32.627  29.922  1.00  0.00     0.049 A 
ATOM     62  H   UNL A   1      42.392  30.613  29.394  1.00  0.00     0.167 HD
ATOM     63  C   UNL A   1      44.895  31.873  28.969  1.00  0.00     0.074 A 
ATOM     64  C   UNL A   1      46.269  32.092  28.569  1.00  0.00     0.031 C 
ATOM     65  C   UNL A   1      44.098  32.833  29.502  1.00  0.00     0.034 A 
BRANCH  52  66
ATOM     66  C   UNL A   1      38.367  30.870  30.827  1.00  0.00     0.023 A 
ATOM     67  C   UNL A   1      37.381  31.469  30.025  1.00  0.00     0.031 A 
ATOM     68  C   UNL A   1      38.051  30.598  32.170  1.00  0.00     0.131 A 
ATOM     69  C   UNL A   1      36.149  31.836  30.586  1.00  0.00     0.055 A 
ATOM     70  C   UNL A   1      36.797  30.900  32.705  1.00  0.00     0.041 A 
ATOM     71  F   UNL A   1      38.962  30.049  32.989  1.00  0.00    -0.206 F 
ATOM     72  C   UNL A   1      35.842  31.535  31.916  1.00  0.00     0.022 A 
BRANCH  69  73
ATOM     73  S   UNL A   1      35.004  32.827  29.590  1.00  0.00     0.124 S 
ATOM     74  O   UNL A   1      34.450  31.821  28.687  1.00  0.00    -0.237 OA
ATOM     75  O   UNL A   1      34.089  33.356  30.594  1.00  0.00    -0.237 OA
ATOM     76  O   UNL A   1      35.872  33.816  28.953  1.00  0.00    -0.744 OA
ENDBRANCH  69  73
ENDBRANCH  52  66
BRANCH  53  77
ATOM     77  C   UNL A   1      47.273  28.277  27.065  1.00  0.00     0.023 A 
ATOM     78  C   UNL A   1      47.368  28.052  25.682  1.00  0.00     0.031 A 
ATOM     79  C   UNL A   1      48.430  28.092  27.843  1.00  0.00     0.131 A 
ATOM     80  C   UNL A   1      48.579  27.605  25.128  1.00  0.00     0.055 A 
ATOM     81  C   UNL A   1      49.646  27.701  27.279  1.00  0.00     0.041 A 
ATOM     82  F   UNL A   1      48.394  28.287  29.171  1.00  0.00    -0.206 F 
ATOM     83  C   UNL A   1      49.721  27.440  25.915  1.00  0.00     0.022 A 
BRANCH  80  84
ATOM     84  S   UNL A   1      48.613  27.144  23.374  1.00  0.00     0.124 S 
ATOM     85  O   UNL A   1      47.885  28.249  22.762  1.00  0.00    -0.237 OA
ATOM     86  O   UNL A   1      50.045  27.090  23.104  1.00  0.00    -0.237 OA
ATOM     87  O   UNL A   1      47.927  25.853  23.347  1.00  0.00    -0.744 OA
ENDBRANCH  80  84
ENDBRANCH  53  77
BRANCH  65  88
ATOM     88  C   UNL A   1      44.710  34.195  29.714  1.00  0.00     0.023 A 
ATOM     89  C   UNL A   1      45.407  34.518  30.890  1.00  0.00     0.031 A 
ATOM     90  C   UNL A   1      44.592  35.186  28.721  1.00  0.00     0.131 A 
ATOM     91  C   UNL A   1      45.923  35.811  31.065  1.00  0.00     0.055 A 
ATOM     92  C   UNL A   1      45.152  36.454  28.878  1.00  0.00     0.041 A 
ATOM     93  F   UNL A   1      43.934  34.932  27.578  1.00  0.00    -0.206 F 
ATOM     94  C   UNL A   1      45.814  36.776  30.060  1.00  0.00     0.022 A 
BRANCH  91  95
ATOM     95  S   UNL A   1      46.685  36.241  32.654  1.00  0.00     0.124 S 
ATOM     96  O   UNL A   1      46.953  37.666  32.487  1.00  0.00    -0.237 OA
ATOM     97  O   UNL A   1      45.635  35.898  33.608  1.00  0.00    -0.237 OA
ATOM     98  O   UNL A   1      47.871  35.388  32.709  1.00  0.00    -0.744 OA
ENDBRANCH  91  95
ENDBRANCH  65  88
ENDBRANCH  39  40
ENDBRANCH  32  34
ENDBRANCH  31  32
ENDBRANCH  30  31
ENDBRANCH  29  30
ENDBRANCH  28  29
ENDBRANCH  27  28
ENDBRANCH   1  27
TORSDOF 23
ENDMDL
MODEL 2
REMARK VINA RESULT:     -10.6      1.593      7.383
REMARK SMILES CCc1noc(C)c1C(=O)Nc1cc(Cl)ccc1C(=O)OCCOCCOCCOC(=O)c1ccc(-c2c3nc(c(-c4cc(S(=O)(=O)[O-])ccc4F)c4ccc([nH]4)c(-c4cc(S(=O)(=O)[O-])ccc4F)c4nc(c(-c5cc(S(=O)(=O)[O-])ccc5F)c5ccc2[nH]5)C=C4)C=C3)cc1
REMARK SMILES IDX 25 1 24 2 23 3 22 4 21 5 19 6 20 7 18 8 12 9 13 10 14 11
REMARK SMILES IDX 17 12 15 13 16 14 11 15 9 16 10 17 8 19 3 20 4 21 5 22 6 23
REMARK SMILES IDX 7 24 2 25 1 26 26 27 27 28 28 29 29 30 30 31 31 32 32 33
REMARK SMILES IDX 33 34 34 35 95 36 35 37 94 38 36 39 37 40 38 41 88 42 39 43
REMARK SMILES IDX 93 44 87 45 89 46 40 47 92 48 86 49 85 50 41 52 73 53 53 54
REMARK SMILES IDX 72 55 54 56 57 57 71 58 90 59 55 60 56 61 70 63 91 64 58 65
REMARK SMILES IDX 42 66 43 67 51 68 44 69 50 70 52 71 49 72 45 73 46 74 47 75
REMARK SMILES IDX 48 76 74 77 75 78 83 79 76 80 82 81 84 82 81 83 77 84 78 85
REMARK SMILES IDX 79 86 80 87 59 88 60 89 68 90 61 91 67 92 69 93 66 94 62 95
REMARK SMILES IDX 63 96 64 97 65 98
REMARK H PARENT 11 18 89 51 57 62
REMARK Flexibility Score: inf
ROOT
ATOM      1  C   UNL A   1      33.210  21.837  24.032  1.00  0.00     0.188 C 
ENDROOT
BRANCH   1   2
ATOM      2  O   UNL A   1      33.015  23.249  24.030  1.00  0.00    -0.376 OA
BRANCH   2   3
ATOM      3  C   UNL A   1      32.274  23.864  22.983  1.00  0.00     0.202 C 
BRANCH   3   4
ATOM      4  C   UNL A   1      30.887  24.420  23.316  1.00  0.00     0.261 C 
BRANCH   4   5
ATOM      5  O   UNL A   1      30.704  25.796  22.926  1.00  0.00    -0.460 OA
BRANCH   5   6
ATOM      6  C   UNL A   1      29.892  26.521  23.734  1.00  0.00     0.340 C 
ATOM      7  O   UNL A   1      29.475  26.161  24.827  1.00  0.00    -0.246 OA
BRANCH   6   8
ATOM      8  C   UNL A   1      29.584  27.876  23.191  1.00  0.00     0.083 A 
ATOM      9  C   UNL A   1      30.522  28.794  22.657  1.00  0.00     0.057 A 
ATOM     10  C   UNL A   1      30.031  29.907  21.964  1.00  0.00     0.047 A 
ATOM     11  C   UNL A   1      28.665  30.213  21.977  1.00  0.00     0.043 A 
ATOM     12  C   UNL A   1      28.216  28.215  23.219  1.00  0.00     0.019 A 
ATOM     13  Cl  UNL A   1      28.103  31.633  21.187  1.00  0.00    -0.084 Cl
ATOM     14  C   UNL A   1      27.762  29.398  22.645  1.00  0.00     0.021 A 
BRANCH   9  15
ATOM     15  N   UNL A   1      31.902  28.577  22.835  1.00  0.00    -0.321 N 
ATOM     16  C   UNL A   1      32.787  28.639  23.891  1.00  0.00     0.261 C 
ATOM     17  O   UNL A   1      33.982  28.572  23.584  1.00  0.00    -0.269 OA
ATOM     18  H   UNL A   1      32.346  28.314  21.996  1.00  0.00     0.170 HD
BRANCH  16  19
ATOM     19  C   UNL A   1      32.411  28.750  25.292  1.00  0.00     0.105 A 
ATOM     20  C   UNL A   1      32.430  27.676  26.248  1.00  0.00     0.096 A 
ATOM     21  N   UNL A   1      32.062  28.091  27.464  1.00  0.00    -0.084 NA
ATOM     22  O   UNL A   1      31.650  29.390  27.303  1.00  0.00    -0.361 OA
ATOM     23  C   UNL A   1      31.774  29.758  25.999  1.00  0.00     0.146 A 
ATOM     24  C   UNL A   1      31.155  31.067  25.706  1.00  0.00     0.092 C 
BRANCH  20  25
ATOM     25  C   UNL A   1      32.702  26.221  26.043  1.00  0.00     0.057 C 
ATOM     26  C   UNL A   1      34.139  25.902  25.676  1.00  0.00     0.011 C 
ENDBRANCH  20  25
ENDBRANCH  16  19
ENDBRANCH   9  15
ENDBRANCH   6   8
ENDBRANCH   5   6
ENDBRANCH   4   5
ENDBRANCH   3   4
ENDBRANCH   2   3
ENDBRANCH   1   2
BRANCH   1  27
ATOM     27  C   UNL A   1      33.963  21.182  25.205  1.00  0.00     0.188 C 
BRANCH  27  28
ATOM     28  O   UNL A   1      35.368  21.213  25.065  1.00  0.00    -0.376 OA
BRANCH  28  29
ATOM     29  C   UNL A   1      36.050  19.979  24.929  1.00  0.00     0.202 C 
BRANCH  29  30
ATOM     30  C   UNL A   1      37.588  19.959  24.940  1.00  0.00     0.261 C 
BRANCH  30  31
ATOM     31  O   UNL A   1      38.253  21.134  25.421  1.00  0.00    -0.460 OA
BRANCH  31  32
ATOM     32  C   UNL A   1      39.405  20.967  26.110  1.00  0.00     0.338 C 
ATOM     33  O   UNL A   1      40.004  19.924  26.290  1.00  0.00    -0.246 OA
BRANCH  32  34
ATOM     34  C   UNL A   1      39.911  22.319  26.443  1.00  0.00     0.060 A 
ATOM     35  C   UNL A   1      39.147  23.441  26.095  1.00  0.00     0.016 A 
ATOM     36  C   UNL A   1      41.113  22.472  27.139  1.00  0.00     0.016 A 
ATOM     37  C   UNL A   1      39.586  24.721  26.449  1.00  0.00     0.010 A 
ATOM     38  C   UNL A   1      41.560  23.753  27.471  1.00  0.00     0.010 A 
ATOM     39  C   UNL A   1      40.805  24.886  27.122  1.00  0.00    -0.014 A 
BRANCH  39  40
ATOM     40  C   UNL A   1      41.370  26.238  27.359  1.00  0.00     0.031 A 
ATOM     41  C   UNL A   1      42.764  26.532  26.882  1.00  0.00     0.074 A 
ATOM     42  C   UNL A   1      40.667  27.178  28.018  1.00  0.00     0.049 A 
ATOM     43  N   UNL A   1      43.512  27.582  27.096  1.00  0.00    -0.248 NA
ATOM     44  C   UNL A   1      43.397  25.495  26.054  1.00  0.00     0.031 C 
ATOM     45  C   UNL A   1      39.293  27.028  28.491  1.00  0.00     0.029 A 
ATOM     46  N   UNL A   1      41.029  28.438  28.429  1.00  0.00    -0.354 N 
ATOM     47  C   UNL A   1      44.704  27.340  26.423  1.00  0.00     0.074 A 
ATOM     48  C   UNL A   1      44.588  26.027  25.822  1.00  0.00     0.031 C 
ATOM     49  C   UNL A   1      38.938  28.141  29.158  1.00  0.00     0.029 A 
ATOM     50  C   UNL A   1      40.073  29.061  29.200  1.00  0.00     0.049 A 
ATOM     51  H   UNL A   1      41.888  28.857  28.194  1.00  0.00     0.167 HD
ATOM     52  C   UNL A   1      45.793  28.139  26.313  1.00  0.00     0.034 A 
ATOM     53  C   UNL A   1      40.129  30.214  29.899  1.00  0.00     0.034 A 
ATOM     54  C   UNL A   1      45.914  29.426  26.951  1.00  0.00     0.049 A 
ATOM     55  C   UNL A   1      41.400  31.033  29.867  1.00  0.00     0.074 A 
ATOM     56  C   UNL A   1      46.978  30.311  26.918  1.00  0.00     0.029 A 
ATOM     57  N   UNL A   1      44.943  30.006  27.758  1.00  0.00    -0.354 N 
ATOM     58  N   UNL A   1      42.523  30.792  29.229  1.00  0.00    -0.248 NA
ATOM     59  C   UNL A   1      41.412  32.276  30.651  1.00  0.00     0.031 C 
ATOM     60  C   UNL A   1      46.676  31.393  27.753  1.00  0.00     0.029 A 
ATOM     61  C   UNL A   1      45.395  31.218  28.253  1.00  0.00     0.049 A 
ATOM     62  H   UNL A   1      44.061  29.612  27.949  1.00  0.00     0.167 HD
ATOM     63  C   UNL A   1      43.363  31.865  29.521  1.00  0.00     0.074 A 
ATOM     64  C   UNL A   1      42.613  32.761  30.375  1.00  0.00     0.031 C 
ATOM     65  C   UNL A   1      44.639  32.093  29.118  1.00  0.00     0.034 A 
BRANCH  52  66
ATOM     66  C   UNL A   1      46.954  27.610  25.511  1.00  0.00     0.023 A 
ATOM     67  C   UNL A   1      47.183  28.028  24.189  1.00  0.00     0.031 A 
ATOM     68  C   UNL A   1      47.824  26.653  26.061  1.00  0.00     0.131 A 
ATOM     69  C   UNL A   1      48.215  27.445  23.439  1.00  0.00     0.055 A 
ATOM     70  C   UNL A   1      48.894  26.128  25.334  1.00  0.00     0.041 A 
ATOM     71  F   UNL A   1      47.638  26.200  27.311  1.00  0.00    -0.206 F 
ATOM     72  C   UNL A   1      49.087  26.514  24.010  1.00  0.00     0.022 A 
BRANCH  69  73
ATOM     73  S   UNL A   1      48.322  27.825  21.670  1.00  0.00     0.124 S 
ATOM     74  O   UNL A   1      46.953  28.240  21.374  1.00  0.00    -0.237 OA
ATOM     75  O   UNL A   1      49.330  28.879  21.634  1.00  0.00    -0.237 OA
ATOM     76  O   UNL A   1      48.725  26.554  21.070  1.00  0.00    -0.744 OA
ENDBRANCH  69  73
ENDBRANCH  52  66
BRANCH  53  77
ATOM     77  C   UNL A   1      38.987  30.636  30.761  1.00  0.00     0.023 A 
ATOM     78  C   UNL A   1      37.945  31.432  30.257  1.00  0.00     0.031 A 
ATOM     79  C   UNL A   1      38.964  30.312  32.130  1.00  0.00     0.131 A 
ATOM     80  C   UNL A   1      36.954  31.918  31.124  1.00  0.00     0.055 A 
ATOM     81  C   UNL A   1      37.946  30.753  32.977  1.00  0.00     0.041 A 
ATOM     82  F   UNL A   1      39.938  29.560  32.667  1.00  0.00    -0.206 F 
ATOM     83  C   UNL A   1      36.940  31.574  32.478  1.00  0.00     0.022 A 
BRANCH  80  84
ATOM     84  S   UNL A   1      35.734  33.094  30.476  1.00  0.00     0.124 S 
ATOM     85  O   UNL A   1      35.257  33.732  31.698  1.00  0.00    -0.237 OA
ATOM     86  O   UNL A   1      36.552  33.923  29.597  1.00  0.00    -0.237 OA
ATOM     87  O   UNL A   1      34.763  32.239  29.797  1.00  0.00    -0.744 OA
ENDBRANCH  80  84
ENDBRANCH  53  77
BRANCH  65  88
ATOM     88  C   UNL A   1      45.285  33.378  29.571  1.00  0.00     0.023 A 
ATOM     89  C   UNL A   1      45.209  34.553  28.804  1.00  0.00     0.031 A 
ATOM     90  C   UNL A   1      45.988  33.426  30.788  1.00  0.00     0.131 A 
ATOM     91  C   UNL A   1      45.861  35.717  29.242  1.00  0.00     0.055 A 
ATOM     92  C   UNL A   1      46.591  34.599  31.244  1.00  0.00     0.041 A 
ATOM     93  F   UNL A   1      46.094  32.331  31.559  1.00  0.00    -0.206 F 
ATOM     94  C   UNL A   1      46.538  35.751  30.463  1.00  0.00     0.022 A 
BRANCH  91  95
ATOM     95  S   UNL A   1      45.872  37.172  28.159  1.00  0.00     0.124 S 
ATOM     96  O   UNL A   1      45.520  36.592  26.867  1.00  0.00    -0.237 OA
ATOM     97  O   UNL A   1      44.859  38.026  28.771  1.00  0.00    -0.237 OA
ATOM     98  O   UNL A   1      47.243  37.668  28.264  1.00  0.00    -0.744 OA
ENDBRANCH  91  95
ENDBRANCH  65  88
ENDBRANCH  39  40
ENDBRANCH  32  34
ENDBRANCH  31  32
ENDBRANCH  30  31
ENDBRANCH  29  30
ENDBRANCH  28  29
ENDBRANCH  27  28
ENDBRANCH   1  27
TORSDOF 23
ENDMDL
MODEL 3
REMARK VINA RESULT:     -10.6      0.924      7.364
REMARK SMILES CCc1noc(C)c1C(=O)Nc1cc(Cl)ccc1C(=O)OCCOCCOCCOC(=O)c1ccc(-c2c3nc(c(-c4cc(S(=O)(=O)[O-])ccc4F)c4ccc([nH]4)c(-c4cc(S(=O)(=O)[O-])ccc4F)c4nc(c(-c5cc(S(=O)(=O)[O-])ccc5F)c5ccc2[nH]5)C=C4)C=C3)cc1
REMARK SMILES IDX 25 1 24 2 23 3 22 4 21 5 19 6 20 7 18 8 12 9 13 10 14 11
REMARK SMILES IDX 17 12 15 13 16 14 11 15 9 16 10 17 8 19 3 20 4 21 5 22 6 23
REMARK SMILES IDX 7 24 2 25 1 26 26 27 27 28 28 29 29 30 30 31 31 32 32 33
REMARK SMILES IDX 33 34 34 35 95 36 35 37 94 38 36 39 37 40 38 41 88 42 39 43
REMARK SMILES IDX 93 44 87 45 89 46 40 47 92 48 86 49 85 50 41 52 73 53 53 54
REMARK SMILES IDX 72 55 54 56 57 57 71 58 90 59 55 60 56 61 70 63 91 64 58 65
REMARK SMILES IDX 42 66 43 67 51 68 44 69 50 70 52 71 49 72 45 73 46 74 47 75
REMARK SMILES IDX 48 76 74 77 75 78 83 79 76 80 82 81 84 82 81 83 77 84 78 85
REMARK SMILES IDX 79 86 80 87 59 88 60 89 68 90 61 91 67 92 69 93 66 94 62 95
REMARK SMILES IDX 63 96 64 97 65 98
REMARK H PARENT 11 18 89 51 57 62
REMARK Flexibility Score: inf
ROOT
ATOM      1  C   UNL A   1      33.080  21.720  24.336  1.00  0.00     0.188 C 
ENDROOT
BRANCH   1   2
ATOM      2  O   UNL A   1      32.848  23.113  24.142  1.00  0.00    -0.376 OA
BRANCH   2   3
ATOM      3  C   UNL A   1      32.005  23.554  23.084  1.00  0.00     0.202 C 
BRANCH   3   4
ATOM      4  C   UNL A   1      30.657  24.179  23.453  1.00  0.00     0.261 C 
BRANCH   4   5
ATOM      5  O   UNL A   1      30.526  25.557  23.051  1.00  0.00    -0.460 OA
BRANCH   5   6
ATOM      6  C   UNL A   1      29.652  26.290  23.781  1.00  0.00     0.340 C 
ATOM      7  O   UNL A   1      29.076  25.908  24.791  1.00  0.00    -0.246 OA
BRANCH   6   8
ATOM      8  C   UNL A   1      29.484  27.682  23.269  1.00  0.00     0.083 A 
ATOM      9  C   UNL A   1      30.523  28.543  22.836  1.00  0.00     0.057 A 
ATOM     10  C   UNL A   1      30.167  29.712  22.154  1.00  0.00     0.047 A 
ATOM     11  C   UNL A   1      28.830  30.120  22.084  1.00  0.00     0.043 A 
ATOM     12  C   UNL A   1      28.147  28.123  23.216  1.00  0.00     0.019 A 
ATOM     13  Cl  UNL A   1      28.433  31.605  21.312  1.00  0.00    -0.084 Cl
ATOM     14  C   UNL A   1      27.824  29.356  22.657  1.00  0.00     0.021 A 
BRANCH   9  15
ATOM     15  N   UNL A   1      31.868  28.214  23.101  1.00  0.00    -0.321 N 
ATOM     16  C   UNL A   1      32.657  28.101  24.225  1.00  0.00     0.261 C 
ATOM     17  O   UNL A   1      33.869  27.988  24.012  1.00  0.00    -0.269 OA
ATOM     18  H   UNL A   1      32.368  28.016  22.276  1.00  0.00     0.170 HD
BRANCH  16  19
ATOM     19  C   UNL A   1      32.165  28.083  25.594  1.00  0.00     0.105 A 
ATOM     20  C   UNL A   1      31.999  29.237  26.435  1.00  0.00     0.096 A 
ATOM     21  N   UNL A   1      31.496  28.911  27.630  1.00  0.00    -0.084 NA
ATOM     22  O   UNL A   1      31.466  27.538  27.656  1.00  0.00    -0.361 OA
ATOM     23  C   UNL A   1      31.944  27.042  26.482  1.00  0.00     0.146 A 
ATOM     24  C   UNL A   1      32.142  25.579  26.512  1.00  0.00     0.092 C 
BRANCH  20  25
ATOM     25  C   UNL A   1      32.383  30.660  26.189  1.00  0.00     0.057 C 
ATOM     26  C   UNL A   1      31.259  31.656  26.401  1.00  0.00     0.011 C 
ENDBRANCH  20  25
ENDBRANCH  16  19
ENDBRANCH   9  15
ENDBRANCH   6   8
ENDBRANCH   5   6
ENDBRANCH   4   5
ENDBRANCH   3   4
ENDBRANCH   2   3
ENDBRANCH   1   2
BRANCH   1  27
ATOM     27  C   UNL A   1      33.994  21.262  25.488  1.00  0.00     0.188 C 
BRANCH  27  28
ATOM     28  O   UNL A   1      35.372  21.398  25.208  1.00  0.00    -0.376 OA
BRANCH  28  29
ATOM     29  C   UNL A   1      36.130  20.218  25.010  1.00  0.00     0.202 C 
BRANCH  29  30
ATOM     30  C   UNL A   1      37.665  20.289  25.044  1.00  0.00     0.261 C 
BRANCH  30  31
ATOM     31  O   UNL A   1      38.252  21.472  25.601  1.00  0.00    -0.460 OA
BRANCH  31  32
ATOM     32  C   UNL A   1      39.399  21.334  26.306  1.00  0.00     0.338 C 
ATOM     33  O   UNL A   1      40.045  20.315  26.456  1.00  0.00    -0.246 OA
BRANCH  32  34
ATOM     34  C   UNL A   1      39.831  22.695  26.700  1.00  0.00     0.060 A 
ATOM     35  C   UNL A   1      39.143  23.806  26.195  1.00  0.00     0.016 A 
ATOM     36  C   UNL A   1      40.882  22.867  27.605  1.00  0.00     0.016 A 
ATOM     37  C   UNL A   1      39.506  25.095  26.600  1.00  0.00     0.010 A 
ATOM     38  C   UNL A   1      41.258  24.157  27.990  1.00  0.00     0.010 A 
ATOM     39  C   UNL A   1      40.579  25.279  27.485  1.00  0.00    -0.014 A 
BRANCH  39  40
ATOM     40  C   UNL A   1      41.087  26.638  27.797  1.00  0.00     0.031 A 
ATOM     41  C   UNL A   1      42.533  26.947  27.530  1.00  0.00     0.074 A 
ATOM     42  C   UNL A   1      40.285  27.571  28.340  1.00  0.00     0.049 A 
ATOM     43  N   UNL A   1      43.230  28.006  27.848  1.00  0.00    -0.248 NA
ATOM     44  C   UNL A   1      43.294  25.915  26.809  1.00  0.00     0.031 C 
ATOM     45  C   UNL A   1      38.857  27.407  28.605  1.00  0.00     0.029 A 
ATOM     46  N   UNL A   1      40.567  28.837  28.794  1.00  0.00    -0.354 N 
ATOM     47  C   UNL A   1      44.511  27.776  27.360  1.00  0.00     0.074 A 
ATOM     48  C   UNL A   1      44.499  26.460  26.754  1.00  0.00     0.031 C 
ATOM     49  C   UNL A   1      38.395  28.518  29.208  1.00  0.00     0.029 A 
ATOM     50  C   UNL A   1      39.501  29.450  29.413  1.00  0.00     0.049 A 
ATOM     51  H   UNL A   1      41.448  29.265  28.687  1.00  0.00     0.167 HD
ATOM     52  C   UNL A   1      45.595  28.587  27.408  1.00  0.00     0.034 A 
ATOM     53  C   UNL A   1      39.440  30.607  30.107  1.00  0.00     0.034 A 
ATOM     54  C   UNL A   1      45.606  29.878  28.052  1.00  0.00     0.049 A 
ATOM     55  C   UNL A   1      40.692  31.440  30.260  1.00  0.00     0.074 A 
ATOM     56  C   UNL A   1      46.653  30.775  28.172  1.00  0.00     0.029 A 
ATOM     57  N   UNL A   1      44.520  30.448  28.703  1.00  0.00    -0.354 N 
ATOM     58  N   UNL A   1      41.900  31.210  29.796  1.00  0.00    -0.248 NA
ATOM     59  C   UNL A   1      40.574  32.685  31.032  1.00  0.00     0.031 C 
ATOM     60  C   UNL A   1      46.219  31.855  28.948  1.00  0.00     0.029 A 
ATOM     61  C   UNL A   1      44.880  31.667  29.254  1.00  0.00     0.049 A 
ATOM     62  H   UNL A   1      43.624  30.045  28.763  1.00  0.00     0.167 HD
ATOM     63  C   UNL A   1      42.676  32.294  30.205  1.00  0.00     0.074 A 
ATOM     64  C   UNL A   1      41.798  33.183  30.935  1.00  0.00     0.031 C 
ATOM     65  C   UNL A   1      43.995  32.535  29.994  1.00  0.00     0.034 A 
BRANCH  52  66
ATOM     66  C   UNL A   1      46.868  28.070  26.789  1.00  0.00     0.023 A 
ATOM     67  C   UNL A   1      47.094  28.147  25.404  1.00  0.00     0.031 A 
ATOM     68  C   UNL A   1      47.853  27.462  27.586  1.00  0.00     0.131 A 
ATOM     69  C   UNL A   1      48.246  27.571  24.849  1.00  0.00     0.055 A 
ATOM     70  C   UNL A   1      49.032  26.953  27.038  1.00  0.00     0.041 A 
ATOM     71  F   UNL A   1      47.679  27.339  28.911  1.00  0.00    -0.206 F 
ATOM     72  C   UNL A   1      49.228  26.994  25.660  1.00  0.00     0.022 A 
BRANCH  69  73
ATOM     73  S   UNL A   1      48.381  27.470  23.045  1.00  0.00     0.124 S 
ATOM     74  O   UNL A   1      49.685  28.086  22.811  1.00  0.00    -0.237 OA
ATOM     75  O   UNL A   1      48.301  26.034  22.802  1.00  0.00    -0.237 OA
ATOM     76  O   UNL A   1      47.237  28.248  22.571  1.00  0.00    -0.744 OA
ENDBRANCH  69  73
ENDBRANCH  52  66
BRANCH  53  77
ATOM     77  C   UNL A   1      38.178  31.017  30.789  1.00  0.00     0.023 A 
ATOM     78  C   UNL A   1      37.173  31.720  30.105  1.00  0.00     0.031 A 
ATOM     79  C   UNL A   1      37.995  30.779  32.163  1.00  0.00     0.131 A 
ATOM     80  C   UNL A   1      36.057  32.205  30.806  1.00  0.00     0.055 A 
ATOM     81  C   UNL A   1      36.858  31.215  32.845  1.00  0.00     0.041 A 
ATOM     82  F   UNL A   1      38.927  30.118  32.868  1.00  0.00    -0.206 F 
ATOM     83  C   UNL A   1      35.887  31.946  32.168  1.00  0.00     0.022 A 
BRANCH  80  84
ATOM     84  S   UNL A   1      34.877  33.268  29.931  1.00  0.00     0.124 S 
ATOM     85  O   UNL A   1      34.000  33.695  31.016  1.00  0.00    -0.237 OA
ATOM     86  O   UNL A   1      35.751  34.293  29.371  1.00  0.00    -0.237 OA
ATOM     87  O   UNL A   1      34.268  32.368  28.953  1.00  0.00    -0.744 OA
ENDBRANCH  80  84
ENDBRANCH  53  77
BRANCH  65  88
ATOM     88  C   UNL A   1      44.553  33.829  30.531  1.00  0.00     0.023 A 
ATOM     89  C   UNL A   1      45.121  33.913  31.814  1.00  0.00     0.031 A 
ATOM     90  C   UNL A   1      44.515  34.996  29.746  1.00  0.00     0.131 A 
ATOM     91  C   UNL A   1      45.589  35.147  32.292  1.00  0.00     0.055 A 
ATOM     92  C   UNL A   1      45.029  36.209  30.206  1.00  0.00     0.041 A 
ATOM     93  F   UNL A   1      43.982  34.972  28.514  1.00  0.00    -0.206 F 
ATOM     94  C   UNL A   1      45.561  36.291  31.491  1.00  0.00     0.022 A 
BRANCH  91  95
ATOM     95  S   UNL A   1      46.176  35.255  34.005  1.00  0.00     0.124 S 
ATOM     96  O   UNL A   1      46.822  36.564  34.023  1.00  0.00    -0.237 OA
ATOM     97  O   UNL A   1      44.937  35.144  34.769  1.00  0.00    -0.237 OA
ATOM     98  O   UNL A   1      47.082  34.114  34.130  1.00  0.00    -0.744 OA
ENDBRANCH  91  95
ENDBRANCH  65  88
ENDBRANCH  39  40
ENDBRANCH  32  34
ENDBRANCH  31  32
ENDBRANCH  30  31
ENDBRANCH  29  30
ENDBRANCH  28  29
ENDBRANCH  27  28
ENDBRANCH   1  27
TORSDOF 23
ENDMDL
