MODEL 1
REMARK VINA RESULT:     -10.0      0.000      0.000
REMARK SMILES O=C(C[C@@H]([NH2+]Cc1ccccc1)C(=O)OCCOCCOCCOC(=O)c1ccc(-c2c3nc(c(-c4cc(S(=O)(=O)[O-])ccc4F)c4ccc([nH]4)c(-c4cc(S(=O)(=O)[O-])ccc4F)c4nc(c(-c5cc(S(=O)(=O)[O-])ccc5F)c5ccc2[nH]5)C=C4)C=C3)cc1)Nc1cccc(Cl)c1Cl
REMARK SMILES IDX 19 1 18 2 17 3 16 4 15 5 13 6 14 7 4 8 3 9 2 10 1 11 90 12
REMARK SMILES IDX 91 14 92 15 97 16 93 17 95 18 98 19 94 20 96 21 5 22 6 25
REMARK SMILES IDX 7 26 8 27 12 28 9 29 11 30 10 31 20 32 21 33 22 34 23 35
REMARK SMILES IDX 24 36 25 37 26 38 27 39 28 40 89 41 29 42 88 43 30 44 31 45
REMARK SMILES IDX 32 46 82 47 33 48 87 49 81 50 83 51 34 52 86 53 80 54 79 55
REMARK SMILES IDX 35 57 67 58 47 59 66 60 48 61 51 62 65 63 84 64 49 65 50 66
REMARK SMILES IDX 64 68 85 69 52 70 36 71 37 72 45 73 38 74 44 75 46 76 43 77
REMARK SMILES IDX 39 78 40 79 41 80 42 81 68 82 69 83 77 84 70 85 76 86 78 87
REMARK SMILES IDX 75 88 71 89 72 90 73 91 74 92 53 93 54 94 62 95 55 96 61 97
REMARK SMILES IDX 63 98 60 99 56 100 57 101 58 102 59 103
REMARK H PARENT 90 13 5 23 5 24 83 56 51 67
REMARK Flexibility Score: inf
ROOT
ATOM      1  C   UNL A   1      39.328  23.494  26.832  1.00  0.00     0.188 C 
ENDROOT
BRANCH   1   2
ATOM      2  O   UNL A   1      38.227  24.155  26.226  1.00  0.00    -0.376 OA
BRANCH   2   3
ATOM      3  C   UNL A   1      37.077  23.434  25.807  1.00  0.00     0.202 C 
BRANCH   3   4
ATOM      4  C   UNL A   1      35.713  24.124  25.605  1.00  0.00     0.261 C 
BRANCH   4   5
ATOM      5  O   UNL A   1      34.566  23.535  26.258  1.00  0.00    -0.459 OA
BRANCH   5   6
ATOM      6  C   UNL A   1      33.582  23.139  25.411  1.00  0.00     0.365 C 
ATOM      7  O   UNL A   1      33.668  23.308  24.198  1.00  0.00    -0.245 OA
BRANCH   6   8
ATOM      8  C   UNL A   1      32.426  22.333  26.069  1.00  0.00     0.303 C 
BRANCH   8   9
ATOM      9  C   UNL A   1      30.999  22.665  25.586  1.00  0.00     0.177 C 
BRANCH   9  10
ATOM     10  C   UNL A   1      30.703  24.140  25.840  1.00  0.00     0.231 C 
ATOM     11  O   UNL A   1      30.162  24.518  26.872  1.00  0.00    -0.274 OA
ATOM     12  N   UNL A   1      30.961  24.908  24.717  1.00  0.00    -0.325 N 
ATOM     13  H   UNL A   1      31.269  24.413  23.923  1.00  0.00     0.169 HD
BRANCH  12  14
ATOM     14  C   UNL A   1      30.843  26.308  24.560  1.00  0.00     0.061 A 
ATOM     15  C   UNL A   1      29.870  26.702  23.620  1.00  0.00     0.028 A 
ATOM     16  C   UNL A   1      31.648  27.296  25.165  1.00  0.00     0.083 A 
ATOM     17  C   UNL A   1      29.667  28.043  23.299  1.00  0.00     0.004 A 
ATOM     18  C   UNL A   1      31.442  28.650  24.821  1.00  0.00     0.061 A 
ATOM     19  Cl  UNL A   1      33.015  26.878  26.148  1.00  0.00    -0.080 Cl
ATOM     20  C   UNL A   1      30.456  29.016  23.898  1.00  0.00     0.022 A 
ATOM     21  Cl  UNL A   1      32.423  29.938  25.445  1.00  0.00    -0.083 Cl
ENDBRANCH  12  14
ENDBRANCH   9  10
ENDBRANCH   8   9
BRANCH   8  22
ATOM     22  N   UNL A   1      32.608  20.847  25.978  1.00  0.00    -0.330 N 
ATOM     23  H   UNL A   1      32.016  20.421  26.691  1.00  0.00     0.347 HD
ATOM     24  H   UNL A   1      33.608  20.694  26.102  1.00  0.00     0.347 HD
BRANCH  22  25
ATOM     25  C   UNL A   1      32.282  20.211  24.691  1.00  0.00     0.298 C 
BRANCH  25  26
ATOM     26  C   UNL A   1      32.711  18.765  24.578  1.00  0.00     0.006 A 
ATOM     27  C   UNL A   1      32.667  17.953  25.720  1.00  0.00     0.009 A 
ATOM     28  C   UNL A   1      33.125  18.182  23.370  1.00  0.00     0.009 A 
ATOM     29  C   UNL A   1      33.068  16.617  25.666  1.00  0.00     0.001 A 
ATOM     30  C   UNL A   1      33.559  16.856  23.322  1.00  0.00     0.001 A 
ATOM     31  C   UNL A   1      33.533  16.074  24.471  1.00  0.00     0.000 A 
ENDBRANCH  25  26
ENDBRANCH  22  25
ENDBRANCH   8  22
ENDBRANCH   6   8
ENDBRANCH   5   6
ENDBRANCH   4   5
ENDBRANCH   3   4
ENDBRANCH   2   3
ENDBRANCH   1   2
BRANCH   1  32
ATOM     32  C   UNL A   1      39.632  22.031  26.485  1.00  0.00     0.188 C 
BRANCH  32  33
ATOM     33  O   UNL A   1      40.290  21.309  27.498  1.00  0.00    -0.376 OA
BRANCH  33  34
ATOM     34  C   UNL A   1      41.279  20.362  27.125  1.00  0.00     0.202 C 
BRANCH  34  35
ATOM     35  C   UNL A   1      42.556  20.775  26.362  1.00  0.00     0.261 C 
BRANCH  35  36
ATOM     36  O   UNL A   1      43.104  22.074  26.633  1.00  0.00    -0.460 OA
BRANCH  36  37
ATOM     37  C   UNL A   1      43.157  22.959  25.608  1.00  0.00     0.338 C 
ATOM     38  O   UNL A   1      43.065  22.700  24.420  1.00  0.00    -0.246 OA
BRANCH  37  39
ATOM     39  C   UNL A   1      43.103  24.316  26.206  1.00  0.00     0.060 A 
ATOM     40  C   UNL A   1      42.845  25.424  25.385  1.00  0.00     0.016 A 
ATOM     41  C   UNL A   1      43.237  24.483  27.586  1.00  0.00     0.016 A 
ATOM     42  C   UNL A   1      42.705  26.699  25.943  1.00  0.00     0.010 A 
ATOM     43  C   UNL A   1      43.130  25.763  28.138  1.00  0.00     0.010 A 
ATOM     44  C   UNL A   1      42.871  26.880  27.322  1.00  0.00    -0.014 A 
BRANCH  44  45
ATOM     45  C   UNL A   1      42.921  28.243  27.913  1.00  0.00     0.031 A 
ATOM     46  C   UNL A   1      44.251  28.939  27.995  1.00  0.00     0.074 A 
ATOM     47  C   UNL A   1      41.816  28.838  28.399  1.00  0.00     0.049 A 
ATOM     48  N   UNL A   1      44.573  30.049  28.604  1.00  0.00    -0.248 NA
ATOM     49  C   UNL A   1      45.368  28.283  27.299  1.00  0.00     0.031 C 
ATOM     50  C   UNL A   1      40.462  28.296  28.326  1.00  0.00     0.029 A 
ATOM     51  N   UNL A   1      41.667  30.026  29.075  1.00  0.00    -0.354 N 
ATOM     52  C   UNL A   1      45.935  30.221  28.379  1.00  0.00     0.074 A 
ATOM     53  C   UNL A   1      46.378  29.084  27.598  1.00  0.00     0.031 C 
ATOM     54  C   UNL A   1      39.622  29.138  28.955  1.00  0.00     0.029 A 
ATOM     55  C   UNL A   1      40.385  30.247  29.525  1.00  0.00     0.049 A 
ATOM     56  H   UNL A   1      42.407  30.658  29.224  1.00  0.00     0.167 HD
ATOM     57  C   UNL A   1      46.739  31.233  28.788  1.00  0.00     0.034 A 
ATOM     58  C   UNL A   1      39.896  31.205  30.342  1.00  0.00     0.034 A 
ATOM     59  C   UNL A   1      46.283  32.349  29.578  1.00  0.00     0.049 A 
ATOM     60  C   UNL A   1      40.838  32.255  30.892  1.00  0.00     0.074 A 
ATOM     61  C   UNL A   1      47.009  33.443  30.022  1.00  0.00     0.029 A 
ATOM     62  N   UNL A   1      44.992  32.509  30.065  1.00  0.00    -0.354 N 
ATOM     63  N   UNL A   1      42.122  32.416  30.666  1.00  0.00    -0.248 NA
ATOM     64  C   UNL A   1      40.264  33.246  31.815  1.00  0.00     0.031 C 
ATOM     65  C   UNL A   1      46.182  34.211  30.847  1.00  0.00     0.029 A 
ATOM     66  C   UNL A   1      44.915  33.651  30.848  1.00  0.00     0.049 A 
ATOM     67  H   UNL A   1      44.241  31.899  29.880  1.00  0.00     0.167 HD
ATOM     68  C   UNL A   1      42.500  33.540  31.400  1.00  0.00     0.074 A 
ATOM     69  C   UNL A   1      41.307  34.026  32.061  1.00  0.00     0.031 C 
ATOM     70  C   UNL A   1      43.723  34.118  31.516  1.00  0.00     0.034 A 
BRANCH  57  71
ATOM     71  C   UNL A   1      48.205  31.141  28.440  1.00  0.00     0.023 A 
ATOM     72  C   UNL A   1      49.130  30.497  29.279  1.00  0.00     0.031 A 
ATOM     73  C   UNL A   1      48.687  31.725  27.255  1.00  0.00     0.131 A 
ATOM     74  C   UNL A   1      50.495  30.510  28.955  1.00  0.00     0.055 A 
ATOM     75  C   UNL A   1      50.034  31.664  26.897  1.00  0.00     0.041 A 
ATOM     76  F   UNL A   1      47.854  32.376  26.427  1.00  0.00    -0.206 F 
ATOM     77  C   UNL A   1      50.950  31.065  27.757  1.00  0.00     0.022 A 
BRANCH  74  78
ATOM     78  S   UNL A   1      51.685  29.918  30.189  1.00  0.00     0.124 S 
ATOM     79  O   UNL A   1      50.860  29.869  31.394  1.00  0.00    -0.237 OA
ATOM     80  O   UNL A   1      52.094  28.631  29.641  1.00  0.00    -0.237 OA
ATOM     81  O   UNL A   1      52.718  30.953  30.193  1.00  0.00    -0.744 OA
ENDBRANCH  74  78
ENDBRANCH  57  71
BRANCH  58  82
ATOM     82  C   UNL A   1      38.463  31.187  30.760  1.00  0.00     0.023 A 
ATOM     83  C   UNL A   1      37.485  31.879  30.029  1.00  0.00     0.031 A 
ATOM     84  C   UNL A   1      38.061  30.532  31.938  1.00  0.00     0.131 A 
ATOM     85  C   UNL A   1      36.164  31.936  30.504  1.00  0.00     0.055 A 
ATOM     86  C   UNL A   1      36.735  30.540  32.375  1.00  0.00     0.041 A 
ATOM     87  F   UNL A   1      38.957  29.868  32.687  1.00  0.00    -0.206 F 
ATOM     88  C   UNL A   1      35.779  31.256  31.662  1.00  0.00     0.022 A 
BRANCH  85  89
ATOM     89  S   UNL A   1      34.973  32.992  29.634  1.00  0.00     0.124 S 
ATOM     90  O   UNL A   1      34.354  32.045  28.714  1.00  0.00    -0.237 OA
ATOM     91  O   UNL A   1      34.132  33.467  30.727  1.00  0.00    -0.237 OA
ATOM     92  O   UNL A   1      35.814  34.011  29.009  1.00  0.00    -0.744 OA
ENDBRANCH  85  89
ENDBRANCH  58  82
BRANCH  70  93
ATOM     93  C   UNL A   1      43.828  35.362  32.367  1.00  0.00     0.023 A 
ATOM     94  C   UNL A   1      43.718  36.650  31.813  1.00  0.00     0.031 A 
ATOM     95  C   UNL A   1      44.022  35.257  33.757  1.00  0.00     0.131 A 
ATOM     96  C   UNL A   1      43.842  37.780  32.638  1.00  0.00     0.055 A 
ATOM     97  C   UNL A   1      44.082  36.381  34.580  1.00  0.00     0.041 A 
ATOM     98  F   UNL A   1      44.139  34.053  34.342  1.00  0.00    -0.206 F 
ATOM     99  C   UNL A   1      44.002  37.653  34.021  1.00  0.00     0.022 A 
BRANCH  96 100
ATOM    100  S   UNL A   1      43.864  39.423  31.870  1.00  0.00     0.124 S 
ATOM    101  O   UNL A   1      45.209  39.889  32.192  1.00  0.00    -0.237 OA
ATOM    102  O   UNL A   1      43.614  39.118  30.466  1.00  0.00    -0.237 OA
ATOM    103  O   UNL A   1      42.783  40.134  32.551  1.00  0.00    -0.744 OA
ENDBRANCH  96 100
ENDBRANCH  70  93
ENDBRANCH  44  45
ENDBRANCH  37  39
ENDBRANCH  36  37
ENDBRANCH  35  36
ENDBRANCH  34  35
ENDBRANCH  33  34
ENDBRANCH  32  33
ENDBRANCH   1  32
TORSDOF 26
ENDMDL
MODEL 2
REMARK VINA RESULT:      -9.9      3.161      8.954
REMARK SMILES O=C(C[C@@H]([NH2+]Cc1ccccc1)C(=O)OCCOCCOCCOC(=O)c1ccc(-c2c3nc(c(-c4cc(S(=O)(=O)[O-])ccc4F)c4ccc([nH]4)c(-c4cc(S(=O)(=O)[O-])ccc4F)c4nc(c(-c5cc(S(=O)(=O)[O-])ccc5F)c5ccc2[nH]5)C=C4)C=C3)cc1)Nc1cccc(Cl)c1Cl
REMARK SMILES IDX 19 1 18 2 17 3 16 4 15 5 13 6 14 7 4 8 3 9 2 10 1 11 90 12
REMARK SMILES IDX 91 14 92 15 97 16 93 17 95 18 98 19 94 20 96 21 5 22 6 25
REMARK SMILES IDX 7 26 8 27 12 28 9 29 11 30 10 31 20 32 21 33 22 34 23 35
REMARK SMILES IDX 24 36 25 37 26 38 27 39 28 40 89 41 29 42 88 43 30 44 31 45
REMARK SMILES IDX 32 46 82 47 33 48 87 49 81 50 83 51 34 52 86 53 80 54 79 55
REMARK SMILES IDX 35 57 67 58 47 59 66 60 48 61 51 62 65 63 84 64 49 65 50 66
REMARK SMILES IDX 64 68 85 69 52 70 36 71 37 72 45 73 38 74 44 75 46 76 43 77
REMARK SMILES IDX 39 78 40 79 41 80 42 81 68 82 69 83 77 84 70 85 76 86 78 87
REMARK SMILES IDX 75 88 71 89 72 90 73 91 74 92 53 93 54 94 62 95 55 96 61 97
REMARK SMILES IDX 63 98 60 99 56 100 57 101 58 102 59 103
REMARK H PARENT 90 13 5 23 5 24 83 56 51 67
REMARK Flexibility Score: inf
ROOT
ATOM      1  C   UNL A   1      34.651  24.314  25.724  1.00  0.00     0.188 C 
ENDROOT
BRANCH   1   2
ATOM      2  O   UNL A   1      34.262  25.559  25.164  1.00  0.00    -0.376 OA
BRANCH   2   3
ATOM      3  C   UNL A   1      34.060  26.702  25.982  1.00  0.00     0.202 C 
BRANCH   3   4
ATOM      4  C   UNL A   1      32.807  27.589  25.844  1.00  0.00     0.261 C 
BRANCH   4   5
ATOM      5  O   UNL A   1      32.858  28.669  24.883  1.00  0.00    -0.459 OA
BRANCH   5   6
ATOM      6  C   UNL A   1      31.665  29.277  24.660  1.00  0.00     0.365 C 
ATOM      7  O   UNL A   1      31.246  30.166  25.397  1.00  0.00    -0.245 OA
BRANCH   6   8
ATOM      8  C   UNL A   1      30.953  28.873  23.338  1.00  0.00     0.303 C 
BRANCH   8   9
ATOM      9  C   UNL A   1      31.830  28.190  22.270  1.00  0.00     0.177 C 
BRANCH   9  10
ATOM     10  C   UNL A   1      31.479  26.707  22.192  1.00  0.00     0.231 C 
ATOM     11  O   UNL A   1      30.912  26.231  21.216  1.00  0.00    -0.274 OA
ATOM     12  N   UNL A   1      31.726  26.065  23.394  1.00  0.00    -0.325 N 
ATOM     13  H   UNL A   1      32.061  26.637  24.122  1.00  0.00     0.169 HD
BRANCH  12  14
ATOM     14  C   UNL A   1      31.562  24.698  23.715  1.00  0.00     0.061 A 
ATOM     15  C   UNL A   1      30.914  24.469  24.945  1.00  0.00     0.028 A 
ATOM     16  C   UNL A   1      32.055  23.595  22.987  1.00  0.00     0.083 A 
ATOM     17  C   UNL A   1      30.726  23.180  25.441  1.00  0.00     0.004 A 
ATOM     18  C   UNL A   1      31.871  22.295  23.507  1.00  0.00     0.061 A 
ATOM     19  Cl  UNL A   1      33.062  23.806  21.590  1.00  0.00    -0.080 Cl
ATOM     20  C   UNL A   1      31.208  22.094  24.723  1.00  0.00     0.022 A 
ATOM     21  Cl  UNL A   1      32.502  20.876  22.735  1.00  0.00    -0.083 Cl
ENDBRANCH  12  14
ENDBRANCH   9  10
ENDBRANCH   8   9
BRANCH   8  22
ATOM     22  N   UNL A   1      29.739  28.019  23.552  1.00  0.00    -0.330 N 
ATOM     23  H   UNL A   1      29.840  27.562  24.458  1.00  0.00     0.347 HD
ATOM     24  H   UNL A   1      29.715  27.387  22.752  1.00  0.00     0.347 HD
BRANCH  22  25
ATOM     25  C   UNL A   1      28.432  28.698  23.540  1.00  0.00     0.298 C 
BRANCH  25  26
ATOM     26  C   UNL A   1      28.428  30.041  22.846  1.00  0.00     0.006 A 
ATOM     27  C   UNL A   1      28.609  31.201  23.611  1.00  0.00     0.009 A 
ATOM     28  C   UNL A   1      28.282  30.184  21.457  1.00  0.00     0.009 A 
ATOM     29  C   UNL A   1      28.598  32.463  23.015  1.00  0.00     0.001 A 
ATOM     30  C   UNL A   1      28.235  31.446  20.864  1.00  0.00     0.001 A 
ATOM     31  C   UNL A   1      28.390  32.587  21.644  1.00  0.00     0.000 A 
ENDBRANCH  25  26
ENDBRANCH  22  25
ENDBRANCH   8  22
ENDBRANCH   6   8
ENDBRANCH   5   6
ENDBRANCH   4   5
ENDBRANCH   3   4
ENDBRANCH   2   3
ENDBRANCH   1   2
BRANCH   1  32
ATOM     32  C   UNL A   1      35.064  23.154  24.809  1.00  0.00     0.188 C 
BRANCH  32  33
ATOM     33  O   UNL A   1      34.663  21.880  25.254  1.00  0.00    -0.376 OA
BRANCH  33  34
ATOM     34  C   UNL A   1      35.554  20.789  25.084  1.00  0.00     0.202 C 
BRANCH  34  35
ATOM     35  C   UNL A   1      37.068  20.999  24.868  1.00  0.00     0.261 C 
BRANCH  35  36
ATOM     36  O   UNL A   1      37.752  21.890  25.762  1.00  0.00    -0.460 OA
BRANCH  36  37
ATOM     37  C   UNL A   1      38.999  21.542  26.163  1.00  0.00     0.338 C 
ATOM     38  O   UNL A   1      39.553  20.473  25.968  1.00  0.00    -0.246 OA
BRANCH  37  39
ATOM     39  C   UNL A   1      39.652  22.777  26.665  1.00  0.00     0.060 A 
ATOM     40  C   UNL A   1      39.209  24.028  26.210  1.00  0.00     0.016 A 
ATOM     41  C   UNL A   1      40.652  22.699  27.637  1.00  0.00     0.016 A 
ATOM     42  C   UNL A   1      39.754  25.204  26.737  1.00  0.00     0.010 A 
ATOM     43  C   UNL A   1      41.219  23.875  28.137  1.00  0.00     0.010 A 
ATOM     44  C   UNL A   1      40.780  25.134  27.687  1.00  0.00    -0.014 A 
BRANCH  44  45
ATOM     45  C   UNL A   1      41.507  26.357  28.117  1.00  0.00     0.031 A 
ATOM     46  C   UNL A   1      40.741  27.426  28.846  1.00  0.00     0.074 A 
ATOM     47  C   UNL A   1      42.811  26.533  27.836  1.00  0.00     0.049 A 
ATOM     48  N   UNL A   1      41.110  28.635  29.178  1.00  0.00    -0.248 NA
ATOM     49  C   UNL A   1      39.369  27.080  29.246  1.00  0.00     0.031 C 
ATOM     50  C   UNL A   1      43.677  25.550  27.190  1.00  0.00     0.029 A 
ATOM     51  N   UNL A   1      43.630  27.618  28.042  1.00  0.00    -0.354 N 
ATOM     52  C   UNL A   1      40.012  29.203  29.813  1.00  0.00     0.074 A 
ATOM     53  C   UNL A   1      38.957  28.211  29.796  1.00  0.00     0.031 C 
ATOM     54  C   UNL A   1      44.901  26.086  27.030  1.00  0.00     0.029 A 
ATOM     55  C   UNL A   1      44.889  27.468  27.507  1.00  0.00     0.049 A 
ATOM     56  H   UNL A   1      43.342  28.427  28.524  1.00  0.00     0.167 HD
ATOM     57  C   UNL A   1      39.896  30.438  30.359  1.00  0.00     0.034 A 
ATOM     58  C   UNL A   1      45.896  28.359  27.374  1.00  0.00     0.034 A 
ATOM     59  C   UNL A   1      40.953  31.419  30.354  1.00  0.00     0.049 A 
ATOM     60  C   UNL A   1      45.700  29.773  27.876  1.00  0.00     0.074 A 
ATOM     61  C   UNL A   1      40.949  32.691  30.904  1.00  0.00     0.029 A 
ATOM     62  N   UNL A   1      42.193  31.253  29.751  1.00  0.00    -0.354 N 
ATOM     63  N   UNL A   1      44.662  30.299  28.486  1.00  0.00    -0.248 NA
ATOM     64  C   UNL A   1      46.810  30.715  27.664  1.00  0.00     0.031 C 
ATOM     65  C   UNL A   1      42.148  33.321  30.557  1.00  0.00     0.029 A 
ATOM     66  C   UNL A   1      42.940  32.416  29.869  1.00  0.00     0.049 A 
ATOM     67  H   UNL A   1      42.497  30.430  29.306  1.00  0.00     0.167 HD
ATOM     68  C   UNL A   1      45.006  31.625  28.749  1.00  0.00     0.074 A 
ATOM     69  C   UNL A   1      46.352  31.813  28.249  1.00  0.00     0.031 C 
ATOM     70  C   UNL A   1      44.276  32.598  29.351  1.00  0.00     0.034 A 
BRANCH  57  71
ATOM     71  C   UNL A   1      38.559  30.817  30.948  1.00  0.00     0.023 A 
ATOM     72  C   UNL A   1      37.545  31.408  30.176  1.00  0.00     0.031 A 
ATOM     73  C   UNL A   1      38.302  30.596  32.313  1.00  0.00     0.131 A 
ATOM     74  C   UNL A   1      36.350  31.819  30.786  1.00  0.00     0.055 A 
ATOM     75  C   UNL A   1      37.079  30.932  32.897  1.00  0.00     0.041 A 
ATOM     76  F   UNL A   1      39.241  30.057  33.107  1.00  0.00    -0.206 F 
ATOM     77  C   UNL A   1      36.100  31.560  32.135  1.00  0.00     0.022 A 
BRANCH  74  78
ATOM     78  S   UNL A   1      35.187  32.823  29.824  1.00  0.00     0.124 S 
ATOM     79  O   UNL A   1      34.892  31.939  28.700  1.00  0.00    -0.237 OA
ATOM     80  O   UNL A   1      34.099  33.039  30.771  1.00  0.00    -0.237 OA
ATOM     81  O   UNL A   1      35.964  34.014  29.482  1.00  0.00    -0.744 OA
ENDBRANCH  74  78
ENDBRANCH  57  71
BRANCH  58  82
ATOM     82  C   UNL A   1      47.158  27.977  26.673  1.00  0.00     0.023 A 
ATOM     83  C   UNL A   1      47.265  28.056  25.276  1.00  0.00     0.031 A 
ATOM     84  C   UNL A   1      48.254  27.461  27.388  1.00  0.00     0.131 A 
ATOM     85  C   UNL A   1      48.424  27.588  24.634  1.00  0.00     0.055 A 
ATOM     86  C   UNL A   1      49.428  27.054  26.751  1.00  0.00     0.041 A 
ATOM     87  F   UNL A   1      48.202  27.348  28.725  1.00  0.00    -0.206 F 
ATOM     88  C   UNL A   1      49.513  27.104  25.363  1.00  0.00     0.022 A 
BRANCH  85  89
ATOM     89  S   UNL A   1      48.450  27.532  22.820  1.00  0.00     0.124 S 
ATOM     90  O   UNL A   1      49.672  28.269  22.520  1.00  0.00    -0.237 OA
ATOM     91  O   UNL A   1      48.485  26.097  22.561  1.00  0.00    -0.237 OA
ATOM     92  O   UNL A   1      47.208  28.202  22.442  1.00  0.00    -0.744 OA
ENDBRANCH  85  89
ENDBRANCH  58  82
BRANCH  70  93
ATOM     93  C   UNL A   1      44.928  33.949  29.531  1.00  0.00     0.023 A 
ATOM     94  C   UNL A   1      44.726  34.997  28.615  1.00  0.00     0.031 A 
ATOM     95  C   UNL A   1      45.749  34.198  30.646  1.00  0.00     0.131 A 
ATOM     96  C   UNL A   1      45.368  36.231  28.810  1.00  0.00     0.055 A 
ATOM     97  C   UNL A   1      46.334  35.445  30.868  1.00  0.00     0.041 A 
ATOM     98  F   UNL A   1      45.981  33.234  31.552  1.00  0.00    -0.206 F 
ATOM     99  C   UNL A   1      46.153  36.468  29.941  1.00  0.00     0.022 A 
BRANCH  96 100
ATOM    100  S   UNL A   1      45.223  37.503  27.525  1.00  0.00     0.124 S 
ATOM    101  O   UNL A   1      43.838  37.342  27.095  1.00  0.00    -0.237 OA
ATOM    102  O   UNL A   1      45.524  38.727  28.259  1.00  0.00    -0.237 OA
ATOM    103  O   UNL A   1      46.228  37.111  26.538  1.00  0.00    -0.744 OA
ENDBRANCH  96 100
ENDBRANCH  70  93
ENDBRANCH  44  45
ENDBRANCH  37  39
ENDBRANCH  36  37
ENDBRANCH  35  36
ENDBRANCH  34  35
ENDBRANCH  33  34
ENDBRANCH  32  33
ENDBRANCH   1  32
TORSDOF 26
ENDMDL
MODEL 3
REMARK VINA RESULT:      -9.8      1.359      7.534
REMARK SMILES O=C(C[C@@H]([NH2+]Cc1ccccc1)C(=O)OCCOCCOCCOC(=O)c1ccc(-c2c3nc(c(-c4cc(S(=O)(=O)[O-])ccc4F)c4ccc([nH]4)c(-c4cc(S(=O)(=O)[O-])ccc4F)c4nc(c(-c5cc(S(=O)(=O)[O-])ccc5F)c5ccc2[nH]5)C=C4)C=C3)cc1)Nc1cccc(Cl)c1Cl
REMARK SMILES IDX 19 1 18 2 17 3 16 4 15 5 13 6 14 7 4 8 3 9 2 10 1 11 90 12
REMARK SMILES IDX 91 14 92 15 97 16 93 17 95 18 98 19 94 20 96 21 5 22 6 25
REMARK SMILES IDX 7 26 8 27 12 28 9 29 11 30 10 31 20 32 21 33 22 34 23 35
REMARK SMILES IDX 24 36 25 37 26 38 27 39 28 40 89 41 29 42 88 43 30 44 31 45
REMARK SMILES IDX 32 46 82 47 33 48 87 49 81 50 83 51 34 52 86 53 80 54 79 55
REMARK SMILES IDX 35 57 67 58 47 59 66 60 48 61 51 62 65 63 84 64 49 65 50 66
REMARK SMILES IDX 64 68 85 69 52 70 36 71 37 72 45 73 38 74 44 75 46 76 43 77
REMARK SMILES IDX 39 78 40 79 41 80 42 81 68 82 69 83 77 84 70 85 76 86 78 87
REMARK SMILES IDX 75 88 71 89 72 90 73 91 74 92 53 93 54 94 62 95 55 96 61 97
REMARK SMILES IDX 63 98 60 99 56 100 57 101 58 102 59 103
REMARK H PARENT 90 13 5 23 5 24 83 56 51 67
REMARK Flexibility Score: inf
ROOT
ATOM      1  C   UNL A   1      39.622  23.261  26.917  1.00  0.00     0.188 C 
ENDROOT
BRANCH   1   2
ATOM      2  O   UNL A   1      38.621  24.017  26.252  1.00  0.00    -0.376 OA
BRANCH   2   3
ATOM      3  C   UNL A   1      37.505  23.382  25.645  1.00  0.00     0.202 C 
BRANCH   3   4
ATOM      4  C   UNL A   1      36.099  24.015  25.666  1.00  0.00     0.261 C 
BRANCH   4   5
ATOM      5  O   UNL A   1      35.075  23.337  26.429  1.00  0.00    -0.459 OA
BRANCH   5   6
ATOM      6  C   UNL A   1      33.978  22.989  25.709  1.00  0.00     0.365 C 
ATOM      7  O   UNL A   1      33.881  23.252  24.513  1.00  0.00    -0.245 OA
BRANCH   6   8
ATOM      8  C   UNL A   1      32.940  22.113  26.465  1.00  0.00     0.303 C 
BRANCH   8   9
ATOM      9  C   UNL A   1      31.484  22.188  25.959  1.00  0.00     0.177 C 
BRANCH   9  10
ATOM     10  C   UNL A   1      30.966  23.616  26.099  1.00  0.00     0.231 C 
ATOM     11  O   UNL A   1      30.288  23.963  27.058  1.00  0.00    -0.274 OA
ATOM     12  N   UNL A   1      31.218  24.359  24.958  1.00  0.00    -0.325 N 
ATOM     13  H   UNL A   1      31.661  23.875  24.223  1.00  0.00     0.169 HD
BRANCH  12  14
ATOM     14  C   UNL A   1      30.924  25.719  24.707  1.00  0.00     0.061 A 
ATOM     15  C   UNL A   1      29.786  25.923  23.901  1.00  0.00     0.028 A 
ATOM     16  C   UNL A   1      31.693  26.834  25.098  1.00  0.00     0.083 A 
ATOM     17  C   UNL A   1      29.392  27.200  23.507  1.00  0.00     0.004 A 
ATOM     18  C   UNL A   1      31.291  28.122  24.681  1.00  0.00     0.061 A 
ATOM     19  Cl  UNL A   1      33.226  26.649  25.888  1.00  0.00    -0.080 Cl
ATOM     20  C   UNL A   1      30.147  28.299  23.895  1.00  0.00     0.022 A 
ATOM     21  Cl  UNL A   1      32.203  29.554  25.039  1.00  0.00    -0.083 Cl
ENDBRANCH  12  14
ENDBRANCH   9  10
ENDBRANCH   8   9
BRANCH   8  22
ATOM     22  N   UNL A   1      33.325  20.666  26.546  1.00  0.00    -0.330 N 
ATOM     23  H   UNL A   1      32.474  20.115  26.434  1.00  0.00     0.347 HD
ATOM     24  H   UNL A   1      33.788  20.565  27.448  1.00  0.00     0.347 HD
BRANCH  22  25
ATOM     25  C   UNL A   1      34.302  20.178  25.558  1.00  0.00     0.298 C 
BRANCH  25  26
ATOM     26  C   UNL A   1      33.718  19.290  24.482  1.00  0.00     0.006 A 
ATOM     27  C   UNL A   1      34.230  17.995  24.319  1.00  0.00     0.009 A 
ATOM     28  C   UNL A   1      32.658  19.688  23.653  1.00  0.00     0.009 A 
ATOM     29  C   UNL A   1      33.733  17.146  23.330  1.00  0.00     0.001 A 
ATOM     30  C   UNL A   1      32.182  18.853  22.640  1.00  0.00     0.001 A 
ATOM     31  C   UNL A   1      32.722  17.582  22.477  1.00  0.00     0.000 A 
ENDBRANCH  25  26
ENDBRANCH  22  25
ENDBRANCH   8  22
ENDBRANCH   6   8
ENDBRANCH   5   6
ENDBRANCH   4   5
ENDBRANCH   3   4
ENDBRANCH   2   3
ENDBRANCH   1   2
BRANCH   1  32
ATOM     32  C   UNL A   1      39.869  21.798  26.525  1.00  0.00     0.188 C 
BRANCH  32  33
ATOM     33  O   UNL A   1      40.464  21.011  27.529  1.00  0.00    -0.376 OA
BRANCH  33  34
ATOM     34  C   UNL A   1      41.590  20.217  27.192  1.00  0.00     0.202 C 
BRANCH  34  35
ATOM     35  C   UNL A   1      42.705  20.737  26.260  1.00  0.00     0.261 C 
BRANCH  35  36
ATOM     36  O   UNL A   1      43.290  22.012  26.566  1.00  0.00    -0.460 OA
BRANCH  36  37
ATOM     37  C   UNL A   1      43.393  22.914  25.560  1.00  0.00     0.338 C 
ATOM     38  O   UNL A   1      43.191  22.706  24.375  1.00  0.00    -0.246 OA
BRANCH  37  39
ATOM     39  C   UNL A   1      43.555  24.248  26.190  1.00  0.00     0.060 A 
ATOM     40  C   UNL A   1      43.820  24.336  27.565  1.00  0.00     0.016 A 
ATOM     41  C   UNL A   1      43.516  25.405  25.409  1.00  0.00     0.016 A 
ATOM     42  C   UNL A   1      44.062  25.579  28.158  1.00  0.00     0.010 A 
ATOM     43  C   UNL A   1      43.724  26.649  26.010  1.00  0.00     0.010 A 
ATOM     44  C   UNL A   1      43.991  26.747  27.388  1.00  0.00    -0.014 A 
BRANCH  44  45
ATOM     45  C   UNL A   1      44.050  28.088  28.027  1.00  0.00     0.031 A 
ATOM     46  C   UNL A   1      42.774  28.687  28.552  1.00  0.00     0.074 A 
ATOM     47  C   UNL A   1      45.203  28.776  28.109  1.00  0.00     0.049 A 
ATOM     48  N   UNL A   1      42.544  29.892  29.000  1.00  0.00    -0.248 NA
ATOM     49  C   UNL A   1      41.600  27.801  28.562  1.00  0.00     0.031 C 
ATOM     50  C   UNL A   1      46.513  28.283  27.694  1.00  0.00     0.029 A 
ATOM     51  N   UNL A   1      45.449  30.054  28.553  1.00  0.00    -0.354 N 
ATOM     52  C   UNL A   1      41.194  29.919  29.333  1.00  0.00     0.074 A 
ATOM     53  C   UNL A   1      40.656  28.613  29.010  1.00  0.00     0.031 C 
ATOM     54  C   UNL A   1      47.424  29.257  27.879  1.00  0.00     0.029 A 
ATOM     55  C   UNL A   1      46.752  30.459  28.370  1.00  0.00     0.049 A 
ATOM     56  H   UNL A   1      44.759  30.626  28.961  1.00  0.00     0.167 HD
ATOM     57  C   UNL A   1      40.472  30.939  29.858  1.00  0.00     0.034 A 
ATOM     58  C   UNL A   1      47.323  31.672  28.533  1.00  0.00     0.034 A 
ATOM     59  C   UNL A   1      41.021  32.237  30.160  1.00  0.00     0.049 A 
ATOM     60  C   UNL A   1      46.470  32.832  29.000  1.00  0.00     0.074 A 
ATOM     61  C   UNL A   1      40.384  33.332  30.721  1.00  0.00     0.029 A 
ATOM     62  N   UNL A   1      42.329  32.629  29.907  1.00  0.00    -0.354 N 
ATOM     63  N   UNL A   1      45.197  32.846  29.323  1.00  0.00    -0.248 NA
ATOM     64  C   UNL A   1      47.130  34.141  29.115  1.00  0.00     0.031 C 
ATOM     65  C   UNL A   1      41.279  34.406  30.722  1.00  0.00     0.029 A 
ATOM     66  C   UNL A   1      42.503  33.962  30.248  1.00  0.00     0.049 A 
ATOM     67  H   UNL A   1      43.031  32.045  29.538  1.00  0.00     0.167 HD
ATOM     68  C   UNL A   1      44.913  34.158  29.701  1.00  0.00     0.074 A 
ATOM     69  C   UNL A   1      46.150  34.901  29.583  1.00  0.00     0.031 C 
ATOM     70  C   UNL A   1      43.737  34.699  30.110  1.00  0.00     0.034 A 
BRANCH  57  71
ATOM     71  C   UNL A   1      38.997  30.707  30.078  1.00  0.00     0.023 A 
ATOM     72  C   UNL A   1      38.029  31.146  29.159  1.00  0.00     0.031 A 
ATOM     73  C   UNL A   1      38.552  30.049  31.239  1.00  0.00     0.131 A 
ATOM     74  C   UNL A   1      36.665  30.981  29.447  1.00  0.00     0.055 A 
ATOM     75  C   UNL A   1      37.197  29.815  31.481  1.00  0.00     0.041 A 
ATOM     76  F   UNL A   1      39.428  29.629  32.165  1.00  0.00    -0.206 F 
ATOM     77  C   UNL A   1      36.244  30.295  30.589  1.00  0.00     0.022 A 
BRANCH  74  78
ATOM     78  S   UNL A   1      35.449  31.803  28.382  1.00  0.00     0.124 S 
ATOM     79  O   UNL A   1      35.146  30.751  27.415  1.00  0.00    -0.237 OA
ATOM     80  O   UNL A   1      34.384  32.137  29.320  1.00  0.00    -0.237 OA
ATOM     81  O   UNL A   1      36.185  32.944  27.840  1.00  0.00    -0.744 OA
ENDBRANCH  74  78
ENDBRANCH  57  71
BRANCH  58  82
ATOM     82  C   UNL A   1      48.759  31.887  28.185  1.00  0.00     0.023 A 
ATOM     83  C   UNL A   1      49.784  31.526  29.075  1.00  0.00     0.031 A 
ATOM     84  C   UNL A   1      49.126  32.522  26.985  1.00  0.00     0.131 A 
ATOM     85  C   UNL A   1      51.119  31.839  28.770  1.00  0.00     0.055 A 
ATOM     86  C   UNL A   1      50.459  32.776  26.658  1.00  0.00     0.041 A 
ATOM     87  F   UNL A   1      48.187  32.905  26.104  1.00  0.00    -0.206 F 
ATOM     88  C   UNL A   1      51.465  32.445  27.561  1.00  0.00     0.022 A 
BRANCH  85  89
ATOM     89  S   UNL A   1      52.392  31.526  30.025  1.00  0.00     0.124 S 
ATOM     90  O   UNL A   1      51.987  32.437  31.090  1.00  0.00    -0.237 OA
ATOM     91  O   UNL A   1      52.211  30.104  30.294  1.00  0.00    -0.237 OA
ATOM     92  O   UNL A   1      53.635  31.876  29.343  1.00  0.00    -0.744 OA
ENDBRANCH  85  89
ENDBRANCH  58  82
BRANCH  70  93
ATOM     93  C   UNL A   1      43.737  36.161  30.491  1.00  0.00     0.023 A 
ATOM     94  C   UNL A   1      43.836  36.578  31.830  1.00  0.00     0.031 A 
ATOM     95  C   UNL A   1      43.658  37.153  29.496  1.00  0.00     0.131 A 
ATOM     96  C   UNL A   1      43.812  37.947  32.141  1.00  0.00     0.055 A 
ATOM     97  C   UNL A   1      43.697  38.513  29.806  1.00  0.00     0.041 A 
ATOM     98  F   UNL A   1      43.557  36.815  28.200  1.00  0.00    -0.206 F 
ATOM     99  C   UNL A   1      43.765  38.917  31.136  1.00  0.00     0.022 A 
BRANCH  96 100
ATOM    100  S   UNL A   1      43.770  38.447  33.885  1.00  0.00     0.124 S 
ATOM    101  O   UNL A   1      45.178  38.721  34.154  1.00  0.00    -0.237 OA
ATOM    102  O   UNL A   1      42.888  39.608  33.858  1.00  0.00    -0.237 OA
ATOM    103  O   UNL A   1      43.226  37.272  34.564  1.00  0.00    -0.744 OA
ENDBRANCH  96 100
ENDBRANCH  70  93
ENDBRANCH  44  45
ENDBRANCH  37  39
ENDBRANCH  36  37
ENDBRANCH  35  36
ENDBRANCH  34  35
ENDBRANCH  33  34
ENDBRANCH  32  33
ENDBRANCH   1  32
TORSDOF 26
ENDMDL
