MODEL 1
REMARK VINA RESULT:      -9.4      0.000      0.000
REMARK SMILES CCCC[C@H]1C[NH2+]CCN1c1ccc(C(=O)OCCOCCOCCOC(=O)c2ccc(-c3c4nc(c(-c5cc(S(=O)(=O)[O-])ccc5F)c5ccc([nH]5)c(-c5cc(S(=O)(=O)[O-])ccc5F)c5nc(c(-c6cc(S(=O)(=O)[O-])ccc6F)c6ccc3[nH]6)C=C5)C=C4)cc2)cc1
REMARK SMILES IDX 21 1 20 2 19 3 18 4 17 5 15 6 16 7 14 8 11 9 12 10 93 11
REMARK SMILES IDX 13 12 92 13 10 14 5 15 6 16 7 17 9 18 8 19 4 22 3 23 2 24
REMARK SMILES IDX 1 25 22 26 23 27 24 28 25 29 26 30 27 31 28 32 29 33 30 34
REMARK SMILES IDX 91 35 31 36 90 37 32 38 33 39 34 40 84 41 35 42 89 43 83 44
REMARK SMILES IDX 85 45 36 46 88 47 82 48 81 49 37 51 69 52 49 53 68 54 50 55
REMARK SMILES IDX 53 56 67 57 86 58 51 59 52 60 66 62 87 63 54 64 38 65 39 66
REMARK SMILES IDX 47 67 40 68 46 69 48 70 45 71 41 72 42 73 43 74 44 75 70 76
REMARK SMILES IDX 71 77 79 78 72 79 78 80 80 81 77 82 73 83 74 84 75 85 76 86
REMARK SMILES IDX 55 87 56 88 64 89 57 90 63 91 65 92 62 93 58 94 59 95 60 96
REMARK SMILES IDX 61 97
REMARK H PARENT 7 20 7 21 85 50 53 61
REMARK Flexibility Score: inf
ROOT
ATOM      1  C   UNL A   1      32.983  28.478  26.163  1.00  0.00     0.188 C 
ENDROOT
BRANCH   1   2
ATOM      2  O   UNL A   1      31.943  28.092  25.269  1.00  0.00    -0.376 OA
BRANCH   2   3
ATOM      3  C   UNL A   1      31.985  28.498  23.909  1.00  0.00     0.202 C 
BRANCH   3   4
ATOM      4  C   UNL A   1      30.891  28.065  22.917  1.00  0.00     0.261 C 
BRANCH   4   5
ATOM      5  O   UNL A   1      30.672  26.651  22.810  1.00  0.00    -0.460 OA
BRANCH   5   6
ATOM      6  C   UNL A   1      31.407  26.026  21.850  1.00  0.00     0.338 C 
ATOM      7  O   UNL A   1      31.481  26.328  20.681  1.00  0.00    -0.246 OA
BRANCH   6   8
ATOM      8  C   UNL A   1      32.256  24.977  22.469  1.00  0.00     0.060 A 
ATOM      9  C   UNL A   1      34.007  23.064  23.555  1.00  0.00     0.037 A 
ATOM     10  C   UNL A   1      34.317  24.425  23.616  1.00  0.00     0.027 A 
ATOM     11  C   UNL A   1      32.776  22.680  23.002  1.00  0.00     0.027 A 
ATOM     12  C   UNL A   1      33.457  25.378  23.062  1.00  0.00     0.018 A 
ATOM     13  C   UNL A   1      31.896  23.628  22.465  1.00  0.00     0.018 A 
BRANCH   9  14
ATOM     14  N   UNL A   1      34.932  22.133  24.003  1.00  0.00    -0.357 N 
ATOM     15  C   UNL A   1      34.570  21.290  25.153  1.00  0.00     0.137 C 
ATOM     16  C   UNL A   1      35.466  21.607  26.377  1.00  0.00     0.285 C 
ATOM     17  N   UNL A   1      36.912  21.629  26.123  1.00  0.00    -0.343 N 
ATOM     18  C   UNL A   1      36.349  22.390  23.720  1.00  0.00     0.178 C 
ATOM     19  C   UNL A   1      37.192  22.560  25.010  1.00  0.00     0.282 C 
ATOM     20  H   UNL A   1      37.229  20.693  25.874  1.00  0.00     0.346 HD
ATOM     21  H   UNL A   1      37.404  21.938  26.962  1.00  0.00     0.346 HD
BRANCH  15  22
ATOM     22  C   UNL A   1      34.446  19.785  24.803  1.00  0.00     0.031 C 
BRANCH  22  23
ATOM     23  C   UNL A   1      33.273  18.923  25.291  1.00  0.00     0.002 C 
BRANCH  23  24
ATOM     24  C   UNL A   1      32.461  18.128  24.269  1.00  0.00    -0.003 C 
ATOM     25  C   UNL A   1      33.076  18.050  22.881  1.00  0.00     0.004 C 
ENDBRANCH  23  24
ENDBRANCH  22  23
ENDBRANCH  15  22
ENDBRANCH   9  14
ENDBRANCH   6   8
ENDBRANCH   5   6
ENDBRANCH   4   5
ENDBRANCH   3   4
ENDBRANCH   2   3
ENDBRANCH   1   2
BRANCH   1  26
ATOM     26  C   UNL A   1      32.753  29.638  27.154  1.00  0.00     0.188 C 
BRANCH  26  27
ATOM     27  O   UNL A   1      31.654  30.457  26.819  1.00  0.00    -0.376 OA
BRANCH  27  28
ATOM     28  C   UNL A   1      31.809  31.865  26.879  1.00  0.00     0.202 C 
BRANCH  28  29
ATOM     29  C   UNL A   1      32.975  32.563  27.608  1.00  0.00     0.261 C 
BRANCH  29  30
ATOM     30  O   UNL A   1      32.667  33.557  28.591  1.00  0.00    -0.460 OA
BRANCH  30  31
ATOM     31  C   UNL A   1      33.553  34.568  28.740  1.00  0.00     0.338 C 
ATOM     32  O   UNL A   1      33.415  35.720  28.362  1.00  0.00    -0.246 OA
BRANCH  31  33
ATOM     33  C   UNL A   1      34.658  34.094  29.601  1.00  0.00     0.060 A 
ATOM     34  C   UNL A   1      35.977  34.338  29.198  1.00  0.00     0.016 A 
ATOM     35  C   UNL A   1      34.399  33.402  30.787  1.00  0.00     0.016 A 
ATOM     36  C   UNL A   1      37.041  33.864  29.967  1.00  0.00     0.010 A 
ATOM     37  C   UNL A   1      35.469  32.913  31.548  1.00  0.00     0.010 A 
ATOM     38  C   UNL A   1      36.795  33.117  31.128  1.00  0.00    -0.014 A 
BRANCH  38  39
ATOM     39  C   UNL A   1      37.922  32.420  31.803  1.00  0.00     0.031 A 
ATOM     40  C   UNL A   1      38.603  31.281  31.090  1.00  0.00     0.074 A 
ATOM     41  C   UNL A   1      38.365  32.819  33.010  1.00  0.00     0.049 A 
ATOM     42  N   UNL A   1      39.599  30.530  31.481  1.00  0.00    -0.248 NA
ATOM     43  C   UNL A   1      38.083  30.948  29.755  1.00  0.00     0.031 C 
ATOM     44  C   UNL A   1      37.818  33.933  33.784  1.00  0.00     0.029 A 
ATOM     45  N   UNL A   1      39.379  32.331  33.796  1.00  0.00    -0.354 N 
ATOM     46  C   UNL A   1      39.830  29.634  30.441  1.00  0.00     0.074 A 
ATOM     47  C   UNL A   1      38.837  29.911  29.423  1.00  0.00     0.031 C 
ATOM     48  C   UNL A   1      38.502  34.041  34.935  1.00  0.00     0.029 A 
ATOM     49  C   UNL A   1      39.510  32.984  35.000  1.00  0.00     0.049 A 
ATOM     50  H   UNL A   1      39.960  31.583  33.525  1.00  0.00     0.167 HD
ATOM     51  C   UNL A   1      40.786  28.677  30.339  1.00  0.00     0.034 A 
ATOM     52  C   UNL A   1      40.333  32.742  36.042  1.00  0.00     0.034 A 
ATOM     53  C   UNL A   1      41.757  28.398  31.369  1.00  0.00     0.049 A 
ATOM     54  C   UNL A   1      41.330  31.609  35.945  1.00  0.00     0.074 A 
ATOM     55  C   UNL A   1      42.775  27.461  31.363  1.00  0.00     0.029 A 
ATOM     56  N   UNL A   1      41.822  29.042  32.600  1.00  0.00    -0.354 N 
ATOM     57  N   UNL A   1      41.550  30.782  34.948  1.00  0.00    -0.248 NA
ATOM     58  C   UNL A   1      42.196  31.388  37.110  1.00  0.00     0.031 C 
ATOM     59  C   UNL A   1      43.402  27.482  32.614  1.00  0.00     0.029 A 
ATOM     60  C   UNL A   1      42.837  28.496  33.372  1.00  0.00     0.049 A 
ATOM     61  H   UNL A   1      41.235  29.780  32.881  1.00  0.00     0.167 HD
ATOM     62  C   UNL A   1      42.602  29.964  35.357  1.00  0.00     0.074 A 
ATOM     63  C   UNL A   1      42.983  30.414  36.679  1.00  0.00     0.031 C 
ATOM     64  C   UNL A   1      43.202  28.940  34.698  1.00  0.00     0.034 A 
BRANCH  51  65
ATOM     65  C   UNL A   1      40.787  27.830  29.089  1.00  0.00     0.023 A 
ATOM     66  C   UNL A   1      41.711  28.040  28.049  1.00  0.00     0.031 A 
ATOM     67  C   UNL A   1      39.831  26.811  28.921  1.00  0.00     0.131 A 
ATOM     68  C   UNL A   1      41.615  27.295  26.864  1.00  0.00     0.055 A 
ATOM     69  C   UNL A   1      39.794  26.017  27.774  1.00  0.00     0.041 A 
ATOM     70  F   UNL A   1      38.909  26.577  29.868  1.00  0.00    -0.206 F 
ATOM     71  C   UNL A   1      40.679  26.266  26.730  1.00  0.00     0.022 A 
BRANCH  68  72
ATOM     72  S   UNL A   1      42.632  27.786  25.445  1.00  0.00     0.124 S 
ATOM     73  O   UNL A   1      42.604  26.575  24.628  1.00  0.00    -0.237 OA
ATOM     74  O   UNL A   1      41.904  28.931  24.914  1.00  0.00    -0.237 OA
ATOM     75  O   UNL A   1      43.929  28.093  26.043  1.00  0.00    -0.744 OA
ENDBRANCH  68  72
ENDBRANCH  51  65
BRANCH  52  76
ATOM     76  C   UNL A   1      40.235  33.554  37.292  1.00  0.00     0.023 A 
ATOM     77  C   UNL A   1      39.499  33.103  38.400  1.00  0.00     0.031 A 
ATOM     78  C   UNL A   1      40.822  34.830  37.368  1.00  0.00     0.131 A 
ATOM     79  C   UNL A   1      39.329  33.940  39.514  1.00  0.00     0.055 A 
ATOM     80  C   UNL A   1      40.699  35.635  38.502  1.00  0.00     0.041 A 
ATOM     81  F   UNL A   1      41.529  35.315  36.334  1.00  0.00    -0.206 F 
ATOM     82  C   UNL A   1      39.936  35.197  39.579  1.00  0.00     0.022 A 
BRANCH  79  83
ATOM     83  S   UNL A   1      38.216  33.403  40.843  1.00  0.00     0.124 S 
ATOM     84  O   UNL A   1      37.454  32.348  40.184  1.00  0.00    -0.237 OA
ATOM     85  O   UNL A   1      39.157  32.968  41.870  1.00  0.00    -0.237 OA
ATOM     86  O   UNL A   1      37.461  34.612  41.165  1.00  0.00    -0.744 OA
ENDBRANCH  79  83
ENDBRANCH  52  76
BRANCH  64  87
ATOM     87  C   UNL A   1      44.369  28.265  35.386  1.00  0.00     0.023 A 
ATOM     88  C   UNL A   1      44.214  27.074  36.117  1.00  0.00     0.031 A 
ATOM     89  C   UNL A   1      45.652  28.841  35.331  1.00  0.00     0.131 A 
ATOM     90  C   UNL A   1      45.305  26.534  36.818  1.00  0.00     0.055 A 
ATOM     91  C   UNL A   1      46.748  28.260  35.972  1.00  0.00     0.041 A 
ATOM     92  F   UNL A   1      45.863  29.980  34.653  1.00  0.00    -0.206 F 
ATOM     93  C   UNL A   1      46.574  27.110  36.735  1.00  0.00     0.022 A 
BRANCH  90  94
ATOM     94  S   UNL A   1      45.015  25.137  37.938  1.00  0.00     0.124 S 
ATOM     95  O   UNL A   1      45.390  25.702  39.231  1.00  0.00    -0.237 OA
ATOM     96  O   UNL A   1      43.593  24.873  37.746  1.00  0.00    -0.237 OA
ATOM     97  O   UNL A   1      45.911  24.099  37.430  1.00  0.00    -0.744 OA
ENDBRANCH  90  94
ENDBRANCH  64  87
ENDBRANCH  38  39
ENDBRANCH  31  33
ENDBRANCH  30  31
ENDBRANCH  29  30
ENDBRANCH  28  29
ENDBRANCH  27  28
ENDBRANCH  26  27
ENDBRANCH   1  26
TORSDOF 24
ENDMDL
MODEL 2
REMARK VINA RESULT:      -9.2      5.176      9.682
REMARK SMILES CCCC[C@H]1C[NH2+]CCN1c1ccc(C(=O)OCCOCCOCCOC(=O)c2ccc(-c3c4nc(c(-c5cc(S(=O)(=O)[O-])ccc5F)c5ccc([nH]5)c(-c5cc(S(=O)(=O)[O-])ccc5F)c5nc(c(-c6cc(S(=O)(=O)[O-])ccc6F)c6ccc3[nH]6)C=C5)C=C4)cc2)cc1
REMARK SMILES IDX 21 1 20 2 19 3 18 4 17 5 15 6 16 7 14 8 11 9 12 10 93 11
REMARK SMILES IDX 13 12 92 13 10 14 5 15 6 16 7 17 9 18 8 19 4 22 3 23 2 24
REMARK SMILES IDX 1 25 22 26 23 27 24 28 25 29 26 30 27 31 28 32 29 33 30 34
REMARK SMILES IDX 91 35 31 36 90 37 32 38 33 39 34 40 84 41 35 42 89 43 83 44
REMARK SMILES IDX 85 45 36 46 88 47 82 48 81 49 37 51 69 52 49 53 68 54 50 55
REMARK SMILES IDX 53 56 67 57 86 58 51 59 52 60 66 62 87 63 54 64 38 65 39 66
REMARK SMILES IDX 47 67 40 68 46 69 48 70 45 71 41 72 42 73 43 74 44 75 70 76
REMARK SMILES IDX 71 77 79 78 72 79 78 80 80 81 77 82 73 83 74 84 75 85 76 86
REMARK SMILES IDX 55 87 56 88 64 89 57 90 63 91 65 92 62 93 58 94 59 95 60 96
REMARK SMILES IDX 61 97
REMARK H PARENT 7 20 7 21 85 50 53 61
REMARK Flexibility Score: inf
ROOT
ATOM      1  C   UNL A   1      34.831  34.230  31.098  1.00  0.00     0.188 C 
ENDROOT
BRANCH   1   2
ATOM      2  O   UNL A   1      35.332  33.523  29.967  1.00  0.00    -0.376 OA
BRANCH   2   3
ATOM      3  C   UNL A   1      34.989  32.159  29.769  1.00  0.00     0.202 C 
BRANCH   3   4
ATOM      4  C   UNL A   1      35.818  31.258  28.837  1.00  0.00     0.261 C 
BRANCH   4   5
ATOM      5  O   UNL A   1      37.164  31.692  28.589  1.00  0.00    -0.460 OA
BRANCH   5   6
ATOM      6  C   UNL A   1      38.082  31.272  29.502  1.00  0.00     0.338 C 
ATOM      7  O   UNL A   1      38.354  31.804  30.553  1.00  0.00    -0.246 OA
BRANCH   6   8
ATOM      8  C   UNL A   1      38.623  29.949  29.101  1.00  0.00     0.060 A 
ATOM      9  C   UNL A   1      39.748  27.445  28.495  1.00  0.00     0.037 A 
ATOM     10  C   UNL A   1      39.204  27.691  29.759  1.00  0.00     0.027 A 
ATOM     11  C   UNL A   1      39.659  28.448  27.519  1.00  0.00     0.027 A 
ATOM     12  C   UNL A   1      38.660  28.941  30.069  1.00  0.00     0.018 A 
ATOM     13  C   UNL A   1      39.094  29.696  27.812  1.00  0.00     0.018 A 
BRANCH   9  14
ATOM     14  N   UNL A   1      40.390  26.239  28.253  1.00  0.00    -0.357 N 
ATOM     15  C   UNL A   1      41.701  26.272  27.587  1.00  0.00     0.137 C 
ATOM     16  C   UNL A   1      41.627  25.617  26.184  1.00  0.00     0.285 C 
ATOM     17  N   UNL A   1      40.996  24.293  26.128  1.00  0.00    -0.343 N 
ATOM     18  C   UNL A   1      39.559  25.035  28.143  1.00  0.00     0.178 C 
ATOM     19  C   UNL A   1      39.654  24.372  26.744  1.00  0.00     0.282 C 
ATOM     20  H   UNL A   1      41.568  23.620  26.638  1.00  0.00     0.346 HD
ATOM     21  H   UNL A   1      40.912  23.992  25.157  1.00  0.00     0.346 HD
BRANCH  15  22
ATOM     22  C   UNL A   1      42.863  25.773  28.483  1.00  0.00     0.031 C 
BRANCH  22  23
ATOM     23  C   UNL A   1      43.952  24.824  27.962  1.00  0.00     0.002 C 
BRANCH  23  24
ATOM     24  C   UNL A   1      44.094  23.440  28.593  1.00  0.00    -0.003 C 
ATOM     25  C   UNL A   1      42.796  22.660  28.728  1.00  0.00     0.004 C 
ENDBRANCH  23  24
ENDBRANCH  22  23
ENDBRANCH  15  22
ENDBRANCH   9  14
ENDBRANCH   6   8
ENDBRANCH   5   6
ENDBRANCH   4   5
ENDBRANCH   3   4
ENDBRANCH   2   3
ENDBRANCH   1   2
BRANCH   1  26
ATOM     26  C   UNL A   1      34.782  33.537  32.476  1.00  0.00     0.188 C 
BRANCH  26  27
ATOM     27  O   UNL A   1      36.056  33.233  33.001  1.00  0.00    -0.376 OA
BRANCH  27  28
ATOM     28  C   UNL A   1      36.639  34.125  33.935  1.00  0.00     0.202 C 
BRANCH  28  29
ATOM     29  C   UNL A   1      37.163  33.689  35.319  1.00  0.00     0.261 C 
BRANCH  29  30
ATOM     30  O   UNL A   1      37.026  32.315  35.697  1.00  0.00    -0.460 OA
BRANCH  30  31
ATOM     31  C   UNL A   1      38.097  31.731  36.283  1.00  0.00     0.338 C 
ATOM     32  O   UNL A   1      38.174  31.345  37.439  1.00  0.00    -0.246 OA
BRANCH  31  33
ATOM     33  C   UNL A   1      39.113  31.471  35.241  1.00  0.00     0.060 A 
ATOM     34  C   UNL A   1      38.769  30.660  34.153  1.00  0.00     0.016 A 
ATOM     35  C   UNL A   1      40.399  32.010  35.342  1.00  0.00     0.016 A 
ATOM     36  C   UNL A   1      39.722  30.361  33.177  1.00  0.00     0.010 A 
ATOM     37  C   UNL A   1      41.357  31.695  34.370  1.00  0.00     0.010 A 
ATOM     38  C   UNL A   1      41.032  30.846  33.297  1.00  0.00    -0.014 A 
BRANCH  38  39
ATOM     39  C   UNL A   1      42.090  30.331  32.388  1.00  0.00     0.031 A 
ATOM     40  C   UNL A   1      42.711  28.990  32.682  1.00  0.00     0.074 A 
ATOM     41  C   UNL A   1      42.463  31.019  31.293  1.00  0.00     0.049 A 
ATOM     42  N   UNL A   1      43.645  28.345  32.035  1.00  0.00    -0.248 NA
ATOM     43  C   UNL A   1      42.205  28.288  33.871  1.00  0.00     0.031 C 
ATOM     44  C   UNL A   1      41.909  32.307  30.876  1.00  0.00     0.029 A 
ATOM     45  N   UNL A   1      43.397  30.729  30.329  1.00  0.00    -0.354 N 
ATOM     46  C   UNL A   1      43.841  27.158  32.734  1.00  0.00     0.074 A 
ATOM     47  C   UNL A   1      42.957  27.198  33.881  1.00  0.00     0.031 C 
ATOM     48  C   UNL A   1      42.517  32.697  29.743  1.00  0.00     0.029 A 
ATOM     49  C   UNL A   1      43.528  31.708  29.372  1.00  0.00     0.049 A 
ATOM     50  H   UNL A   1      43.926  29.898  30.324  1.00  0.00     0.167 HD
ATOM     51  C   UNL A   1      44.672  26.126  32.443  1.00  0.00     0.034 A 
ATOM     52  C   UNL A   1      44.380  31.805  28.329  1.00  0.00     0.034 A 
ATOM     53  C   UNL A   1      45.563  26.107  31.308  1.00  0.00     0.049 A 
ATOM     54  C   UNL A   1      45.364  30.684  28.077  1.00  0.00     0.074 A 
ATOM     55  C   UNL A   1      46.437  25.109  30.914  1.00  0.00     0.029 A 
ATOM     56  N   UNL A   1      45.709  27.142  30.391  1.00  0.00    -0.354 N 
ATOM     57  N   UNL A   1      45.526  29.559  28.736  1.00  0.00    -0.248 NA
ATOM     58  C   UNL A   1      46.270  30.844  26.932  1.00  0.00     0.031 C 
ATOM     59  C   UNL A   1      47.165  25.569  29.812  1.00  0.00     0.029 A 
ATOM     60  C   UNL A   1      46.684  26.819  29.458  1.00  0.00     0.049 A 
ATOM     61  H   UNL A   1      45.194  27.980  30.401  1.00  0.00     0.167 HD
ATOM     62  C   UNL A   1      46.530  28.865  28.064  1.00  0.00     0.074 A 
ATOM     63  C   UNL A   1      46.919  29.690  26.939  1.00  0.00     0.031 C 
ATOM     64  C   UNL A   1      47.078  27.655  28.346  1.00  0.00     0.034 A 
BRANCH  51  65
ATOM     65  C   UNL A   1      44.691  24.960  33.402  1.00  0.00     0.023 A 
ATOM     66  C   UNL A   1      45.268  25.059  34.682  1.00  0.00     0.031 A 
ATOM     67  C   UNL A   1      44.147  23.719  33.023  1.00  0.00     0.131 A 
ATOM     68  C   UNL A   1      45.351  23.925  35.504  1.00  0.00     0.055 A 
ATOM     69  C   UNL A   1      44.158  22.616  33.879  1.00  0.00     0.041 A 
ATOM     70  F   UNL A   1      43.603  23.556  31.807  1.00  0.00    -0.206 F 
ATOM     71  C   UNL A   1      44.776  22.710  35.121  1.00  0.00     0.022 A 
BRANCH  68  72
ATOM     72  S   UNL A   1      46.349  24.019  37.016  1.00  0.00     0.124 S 
ATOM     73  O   UNL A   1      47.066  22.747  36.977  1.00  0.00    -0.237 OA
ATOM     74  O   UNL A   1      47.154  25.213  36.789  1.00  0.00    -0.237 OA
ATOM     75  O   UNL A   1      45.352  24.130  38.078  1.00  0.00    -0.744 OA
ENDBRANCH  68  72
ENDBRANCH  51  65
BRANCH  52  76
ATOM     76  C   UNL A   1      44.381  33.019  27.459  1.00  0.00     0.023 A 
ATOM     77  C   UNL A   1      44.839  34.258  27.935  1.00  0.00     0.031 A 
ATOM     78  C   UNL A   1      43.856  32.969  26.155  1.00  0.00     0.131 A 
ATOM     79  C   UNL A   1      44.718  35.404  27.133  1.00  0.00     0.055 A 
ATOM     80  C   UNL A   1      43.792  34.100  25.340  1.00  0.00     0.041 A 
ATOM     81  F   UNL A   1      43.395  31.812  25.652  1.00  0.00    -0.206 F 
ATOM     82  C   UNL A   1      44.212  35.331  25.833  1.00  0.00     0.022 A 
BRANCH  79  83
ATOM     83  S   UNL A   1      45.142  37.016  27.851  1.00  0.00     0.124 S 
ATOM     84  O   UNL A   1      46.595  37.019  27.738  1.00  0.00    -0.237 OA
ATOM     85  O   UNL A   1      44.428  37.936  26.972  1.00  0.00    -0.237 OA
ATOM     86  O   UNL A   1      44.621  36.930  29.214  1.00  0.00    -0.744 OA
ENDBRANCH  79  83
ENDBRANCH  52  76
BRANCH  64  87
ATOM     87  C   UNL A   1      48.128  27.132  27.390  1.00  0.00     0.023 A 
ATOM     88  C   UNL A   1      49.501  27.350  27.603  1.00  0.00     0.031 A 
ATOM     89  C   UNL A   1      47.745  26.427  26.235  1.00  0.00     0.131 A 
ATOM     90  C   UNL A   1      50.435  26.929  26.641  1.00  0.00     0.055 A 
ATOM     91  C   UNL A   1      48.683  25.950  25.318  1.00  0.00     0.041 A 
ATOM     92  F   UNL A   1      46.449  26.192  25.975  1.00  0.00    -0.206 F 
ATOM     93  C   UNL A   1      50.036  26.215  25.510  1.00  0.00     0.022 A 
BRANCH  90  94
ATOM     94  S   UNL A   1      52.167  27.434  26.830  1.00  0.00     0.124 S 
ATOM     95  O   UNL A   1      52.114  28.250  28.040  1.00  0.00    -0.237 OA
ATOM     96  O   UNL A   1      52.853  26.153  26.954  1.00  0.00    -0.237 OA
ATOM     97  O   UNL A   1      52.446  28.169  25.598  1.00  0.00    -0.744 OA
ENDBRANCH  90  94
ENDBRANCH  64  87
ENDBRANCH  38  39
ENDBRANCH  31  33
ENDBRANCH  30  31
ENDBRANCH  29  30
ENDBRANCH  28  29
ENDBRANCH  27  28
ENDBRANCH  26  27
ENDBRANCH   1  26
TORSDOF 24
ENDMDL
MODEL 3
REMARK VINA RESULT:      -9.1      2.549      8.563
REMARK SMILES CCCC[C@H]1C[NH2+]CCN1c1ccc(C(=O)OCCOCCOCCOC(=O)c2ccc(-c3c4nc(c(-c5cc(S(=O)(=O)[O-])ccc5F)c5ccc([nH]5)c(-c5cc(S(=O)(=O)[O-])ccc5F)c5nc(c(-c6cc(S(=O)(=O)[O-])ccc6F)c6ccc3[nH]6)C=C5)C=C4)cc2)cc1
REMARK SMILES IDX 21 1 20 2 19 3 18 4 17 5 15 6 16 7 14 8 11 9 12 10 93 11
REMARK SMILES IDX 13 12 92 13 10 14 5 15 6 16 7 17 9 18 8 19 4 22 3 23 2 24
REMARK SMILES IDX 1 25 22 26 23 27 24 28 25 29 26 30 27 31 28 32 29 33 30 34
REMARK SMILES IDX 91 35 31 36 90 37 32 38 33 39 34 40 84 41 35 42 89 43 83 44
REMARK SMILES IDX 85 45 36 46 88 47 82 48 81 49 37 51 69 52 49 53 68 54 50 55
REMARK SMILES IDX 53 56 67 57 86 58 51 59 52 60 66 62 87 63 54 64 38 65 39 66
REMARK SMILES IDX 47 67 40 68 46 69 48 70 45 71 41 72 42 73 43 74 44 75 70 76
REMARK SMILES IDX 71 77 79 78 72 79 78 80 80 81 77 82 73 83 74 84 75 85 76 86
REMARK SMILES IDX 55 87 56 88 64 89 57 90 63 91 65 92 62 93 58 94 59 95 60 96
REMARK SMILES IDX 61 97
REMARK H PARENT 7 20 7 21 85 50 53 61
REMARK Flexibility Score: inf
ROOT
ATOM      1  C   UNL A   1      32.837  26.003  25.585  1.00  0.00     0.188 C 
ENDROOT
BRANCH   1   2
ATOM      2  O   UNL A   1      32.783  24.662  25.108  1.00  0.00    -0.376 OA
BRANCH   2   3
ATOM      3  C   UNL A   1      32.788  23.577  26.026  1.00  0.00     0.202 C 
BRANCH   3   4
ATOM      4  C   UNL A   1      33.126  22.149  25.565  1.00  0.00     0.261 C 
BRANCH   4   5
ATOM      5  O   UNL A   1      34.505  21.768  25.679  1.00  0.00    -0.460 OA
BRANCH   5   6
ATOM      6  C   UNL A   1      35.317  22.244  24.696  1.00  0.00     0.338 C 
ATOM      7  O   UNL A   1      34.979  22.650  23.608  1.00  0.00    -0.246 OA
BRANCH   6   8
ATOM      8  C   UNL A   1      36.711  22.345  25.198  1.00  0.00     0.060 A 
ATOM      9  C   UNL A   1      39.330  22.370  26.220  1.00  0.00     0.037 A 
ATOM     10  C   UNL A   1      38.866  21.276  25.482  1.00  0.00     0.027 A 
ATOM     11  C   UNL A   1      38.485  23.478  26.379  1.00  0.00     0.027 A 
ATOM     12  C   UNL A   1      37.559  21.253  24.988  1.00  0.00     0.018 A 
ATOM     13  C   UNL A   1      37.181  23.475  25.868  1.00  0.00     0.018 A 
BRANCH   9  14
ATOM     14  N   UNL A   1      40.587  22.315  26.802  1.00  0.00    -0.357 N 
ATOM     15  C   UNL A   1      41.740  22.774  26.011  1.00  0.00     0.137 C 
ATOM     16  C   UNL A   1      42.697  21.596  25.692  1.00  0.00     0.285 C 
ATOM     17  N   UNL A   1      43.089  20.763  26.835  1.00  0.00    -0.343 N 
ATOM     18  C   UNL A   1      40.798  21.341  27.879  1.00  0.00     0.178 C 
ATOM     19  C   UNL A   1      41.871  20.281  27.521  1.00  0.00     0.282 C 
ATOM     20  H   UNL A   1      43.651  21.314  27.484  1.00  0.00     0.346 HD
ATOM     21  H   UNL A   1      43.638  19.967  26.510  1.00  0.00     0.346 HD
BRANCH  15  22
ATOM     22  C   UNL A   1      42.425  24.037  26.591  1.00  0.00     0.031 C 
BRANCH  22  23
ATOM     23  C   UNL A   1      41.622  25.231  27.130  1.00  0.00     0.002 C 
BRANCH  23  24
ATOM     24  C   UNL A   1      40.915  26.157  26.141  1.00  0.00    -0.003 C 
ATOM     25  C   UNL A   1      41.601  27.494  25.910  1.00  0.00     0.004 C 
ENDBRANCH  23  24
ENDBRANCH  22  23
ENDBRANCH  15  22
ENDBRANCH   9  14
ENDBRANCH   6   8
ENDBRANCH   5   6
ENDBRANCH   4   5
ENDBRANCH   3   4
ENDBRANCH   2   3
ENDBRANCH   1   2
BRANCH   1  26
ATOM     26  C   UNL A   1      31.818  26.485  26.639  1.00  0.00     0.188 C 
BRANCH  26  27
ATOM     27  O   UNL A   1      32.199  27.677  27.289  1.00  0.00    -0.376 OA
BRANCH  27  28
ATOM     28  C   UNL A   1      32.421  28.839  26.507  1.00  0.00     0.202 C 
BRANCH  28  29
ATOM     29  C   UNL A   1      33.822  29.418  26.221  1.00  0.00     0.261 C 
BRANCH  29  30
ATOM     30  O   UNL A   1      34.748  29.530  27.307  1.00  0.00    -0.460 OA
BRANCH  30  31
ATOM     31  C   UNL A   1      35.052  30.780  27.728  1.00  0.00     0.338 C 
ATOM     32  O   UNL A   1      34.459  31.809  27.444  1.00  0.00    -0.246 OA
BRANCH  31  33
ATOM     33  C   UNL A   1      36.126  30.681  28.740  1.00  0.00     0.060 A 
ATOM     34  C   UNL A   1      37.136  31.651  28.745  1.00  0.00     0.016 A 
ATOM     35  C   UNL A   1      36.147  29.634  29.665  1.00  0.00     0.016 A 
ATOM     36  C   UNL A   1      38.187  31.559  29.660  1.00  0.00     0.010 A 
ATOM     37  C   UNL A   1      37.211  29.535  30.571  1.00  0.00     0.010 A 
ATOM     38  C   UNL A   1      38.251  30.481  30.555  1.00  0.00    -0.014 A 
BRANCH  38  39
ATOM     39  C   UNL A   1      39.487  30.266  31.354  1.00  0.00     0.031 A 
ATOM     40  C   UNL A   1      39.605  30.932  32.700  1.00  0.00     0.074 A 
ATOM     41  C   UNL A   1      40.470  29.458  30.915  1.00  0.00     0.049 A 
ATOM     42  N   UNL A   1      40.584  30.892  33.566  1.00  0.00    -0.248 NA
ATOM     43  C   UNL A   1      38.462  31.756  33.119  1.00  0.00     0.031 C 
ATOM     44  C   UNL A   1      40.456  28.725  29.649  1.00  0.00     0.029 A 
ATOM     45  N   UNL A   1      41.671  29.119  31.486  1.00  0.00    -0.354 N 
ATOM     46  C   UNL A   1      40.176  31.682  34.637  1.00  0.00     0.074 A 
ATOM     47  C   UNL A   1      38.879  32.223  34.286  1.00  0.00     0.031 C 
ATOM     48  C   UNL A   1      41.598  28.024  29.540  1.00  0.00     0.029 A 
ATOM     49  C   UNL A   1      42.440  28.286  30.706  1.00  0.00     0.049 A 
ATOM     50  H   UNL A   1      41.957  29.442  32.371  1.00  0.00     0.167 HD
ATOM     51  C   UNL A   1      40.817  31.926  35.807  1.00  0.00     0.034 A 
ATOM     52  C   UNL A   1      43.686  27.808  30.901  1.00  0.00     0.034 A 
ATOM     53  C   UNL A   1      42.118  31.395  36.136  1.00  0.00     0.049 A 
ATOM     54  C   UNL A   1      44.421  28.168  32.173  1.00  0.00     0.074 A 
ATOM     55  C   UNL A   1      42.852  31.570  37.297  1.00  0.00     0.029 A 
ATOM     56  N   UNL A   1      42.892  30.601  35.297  1.00  0.00    -0.354 N 
ATOM     57  N   UNL A   1      44.017  28.901  33.185  1.00  0.00    -0.248 NA
ATOM     58  C   UNL A   1      45.777  27.624  32.331  1.00  0.00     0.031 C 
ATOM     59  C   UNL A   1      44.096  30.951  37.130  1.00  0.00     0.029 A 
ATOM     60  C   UNL A   1      44.107  30.311  35.901  1.00  0.00     0.049 A 
ATOM     61  H   UNL A   1      42.616  30.289  34.406  1.00  0.00     0.167 HD
ATOM     62  C   UNL A   1      45.057  28.878  34.113  1.00  0.00     0.074 A 
ATOM     63  C   UNL A   1      46.095  28.042  33.547  1.00  0.00     0.031 C 
ATOM     64  C   UNL A   1      45.145  29.487  35.323  1.00  0.00     0.034 A 
BRANCH  51  65
ATOM     65  C   UNL A   1      40.138  32.849  36.790  1.00  0.00     0.023 A 
ATOM     66  C   UNL A   1      39.290  32.363  37.803  1.00  0.00     0.031 A 
ATOM     67  C   UNL A   1      40.318  34.241  36.698  1.00  0.00     0.131 A 
ATOM     68  C   UNL A   1      38.602  33.262  38.632  1.00  0.00     0.055 A 
ATOM     69  C   UNL A   1      39.696  35.126  37.580  1.00  0.00     0.041 A 
ATOM     70  F   UNL A   1      41.096  34.767  35.738  1.00  0.00    -0.206 F 
ATOM     71  C   UNL A   1      38.820  34.639  38.545  1.00  0.00     0.022 A 
BRANCH  68  72
ATOM     72  S   UNL A   1      37.310  32.616  39.728  1.00  0.00     0.124 S 
ATOM     73  O   UNL A   1      36.210  32.396  38.792  1.00  0.00    -0.237 OA
ATOM     74  O   UNL A   1      37.930  31.416  40.276  1.00  0.00    -0.237 OA
ATOM     75  O   UNL A   1      37.096  33.700  40.684  1.00  0.00    -0.744 OA
ENDBRANCH  68  72
ENDBRANCH  51  65
BRANCH  52  76
ATOM     76  C   UNL A   1      44.350  26.967  29.860  1.00  0.00     0.023 A 
ATOM     77  C   UNL A   1      44.817  27.526  28.659  1.00  0.00     0.031 A 
ATOM     78  C   UNL A   1      44.462  25.575  30.025  1.00  0.00     0.131 A 
ATOM     79  C   UNL A   1      45.328  26.693  27.652  1.00  0.00     0.055 A 
ATOM     80  C   UNL A   1      45.026  24.757  29.043  1.00  0.00     0.041 A 
ATOM     81  F   UNL A   1      44.024  24.985  31.149  1.00  0.00    -0.206 F 
ATOM     82  C   UNL A   1      45.450  25.314  27.842  1.00  0.00     0.022 A 
BRANCH  79  83
ATOM     83  S   UNL A   1      45.743  27.426  26.045  1.00  0.00     0.124 S 
ATOM     84  O   UNL A   1      45.298  26.389  25.121  1.00  0.00    -0.237 OA
ATOM     85  O   UNL A   1      44.954  28.654  26.059  1.00  0.00    -0.237 OA
ATOM     86  O   UNL A   1      47.190  27.617  26.120  1.00  0.00    -0.744 OA
ENDBRANCH  79  83
ENDBRANCH  52  76
BRANCH  64  87
ATOM     87  C   UNL A   1      46.395  29.230  36.137  1.00  0.00     0.023 A 
ATOM     88  C   UNL A   1      46.492  28.146  37.027  1.00  0.00     0.031 A 
ATOM     89  C   UNL A   1      47.496  30.099  36.036  1.00  0.00     0.131 A 
ATOM     90  C   UNL A   1      47.633  28.000  37.832  1.00  0.00     0.055 A 
ATOM     91  C   UNL A   1      48.657  29.908  36.787  1.00  0.00     0.041 A 
ATOM     92  F   UNL A   1      47.463  31.154  35.207  1.00  0.00    -0.206 F 
ATOM     93  C   UNL A   1      48.723  28.863  37.705  1.00  0.00     0.022 A 
BRANCH  90  94
ATOM     94  S   UNL A   1      47.625  26.737  39.134  1.00  0.00     0.124 S 
ATOM     95  O   UNL A   1      47.490  27.547  40.341  1.00  0.00    -0.237 OA
ATOM     96  O   UNL A   1      46.466  25.927  38.776  1.00  0.00    -0.237 OA
ATOM     97  O   UNL A   1      48.918  26.072  38.975  1.00  0.00    -0.744 OA
ENDBRANCH  90  94
ENDBRANCH  64  87
ENDBRANCH  38  39
ENDBRANCH  31  33
ENDBRANCH  30  31
ENDBRANCH  29  30
ENDBRANCH  28  29
ENDBRANCH  27  28
ENDBRANCH  26  27
ENDBRANCH   1  26
TORSDOF 24
ENDMDL
