MODEL 1
REMARK VINA RESULT:     -10.9      0.000      0.000
REMARK SMILES C[C@@H]1Oc2ccccc2N(CC(=O)OCCOCCOCCOC(=O)c2ccc(-c3c4nc(c(-c5cc(S(=O)(=O)[O-])ccc5F)c5ccc([nH]5)c(-c5cc(S(=O)(=O)[O-])ccc5F)c5nc(c(-c6cc(S(=O)(=O)[O-])ccc6F)c6ccc3[nH]6)C=C5)C=C4)cc2)C1=O
REMARK SMILES IDX 19 1 18 2 17 3 16 4 15 5 14 6 12 7 13 8 11 9 10 10 1 11 2 12
REMARK SMILES IDX 3 13 89 14 4 15 90 16 5 17 9 18 6 19 8 20 7 21 20 22 21 23
REMARK SMILES IDX 22 24 23 25 24 26 25 27 26 28 27 29 88 30 28 31 87 32 29 33
REMARK SMILES IDX 30 34 31 35 81 36 32 37 86 38 80 39 82 40 33 41 85 42 79 43
REMARK SMILES IDX 78 44 34 46 66 47 46 48 65 49 47 50 50 51 64 52 83 53 48 54
REMARK SMILES IDX 49 55 63 57 84 58 51 59 35 60 36 61 44 62 37 63 43 64 45 65
REMARK SMILES IDX 42 66 38 67 39 68 40 69 41 70 67 71 68 72 76 73 69 74 75 75
REMARK SMILES IDX 77 76 74 77 70 78 71 79 72 80 73 81 52 82 53 83 61 84 54 85
REMARK SMILES IDX 60 86 62 87 59 88 55 89 56 90 57 91 58 92
REMARK H PARENT 82 45 50 56
REMARK Flexibility Score: inf
ROOT
ATOM      1  C   UNL A   1      30.893  29.241  23.646  1.00  0.00     0.188 C 
ENDROOT
BRANCH   1   2
ATOM      2  C   UNL A   1      31.788  28.144  23.054  1.00  0.00     0.188 C 
BRANCH   2   3
ATOM      3  O   UNL A   1      33.094  27.983  23.608  1.00  0.00    -0.376 OA
BRANCH   3   4
ATOM      4  C   UNL A   1      33.319  26.876  24.472  1.00  0.00     0.202 C 
BRANCH   4   5
ATOM      5  C   UNL A   1      32.099  25.983  24.704  1.00  0.00     0.261 C 
BRANCH   5   6
ATOM      6  O   UNL A   1      32.479  24.675  25.173  1.00  0.00    -0.462 OA
BRANCH   6   7
ATOM      7  C   UNL A   1      31.891  24.249  26.325  1.00  0.00     0.326 C 
ATOM      8  O   UNL A   1      30.825  24.677  26.754  1.00  0.00    -0.250 OA
BRANCH   7   9
ATOM      9  C   UNL A   1      32.647  23.102  27.018  1.00  0.00     0.248 C 
BRANCH   9  10
ATOM     10  N   UNL A   1      33.307  22.130  26.144  1.00  0.00    -0.294 N 
ATOM     11  C   UNL A   1      32.861  18.780  25.553  1.00  0.00     0.064 C 
ATOM     12  C   UNL A   1      33.166  20.064  24.784  1.00  0.00     0.259 C 
ATOM     13  O   UNL A   1      34.557  20.069  24.543  1.00  0.00    -0.479 OA
ATOM     14  C   UNL A   1      32.475  21.217  25.513  1.00  0.00     0.268 C 
ATOM     15  C   UNL A   1      35.252  21.119  25.062  1.00  0.00     0.144 A 
ATOM     16  O   UNL A   1      31.244  21.280  25.581  1.00  0.00    -0.270 OA
ATOM     17  C   UNL A   1      36.623  21.083  24.777  1.00  0.00     0.049 A 
ATOM     18  C   UNL A   1      34.695  22.159  25.822  1.00  0.00     0.087 A 
ATOM     19  C   UNL A   1      37.456  22.112  25.194  1.00  0.00     0.004 A 
ATOM     20  C   UNL A   1      35.546  23.205  26.207  1.00  0.00     0.030 A 
ATOM     21  C   UNL A   1      36.909  23.190  25.876  1.00  0.00     0.002 A 
ENDBRANCH   9  10
ENDBRANCH   7   9
ENDBRANCH   6   7
ENDBRANCH   5   6
ENDBRANCH   4   5
ENDBRANCH   3   4
ENDBRANCH   2   3
ENDBRANCH   1   2
BRANCH   1  22
ATOM     22  O   UNL A   1      31.028  29.334  25.062  1.00  0.00    -0.376 OA
BRANCH  22  23
ATOM     23  C   UNL A   1      31.333  30.645  25.523  1.00  0.00     0.202 C 
BRANCH  23  24
ATOM     24  C   UNL A   1      31.982  30.572  26.907  1.00  0.00     0.261 C 
BRANCH  24  25
ATOM     25  O   UNL A   1      33.419  30.626  26.867  1.00  0.00    -0.460 OA
BRANCH  25  26
ATOM     26  C   UNL A   1      33.987  31.641  27.556  1.00  0.00     0.338 C 
ATOM     27  O   UNL A   1      33.471  32.696  27.870  1.00  0.00    -0.246 OA
BRANCH  26  28
ATOM     28  C   UNL A   1      35.326  31.200  27.984  1.00  0.00     0.060 A 
ATOM     29  C   UNL A   1      36.361  32.117  28.144  1.00  0.00     0.016 A 
ATOM     30  C   UNL A   1      35.531  29.849  28.268  1.00  0.00     0.016 A 
ATOM     31  C   UNL A   1      37.601  31.669  28.610  1.00  0.00     0.010 A 
ATOM     32  C   UNL A   1      36.757  29.407  28.765  1.00  0.00     0.010 A 
ATOM     33  C   UNL A   1      37.805  30.315  28.947  1.00  0.00    -0.014 A 
BRANCH  33  34
ATOM     34  C   UNL A   1      39.075  29.894  29.595  1.00  0.00     0.031 A 
ATOM     35  C   UNL A   1      39.475  30.392  30.954  1.00  0.00     0.074 A 
ATOM     36  C   UNL A   1      39.879  29.043  28.926  1.00  0.00     0.049 A 
ATOM     37  N   UNL A   1      40.453  29.981  31.719  1.00  0.00    -0.248 NA
ATOM     38  C   UNL A   1      38.695  31.503  31.523  1.00  0.00     0.031 C 
ATOM     39  C   UNL A   1      39.642  28.572  27.561  1.00  0.00     0.029 A 
ATOM     40  N   UNL A   1      41.038  28.407  29.301  1.00  0.00    -0.354 N 
ATOM     41  C   UNL A   1      40.391  30.757  32.872  1.00  0.00     0.074 A 
ATOM     42  C   UNL A   1      39.325  31.715  32.673  1.00  0.00     0.031 C 
ATOM     43  C   UNL A   1      40.582  27.673  27.237  1.00  0.00     0.029 A 
ATOM     44  C   UNL A   1      41.500  27.512  28.362  1.00  0.00     0.049 A 
ATOM     45  H   UNL A   1      41.493  28.574  30.158  1.00  0.00     0.167 HD
ATOM     46  C   UNL A   1      41.131  30.649  34.001  1.00  0.00     0.034 A 
ATOM     47  C   UNL A   1      42.521  26.630  28.415  1.00  0.00     0.034 A 
ATOM     48  C   UNL A   1      42.188  29.682  34.178  1.00  0.00     0.049 A 
ATOM     49  C   UNL A   1      43.311  26.511  29.694  1.00  0.00     0.074 A 
ATOM     50  C   UNL A   1      42.958  29.453  35.304  1.00  0.00     0.029 A 
ATOM     51  N   UNL A   1      42.620  28.786  33.211  1.00  0.00    -0.354 N 
ATOM     52  N   UNL A   1      43.148  27.152  30.827  1.00  0.00    -0.248 NA
ATOM     53  C   UNL A   1      44.409  25.535  29.713  1.00  0.00     0.031 C 
ATOM     54  C   UNL A   1      43.889  28.458  35.004  1.00  0.00     0.029 A 
ATOM     55  C   UNL A   1      43.658  28.017  33.711  1.00  0.00     0.049 A 
ATOM     56  H   UNL A   1      42.245  28.708  32.305  1.00  0.00     0.167 HD
ATOM     57  C   UNL A   1      44.096  26.630  31.703  1.00  0.00     0.074 A 
ATOM     58  C   UNL A   1      44.814  25.606  30.975  1.00  0.00     0.031 C 
ATOM     59  C   UNL A   1      44.349  26.975  32.990  1.00  0.00     0.034 A 
BRANCH  46  60
ATOM     60  C   UNL A   1      40.806  31.539  35.177  1.00  0.00     0.023 A 
ATOM     61  C   UNL A   1      39.681  31.278  35.984  1.00  0.00     0.031 A 
ATOM     62  C   UNL A   1      41.507  32.741  35.382  1.00  0.00     0.131 A 
ATOM     63  C   UNL A   1      39.268  32.228  36.928  1.00  0.00     0.055 A 
ATOM     64  C   UNL A   1      41.114  33.664  36.352  1.00  0.00     0.041 A 
ATOM     65  F   UNL A   1      42.580  33.041  34.632  1.00  0.00    -0.206 F 
ATOM     66  C   UNL A   1      39.980  33.416  37.120  1.00  0.00     0.022 A 
BRANCH  63  67
ATOM     67  S   UNL A   1      37.749  31.994  37.894  1.00  0.00     0.124 S 
ATOM     68  O   UNL A   1      37.427  30.596  37.617  1.00  0.00    -0.237 OA
ATOM     69  O   UNL A   1      38.207  32.270  39.253  1.00  0.00    -0.237 OA
ATOM     70  O   UNL A   1      36.821  32.967  37.329  1.00  0.00    -0.744 OA
ENDBRANCH  63  67
ENDBRANCH  46  60
BRANCH  47  71
ATOM     71  C   UNL A   1      42.751  25.709  27.264  1.00  0.00     0.023 A 
ATOM     72  C   UNL A   1      42.225  24.405  27.250  1.00  0.00     0.031 A 
ATOM     73  C   UNL A   1      43.587  26.094  26.200  1.00  0.00     0.131 A 
ATOM     74  C   UNL A   1      42.581  23.521  26.222  1.00  0.00     0.055 A 
ATOM     75  C   UNL A   1      43.886  25.232  25.146  1.00  0.00     0.041 A 
ATOM     76  F   UNL A   1      44.131  27.322  26.179  1.00  0.00    -0.206 F 
ATOM     77  C   UNL A   1      43.394  23.932  25.162  1.00  0.00     0.022 A 
BRANCH  74  78
ATOM     78  S   UNL A   1      42.110  21.770  26.299  1.00  0.00     0.124 S 
ATOM     79  O   UNL A   1      43.028  21.167  25.339  1.00  0.00    -0.237 OA
ATOM     80  O   UNL A   1      42.366  21.450  27.703  1.00  0.00    -0.237 OA
ATOM     81  O   UNL A   1      40.703  21.775  25.916  1.00  0.00    -0.744 OA
ENDBRANCH  74  78
ENDBRANCH  47  71
BRANCH  59  82
ATOM     82  C   UNL A   1      45.438  26.242  33.737  1.00  0.00     0.023 A 
ATOM     83  C   UNL A   1      45.109  25.161  34.578  1.00  0.00     0.031 A 
ATOM     84  C   UNL A   1      46.762  26.712  33.745  1.00  0.00     0.131 A 
ATOM     85  C   UNL A   1      46.082  24.614  35.423  1.00  0.00     0.055 A 
ATOM     86  C   UNL A   1      47.740  26.133  34.556  1.00  0.00     0.041 A 
ATOM     87  F   UNL A   1      47.122  27.749  32.971  1.00  0.00    -0.206 F 
ATOM     88  C   UNL A   1      47.397  25.089  35.410  1.00  0.00     0.022 A 
BRANCH  85  89
ATOM     89  S   UNL A   1      45.658  23.331  36.634  1.00  0.00     0.124 S 
ATOM     90  O   UNL A   1      44.754  22.478  35.867  1.00  0.00    -0.237 OA
ATOM     91  O   UNL A   1      46.963  22.747  36.932  1.00  0.00    -0.237 OA
ATOM     92  O   UNL A   1      45.037  24.069  37.728  1.00  0.00    -0.744 OA
ENDBRANCH  85  89
ENDBRANCH  59  82
ENDBRANCH  33  34
ENDBRANCH  26  28
ENDBRANCH  25  26
ENDBRANCH  24  25
ENDBRANCH  23  24
ENDBRANCH  22  23
ENDBRANCH   1  22
TORSDOF 21
ENDMDL
MODEL 2
REMARK VINA RESULT:     -10.7      0.924      1.447
REMARK SMILES C[C@@H]1Oc2ccccc2N(CC(=O)OCCOCCOCCOC(=O)c2ccc(-c3c4nc(c(-c5cc(S(=O)(=O)[O-])ccc5F)c5ccc([nH]5)c(-c5cc(S(=O)(=O)[O-])ccc5F)c5nc(c(-c6cc(S(=O)(=O)[O-])ccc6F)c6ccc3[nH]6)C=C5)C=C4)cc2)C1=O
REMARK SMILES IDX 19 1 18 2 17 3 16 4 15 5 14 6 12 7 13 8 11 9 10 10 1 11 2 12
REMARK SMILES IDX 3 13 89 14 4 15 90 16 5 17 9 18 6 19 8 20 7 21 20 22 21 23
REMARK SMILES IDX 22 24 23 25 24 26 25 27 26 28 27 29 88 30 28 31 87 32 29 33
REMARK SMILES IDX 30 34 31 35 81 36 32 37 86 38 80 39 82 40 33 41 85 42 79 43
REMARK SMILES IDX 78 44 34 46 66 47 46 48 65 49 47 50 50 51 64 52 83 53 48 54
REMARK SMILES IDX 49 55 63 57 84 58 51 59 35 60 36 61 44 62 37 63 43 64 45 65
REMARK SMILES IDX 42 66 38 67 39 68 40 69 41 70 67 71 68 72 76 73 69 74 75 75
REMARK SMILES IDX 77 76 74 77 70 78 71 79 72 80 73 81 52 82 53 83 61 84 54 85
REMARK SMILES IDX 60 86 62 87 59 88 55 89 56 90 57 91 58 92
REMARK H PARENT 82 45 50 56
REMARK Flexibility Score: inf
ROOT
ATOM      1  C   UNL A   1      32.621  27.464  25.853  1.00  0.00     0.188 C 
ENDROOT
BRANCH   1   2
ATOM      2  C   UNL A   1      32.400  26.010  25.415  1.00  0.00     0.188 C 
BRANCH   2   3
ATOM      3  O   UNL A   1      31.061  25.596  25.141  1.00  0.00    -0.376 OA
BRANCH   3   4
ATOM      4  C   UNL A   1      30.344  24.932  26.174  1.00  0.00     0.202 C 
BRANCH   4   5
ATOM      5  C   UNL A   1      30.642  23.438  26.305  1.00  0.00     0.261 C 
BRANCH   5   6
ATOM      6  O   UNL A   1      31.417  23.152  27.486  1.00  0.00    -0.462 OA
BRANCH   6   7
ATOM      7  C   UNL A   1      32.675  22.673  27.286  1.00  0.00     0.326 C 
ATOM      8  O   UNL A   1      33.411  22.269  28.180  1.00  0.00    -0.250 OA
BRANCH   7   9
ATOM      9  C   UNL A   1      33.081  22.602  25.803  1.00  0.00     0.248 C 
BRANCH   9  10
ATOM     10  N   UNL A   1      33.728  21.365  25.360  1.00  0.00    -0.294 N 
ATOM     11  C   UNL A   1      33.000  18.035  25.743  1.00  0.00     0.064 C 
ATOM     12  C   UNL A   1      33.524  18.993  24.675  1.00  0.00     0.259 C 
ATOM     13  O   UNL A   1      34.926  18.831  24.640  1.00  0.00    -0.479 OA
ATOM     14  C   UNL A   1      32.881  20.358  24.922  1.00  0.00     0.268 C 
ATOM     15  C   UNL A   1      35.665  19.943  24.913  1.00  0.00     0.144 A 
ATOM     16  O   UNL A   1      31.664  20.520  24.796  1.00  0.00    -0.270 OA
ATOM     17  C   UNL A   1      37.048  19.729  24.845  1.00  0.00     0.049 A 
ATOM     18  C   UNL A   1      35.139  21.201  25.241  1.00  0.00     0.087 A 
ATOM     19  C   UNL A   1      37.933  20.779  25.047  1.00  0.00     0.004 A 
ATOM     20  C   UNL A   1      36.047  22.256  25.410  1.00  0.00     0.030 A 
ATOM     21  C   UNL A   1      37.430  22.049  25.292  1.00  0.00     0.002 A 
ENDBRANCH   9  10
ENDBRANCH   7   9
ENDBRANCH   6   7
ENDBRANCH   5   6
ENDBRANCH   4   5
ENDBRANCH   3   4
ENDBRANCH   2   3
ENDBRANCH   1   2
BRANCH   1  22
ATOM     22  O   UNL A   1      31.403  28.205  25.878  1.00  0.00    -0.376 OA
BRANCH  22  23
ATOM     23  C   UNL A   1      31.517  29.510  25.323  1.00  0.00     0.202 C 
BRANCH  23  24
ATOM     24  C   UNL A   1      31.904  30.508  26.417  1.00  0.00     0.261 C 
BRANCH  24  25
ATOM     25  O   UNL A   1      33.323  30.719  26.521  1.00  0.00    -0.460 OA
BRANCH  25  26
ATOM     26  C   UNL A   1      33.715  31.642  27.427  1.00  0.00     0.338 C 
ATOM     27  O   UNL A   1      33.059  32.570  27.861  1.00  0.00    -0.246 OA
BRANCH  26  28
ATOM     28  C   UNL A   1      35.054  31.261  27.909  1.00  0.00     0.060 A 
ATOM     29  C   UNL A   1      36.046  32.221  28.089  1.00  0.00     0.016 A 
ATOM     30  C   UNL A   1      35.300  29.924  28.223  1.00  0.00     0.016 A 
ATOM     31  C   UNL A   1      37.284  31.829  28.605  1.00  0.00     0.010 A 
ATOM     32  C   UNL A   1      36.524  29.538  28.769  1.00  0.00     0.010 A 
ATOM     33  C   UNL A   1      37.529  30.490  28.972  1.00  0.00    -0.014 A 
BRANCH  33  34
ATOM     34  C   UNL A   1      38.791  30.129  29.671  1.00  0.00     0.031 A 
ATOM     35  C   UNL A   1      39.156  30.720  31.003  1.00  0.00     0.074 A 
ATOM     36  C   UNL A   1      39.620  29.249  29.075  1.00  0.00     0.049 A 
ATOM     37  N   UNL A   1      40.123  30.374  31.813  1.00  0.00    -0.248 NA
ATOM     38  C   UNL A   1      38.350  31.855  31.483  1.00  0.00     0.031 C 
ATOM     39  C   UNL A   1      39.416  28.687  27.739  1.00  0.00     0.029 A 
ATOM     40  N   UNL A   1      40.778  28.655  29.513  1.00  0.00    -0.354 N 
ATOM     41  C   UNL A   1      40.027  31.221  32.911  1.00  0.00     0.074 A 
ATOM     42  C   UNL A   1      38.954  32.150  32.629  1.00  0.00     0.031 C 
ATOM     43  C   UNL A   1      40.375  27.782  27.493  1.00  0.00     0.029 A 
ATOM     44  C   UNL A   1      41.271  27.707  28.644  1.00  0.00     0.049 A 
ATOM     45  H   UNL A   1      41.213  28.883  30.367  1.00  0.00     0.167 HD
ATOM     46  C   UNL A   1      40.746  31.197  34.059  1.00  0.00     0.034 A 
ATOM     47  C   UNL A   1      42.301  26.845  28.774  1.00  0.00     0.034 A 
ATOM     48  C   UNL A   1      41.811  30.259  34.319  1.00  0.00     0.049 A 
ATOM     49  C   UNL A   1      43.067  26.820  30.073  1.00  0.00     0.074 A 
ATOM     50  C   UNL A   1      42.560  30.114  35.473  1.00  0.00     0.029 A 
ATOM     51  N   UNL A   1      42.275  29.308  33.421  1.00  0.00    -0.354 N 
ATOM     52  N   UNL A   1      42.872  27.531  31.159  1.00  0.00    -0.248 NA
ATOM     53  C   UNL A   1      44.177  25.863  30.178  1.00  0.00     0.031 C 
ATOM     54  C   UNL A   1      43.510  29.115  35.256  1.00  0.00     0.029 A 
ATOM     55  C   UNL A   1      43.311  28.587  33.990  1.00  0.00     0.049 A 
ATOM     56  H   UNL A   1      41.919  29.166  32.514  1.00  0.00     0.167 HD
ATOM     57  C   UNL A   1      43.808  27.080  32.086  1.00  0.00     0.074 A 
ATOM     58  C   UNL A   1      44.555  26.021  31.440  1.00  0.00     0.031 C 
ATOM     59  C   UNL A   1      44.030  27.510  33.353  1.00  0.00     0.034 A 
BRANCH  46  60
ATOM     60  C   UNL A   1      40.385  32.156  35.168  1.00  0.00     0.023 A 
ATOM     61  C   UNL A   1      39.385  31.827  36.104  1.00  0.00     0.031 A 
ATOM     62  C   UNL A   1      40.905  33.463  35.184  1.00  0.00     0.131 A 
ATOM     63  C   UNL A   1      38.909  32.807  36.986  1.00  0.00     0.055 A 
ATOM     64  C   UNL A   1      40.456  34.422  36.092  1.00  0.00     0.041 A 
ATOM     65  F   UNL A   1      41.853  33.830  34.305  1.00  0.00    -0.206 F 
ATOM     66  C   UNL A   1      39.442  34.100  36.989  1.00  0.00     0.022 A 
BRANCH  63  67
ATOM     67  S   UNL A   1      37.530  32.465  38.116  1.00  0.00     0.124 S 
ATOM     68  O   UNL A   1      38.052  32.961  39.388  1.00  0.00    -0.237 OA
ATOM     69  O   UNL A   1      36.454  33.259  37.532  1.00  0.00    -0.237 OA
ATOM     70  O   UNL A   1      37.365  31.018  38.038  1.00  0.00    -0.744 OA
ENDBRANCH  63  67
ENDBRANCH  46  60
BRANCH  47  71
ATOM     71  C   UNL A   1      42.567  25.854  27.690  1.00  0.00     0.023 A 
ATOM     72  C   UNL A   1      41.898  24.619  27.645  1.00  0.00     0.031 A 
ATOM     73  C   UNL A   1      43.571  26.097  26.736  1.00  0.00     0.131 A 
ATOM     74  C   UNL A   1      42.277  23.656  26.698  1.00  0.00     0.055 A 
ATOM     75  C   UNL A   1      43.899  25.162  25.754  1.00  0.00     0.041 A 
ATOM     76  F   UNL A   1      44.253  27.253  26.751  1.00  0.00    -0.206 F 
ATOM     77  C   UNL A   1      43.261  23.927  25.743  1.00  0.00     0.022 A 
BRANCH  74  78
ATOM     78  S   UNL A   1      41.598  21.974  26.762  1.00  0.00     0.124 S 
ATOM     79  O   UNL A   1      42.568  21.289  27.610  1.00  0.00    -0.237 OA
ATOM     80  O   UNL A   1      40.285  22.202  27.363  1.00  0.00    -0.237 OA
ATOM     81  O   UNL A   1      41.572  21.560  25.364  1.00  0.00    -0.744 OA
ENDBRANCH  74  78
ENDBRANCH  47  71
BRANCH  59  82
ATOM     82  C   UNL A   1      45.113  26.843  34.167  1.00  0.00     0.023 A 
ATOM     83  C   UNL A   1      44.815  25.694  34.925  1.00  0.00     0.031 A 
ATOM     84  C   UNL A   1      46.380  27.432  34.321  1.00  0.00     0.131 A 
ATOM     85  C   UNL A   1      45.756  25.196  35.834  1.00  0.00     0.055 A 
ATOM     86  C   UNL A   1      47.331  26.904  35.194  1.00  0.00     0.041 A 
ATOM     87  F   UNL A   1      46.706  28.536  33.630  1.00  0.00    -0.206 F 
ATOM     88  C   UNL A   1      47.015  25.789  35.967  1.00  0.00     0.022 A 
BRANCH  85  89
ATOM     89  S   UNL A   1      45.350  23.818  36.943  1.00  0.00     0.124 S 
ATOM     90  O   UNL A   1      46.676  23.341  37.330  1.00  0.00    -0.237 OA
ATOM     91  O   UNL A   1      44.596  24.487  38.001  1.00  0.00    -0.237 OA
ATOM     92  O   UNL A   1      44.581  22.905  36.106  1.00  0.00    -0.744 OA
ENDBRANCH  85  89
ENDBRANCH  59  82
ENDBRANCH  33  34
ENDBRANCH  26  28
ENDBRANCH  25  26
ENDBRANCH  24  25
ENDBRANCH  23  24
ENDBRANCH  22  23
ENDBRANCH   1  22
TORSDOF 21
ENDMDL
MODEL 3
REMARK VINA RESULT:     -10.5      1.819      2.618
REMARK SMILES C[C@@H]1Oc2ccccc2N(CC(=O)OCCOCCOCCOC(=O)c2ccc(-c3c4nc(c(-c5cc(S(=O)(=O)[O-])ccc5F)c5ccc([nH]5)c(-c5cc(S(=O)(=O)[O-])ccc5F)c5nc(c(-c6cc(S(=O)(=O)[O-])ccc6F)c6ccc3[nH]6)C=C5)C=C4)cc2)C1=O
REMARK SMILES IDX 19 1 18 2 17 3 16 4 15 5 14 6 12 7 13 8 11 9 10 10 1 11 2 12
REMARK SMILES IDX 3 13 89 14 4 15 90 16 5 17 9 18 6 19 8 20 7 21 20 22 21 23
REMARK SMILES IDX 22 24 23 25 24 26 25 27 26 28 27 29 88 30 28 31 87 32 29 33
REMARK SMILES IDX 30 34 31 35 81 36 32 37 86 38 80 39 82 40 33 41 85 42 79 43
REMARK SMILES IDX 78 44 34 46 66 47 46 48 65 49 47 50 50 51 64 52 83 53 48 54
REMARK SMILES IDX 49 55 63 57 84 58 51 59 35 60 36 61 44 62 37 63 43 64 45 65
REMARK SMILES IDX 42 66 38 67 39 68 40 69 41 70 67 71 68 72 76 73 69 74 75 75
REMARK SMILES IDX 77 76 74 77 70 78 71 79 72 80 73 81 52 82 53 83 61 84 54 85
REMARK SMILES IDX 60 86 62 87 59 88 55 89 56 90 57 91 58 92
REMARK H PARENT 82 45 50 56
REMARK Flexibility Score: inf
ROOT
ATOM      1  C   UNL A   1      32.516  27.882  27.258  1.00  0.00     0.188 C 
ENDROOT
BRANCH   1   2
ATOM      2  C   UNL A   1      31.937  26.704  26.461  1.00  0.00     0.188 C 
BRANCH   2   3
ATOM      3  O   UNL A   1      30.539  26.721  26.176  1.00  0.00    -0.376 OA
BRANCH   3   4
ATOM      4  C   UNL A   1      29.819  25.500  26.300  1.00  0.00     0.202 C 
BRANCH   4   5
ATOM      5  C   UNL A   1      30.621  24.245  25.954  1.00  0.00     0.261 C 
BRANCH   5   6
ATOM      6  O   UNL A   1      30.993  23.509  27.136  1.00  0.00    -0.462 OA
BRANCH   6   7
ATOM      7  C   UNL A   1      32.238  22.957  27.142  1.00  0.00     0.326 C 
ATOM      8  O   UNL A   1      32.765  22.452  28.128  1.00  0.00    -0.250 OA
BRANCH   7   9
ATOM      9  C   UNL A   1      32.915  22.945  25.760  1.00  0.00     0.248 C 
BRANCH   9  10
ATOM     10  N   UNL A   1      33.999  21.978  25.571  1.00  0.00    -0.294 N 
ATOM     11  C   UNL A   1      37.220  22.215  24.417  1.00  0.00     0.064 C 
ATOM     12  C   UNL A   1      36.429  21.501  25.511  1.00  0.00     0.259 C 
ATOM     13  O   UNL A   1      36.209  20.183  25.055  1.00  0.00    -0.479 OA
ATOM     14  C   UNL A   1      35.269  22.413  25.915  1.00  0.00     0.268 C 
ATOM     15  C   UNL A   1      34.908  19.802  24.926  1.00  0.00     0.144 A 
ATOM     16  O   UNL A   1      35.476  23.502  26.458  1.00  0.00    -0.270 OA
ATOM     17  C   UNL A   1      34.749  18.480  24.490  1.00  0.00     0.049 A 
ATOM     18  C   UNL A   1      33.798  20.620  25.188  1.00  0.00     0.087 A 
ATOM     19  C   UNL A   1      33.482  17.929  24.360  1.00  0.00     0.004 A 
ATOM     20  C   UNL A   1      32.527  20.036  25.081  1.00  0.00     0.030 A 
ATOM     21  C   UNL A   1      32.374  18.696  24.692  1.00  0.00     0.002 A 
ENDBRANCH   9  10
ENDBRANCH   7   9
ENDBRANCH   6   7
ENDBRANCH   5   6
ENDBRANCH   4   5
ENDBRANCH   3   4
ENDBRANCH   2   3
ENDBRANCH   1   2
BRANCH   1  22
ATOM     22  O   UNL A   1      31.645  29.010  27.251  1.00  0.00    -0.376 OA
BRANCH  22  23
ATOM     23  C   UNL A   1      31.938  29.953  26.226  1.00  0.00     0.202 C 
BRANCH  23  24
ATOM     24  C   UNL A   1      31.793  31.375  26.771  1.00  0.00     0.261 C 
BRANCH  24  25
ATOM     25  O   UNL A   1      32.961  32.188  26.562  1.00  0.00    -0.460 OA
BRANCH  25  26
ATOM     26  C   UNL A   1      33.362  32.923  27.624  1.00  0.00     0.338 C 
ATOM     27  O   UNL A   1      32.743  33.809  28.180  1.00  0.00    -0.246 OA
BRANCH  26  28
ATOM     28  C   UNL A   1      34.651  32.380  28.087  1.00  0.00     0.060 A 
ATOM     29  C   UNL A   1      35.808  33.152  28.039  1.00  0.00     0.016 A 
ATOM     30  C   UNL A   1      34.686  31.089  28.616  1.00  0.00     0.016 A 
ATOM     31  C   UNL A   1      37.000  32.623  28.544  1.00  0.00     0.010 A 
ATOM     32  C   UNL A   1      35.867  30.573  29.150  1.00  0.00     0.010 A 
ATOM     33  C   UNL A   1      37.037  31.339  29.125  1.00  0.00    -0.014 A 
BRANCH  33  34
ATOM     34  C   UNL A   1      38.273  30.865  29.802  1.00  0.00     0.031 A 
ATOM     35  C   UNL A   1      38.615  31.277  31.206  1.00  0.00     0.074 A 
ATOM     36  C   UNL A   1      39.099  30.046  29.120  1.00  0.00     0.049 A 
ATOM     37  N   UNL A   1      39.554  30.809  31.988  1.00  0.00    -0.248 NA
ATOM     38  C   UNL A   1      37.820  32.360  31.805  1.00  0.00     0.031 C 
ATOM     39  C   UNL A   1      38.919  29.660  27.720  1.00  0.00     0.029 A 
ATOM     40  N   UNL A   1      40.233  29.376  29.507  1.00  0.00    -0.354 N 
ATOM     41  C   UNL A   1      39.446  31.515  33.181  1.00  0.00     0.074 A 
ATOM     42  C   UNL A   1      38.400  32.496  32.992  1.00  0.00     0.031 C 
ATOM     43  C   UNL A   1      39.865  28.771  27.385  1.00  0.00     0.029 A 
ATOM     44  C   UNL A   1      40.730  28.533  28.538  1.00  0.00     0.049 A 
ATOM     45  H   UNL A   1      40.650  29.486  30.392  1.00  0.00     0.167 HD
ATOM     46  C   UNL A   1      40.134  31.331  34.334  1.00  0.00     0.034 A 
ATOM     47  C   UNL A   1      41.739  27.637  28.583  1.00  0.00     0.034 A 
ATOM     48  C   UNL A   1      41.173  30.344  34.498  1.00  0.00     0.049 A 
ATOM     49  C   UNL A   1      42.470  27.433  29.886  1.00  0.00     0.074 A 
ATOM     50  C   UNL A   1      41.889  30.039  35.643  1.00  0.00     0.029 A 
ATOM     51  N   UNL A   1      41.641  29.501  33.500  1.00  0.00    -0.354 N 
ATOM     52  N   UNL A   1      42.261  28.007  31.048  1.00  0.00    -0.248 NA
ATOM     53  C   UNL A   1      43.557  26.444  29.896  1.00  0.00     0.031 C 
ATOM     54  C   UNL A   1      42.823  29.053  35.324  1.00  0.00     0.029 A 
ATOM     55  C   UNL A   1      42.648  28.692  33.998  1.00  0.00     0.049 A 
ATOM     56  H   UNL A   1      41.306  29.483  32.575  1.00  0.00     0.167 HD
ATOM     57  C   UNL A   1      43.163  27.423  31.932  1.00  0.00     0.074 A 
ATOM     58  C   UNL A   1      43.905  26.435  31.177  1.00  0.00     0.031 C 
ATOM     59  C   UNL A   1      43.361  27.687  33.248  1.00  0.00     0.034 A 
BRANCH  46  60
ATOM     60  C   UNL A   1      39.764  32.153  35.546  1.00  0.00     0.023 A 
ATOM     61  C   UNL A   1      38.930  31.619  36.547  1.00  0.00     0.031 A 
ATOM     62  C   UNL A   1      40.091  33.520  35.613  1.00  0.00     0.131 A 
ATOM     63  C   UNL A   1      38.418  32.458  37.546  1.00  0.00     0.055 A 
ATOM     64  C   UNL A   1      39.612  34.340  36.634  1.00  0.00     0.041 A 
ATOM     65  F   UNL A   1      40.875  34.079  34.677  1.00  0.00    -0.206 F 
ATOM     66  C   UNL A   1      38.759  33.814  37.599  1.00  0.00     0.022 A 
BRANCH  63  67
ATOM     67  S   UNL A   1      37.234  31.842  38.776  1.00  0.00     0.124 S 
ATOM     68  O   UNL A   1      36.136  32.796  38.643  1.00  0.00    -0.237 OA
ATOM     69  O   UNL A   1      36.954  30.497  38.282  1.00  0.00    -0.237 OA
ATOM     70  O   UNL A   1      37.968  31.914  40.034  1.00  0.00    -0.744 OA
ENDBRANCH  63  67
ENDBRANCH  46  60
BRANCH  47  71
ATOM     71  C   UNL A   1      42.013  26.784  27.390  1.00  0.00     0.023 A 
ATOM     72  C   UNL A   1      41.650  25.425  27.361  1.00  0.00     0.031 A 
ATOM     73  C   UNL A   1      42.732  27.299  26.297  1.00  0.00     0.131 A 
ATOM     74  C   UNL A   1      42.052  24.621  26.285  1.00  0.00     0.055 A 
ATOM     75  C   UNL A   1      43.071  26.510  25.198  1.00  0.00     0.041 A 
ATOM     76  F   UNL A   1      43.118  28.585  26.288  1.00  0.00    -0.206 F 
ATOM     77  C   UNL A   1      42.745  25.159  25.196  1.00  0.00     0.022 A 
BRANCH  74  78
ATOM     78  S   UNL A   1      41.805  22.823  26.327  1.00  0.00     0.124 S 
ATOM     79  O   UNL A   1      42.436  22.461  27.592  1.00  0.00    -0.237 OA
ATOM     80  O   UNL A   1      40.347  22.719  26.296  1.00  0.00    -0.237 OA
ATOM     81  O   UNL A   1      42.482  22.355  25.124  1.00  0.00    -0.744 OA
ENDBRANCH  74  78
ENDBRANCH  47  71
BRANCH  59  82
ATOM     82  C   UNL A   1      44.408  26.899  33.997  1.00  0.00     0.023 A 
ATOM     83  C   UNL A   1      45.767  27.256  33.890  1.00  0.00     0.031 A 
ATOM     84  C   UNL A   1      44.084  25.710  34.674  1.00  0.00     0.131 A 
ATOM     85  C   UNL A   1      46.753  26.411  34.415  1.00  0.00     0.055 A 
ATOM     86  C   UNL A   1      45.069  24.896  35.236  1.00  0.00     0.041 A 
ATOM     87  F   UNL A   1      42.805  25.320  34.791  1.00  0.00    -0.206 F 
ATOM     88  C   UNL A   1      46.410  25.237  35.094  1.00  0.00     0.022 A 
BRANCH  85  89
ATOM     89  S   UNL A   1      48.516  26.754  34.156  1.00  0.00     0.124 S 
ATOM     90  O   UNL A   1      48.487  27.613  32.974  1.00  0.00    -0.237 OA
ATOM     91  O   UNL A   1      48.885  27.421  35.402  1.00  0.00    -0.237 OA
ATOM     92  O   UNL A   1      49.106  25.436  33.951  1.00  0.00    -0.744 OA
ENDBRANCH  85  89
ENDBRANCH  59  82
ENDBRANCH  33  34
ENDBRANCH  26  28
ENDBRANCH  25  26
ENDBRANCH  24  25
ENDBRANCH  23  24
ENDBRANCH  22  23
ENDBRANCH   1  22
TORSDOF 21
ENDMDL
