MODEL 1
REMARK VINA RESULT:      -9.3      0.000      0.000
REMARK SMILES O=C(CS(=O)(=O)NCc1ccc(N2CCOCC2)nc1)OCCOCCOCCOC(=O)c1ccc(-c2c3nc(c(-c4cc(S(=O)(=O)[O-])ccc4F)c4ccc([nH]4)c(-c4cc(S(=O)(=O)[O-])ccc4F)c4nc(c(-c5cc(S(=O)(=O)[O-])ccc5F)c5ccc2[nH]5)C=C4)C=C3)cc1
REMARK SMILES IDX 25 1 24 2 23 3 22 4 21 5 2 6 1 7 3 8 4 9 5 10 6 11 7 12 8 14
REMARK SMILES IDX 9 15 10 16 20 17 11 18 19 19 12 20 13 21 14 22 18 23 15 24
REMARK SMILES IDX 17 25 16 26 26 27 27 28 28 29 29 30 30 31 31 32 32 33 33 34
REMARK SMILES IDX 34 35 95 36 35 37 94 38 36 39 37 40 38 41 88 42 39 43 93 44
REMARK SMILES IDX 87 45 89 46 40 47 92 48 86 49 85 50 41 52 73 53 53 54 72 55
REMARK SMILES IDX 54 56 57 57 71 58 90 59 55 60 56 61 70 63 91 64 58 65 42 66
REMARK SMILES IDX 43 67 51 68 44 69 50 70 52 71 49 72 45 73 46 74 47 75 48 76
REMARK SMILES IDX 74 77 75 78 83 79 76 80 82 81 84 82 81 83 77 84 78 85 79 86
REMARK SMILES IDX 80 87 59 88 60 89 68 90 61 91 67 92 69 93 66 94 62 95 63 96
REMARK SMILES IDX 64 97 65 98
REMARK H PARENT 7 13 89 51 57 62
REMARK Flexibility Score: inf
ROOT
ATOM      1  C   UNL A   1      39.628  22.006  26.154  1.00  0.00     0.188 C 
ENDROOT
BRANCH   1   2
ATOM      2  O   UNL A   1      38.305  22.280  25.745  1.00  0.00    -0.376 OA
BRANCH   2   3
ATOM      3  C   UNL A   1      37.824  23.606  25.848  1.00  0.00     0.202 C 
BRANCH   3   4
ATOM      4  C   UNL A   1      36.312  23.736  25.851  1.00  0.00     0.261 C 
BRANCH   4   5
ATOM      5  O   UNL A   1      35.679  24.082  24.591  1.00  0.00    -0.462 OA
BRANCH   5   6
ATOM      6  C   UNL A   1      34.896  23.404  23.736  1.00  0.00     0.322 C 
ATOM      7  O   UNL A   1      34.677  23.914  22.635  1.00  0.00    -0.251 OA
BRANCH   6   8
ATOM      8  C   UNL A   1      34.195  22.153  24.102  1.00  0.00     0.276 C 
BRANCH   8   9
ATOM      9  S   UNL A   1      32.467  22.169  23.782  1.00  0.00     0.222 S 
ATOM     10  O   UNL A   1      32.217  21.590  22.485  1.00  0.00    -0.212 OA
ATOM     11  O   UNL A   1      31.825  21.590  24.945  1.00  0.00    -0.212 OA
BRANCH   9  12
ATOM     12  N   UNL A   1      31.968  23.744  23.784  1.00  0.00    -0.210 NA
ATOM     13  H   UNL A   1      31.895  23.999  22.798  1.00  0.00     0.141 HD
BRANCH  12  14
ATOM     14  C   UNL A   1      30.757  24.272  24.403  1.00  0.00     0.135 C 
BRANCH  14  15
ATOM     15  C   UNL A   1      30.407  25.691  24.080  1.00  0.00    -0.015 A 
ATOM     16  C   UNL A   1      29.111  26.075  23.739  1.00  0.00     0.010 A 
ATOM     17  C   UNL A   1      31.373  26.687  24.080  1.00  0.00     0.118 A 
ATOM     18  C   UNL A   1      28.835  27.418  23.492  1.00  0.00     0.047 A 
ATOM     19  N   UNL A   1      31.136  27.983  23.777  1.00  0.00    -0.239 NA
ATOM     20  C   UNL A   1      29.868  28.351  23.510  1.00  0.00     0.128 A 
BRANCH  20  21
ATOM     21  N   UNL A   1      29.625  29.645  23.135  1.00  0.00    -0.352 N 
ATOM     22  C   UNL A   1      29.844  30.778  24.027  1.00  0.00     0.146 C 
ATOM     23  C   UNL A   1      29.618  29.970  21.716  1.00  0.00     0.146 C 
ATOM     24  C   UNL A   1      28.781  31.847  23.715  1.00  0.00     0.181 C 
ATOM     25  C   UNL A   1      28.513  31.016  21.507  1.00  0.00     0.181 C 
ATOM     26  O   UNL A   1      28.743  32.189  22.314  1.00  0.00    -0.378 OA
ENDBRANCH  20  21
ENDBRANCH  14  15
ENDBRANCH  12  14
ENDBRANCH   9  12
ENDBRANCH   8   9
ENDBRANCH   6   8
ENDBRANCH   5   6
ENDBRANCH   4   5
ENDBRANCH   3   4
ENDBRANCH   2   3
ENDBRANCH   1   2
BRANCH   1  27
ATOM     27  C   UNL A   1      40.044  20.525  26.112  1.00  0.00     0.188 C 
BRANCH  27  28
ATOM     28  O   UNL A   1      41.192  20.080  26.818  1.00  0.00    -0.376 OA
BRANCH  28  29
ATOM     29  C   UNL A   1      41.857  18.893  26.413  1.00  0.00     0.202 C 
BRANCH  29  30
ATOM     30  C   UNL A   1      43.197  18.986  25.662  1.00  0.00     0.261 C 
BRANCH  30  31
ATOM     31  O   UNL A   1      43.350  20.107  24.767  1.00  0.00    -0.460 OA
BRANCH  31  32
ATOM     32  C   UNL A   1      44.367  20.958  25.062  1.00  0.00     0.338 C 
ATOM     33  O   UNL A   1      45.523  20.854  24.687  1.00  0.00    -0.246 OA
BRANCH  32  34
ATOM     34  C   UNL A   1      43.868  22.175  25.753  1.00  0.00     0.060 A 
ATOM     35  C   UNL A   1      43.465  23.258  24.956  1.00  0.00     0.016 A 
ATOM     36  C   UNL A   1      43.848  22.291  27.145  1.00  0.00     0.016 A 
ATOM     37  C   UNL A   1      43.120  24.480  25.538  1.00  0.00     0.010 A 
ATOM     38  C   UNL A   1      43.525  23.528  27.728  1.00  0.00     0.010 A 
ATOM     39  C   UNL A   1      43.218  24.644  26.924  1.00  0.00    -0.014 A 
BRANCH  39  40
ATOM     40  C   UNL A   1      43.303  26.027  27.478  1.00  0.00     0.031 A 
ATOM     41  C   UNL A   1      44.653  26.704  27.468  1.00  0.00     0.074 A 
ATOM     42  C   UNL A   1      42.223  26.704  27.914  1.00  0.00     0.049 A 
ATOM     43  N   UNL A   1      44.998  27.895  27.885  1.00  0.00    -0.248 NA
ATOM     44  C   UNL A   1      45.765  25.918  26.912  1.00  0.00     0.031 C 
ATOM     45  C   UNL A   1      40.852  26.199  27.921  1.00  0.00     0.029 A 
ATOM     46  N   UNL A   1      42.117  27.973  28.432  1.00  0.00    -0.354 N 
ATOM     47  C   UNL A   1      46.368  27.996  27.655  1.00  0.00     0.074 A 
ATOM     48  C   UNL A   1      46.793  26.729  27.102  1.00  0.00     0.031 C 
ATOM     49  C   UNL A   1      40.041  27.150  28.420  1.00  0.00     0.029 A 
ATOM     50  C   UNL A   1      40.836  28.320  28.798  1.00  0.00     0.049 A 
ATOM     51  H   UNL A   1      42.886  28.579  28.533  1.00  0.00     0.167 HD
ATOM     52  C   UNL A   1      47.196  29.048  27.872  1.00  0.00     0.034 A 
ATOM     53  C   UNL A   1      40.364  29.443  29.381  1.00  0.00     0.034 A 
ATOM     54  C   UNL A   1      46.767  30.306  28.430  1.00  0.00     0.049 A 
ATOM     55  C   UNL A   1      41.322  30.572  29.699  1.00  0.00     0.074 A 
ATOM     56  C   UNL A   1      47.522  31.439  28.680  1.00  0.00     0.029 A 
ATOM     57  N   UNL A   1      45.472  30.595  28.842  1.00  0.00    -0.354 N 
ATOM     58  N   UNL A   1      42.612  30.657  29.471  1.00  0.00    -0.248 NA
ATOM     59  C   UNL A   1      40.749  31.763  30.342  1.00  0.00     0.031 C 
ATOM     60  C   UNL A   1      46.705  32.379  29.318  1.00  0.00     0.029 A 
ATOM     61  C   UNL A   1      45.415  31.875  29.375  1.00  0.00     0.049 A 
ATOM     62  H   UNL A   1      44.706  29.982  28.765  1.00  0.00     0.167 HD
ATOM     63  C   UNL A   1      42.992  31.930  29.895  1.00  0.00     0.074 A 
ATOM     64  C   UNL A   1      41.794  32.575  30.388  1.00  0.00     0.031 C 
ATOM     65  C   UNL A   1      44.218  32.517  29.866  1.00  0.00     0.034 A 
BRANCH  52  66
ATOM     66  C   UNL A   1      48.664  28.844  27.567  1.00  0.00     0.023 A 
ATOM     67  C   UNL A   1      49.142  28.708  26.251  1.00  0.00     0.031 A 
ATOM     68  C   UNL A   1      49.594  28.733  28.617  1.00  0.00     0.131 A 
ATOM     69  C   UNL A   1      50.488  28.380  26.025  1.00  0.00     0.055 A 
ATOM     70  C   UNL A   1      50.950  28.501  28.380  1.00  0.00     0.041 A 
ATOM     71  F   UNL A   1      49.196  28.827  29.895  1.00  0.00    -0.206 F 
ATOM     72  C   UNL A   1      51.401  28.303  27.079  1.00  0.00     0.022 A 
BRANCH  69  73
ATOM     73  S   UNL A   1      50.990  27.884  24.353  1.00  0.00     0.124 S 
ATOM     74  O   UNL A   1      52.221  28.651  24.177  1.00  0.00    -0.237 OA
ATOM     75  O   UNL A   1      51.148  26.441  24.486  1.00  0.00    -0.237 OA
ATOM     76  O   UNL A   1      49.872  28.317  23.518  1.00  0.00    -0.744 OA
ENDBRANCH  69  73
ENDBRANCH  52  66
BRANCH  53  77
ATOM     77  C   UNL A   1      38.917  29.570  29.732  1.00  0.00     0.023 A 
ATOM     78  C   UNL A   1      38.044  30.345  28.950  1.00  0.00     0.031 A 
ATOM     79  C   UNL A   1      38.402  28.977  30.897  1.00  0.00     0.131 A 
ATOM     80  C   UNL A   1      36.719  30.547  29.368  1.00  0.00     0.055 A 
ATOM     81  C   UNL A   1      37.068  29.133  31.280  1.00  0.00     0.041 A 
ATOM     82  F   UNL A   1      39.192  28.232  31.687  1.00  0.00    -0.206 F 
ATOM     83  C   UNL A   1      36.221  29.934  30.520  1.00  0.00     0.022 A 
BRANCH  80  84
ATOM     84  S   UNL A   1      35.674  31.697  28.430  1.00  0.00     0.124 S 
ATOM     85  O   UNL A   1      36.671  32.528  27.765  1.00  0.00    -0.237 OA
ATOM     86  O   UNL A   1      34.918  30.789  27.574  1.00  0.00    -0.237 OA
ATOM     87  O   UNL A   1      34.891  32.367  29.466  1.00  0.00    -0.744 OA
ENDBRANCH  80  84
ENDBRANCH  53  77
BRANCH  65  88
ATOM     88  C   UNL A   1      44.310  33.962  30.309  1.00  0.00     0.023 A 
ATOM     89  C   UNL A   1      44.050  35.035  29.438  1.00  0.00     0.031 A 
ATOM     90  C   UNL A   1      44.685  34.266  31.631  1.00  0.00     0.131 A 
ATOM     91  C   UNL A   1      44.239  36.355  29.878  1.00  0.00     0.055 A 
ATOM     92  C   UNL A   1      44.800  35.582  32.083  1.00  0.00     0.041 A 
ATOM     93  F   UNL A   1      44.951  33.285  32.510  1.00  0.00    -0.206 F 
ATOM     94  C   UNL A   1      44.594  36.636  31.200  1.00  0.00     0.022 A 
BRANCH  91  95
ATOM     95  S   UNL A   1      44.140  37.702  28.664  1.00  0.00     0.124 S 
ATOM     96  O   UNL A   1      45.541  38.078  28.514  1.00  0.00    -0.237 OA
ATOM     97  O   UNL A   1      43.530  37.040  27.515  1.00  0.00    -0.237 OA
ATOM     98  O   UNL A   1      43.297  38.697  29.325  1.00  0.00    -0.744 OA
ENDBRANCH  91  95
ENDBRANCH  65  88
ENDBRANCH  39  40
ENDBRANCH  32  34
ENDBRANCH  31  32
ENDBRANCH  30  31
ENDBRANCH  29  30
ENDBRANCH  28  29
ENDBRANCH  27  28
ENDBRANCH   1  27
TORSDOF 25
ENDMDL
MODEL 2
REMARK VINA RESULT:      -8.9      5.677      8.946
REMARK SMILES O=C(CS(=O)(=O)NCc1ccc(N2CCOCC2)nc1)OCCOCCOCCOC(=O)c1ccc(-c2c3nc(c(-c4cc(S(=O)(=O)[O-])ccc4F)c4ccc([nH]4)c(-c4cc(S(=O)(=O)[O-])ccc4F)c4nc(c(-c5cc(S(=O)(=O)[O-])ccc5F)c5ccc2[nH]5)C=C4)C=C3)cc1
REMARK SMILES IDX 25 1 24 2 23 3 22 4 21 5 2 6 1 7 3 8 4 9 5 10 6 11 7 12 8 14
REMARK SMILES IDX 9 15 10 16 20 17 11 18 19 19 12 20 13 21 14 22 18 23 15 24
REMARK SMILES IDX 17 25 16 26 26 27 27 28 28 29 29 30 30 31 31 32 32 33 33 34
REMARK SMILES IDX 34 35 95 36 35 37 94 38 36 39 37 40 38 41 88 42 39 43 93 44
REMARK SMILES IDX 87 45 89 46 40 47 92 48 86 49 85 50 41 52 73 53 53 54 72 55
REMARK SMILES IDX 54 56 57 57 71 58 90 59 55 60 56 61 70 63 91 64 58 65 42 66
REMARK SMILES IDX 43 67 51 68 44 69 50 70 52 71 49 72 45 73 46 74 47 75 48 76
REMARK SMILES IDX 74 77 75 78 83 79 76 80 82 81 84 82 81 83 77 84 78 85 79 86
REMARK SMILES IDX 80 87 59 88 60 89 68 90 61 91 67 92 69 93 66 94 62 95 63 96
REMARK SMILES IDX 64 97 65 98
REMARK H PARENT 7 13 89 51 57 62
REMARK Flexibility Score: inf
ROOT
ATOM      1  C   UNL A   1      43.485  23.979  28.288  1.00  0.00     0.188 C 
ENDROOT
BRANCH   1   2
ATOM      2  O   UNL A   1      42.401  24.658  27.689  1.00  0.00    -0.376 OA
BRANCH   2   3
ATOM      3  C   UNL A   1      41.766  25.693  28.414  1.00  0.00     0.202 C 
BRANCH   3   4
ATOM      4  C   UNL A   1      40.266  25.790  28.204  1.00  0.00     0.261 C 
BRANCH   4   5
ATOM      5  O   UNL A   1      39.557  26.795  28.977  1.00  0.00    -0.462 OA
BRANCH   5   6
ATOM      6  C   UNL A   1      39.958  27.857  29.695  1.00  0.00     0.322 C 
ATOM      7  O   UNL A   1      40.585  28.741  29.106  1.00  0.00    -0.251 OA
BRANCH   6   8
ATOM      8  C   UNL A   1      39.791  27.948  31.163  1.00  0.00     0.276 C 
BRANCH   8   9
ATOM      9  S   UNL A   1      38.332  28.781  31.677  1.00  0.00     0.222 S 
ATOM     10  O   UNL A   1      37.514  29.067  30.524  1.00  0.00    -0.212 OA
ATOM     11  O   UNL A   1      37.769  27.999  32.760  1.00  0.00    -0.212 OA
BRANCH   9  12
ATOM     12  N   UNL A   1      38.785  30.199  32.392  1.00  0.00    -0.210 NA
ATOM     13  H   UNL A   1      39.678  29.995  32.841  1.00  0.00     0.141 HD
BRANCH  12  14
ATOM     14  C   UNL A   1      38.978  31.485  31.729  1.00  0.00     0.135 C 
BRANCH  14  15
ATOM     15  C   UNL A   1      37.748  32.307  31.498  1.00  0.00    -0.015 A 
ATOM     16  C   UNL A   1      37.216  32.503  30.224  1.00  0.00     0.010 A 
ATOM     17  C   UNL A   1      37.099  32.938  32.549  1.00  0.00     0.118 A 
ATOM     18  C   UNL A   1      36.044  33.241  30.075  1.00  0.00     0.047 A 
ATOM     19  N   UNL A   1      36.000  33.714  32.414  1.00  0.00    -0.239 NA
ATOM     20  C   UNL A   1      35.461  33.843  31.187  1.00  0.00     0.128 A 
BRANCH  20  21
ATOM     21  N   UNL A   1      34.389  34.680  31.025  1.00  0.00    -0.352 N 
ATOM     22  C   UNL A   1      33.531  34.642  29.846  1.00  0.00     0.146 C 
ATOM     23  C   UNL A   1      33.785  35.277  32.208  1.00  0.00     0.146 C 
ATOM     24  C   UNL A   1      33.054  36.077  29.554  1.00  0.00     0.181 C 
ATOM     25  C   UNL A   1      33.372  36.704  31.822  1.00  0.00     0.181 C 
ATOM     26  O   UNL A   1      32.454  36.701  30.709  1.00  0.00    -0.378 OA
ENDBRANCH  20  21
ENDBRANCH  14  15
ENDBRANCH  12  14
ENDBRANCH   9  12
ENDBRANCH   8   9
ENDBRANCH   6   8
ENDBRANCH   5   6
ENDBRANCH   4   5
ENDBRANCH   3   4
ENDBRANCH   2   3
ENDBRANCH   1   2
BRANCH   1  27
ATOM     27  C   UNL A   1      44.848  24.164  27.596  1.00  0.00     0.188 C 
BRANCH  27  28
ATOM     28  O   UNL A   1      44.954  24.075  26.183  1.00  0.00    -0.376 OA
BRANCH  28  29
ATOM     29  C   UNL A   1      46.209  23.785  25.585  1.00  0.00     0.202 C 
BRANCH  29  30
ATOM     30  C   UNL A   1      47.103  24.935  25.090  1.00  0.00     0.261 C 
BRANCH  30  31
ATOM     31  O   UNL A   1      46.460  25.938  24.278  1.00  0.00    -0.460 OA
BRANCH  31  32
ATOM     32  C   UNL A   1      46.689  27.226  24.646  1.00  0.00     0.338 C 
ATOM     33  O   UNL A   1      47.160  28.103  23.941  1.00  0.00    -0.246 OA
BRANCH  32  34
ATOM     34  C   UNL A   1      46.110  27.515  25.983  1.00  0.00     0.060 A 
ATOM     35  C   UNL A   1      44.711  27.556  26.092  1.00  0.00     0.016 A 
ATOM     36  C   UNL A   1      46.902  27.801  27.097  1.00  0.00     0.016 A 
ATOM     37  C   UNL A   1      44.101  27.960  27.282  1.00  0.00     0.010 A 
ATOM     38  C   UNL A   1      46.288  28.232  28.286  1.00  0.00     0.010 A 
ATOM     39  C   UNL A   1      44.887  28.370  28.364  1.00  0.00    -0.014 A 
BRANCH  39  40
ATOM     40  C   UNL A   1      44.264  29.215  29.424  1.00  0.00     0.031 A 
ATOM     41  C   UNL A   1      43.943  28.556  30.745  1.00  0.00     0.074 A 
ATOM     42  C   UNL A   1      44.047  30.535  29.270  1.00  0.00     0.049 A 
ATOM     43  N   UNL A   1      43.404  29.060  31.825  1.00  0.00    -0.248 NA
ATOM     44  C   UNL A   1      44.274  27.127  30.852  1.00  0.00     0.031 C 
ATOM     45  C   UNL A   1      44.369  31.312  28.076  1.00  0.00     0.029 A 
ATOM     46  N   UNL A   1      43.506  31.456  30.135  1.00  0.00    -0.354 N 
ATOM     47  C   UNL A   1      43.320  28.008  32.734  1.00  0.00     0.074 A 
ATOM     48  C   UNL A   1      43.823  26.832  32.060  1.00  0.00     0.031 C 
ATOM     49  C   UNL A   1      44.018  32.595  28.284  1.00  0.00     0.029 A 
ATOM     50  C   UNL A   1      43.418  32.726  29.613  1.00  0.00     0.049 A 
ATOM     51  H   UNL A   1      43.209  31.229  31.045  1.00  0.00     0.167 HD
ATOM     52  C   UNL A   1      42.875  28.019  34.016  1.00  0.00     0.034 A 
ATOM     53  C   UNL A   1      42.902  33.858  30.140  1.00  0.00     0.034 A 
ATOM     54  C   UNL A   1      42.367  29.194  34.680  1.00  0.00     0.049 A 
ATOM     55  C   UNL A   1      42.327  33.828  31.540  1.00  0.00     0.074 A 
ATOM     56  C   UNL A   1      41.903  29.316  35.978  1.00  0.00     0.029 A 
ATOM     57  N   UNL A   1      42.240  30.448  34.095  1.00  0.00    -0.354 N 
ATOM     58  N   UNL A   1      42.259  32.829  32.390  1.00  0.00    -0.248 NA
ATOM     59  C   UNL A   1      41.772  35.088  32.054  1.00  0.00     0.031 C 
ATOM     60  C   UNL A   1      41.418  30.617  36.151  1.00  0.00     0.029 A 
ATOM     61  C   UNL A   1      41.673  31.339  34.995  1.00  0.00     0.049 A 
ATOM     62  H   UNL A   1      42.513  30.672  33.176  1.00  0.00     0.167 HD
ATOM     63  C   UNL A   1      41.702  33.356  33.555  1.00  0.00     0.074 A 
ATOM     64  C   UNL A   1      41.457  34.759  33.297  1.00  0.00     0.031 C 
ATOM     65  C   UNL A   1      41.430  32.739  34.735  1.00  0.00     0.034 A 
BRANCH  52  66
ATOM     66  C   UNL A   1      42.856  26.696  34.751  1.00  0.00     0.023 A 
ATOM     67  C   UNL A   1      44.034  26.083  35.214  1.00  0.00     0.031 A 
ATOM     68  C   UNL A   1      41.641  26.014  34.943  1.00  0.00     0.131 A 
ATOM     69  C   UNL A   1      43.980  24.792  35.763  1.00  0.00     0.055 A 
ATOM     70  C   UNL A   1      41.585  24.771  35.576  1.00  0.00     0.041 A 
ATOM     71  F   UNL A   1      40.487  26.535  34.499  1.00  0.00    -0.206 F 
ATOM     72  C   UNL A   1      42.761  24.144  35.973  1.00  0.00     0.022 A 
BRANCH  69  73
ATOM     73  S   UNL A   1      45.539  23.903  36.038  1.00  0.00     0.124 S 
ATOM     74  O   UNL A   1      45.500  22.907  34.970  1.00  0.00    -0.237 OA
ATOM     75  O   UNL A   1      46.534  24.958  35.894  1.00  0.00    -0.237 OA
ATOM     76  O   UNL A   1      45.390  23.362  37.388  1.00  0.00    -0.744 OA
ENDBRANCH  69  73
ENDBRANCH  52  66
BRANCH  53  77
ATOM     77  C   UNL A   1      42.876  35.124  29.348  1.00  0.00     0.023 A 
ATOM     78  C   UNL A   1      44.002  35.962  29.277  1.00  0.00     0.031 A 
ATOM     79  C   UNL A   1      41.699  35.553  28.711  1.00  0.00     0.131 A 
ATOM     80  C   UNL A   1      43.913  37.204  28.629  1.00  0.00     0.055 A 
ATOM     81  C   UNL A   1      41.631  36.764  28.019  1.00  0.00     0.041 A 
ATOM     82  F   UNL A   1      40.590  34.798  28.752  1.00  0.00    -0.206 F 
ATOM     83  C   UNL A   1      42.740  37.605  27.986  1.00  0.00     0.022 A 
BRANCH  80  84
ATOM     84  S   UNL A   1      45.331  38.335  28.712  1.00  0.00     0.124 S 
ATOM     85  O   UNL A   1      45.583  38.598  27.300  1.00  0.00    -0.237 OA
ATOM     86  O   UNL A   1      44.787  39.445  29.487  1.00  0.00    -0.237 OA
ATOM     87  O   UNL A   1      46.356  37.547  29.395  1.00  0.00    -0.744 OA
ENDBRANCH  80  84
ENDBRANCH  53  77
BRANCH  65  88
ATOM     88  C   UNL A   1      40.911  33.598  35.868  1.00  0.00     0.023 A 
ATOM     89  C   UNL A   1      41.761  34.372  36.678  1.00  0.00     0.031 A 
ATOM     90  C   UNL A   1      39.532  33.624  36.151  1.00  0.00     0.131 A 
ATOM     91  C   UNL A   1      41.234  35.079  37.772  1.00  0.00     0.055 A 
ATOM     92  C   UNL A   1      39.006  34.388  37.194  1.00  0.00     0.041 A 
ATOM     93  F   UNL A   1      38.668  32.904  35.416  1.00  0.00    -0.206 F 
ATOM     94  C   UNL A   1      39.860  35.106  38.024  1.00  0.00     0.022 A 
BRANCH  91  95
ATOM     95  S   UNL A   1      42.383  35.860  38.941  1.00  0.00     0.124 S 
ATOM     96  O   UNL A   1      42.212  37.275  38.634  1.00  0.00    -0.237 OA
ATOM     97  O   UNL A   1      41.861  35.419  40.231  1.00  0.00    -0.237 OA
ATOM     98  O   UNL A   1      43.681  35.297  38.573  1.00  0.00    -0.744 OA
ENDBRANCH  91  95
ENDBRANCH  65  88
ENDBRANCH  39  40
ENDBRANCH  32  34
ENDBRANCH  31  32
ENDBRANCH  30  31
ENDBRANCH  29  30
ENDBRANCH  28  29
ENDBRANCH  27  28
ENDBRANCH   1  27
TORSDOF 25
ENDMDL
MODEL 3
REMARK VINA RESULT:      -8.8      3.177      8.195
REMARK SMILES O=C(CS(=O)(=O)NCc1ccc(N2CCOCC2)nc1)OCCOCCOCCOC(=O)c1ccc(-c2c3nc(c(-c4cc(S(=O)(=O)[O-])ccc4F)c4ccc([nH]4)c(-c4cc(S(=O)(=O)[O-])ccc4F)c4nc(c(-c5cc(S(=O)(=O)[O-])ccc5F)c5ccc2[nH]5)C=C4)C=C3)cc1
REMARK SMILES IDX 25 1 24 2 23 3 22 4 21 5 2 6 1 7 3 8 4 9 5 10 6 11 7 12 8 14
REMARK SMILES IDX 9 15 10 16 20 17 11 18 19 19 12 20 13 21 14 22 18 23 15 24
REMARK SMILES IDX 17 25 16 26 26 27 27 28 28 29 29 30 30 31 31 32 32 33 33 34
REMARK SMILES IDX 34 35 95 36 35 37 94 38 36 39 37 40 38 41 88 42 39 43 93 44
REMARK SMILES IDX 87 45 89 46 40 47 92 48 86 49 85 50 41 52 73 53 53 54 72 55
REMARK SMILES IDX 54 56 57 57 71 58 90 59 55 60 56 61 70 63 91 64 58 65 42 66
REMARK SMILES IDX 43 67 51 68 44 69 50 70 52 71 49 72 45 73 46 74 47 75 48 76
REMARK SMILES IDX 74 77 75 78 83 79 76 80 82 81 84 82 81 83 77 84 78 85 79 86
REMARK SMILES IDX 80 87 59 88 60 89 68 90 61 91 67 92 69 93 66 94 62 95 63 96
REMARK SMILES IDX 64 97 65 98
REMARK H PARENT 7 13 89 51 57 62
REMARK Flexibility Score: inf
ROOT
ATOM      1  C   UNL A   1      38.822  22.962  26.520  1.00  0.00     0.188 C 
ENDROOT
BRANCH   1   2
ATOM      2  O   UNL A   1      37.794  22.779  25.569  1.00  0.00    -0.376 OA
BRANCH   2   3
ATOM      3  C   UNL A   1      37.471  21.464  25.164  1.00  0.00     0.202 C 
BRANCH   3   4
ATOM      4  C   UNL A   1      35.990  21.204  24.962  1.00  0.00     0.261 C 
BRANCH   4   5
ATOM      5  O   UNL A   1      35.172  21.099  26.158  1.00  0.00    -0.462 OA
BRANCH   5   6
ATOM      6  C   UNL A   1      34.276  21.916  26.737  1.00  0.00     0.322 C 
ATOM      7  O   UNL A   1      33.739  21.528  27.777  1.00  0.00    -0.251 OA
BRANCH   6   8
ATOM      8  C   UNL A   1      33.822  23.182  26.119  1.00  0.00     0.276 C 
BRANCH   8   9
ATOM      9  S   UNL A   1      32.077  23.337  25.982  1.00  0.00     0.222 S 
ATOM     10  O   UNL A   1      31.539  22.147  25.371  1.00  0.00    -0.212 OA
ATOM     11  O   UNL A   1      31.593  23.736  27.289  1.00  0.00    -0.212 OA
BRANCH   9  12
ATOM     12  N   UNL A   1      31.760  24.639  25.016  1.00  0.00    -0.210 NA
ATOM     13  H   UNL A   1      32.636  24.825  24.527  1.00  0.00     0.141 HD
BRANCH  12  14
ATOM     14  C   UNL A   1      30.725  24.731  23.992  1.00  0.00     0.135 C 
BRANCH  14  15
ATOM     15  C   UNL A   1      30.312  26.110  23.582  1.00  0.00    -0.015 A 
ATOM     16  C   UNL A   1      31.198  26.999  22.973  1.00  0.00     0.010 A 
ATOM     17  C   UNL A   1      29.027  26.575  23.820  1.00  0.00     0.118 A 
ATOM     18  C   UNL A   1      30.745  28.254  22.573  1.00  0.00     0.047 A 
ATOM     19  N   UNL A   1      28.590  27.814  23.499  1.00  0.00    -0.239 NA
ATOM     20  C   UNL A   1      29.437  28.639  22.856  1.00  0.00     0.128 A 
BRANCH  20  21
ATOM     21  N   UNL A   1      29.031  29.918  22.587  1.00  0.00    -0.352 N 
ATOM     22  C   UNL A   1      28.837  30.919  23.630  1.00  0.00     0.146 C 
ATOM     23  C   UNL A   1      29.253  30.455  21.252  1.00  0.00     0.146 C 
ATOM     24  C   UNL A   1      27.674  31.835  23.206  1.00  0.00     0.181 C 
ATOM     25  C   UNL A   1      28.033  31.325  20.915  1.00  0.00     0.181 C 
ATOM     26  O   UNL A   1      27.860  32.381  21.883  1.00  0.00    -0.378 OA
ENDBRANCH  20  21
ENDBRANCH  14  15
ENDBRANCH  12  14
ENDBRANCH   9  12
ENDBRANCH   8   9
ENDBRANCH   6   8
ENDBRANCH   5   6
ENDBRANCH   4   5
ENDBRANCH   3   4
ENDBRANCH   2   3
ENDBRANCH   1   2
BRANCH   1  27
ATOM     27  C   UNL A   1      39.930  21.894  26.512  1.00  0.00     0.188 C 
BRANCH  27  28
ATOM     28  O   UNL A   1      41.286  22.262  26.722  1.00  0.00    -0.376 OA
BRANCH  28  29
ATOM     29  C   UNL A   1      42.270  21.917  25.759  1.00  0.00     0.202 C 
BRANCH  29  30
ATOM     30  C   UNL A   1      43.036  23.029  25.019  1.00  0.00     0.261 C 
BRANCH  30  31
ATOM     31  O   UNL A   1      42.719  24.383  25.400  1.00  0.00    -0.460 OA
BRANCH  31  32
ATOM     32  C   UNL A   1      43.764  25.252  25.395  1.00  0.00     0.338 C 
ATOM     33  O   UNL A   1      44.718  25.227  24.635  1.00  0.00    -0.246 OA
BRANCH  32  34
ATOM     34  C   UNL A   1      43.521  26.391  26.318  1.00  0.00     0.060 A 
ATOM     35  C   UNL A   1      42.787  27.482  25.827  1.00  0.00     0.016 A 
ATOM     36  C   UNL A   1      44.044  26.430  27.612  1.00  0.00     0.016 A 
ATOM     37  C   UNL A   1      42.642  28.643  26.591  1.00  0.00     0.010 A 
ATOM     38  C   UNL A   1      43.920  27.608  28.370  1.00  0.00     0.010 A 
ATOM     39  C   UNL A   1      43.270  28.740  27.838  1.00  0.00    -0.014 A 
BRANCH  39  40
ATOM     40  C   UNL A   1      43.501  30.094  28.421  1.00  0.00     0.031 A 
ATOM     41  C   UNL A   1      42.609  30.528  29.560  1.00  0.00     0.074 A 
ATOM     42  C   UNL A   1      44.505  30.897  28.019  1.00  0.00     0.049 A 
ATOM     43  N   UNL A   1      42.600  31.645  30.240  1.00  0.00    -0.248 NA
ATOM     44  C   UNL A   1      41.583  29.562  29.980  1.00  0.00     0.031 C 
ATOM     45  C   UNL A   1      45.480  30.580  26.979  1.00  0.00     0.029 A 
ATOM     46  N   UNL A   1      44.870  32.151  28.451  1.00  0.00    -0.354 N 
ATOM     47  C   UNL A   1      41.561  31.522  31.159  1.00  0.00     0.074 A 
ATOM     48  C   UNL A   1      40.938  30.239  30.916  1.00  0.00     0.031 C 
ATOM     49  C   UNL A   1      46.333  31.613  26.853  1.00  0.00     0.029 A 
ATOM     50  C   UNL A   1      45.948  32.679  27.779  1.00  0.00     0.049 A 
ATOM     51  H   UNL A   1      44.403  32.627  29.175  1.00  0.00     0.167 HD
ATOM     52  C   UNL A   1      41.164  32.389  32.123  1.00  0.00     0.034 A 
ATOM     53  C   UNL A   1      46.546  33.886  27.890  1.00  0.00     0.034 A 
ATOM     54  C   UNL A   1      41.785  33.671  32.356  1.00  0.00     0.049 A 
ATOM     55  C   UNL A   1      46.031  34.876  28.913  1.00  0.00     0.074 A 
ATOM     56  C   UNL A   1      41.469  34.619  33.313  1.00  0.00     0.029 A 
ATOM     57  N   UNL A   1      42.837  34.193  31.613  1.00  0.00    -0.354 N 
ATOM     58  N   UNL A   1      45.052  34.745  29.778  1.00  0.00    -0.248 NA
ATOM     59  C   UNL A   1      46.716  36.175  28.978  1.00  0.00     0.031 C 
ATOM     60  C   UNL A   1      42.271  35.745  33.096  1.00  0.00     0.029 A 
ATOM     61  C   UNL A   1      43.158  35.463  32.069  1.00  0.00     0.049 A 
ATOM     62  H   UNL A   1      43.289  33.728  30.872  1.00  0.00     0.167 HD
ATOM     63  C   UNL A   1      45.041  35.924  30.524  1.00  0.00     0.074 A 
ATOM     64  C   UNL A   1      46.112  36.749  30.008  1.00  0.00     0.031 C 
ATOM     65  C   UNL A   1      44.228  36.285  31.552  1.00  0.00     0.034 A 
BRANCH  52  66
ATOM     66  C   UNL A   1      39.957  32.000  32.948  1.00  0.00     0.023 A 
ATOM     67  C   UNL A   1      38.665  32.465  32.646  1.00  0.00     0.031 A 
ATOM     68  C   UNL A   1      40.114  31.191  34.088  1.00  0.00     0.131 A 
ATOM     69  C   UNL A   1      37.601  32.192  33.521  1.00  0.00     0.055 A 
ATOM     70  C   UNL A   1      39.033  30.846  34.902  1.00  0.00     0.041 A 
ATOM     71  F   UNL A   1      41.326  30.739  34.445  1.00  0.00    -0.206 F 
ATOM     72  C   UNL A   1      37.771  31.363  34.631  1.00  0.00     0.022 A 
BRANCH  69  73
ATOM     73  S   UNL A   1      36.035  33.079  33.282  1.00  0.00     0.124 S 
ATOM     74  O   UNL A   1      35.605  33.290  34.662  1.00  0.00    -0.237 OA
ATOM     75  O   UNL A   1      36.454  34.269  32.553  1.00  0.00    -0.237 OA
ATOM     76  O   UNL A   1      35.220  32.133  32.522  1.00  0.00    -0.744 OA
ENDBRANCH  69  73
ENDBRANCH  52  66
BRANCH  53  77
ATOM     77  C   UNL A   1      47.689  34.254  27.003  1.00  0.00     0.023 A 
ATOM     78  C   UNL A   1      49.017  33.974  27.371  1.00  0.00     0.031 A 
ATOM     79  C   UNL A   1      47.476  34.961  25.806  1.00  0.00     0.131 A 
ATOM     80  C   UNL A   1      50.078  34.438  26.578  1.00  0.00     0.055 A 
ATOM     81  C   UNL A   1      48.533  35.372  24.992  1.00  0.00     0.041 A 
ATOM     82  F   UNL A   1      46.231  35.264  25.409  1.00  0.00    -0.206 F 
ATOM     83  C   UNL A   1      49.846  35.123  25.383  1.00  0.00     0.022 A 
BRANCH  80  84
ATOM     84  S   UNL A   1      51.777  34.213  27.176  1.00  0.00     0.124 S 
ATOM     85  O   UNL A   1      52.531  35.050  26.250  1.00  0.00    -0.237 OA
ATOM     86  O   UNL A   1      51.680  34.697  28.550  1.00  0.00    -0.237 OA
ATOM     87  O   UNL A   1      51.997  32.774  27.041  1.00  0.00    -0.744 OA
ENDBRANCH  80  84
ENDBRANCH  53  77
BRANCH  65  88
ATOM     88  C   UNL A   1      44.518  37.601  32.242  1.00  0.00     0.023 A 
ATOM     89  C   UNL A   1      43.783  38.769  31.976  1.00  0.00     0.031 A 
ATOM     90  C   UNL A   1      45.570  37.685  33.174  1.00  0.00     0.131 A 
ATOM     91  C   UNL A   1      44.155  39.983  32.577  1.00  0.00     0.055 A 
ATOM     92  C   UNL A   1      45.887  38.879  33.824  1.00  0.00     0.041 A 
ATOM     93  F   UNL A   1      46.312  36.605  33.469  1.00  0.00    -0.206 F 
ATOM     94  C   UNL A   1      45.191  40.041  33.513  1.00  0.00     0.022 A 
BRANCH  91  95
ATOM     95  S   UNL A   1      43.351  41.514  32.023  1.00  0.00     0.124 S 
ATOM     96  O   UNL A   1      43.823  42.479  33.009  1.00  0.00    -0.237 OA
ATOM     97  O   UNL A   1      43.880  41.671  30.672  1.00  0.00    -0.237 OA
ATOM     98  O   UNL A   1      41.925  41.198  32.097  1.00  0.00    -0.744 OA
ENDBRANCH  91  95
ENDBRANCH  65  88
ENDBRANCH  39  40
ENDBRANCH  32  34
ENDBRANCH  31  32
ENDBRANCH  30  31
ENDBRANCH  29  30
ENDBRANCH  28  29
ENDBRANCH  27  28
ENDBRANCH   1  27
TORSDOF 25
ENDMDL
