MODEL 1
REMARK VINA RESULT:     -10.1      0.000      0.000
REMARK SMILES Cc1cc(N2CCCC2)nc2sc3c(=O)n(CC(=O)OCCOCCOCCOC(=O)c4ccc(-c5c6nc(c(-c7cc(S(=O)(=O)[O-])ccc7F)c7ccc([nH]7)c(-c7cc(S(=O)(=O)[O-])ccc7F)c7nc(c(-c8cc(S(=O)(=O)[O-])ccc8F)c8ccc5[nH]8)C=C7)C=C6)cc4)cnc3c12
REMARK SMILES IDX 25 1 24 2 23 3 22 4 21 5 20 6 18 7 19 8 17 9 16 10 1 11 2 12
REMARK SMILES IDX 3 13 98 14 4 15 11 16 97 17 10 18 12 19 13 20 96 21 14 22
REMARK SMILES IDX 95 23 15 24 5 25 6 26 9 27 7 28 8 29 26 30 27 31 28 32 29 33
REMARK SMILES IDX 30 34 31 35 32 36 33 37 94 38 34 39 93 40 35 41 36 42 37 43
REMARK SMILES IDX 87 44 38 45 92 46 86 47 88 48 39 49 91 50 85 51 84 52 40 54
REMARK SMILES IDX 72 55 52 56 71 57 53 58 56 59 70 60 89 61 54 62 55 63 69 65
REMARK SMILES IDX 90 66 57 67 41 68 42 69 50 70 43 71 49 72 51 73 48 74 44 75
REMARK SMILES IDX 45 76 46 77 47 78 73 79 74 80 82 81 75 82 81 83 83 84 80 85
REMARK SMILES IDX 76 86 77 87 78 88 79 89 58 90 59 91 67 92 60 93 66 94 68 95
REMARK SMILES IDX 65 96 61 97 62 98 63 99 64 100
REMARK H PARENT 88 53 56 64
REMARK Flexibility Score: inf
ROOT
ATOM      1  C   UNL A   1      31.581  29.800  25.054  1.00  0.00     0.188 C 
ENDROOT
BRANCH   1   2
ATOM      2  C   UNL A   1      32.795  29.099  24.423  1.00  0.00     0.188 C 
BRANCH   2   3
ATOM      3  O   UNL A   1      32.638  28.314  23.238  1.00  0.00    -0.376 OA
BRANCH   3   4
ATOM      4  C   UNL A   1      31.364  27.757  22.958  1.00  0.00     0.202 C 
BRANCH   4   5
ATOM      5  C   UNL A   1      31.176  26.341  23.509  1.00  0.00     0.261 C 
BRANCH   5   6
ATOM      6  O   UNL A   1      31.546  25.316  22.562  1.00  0.00    -0.462 OA
BRANCH   6   7
ATOM      7  C   UNL A   1      32.749  24.725  22.766  1.00  0.00     0.326 C 
ATOM      8  O   UNL A   1      33.745  24.912  22.072  1.00  0.00    -0.250 OA
BRANCH   7   9
ATOM      9  C   UNL A   1      32.802  23.811  23.989  1.00  0.00     0.249 C 
BRANCH   9  10
ATOM     10  N   UNL A   1      34.085  23.497  24.613  1.00  0.00    -0.287 N 
ATOM     11  C   UNL A   1      38.868  24.865  27.181  1.00  0.00     0.045 C 
ATOM     12  C   UNL A   1      38.983  23.461  26.649  1.00  0.00    -0.035 A 
ATOM     13  C   UNL A   1      40.202  22.773  26.802  1.00  0.00     0.051 A 
ATOM     14  C   UNL A   1      37.941  22.773  25.977  1.00  0.00     0.041 A 
ATOM     15  C   UNL A   1      40.370  21.472  26.327  1.00  0.00     0.130 A 
ATOM     16  C   UNL A   1      38.218  21.464  25.579  1.00  0.00     0.128 A 
ATOM     17  C   UNL A   1      36.611  23.118  25.565  1.00  0.00     0.098 A 
ATOM     18  N   UNL A   1      39.386  20.802  25.704  1.00  0.00    -0.220 NA
ATOM     19  S   UNL A   1      36.865  20.681  24.872  1.00  0.00    -0.108 S 
ATOM     20  C   UNL A   1      35.919  22.076  25.009  1.00  0.00     0.121 A 
ATOM     21  N   UNL A   1      36.045  24.400  25.664  1.00  0.00    -0.236 NA
ATOM     22  C   UNL A   1      34.565  22.192  24.541  1.00  0.00     0.271 A 
ATOM     23  C   UNL A   1      34.860  24.504  25.152  1.00  0.00     0.203 A 
ATOM     24  O   UNL A   1      33.886  21.268  24.097  1.00  0.00    -0.268 OA
BRANCH  15  25
ATOM     25  N   UNL A   1      41.584  20.828  26.446  1.00  0.00    -0.357 N 
ATOM     26  C   UNL A   1      42.837  21.432  26.015  1.00  0.00     0.118 C 
ATOM     27  C   UNL A   1      41.590  19.381  26.284  1.00  0.00     0.118 C 
ATOM     28  C   UNL A   1      43.607  20.276  25.380  1.00  0.00     0.023 C 
ATOM     29  C   UNL A   1      43.071  19.052  26.110  1.00  0.00     0.023 C 
ENDBRANCH  15  25
ENDBRANCH   9  10
ENDBRANCH   7   9
ENDBRANCH   6   7
ENDBRANCH   5   6
ENDBRANCH   4   5
ENDBRANCH   3   4
ENDBRANCH   2   3
ENDBRANCH   1   2
BRANCH   1  30
ATOM     30  O   UNL A   1      31.844  30.219  26.391  1.00  0.00    -0.376 OA
BRANCH  30  31
ATOM     31  C   UNL A   1      33.232  30.226  26.725  1.00  0.00     0.202 C 
BRANCH  31  32
ATOM     32  C   UNL A   1      33.647  31.616  27.211  1.00  0.00     0.261 C 
BRANCH  32  33
ATOM     33  O   UNL A   1      34.530  31.564  28.344  1.00  0.00    -0.460 OA
BRANCH  33  34
ATOM     34  C   UNL A   1      35.682  32.251  28.162  1.00  0.00     0.338 C 
ATOM     35  O   UNL A   1      35.827  33.265  27.507  1.00  0.00    -0.246 OA
BRANCH  34  36
ATOM     36  C   UNL A   1      36.751  31.585  28.907  1.00  0.00     0.060 A 
ATOM     37  C   UNL A   1      37.910  32.278  29.269  1.00  0.00     0.016 A 
ATOM     38  C   UNL A   1      36.627  30.223  29.143  1.00  0.00     0.016 A 
ATOM     39  C   UNL A   1      38.974  31.592  29.851  1.00  0.00     0.010 A 
ATOM     40  C   UNL A   1      37.693  29.541  29.715  1.00  0.00     0.010 A 
ATOM     41  C   UNL A   1      38.881  30.210  30.058  1.00  0.00    -0.014 A 
BRANCH  41  42
ATOM     42  C   UNL A   1      40.054  29.464  30.568  1.00  0.00     0.031 A 
ATOM     43  C   UNL A   1      41.384  29.899  30.061  1.00  0.00     0.074 A 
ATOM     44  C   UNL A   1      40.024  28.898  31.796  1.00  0.00     0.049 A 
ATOM     45  N   UNL A   1      41.891  31.045  30.407  1.00  0.00    -0.248 NA
ATOM     46  C   UNL A   1      42.134  29.214  29.013  1.00  0.00     0.031 C 
ATOM     47  C   UNL A   1      39.016  29.221  32.818  1.00  0.00     0.029 A 
ATOM     48  N   UNL A   1      40.969  28.162  32.474  1.00  0.00    -0.354 N 
ATOM     49  C   UNL A   1      42.951  31.297  29.572  1.00  0.00     0.074 A 
ATOM     50  C   UNL A   1      43.097  30.114  28.750  1.00  0.00     0.031 C 
ATOM     51  C   UNL A   1      39.501  28.876  34.026  1.00  0.00     0.029 A 
ATOM     52  C   UNL A   1      40.765  28.173  33.853  1.00  0.00     0.049 A 
ATOM     53  H   UNL A   1      41.707  27.682  32.033  1.00  0.00     0.167 HD
ATOM     54  C   UNL A   1      43.619  32.479  29.590  1.00  0.00     0.034 A 
ATOM     55  C   UNL A   1      41.748  28.135  34.792  1.00  0.00     0.034 A 
ATOM     56  C   UNL A   1      43.150  33.445  30.544  1.00  0.00     0.049 A 
ATOM     57  C   UNL A   1      42.453  29.453  34.553  1.00  0.00     0.074 A 
ATOM     58  C   UNL A   1      42.207  34.451  30.567  1.00  0.00     0.029 A 
ATOM     59  N   UNL A   1      43.573  33.339  31.851  1.00  0.00    -0.354 N 
ATOM     60  N   UNL A   1      42.046  30.635  34.941  1.00  0.00    -0.248 NA
ATOM     61  C   UNL A   1      43.527  29.481  33.561  1.00  0.00     0.031 C 
ATOM     62  C   UNL A   1      41.799  34.568  31.936  1.00  0.00     0.029 A 
ATOM     63  C   UNL A   1      42.476  33.579  32.649  1.00  0.00     0.049 A 
ATOM     64  H   UNL A   1      44.486  33.131  32.157  1.00  0.00     0.167 HD
ATOM     65  C   UNL A   1      42.622  31.543  34.046  1.00  0.00     0.074 A 
ATOM     66  C   UNL A   1      43.552  30.768  33.253  1.00  0.00     0.031 C 
ATOM     67  C   UNL A   1      42.193  32.830  33.863  1.00  0.00     0.034 A 
BRANCH  54  68
ATOM     68  C   UNL A   1      44.826  32.714  28.781  1.00  0.00     0.023 A 
ATOM     69  C   UNL A   1      44.814  33.510  27.629  1.00  0.00     0.031 A 
ATOM     70  C   UNL A   1      46.046  32.192  29.239  1.00  0.00     0.131 A 
ATOM     71  C   UNL A   1      46.023  33.770  26.971  1.00  0.00     0.055 A 
ATOM     72  C   UNL A   1      47.244  32.454  28.583  1.00  0.00     0.041 A 
ATOM     73  F   UNL A   1      46.080  31.442  30.354  1.00  0.00    -0.206 F 
ATOM     74  C   UNL A   1      47.236  33.253  27.444  1.00  0.00     0.022 A 
BRANCH  71  75
ATOM     75  S   UNL A   1      46.081  34.826  25.497  1.00  0.00     0.124 S 
ATOM     76  O   UNL A   1      47.425  34.571  24.985  1.00  0.00    -0.237 OA
ATOM     77  O   UNL A   1      44.990  34.281  24.694  1.00  0.00    -0.237 OA
ATOM     78  O   UNL A   1      45.858  36.170  26.021  1.00  0.00    -0.744 OA
ENDBRANCH  71  75
ENDBRANCH  54  68
BRANCH  55  79
ATOM     79  C   UNL A   1      42.457  26.811  34.859  1.00  0.00     0.023 A 
ATOM     80  C   UNL A   1      43.524  26.432  34.033  1.00  0.00     0.031 A 
ATOM     81  C   UNL A   1      42.002  25.846  35.788  1.00  0.00     0.131 A 
ATOM     82  C   UNL A   1      43.956  25.097  34.005  1.00  0.00     0.055 A 
ATOM     83  C   UNL A   1      42.480  24.534  35.805  1.00  0.00     0.041 A 
ATOM     84  F   UNL A   1      41.060  26.162  36.693  1.00  0.00    -0.206 F 
ATOM     85  C   UNL A   1      43.441  24.143  34.884  1.00  0.00     0.022 A 
BRANCH  82  86
ATOM     86  S   UNL A   1      45.160  24.554  32.760  1.00  0.00     0.124 S 
ATOM     87  O   UNL A   1      45.128  25.646  31.791  1.00  0.00    -0.237 OA
ATOM     88  O   UNL A   1      46.375  24.456  33.563  1.00  0.00    -0.237 OA
ATOM     89  O   UNL A   1      44.607  23.288  32.292  1.00  0.00    -0.744 OA
ENDBRANCH  82  86
ENDBRANCH  55  79
BRANCH  67  90
ATOM     90  C   UNL A   1      41.201  33.356  34.858  1.00  0.00     0.023 A 
ATOM     91  C   UNL A   1      39.914  32.800  34.986  1.00  0.00     0.031 A 
ATOM     92  C   UNL A   1      41.512  34.485  35.633  1.00  0.00     0.131 A 
ATOM     93  C   UNL A   1      38.966  33.408  35.823  1.00  0.00     0.055 A 
ATOM     94  C   UNL A   1      40.581  35.059  36.503  1.00  0.00     0.041 A 
ATOM     95  F   UNL A   1      42.711  35.081  35.522  1.00  0.00    -0.206 F 
ATOM     96  C   UNL A   1      39.298  34.528  36.591  1.00  0.00     0.022 A 
BRANCH  93  97
ATOM     97  S   UNL A   1      37.257  32.805  35.900  1.00  0.00     0.124 S 
ATOM     98  O   UNL A   1      37.243  32.043  37.149  1.00  0.00    -0.237 OA
ATOM     99  O   UNL A   1      36.498  34.053  35.927  1.00  0.00    -0.237 OA
ATOM    100  O   UNL A   1      37.108  32.008  34.687  1.00  0.00    -0.744 OA
ENDBRANCH  93  97
ENDBRANCH  67  90
ENDBRANCH  41  42
ENDBRANCH  34  36
ENDBRANCH  33  34
ENDBRANCH  32  33
ENDBRANCH  31  32
ENDBRANCH  30  31
ENDBRANCH   1  30
TORSDOF 22
ENDMDL
MODEL 2
REMARK VINA RESULT:     -10.1      3.992     10.045
REMARK SMILES Cc1cc(N2CCCC2)nc2sc3c(=O)n(CC(=O)OCCOCCOCCOC(=O)c4ccc(-c5c6nc(c(-c7cc(S(=O)(=O)[O-])ccc7F)c7ccc([nH]7)c(-c7cc(S(=O)(=O)[O-])ccc7F)c7nc(c(-c8cc(S(=O)(=O)[O-])ccc8F)c8ccc5[nH]8)C=C7)C=C6)cc4)cnc3c12
REMARK SMILES IDX 25 1 24 2 23 3 22 4 21 5 20 6 18 7 19 8 17 9 16 10 1 11 2 12
REMARK SMILES IDX 3 13 98 14 4 15 11 16 97 17 10 18 12 19 13 20 96 21 14 22
REMARK SMILES IDX 95 23 15 24 5 25 6 26 9 27 7 28 8 29 26 30 27 31 28 32 29 33
REMARK SMILES IDX 30 34 31 35 32 36 33 37 94 38 34 39 93 40 35 41 36 42 37 43
REMARK SMILES IDX 87 44 38 45 92 46 86 47 88 48 39 49 91 50 85 51 84 52 40 54
REMARK SMILES IDX 72 55 52 56 71 57 53 58 56 59 70 60 89 61 54 62 55 63 69 65
REMARK SMILES IDX 90 66 57 67 41 68 42 69 50 70 43 71 49 72 51 73 48 74 44 75
REMARK SMILES IDX 45 76 46 77 47 78 73 79 74 80 82 81 75 82 81 83 83 84 80 85
REMARK SMILES IDX 76 86 77 87 78 88 79 89 58 90 59 91 67 92 60 93 66 94 68 95
REMARK SMILES IDX 65 96 61 97 62 98 63 99 64 100
REMARK H PARENT 88 53 56 64
REMARK Flexibility Score: inf
ROOT
ATOM      1  C   UNL A   1      39.411  33.917  36.355  1.00  0.00     0.188 C 
ENDROOT
BRANCH   1   2
ATOM      2  C   UNL A   1      38.295  34.424  35.428  1.00  0.00     0.188 C 
BRANCH   2   3
ATOM      3  O   UNL A   1      38.620  35.169  34.250  1.00  0.00    -0.376 OA
BRANCH   3   4
ATOM      4  C   UNL A   1      39.183  34.479  33.146  1.00  0.00     0.202 C 
BRANCH   4   5
ATOM      5  C   UNL A   1      38.327  34.542  31.878  1.00  0.00     0.261 C 
BRANCH   5   6
ATOM      6  O   UNL A   1      36.911  34.547  32.155  1.00  0.00    -0.462 OA
BRANCH   6   7
ATOM      7  C   UNL A   1      36.294  33.339  32.120  1.00  0.00     0.326 C 
ATOM      8  O   UNL A   1      35.365  33.009  32.852  1.00  0.00    -0.250 OA
BRANCH   7   9
ATOM      9  C   UNL A   1      36.820  32.395  31.041  1.00  0.00     0.249 C 
BRANCH   9  10
ATOM     10  N   UNL A   1      35.967  32.022  29.916  1.00  0.00    -0.287 N 
ATOM     11  C   UNL A   1      31.358  32.467  26.769  1.00  0.00     0.045 C 
ATOM     12  C   UNL A   1      32.036  31.159  26.461  1.00  0.00    -0.035 A 
ATOM     13  C   UNL A   1      31.427  30.275  25.549  1.00  0.00     0.051 A 
ATOM     14  C   UNL A   1      33.256  30.733  27.045  1.00  0.00     0.041 A 
ATOM     15  C   UNL A   1      32.006  29.047  25.226  1.00  0.00     0.130 A 
ATOM     16  C   UNL A   1      33.752  29.500  26.617  1.00  0.00     0.128 A 
ATOM     17  C   UNL A   1      34.139  31.277  28.036  1.00  0.00     0.098 A 
ATOM     18  N   UNL A   1      33.170  28.640  25.759  1.00  0.00    -0.220 NA
ATOM     19  S   UNL A   1      35.281  29.123  27.298  1.00  0.00    -0.108 S 
ATOM     20  C   UNL A   1      35.276  30.538  28.225  1.00  0.00     0.121 A 
ATOM     21  N   UNL A   1      33.884  32.431  28.794  1.00  0.00    -0.236 NA
ATOM     22  C   UNL A   1      36.306  30.906  29.157  1.00  0.00     0.271 A 
ATOM     23  C   UNL A   1      34.780  32.693  29.692  1.00  0.00     0.203 A 
ATOM     24  O   UNL A   1      37.371  30.309  29.311  1.00  0.00    -0.268 OA
BRANCH  15  25
ATOM     25  N   UNL A   1      31.375  28.174  24.364  1.00  0.00    -0.357 N 
ATOM     26  C   UNL A   1      30.489  28.626  23.300  1.00  0.00     0.118 C 
ATOM     27  C   UNL A   1      30.971  26.883  24.901  1.00  0.00     0.118 C 
ATOM     28  C   UNL A   1      29.353  27.605  23.305  1.00  0.00     0.023 C 
ATOM     29  C   UNL A   1      30.015  26.343  23.838  1.00  0.00     0.023 C 
ENDBRANCH  15  25
ENDBRANCH   9  10
ENDBRANCH   7   9
ENDBRANCH   6   7
ENDBRANCH   5   6
ENDBRANCH   4   5
ENDBRANCH   3   4
ENDBRANCH   2   3
ENDBRANCH   1   2
BRANCH   1  30
ATOM     30  O   UNL A   1      39.103  32.640  36.909  1.00  0.00    -0.376 OA
BRANCH  30  31
ATOM     31  C   UNL A   1      38.200  31.875  36.112  1.00  0.00     0.202 C 
BRANCH  31  32
ATOM     32  C   UNL A   1      38.718  30.444  35.960  1.00  0.00     0.261 C 
BRANCH  32  33
ATOM     33  O   UNL A   1      39.663  30.310  34.884  1.00  0.00    -0.460 OA
BRANCH  33  34
ATOM     34  C   UNL A   1      39.272  29.433  33.930  1.00  0.00     0.338 C 
ATOM     35  O   UNL A   1      38.140  29.262  33.521  1.00  0.00    -0.246 OA
BRANCH  34  36
ATOM     36  C   UNL A   1      40.449  28.716  33.437  1.00  0.00     0.060 A 
ATOM     37  C   UNL A   1      41.367  28.150  34.327  1.00  0.00     0.016 A 
ATOM     38  C   UNL A   1      40.681  28.712  32.069  1.00  0.00     0.016 A 
ATOM     39  C   UNL A   1      42.550  27.598  33.844  1.00  0.00     0.010 A 
ATOM     40  C   UNL A   1      41.867  28.169  31.591  1.00  0.00     0.010 A 
ATOM     41  C   UNL A   1      42.820  27.623  32.469  1.00  0.00    -0.014 A 
BRANCH  41  42
ATOM     42  C   UNL A   1      44.127  27.141  31.969  1.00  0.00     0.031 A 
ATOM     43  C   UNL A   1      44.083  26.097  30.908  1.00  0.00     0.074 A 
ATOM     44  C   UNL A   1      45.207  27.955  31.981  1.00  0.00     0.049 A 
ATOM     45  N   UNL A   1      43.663  26.377  29.711  1.00  0.00    -0.248 NA
ATOM     46  C   UNL A   1      44.301  24.673  31.141  1.00  0.00     0.031 C 
ATOM     47  C   UNL A   1      45.128  29.412  32.170  1.00  0.00     0.029 A 
ATOM     48  N   UNL A   1      46.506  27.736  31.583  1.00  0.00    -0.354 N 
ATOM     49  C   UNL A   1      43.456  25.188  29.057  1.00  0.00     0.074 A 
ATOM     50  C   UNL A   1      43.907  24.154  29.965  1.00  0.00     0.031 C 
ATOM     51  C   UNL A   1      46.252  29.972  31.683  1.00  0.00     0.029 A 
ATOM     52  C   UNL A   1      47.184  28.921  31.299  1.00  0.00     0.049 A 
ATOM     53  H   UNL A   1      46.911  26.841  31.507  1.00  0.00     0.167 HD
ATOM     54  C   UNL A   1      42.894  25.130  27.822  1.00  0.00     0.034 A 
ATOM     55  C   UNL A   1      48.144  29.068  30.347  1.00  0.00     0.034 A 
ATOM     56  C   UNL A   1      42.538  26.395  27.241  1.00  0.00     0.049 A 
ATOM     57  C   UNL A   1      47.356  28.827  29.077  1.00  0.00     0.074 A 
ATOM     58  C   UNL A   1      41.438  27.226  27.250  1.00  0.00     0.029 A 
ATOM     59  N   UNL A   1      43.520  27.131  26.614  1.00  0.00    -0.354 N 
ATOM     60  N   UNL A   1      46.555  29.676  28.485  1.00  0.00    -0.248 NA
ATOM     61  C   UNL A   1      47.227  27.448  28.606  1.00  0.00     0.031 C 
ATOM     62  C   UNL A   1      41.949  28.548  27.045  1.00  0.00     0.029 A 
ATOM     63  C   UNL A   1      43.338  28.444  26.988  1.00  0.00     0.049 A 
ATOM     64  H   UNL A   1      44.219  26.784  26.013  1.00  0.00     0.167 HD
ATOM     65  C   UNL A   1      45.641  28.895  27.769  1.00  0.00     0.074 A 
ATOM     66  C   UNL A   1      46.141  27.540  27.854  1.00  0.00     0.031 C 
ATOM     67  C   UNL A   1      44.437  29.345  27.299  1.00  0.00     0.034 A 
BRANCH  54  68
ATOM     68  C   UNL A   1      42.774  23.872  27.069  1.00  0.00     0.023 A 
ATOM     69  C   UNL A   1      43.798  23.390  26.245  1.00  0.00     0.031 A 
ATOM     70  C   UNL A   1      41.624  23.089  27.261  1.00  0.00     0.131 A 
ATOM     71  C   UNL A   1      43.650  22.134  25.642  1.00  0.00     0.055 A 
ATOM     72  C   UNL A   1      41.482  21.842  26.661  1.00  0.00     0.041 A 
ATOM     73  F   UNL A   1      40.638  23.527  28.063  1.00  0.00    -0.206 F 
ATOM     74  C   UNL A   1      42.504  21.357  25.850  1.00  0.00     0.022 A 
BRANCH  71  75
ATOM     75  S   UNL A   1      44.958  21.435  24.596  1.00  0.00     0.124 S 
ATOM     76  O   UNL A   1      44.375  20.163  24.178  1.00  0.00    -0.237 OA
ATOM     77  O   UNL A   1      45.076  22.446  23.548  1.00  0.00    -0.237 OA
ATOM     78  O   UNL A   1      46.104  21.331  25.494  1.00  0.00    -0.744 OA
ENDBRANCH  71  75
ENDBRANCH  54  68
BRANCH  55  79
ATOM     79  C   UNL A   1      49.426  28.356  30.679  1.00  0.00     0.023 A 
ATOM     80  C   UNL A   1      49.509  27.082  31.255  1.00  0.00     0.031 A 
ATOM     81  C   UNL A   1      50.651  29.023  30.439  1.00  0.00     0.131 A 
ATOM     82  C   UNL A   1      50.735  26.608  31.749  1.00  0.00     0.055 A 
ATOM     83  C   UNL A   1      51.880  28.520  30.872  1.00  0.00     0.041 A 
ATOM     84  F   UNL A   1      50.671  30.199  29.788  1.00  0.00    -0.206 F 
ATOM     85  C   UNL A   1      51.922  27.318  31.565  1.00  0.00     0.022 A 
BRANCH  82  86
ATOM     86  S   UNL A   1      50.795  25.075  32.718  1.00  0.00     0.124 S 
ATOM     87  O   UNL A   1      49.682  25.243  33.648  1.00  0.00    -0.237 OA
ATOM     88  O   UNL A   1      50.602  24.072  31.675  1.00  0.00    -0.237 OA
ATOM     89  O   UNL A   1      52.122  25.113  33.321  1.00  0.00    -0.744 OA
ENDBRANCH  82  86
ENDBRANCH  55  79
BRANCH  67  90
ATOM     90  C   UNL A   1      44.205  30.826  27.355  1.00  0.00     0.023 A 
ATOM     91  C   UNL A   1      44.422  31.653  26.237  1.00  0.00     0.031 A 
ATOM     92  C   UNL A   1      43.843  31.437  28.567  1.00  0.00     0.131 A 
ATOM     93  C   UNL A   1      44.334  33.047  26.366  1.00  0.00     0.055 A 
ATOM     94  C   UNL A   1      43.708  32.823  28.680  1.00  0.00     0.041 A 
ATOM     95  F   UNL A   1      43.662  30.700  29.676  1.00  0.00    -0.206 F 
ATOM     96  C   UNL A   1      43.966  33.635  27.580  1.00  0.00     0.022 A 
BRANCH  93  97
ATOM     97  S   UNL A   1      44.750  34.146  24.984  1.00  0.00     0.124 S 
ATOM     98  O   UNL A   1      43.864  35.289  25.208  1.00  0.00    -0.237 OA
ATOM     99  O   UNL A   1      46.168  34.407  25.222  1.00  0.00    -0.237 OA
ATOM    100  O   UNL A   1      44.450  33.353  23.798  1.00  0.00    -0.744 OA
ENDBRANCH  93  97
ENDBRANCH  67  90
ENDBRANCH  41  42
ENDBRANCH  34  36
ENDBRANCH  33  34
ENDBRANCH  32  33
ENDBRANCH  31  32
ENDBRANCH  30  31
ENDBRANCH   1  30
TORSDOF 22
ENDMDL
MODEL 3
REMARK VINA RESULT:     -10.1      3.142      3.881
REMARK SMILES Cc1cc(N2CCCC2)nc2sc3c(=O)n(CC(=O)OCCOCCOCCOC(=O)c4ccc(-c5c6nc(c(-c7cc(S(=O)(=O)[O-])ccc7F)c7ccc([nH]7)c(-c7cc(S(=O)(=O)[O-])ccc7F)c7nc(c(-c8cc(S(=O)(=O)[O-])ccc8F)c8ccc5[nH]8)C=C7)C=C6)cc4)cnc3c12
REMARK SMILES IDX 25 1 24 2 23 3 22 4 21 5 20 6 18 7 19 8 17 9 16 10 1 11 2 12
REMARK SMILES IDX 3 13 98 14 4 15 11 16 97 17 10 18 12 19 13 20 96 21 14 22
REMARK SMILES IDX 95 23 15 24 5 25 6 26 9 27 7 28 8 29 26 30 27 31 28 32 29 33
REMARK SMILES IDX 30 34 31 35 32 36 33 37 94 38 34 39 93 40 35 41 36 42 37 43
REMARK SMILES IDX 87 44 38 45 92 46 86 47 88 48 39 49 91 50 85 51 84 52 40 54
REMARK SMILES IDX 72 55 52 56 71 57 53 58 56 59 70 60 89 61 54 62 55 63 69 65
REMARK SMILES IDX 90 66 57 67 41 68 42 69 50 70 43 71 49 72 51 73 48 74 44 75
REMARK SMILES IDX 45 76 46 77 47 78 73 79 74 80 82 81 75 82 81 83 83 84 80 85
REMARK SMILES IDX 76 86 77 87 78 88 79 89 58 90 59 91 67 92 60 93 66 94 68 95
REMARK SMILES IDX 65 96 61 97 62 98 63 99 64 100
REMARK H PARENT 88 53 56 64
REMARK Flexibility Score: inf
ROOT
ATOM      1  C   UNL A   1      35.171  30.958  28.470  1.00  0.00     0.188 C 
ENDROOT
BRANCH   1   2
ATOM      2  C   UNL A   1      35.615  29.789  27.576  1.00  0.00     0.188 C 
BRANCH   2   3
ATOM      3  O   UNL A   1      34.643  29.016  26.866  1.00  0.00    -0.376 OA
BRANCH   3   4
ATOM      4  C   UNL A   1      33.293  29.063  27.298  1.00  0.00     0.202 C 
BRANCH   4   5
ATOM      5  C   UNL A   1      32.293  29.318  26.167  1.00  0.00     0.261 C 
BRANCH   5   6
ATOM      6  O   UNL A   1      32.928  29.704  24.930  1.00  0.00    -0.462 OA
BRANCH   6   7
ATOM      7  C   UNL A   1      32.656  28.924  23.854  1.00  0.00     0.326 C 
ATOM      8  O   UNL A   1      31.668  29.047  23.135  1.00  0.00    -0.250 OA
BRANCH   7   9
ATOM      9  C   UNL A   1      33.721  27.871  23.555  1.00  0.00     0.249 C 
BRANCH   9  10
ATOM     10  N   UNL A   1      33.510  26.483  23.957  1.00  0.00    -0.287 N 
ATOM     11  C   UNL A   1      33.777  22.228  27.585  1.00  0.00     0.045 C 
ATOM     12  C   UNL A   1      33.553  21.678  26.202  1.00  0.00    -0.035 A 
ATOM     13  C   UNL A   1      33.513  20.281  26.024  1.00  0.00     0.051 A 
ATOM     14  C   UNL A   1      33.393  22.474  25.041  1.00  0.00     0.041 A 
ATOM     15  C   UNL A   1      33.313  19.712  24.766  1.00  0.00     0.130 A 
ATOM     16  C   UNL A   1      33.165  21.790  23.845  1.00  0.00     0.128 A 
ATOM     17  C   UNL A   1      33.434  23.883  24.775  1.00  0.00     0.098 A 
ATOM     18  N   UNL A   1      33.142  20.455  23.660  1.00  0.00    -0.220 NA
ATOM     19  S   UNL A   1      32.879  22.840  22.520  1.00  0.00    -0.108 S 
ATOM     20  C   UNL A   1      33.129  24.209  23.481  1.00  0.00     0.121 A 
ATOM     21  N   UNL A   1      33.788  24.869  25.712  1.00  0.00    -0.236 NA
ATOM     22  C   UNL A   1      33.092  25.562  22.998  1.00  0.00     0.271 A 
ATOM     23  C   UNL A   1      33.840  26.071  25.233  1.00  0.00     0.203 A 
ATOM     24  O   UNL A   1      32.760  25.903  21.865  1.00  0.00    -0.268 OA
BRANCH  15  25
ATOM     25  N   UNL A   1      33.320  18.342  24.602  1.00  0.00    -0.357 N 
ATOM     26  C   UNL A   1      32.459  17.456  25.373  1.00  0.00     0.118 C 
ATOM     27  C   UNL A   1      34.592  17.718  24.270  1.00  0.00     0.118 C 
ATOM     28  C   UNL A   1      33.348  16.252  25.681  1.00  0.00     0.023 C 
ATOM     29  C   UNL A   1      34.332  16.233  24.520  1.00  0.00     0.023 C 
ENDBRANCH  15  25
ENDBRANCH   9  10
ENDBRANCH   7   9
ENDBRANCH   6   7
ENDBRANCH   5   6
ENDBRANCH   4   5
ENDBRANCH   3   4
ENDBRANCH   2   3
ENDBRANCH   1   2
BRANCH   1  30
ATOM     30  O   UNL A   1      34.550  31.997  27.717  1.00  0.00    -0.376 OA
BRANCH  30  31
ATOM     31  C   UNL A   1      34.286  33.174  28.479  1.00  0.00     0.202 C 
BRANCH  31  32
ATOM     32  C   UNL A   1      35.600  33.848  28.876  1.00  0.00     0.261 C 
BRANCH  32  33
ATOM     33  O   UNL A   1      35.498  34.578  30.110  1.00  0.00    -0.460 OA
BRANCH  33  34
ATOM     34  C   UNL A   1      35.153  33.805  31.166  1.00  0.00     0.338 C 
ATOM     35  O   UNL A   1      34.078  33.788  31.734  1.00  0.00    -0.246 OA
BRANCH  34  36
ATOM     36  C   UNL A   1      36.290  32.955  31.520  1.00  0.00     0.060 A 
ATOM     37  C   UNL A   1      37.597  33.449  31.465  1.00  0.00     0.016 A 
ATOM     38  C   UNL A   1      36.041  31.619  31.803  1.00  0.00     0.016 A 
ATOM     39  C   UNL A   1      38.673  32.587  31.666  1.00  0.00     0.010 A 
ATOM     40  C   UNL A   1      37.116  30.761  31.995  1.00  0.00     0.010 A 
ATOM     41  C   UNL A   1      38.439  31.228  31.912  1.00  0.00    -0.014 A 
BRANCH  41  42
ATOM     42  C   UNL A   1      39.583  30.293  32.011  1.00  0.00     0.031 A 
ATOM     43  C   UNL A   1      40.696  30.508  31.046  1.00  0.00     0.074 A 
ATOM     44  C   UNL A   1      39.902  29.726  33.197  1.00  0.00     0.049 A 
ATOM     45  N   UNL A   1      41.467  31.550  31.135  1.00  0.00    -0.248 NA
ATOM     46  C   UNL A   1      40.905  29.720  29.836  1.00  0.00     0.031 C 
ATOM     47  C   UNL A   1      39.390  30.200  34.491  1.00  0.00     0.029 A 
ATOM     48  N   UNL A   1      40.898  28.837  33.532  1.00  0.00    -0.354 N 
ATOM     49  C   UNL A   1      42.186  31.633  29.968  1.00  0.00     0.074 A 
ATOM     50  C   UNL A   1      41.841  30.451  29.206  1.00  0.00     0.031 C 
ATOM     51  C   UNL A   1      40.212  29.767  35.466  1.00  0.00     0.029 A 
ATOM     52  C   UNL A   1      41.203  28.866  34.893  1.00  0.00     0.049 A 
ATOM     53  H   UNL A   1      41.345  28.246  32.883  1.00  0.00     0.167 HD
ATOM     54  C   UNL A   1      42.995  32.688  29.691  1.00  0.00     0.034 A 
ATOM     55  C   UNL A   1      42.437  28.656  35.425  1.00  0.00     0.034 A 
ATOM     56  C   UNL A   1      43.056  33.708  30.701  1.00  0.00     0.049 A 
ATOM     57  C   UNL A   1      43.209  29.842  34.888  1.00  0.00     0.074 A 
ATOM     58  C   UNL A   1      42.355  34.855  31.007  1.00  0.00     0.029 A 
ATOM     59  N   UNL A   1      43.894  33.519  31.778  1.00  0.00    -0.354 N 
ATOM     60  N   UNL A   1      43.160  31.071  35.337  1.00  0.00    -0.248 NA
ATOM     61  C   UNL A   1      43.850  29.703  33.581  1.00  0.00     0.031 C 
ATOM     62  C   UNL A   1      42.485  35.023  32.424  1.00  0.00     0.029 A 
ATOM     63  C   UNL A   1      43.205  33.928  32.900  1.00  0.00     0.049 A 
ATOM     64  H   UNL A   1      44.810  33.159  31.752  1.00  0.00     0.167 HD
ATOM     65  C   UNL A   1      43.515  31.881  34.253  1.00  0.00     0.074 A 
ATOM     66  C   UNL A   1      43.967  30.972  33.221  1.00  0.00     0.031 C 
ATOM     67  C   UNL A   1      43.259  33.222  34.171  1.00  0.00     0.034 A 
BRANCH  54  68
ATOM     68  C   UNL A   1      43.855  32.729  28.498  1.00  0.00     0.023 A 
ATOM     69  C   UNL A   1      44.835  31.762  28.247  1.00  0.00     0.031 A 
ATOM     70  C   UNL A   1      43.616  33.727  27.540  1.00  0.00     0.131 A 
ATOM     71  C   UNL A   1      45.544  31.811  27.039  1.00  0.00     0.055 A 
ATOM     72  C   UNL A   1      44.321  33.772  26.342  1.00  0.00     0.041 A 
ATOM     73  F   UNL A   1      42.666  34.653  27.756  1.00  0.00    -0.206 F 
ATOM     74  C   UNL A   1      45.289  32.805  26.085  1.00  0.00     0.022 A 
BRANCH  71  75
ATOM     75  S   UNL A   1      46.799  30.564  26.635  1.00  0.00     0.124 S 
ATOM     76  O   UNL A   1      46.349  30.083  25.331  1.00  0.00    -0.237 OA
ATOM     77  O   UNL A   1      48.022  31.362  26.621  1.00  0.00    -0.237 OA
ATOM     78  O   UNL A   1      46.695  29.599  27.725  1.00  0.00    -0.744 OA
ENDBRANCH  71  75
ENDBRANCH  54  68
BRANCH  55  79
ATOM     79  C   UNL A   1      42.905  27.233  35.301  1.00  0.00     0.023 A 
ATOM     80  C   UNL A   1      43.813  26.769  34.339  1.00  0.00     0.031 A 
ATOM     81  C   UNL A   1      42.368  26.265  36.183  1.00  0.00     0.131 A 
ATOM     82  C   UNL A   1      43.998  25.390  34.150  1.00  0.00     0.055 A 
ATOM     83  C   UNL A   1      42.606  24.897  36.036  1.00  0.00     0.041 A 
ATOM     84  F   UNL A   1      41.578  26.638  37.205  1.00  0.00    -0.206 F 
ATOM     85  C   UNL A   1      43.400  24.449  34.989  1.00  0.00     0.022 A 
BRANCH  82  86
ATOM     86  S   UNL A   1      44.975  24.787  32.744  1.00  0.00     0.124 S 
ATOM     87  O   UNL A   1      44.632  23.368  32.705  1.00  0.00    -0.237 OA
ATOM     88  O   UNL A   1      44.437  25.598  31.657  1.00  0.00    -0.237 OA
ATOM     89  O   UNL A   1      46.346  25.086  33.139  1.00  0.00    -0.744 OA
ENDBRANCH  82  86
ENDBRANCH  55  79
BRANCH  67  90
ATOM     90  C   UNL A   1      42.783  33.894  35.425  1.00  0.00     0.023 A 
ATOM     91  C   UNL A   1      41.448  33.790  35.861  1.00  0.00     0.031 A 
ATOM     92  C   UNL A   1      43.652  34.724  36.153  1.00  0.00     0.131 A 
ATOM     93  C   UNL A   1      41.006  34.547  36.956  1.00  0.00     0.055 A 
ATOM     94  C   UNL A   1      43.219  35.438  37.273  1.00  0.00     0.041 A 
ATOM     95  F   UNL A   1      44.926  34.891  35.759  1.00  0.00    -0.206 F 
ATOM     96  C   UNL A   1      41.889  35.361  37.672  1.00  0.00     0.022 A 
BRANCH  93  97
ATOM     97  S   UNL A   1      39.261  34.548  37.453  1.00  0.00     0.124 S 
ATOM     98  O   UNL A   1      39.281  33.762  38.687  1.00  0.00    -0.237 OA
ATOM     99  O   UNL A   1      38.999  35.974  37.631  1.00  0.00    -0.237 OA
ATOM    100  O   UNL A   1      38.573  33.921  36.331  1.00  0.00    -0.744 OA
ENDBRANCH  93  97
ENDBRANCH  67  90
ENDBRANCH  41  42
ENDBRANCH  34  36
ENDBRANCH  33  34
ENDBRANCH  32  33
ENDBRANCH  31  32
ENDBRANCH  30  31
ENDBRANCH   1  30
TORSDOF 22
ENDMDL
