MODEL 1
REMARK VINA RESULT:     -10.3      0.000      0.000
REMARK SMILES CCNC(=O)N1[C@@H](C(=O)OCCOCCOCCOC(=O)c2ccc(-c3c4nc(c(-c5cc(S(=O)(=O)[O-])ccc5F)c5ccc([nH]5)c(-c5cc(S(=O)(=O)[O-])ccc5F)c5nc(c(-c6cc(S(=O)(=O)[O-])ccc6F)c6ccc3[nH]6)C=C5)C=C4)cc2)CC[C@@H]2CCCC[C@H]21
REMARK SMILES IDX 15 1 14 2 13 3 12 4 11 5 10 6 8 7 9 8 7 9 6 10 92 11 85 12
REMARK SMILES IDX 87 13 91 14 86 15 88 16 90 17 89 18 4 19 3 20 5 22 2 23 1 24
REMARK SMILES IDX 16 25 17 26 18 27 19 28 20 29 21 30 22 31 23 32 84 33 24 34
REMARK SMILES IDX 83 35 25 36 26 37 27 38 77 39 28 40 82 41 76 42 78 43 29 44
REMARK SMILES IDX 81 45 75 46 74 47 30 49 62 50 42 51 61 52 43 53 46 54 60 55
REMARK SMILES IDX 79 56 44 57 45 58 59 60 80 61 47 62 31 63 32 64 40 65 33 66
REMARK SMILES IDX 39 67 41 68 38 69 34 70 35 71 36 72 37 73 63 74 64 75 72 76
REMARK SMILES IDX 65 77 71 78 73 79 70 80 66 81 67 82 68 83 69 84 48 85 49 86
REMARK SMILES IDX 57 87 50 88 56 89 58 90 55 91 51 92 52 93 53 94 54 95
REMARK H PARENT 3 21 78 48 46 59
REMARK Flexibility Score: inf
ROOT
ATOM      1  C   UNL A   1      33.231  29.256  27.149  1.00  0.00     0.188 C 
ENDROOT
BRANCH   1   2
ATOM      2  C   UNL A   1      32.098  28.230  27.154  1.00  0.00     0.188 C 
BRANCH   2   3
ATOM      3  O   UNL A   1      31.214  28.181  26.058  1.00  0.00    -0.376 OA
BRANCH   3   4
ATOM      4  C   UNL A   1      31.025  26.993  25.311  1.00  0.00     0.202 C 
BRANCH   4   5
ATOM      5  C   UNL A   1      30.024  25.885  25.676  1.00  0.00     0.261 C 
BRANCH   5   6
ATOM      6  O   UNL A   1      30.347  24.521  25.356  1.00  0.00    -0.462 OA
BRANCH   6   7
ATOM      7  C   UNL A   1      30.930  23.812  26.365  1.00  0.00     0.329 C 
ATOM      8  O   UNL A   1      30.319  23.402  27.348  1.00  0.00    -0.250 OA
BRANCH   7   9
ATOM      9  C   UNL A   1      32.443  23.601  26.198  1.00  0.00     0.197 C 
ATOM     10  N   UNL A   1      32.950  23.390  24.824  1.00  0.00    -0.308 N 
ATOM     11  C   UNL A   1      34.429  23.335  24.715  1.00  0.00     0.091 C 
ATOM     12  C   UNL A   1      33.072  22.633  27.209  1.00  0.00     0.038 C 
ATOM     13  C   UNL A   1      35.105  22.459  25.803  1.00  0.00     0.012 C 
ATOM     14  C   UNL A   1      34.980  22.918  23.337  1.00  0.00     0.025 C 
ATOM     15  C   UNL A   1      34.585  22.795  27.195  1.00  0.00     0.008 C 
ATOM     16  C   UNL A   1      36.630  22.629  25.766  1.00  0.00     0.006 C 
ATOM     17  C   UNL A   1      36.504  23.028  23.280  1.00  0.00     0.002 C 
ATOM     18  C   UNL A   1      37.183  22.245  24.400  1.00  0.00     0.000 C 
BRANCH  10  19
ATOM     19  C   UNL A   1      32.154  22.734  23.913  1.00  0.00     0.318 C 
ATOM     20  N   UNL A   1      31.689  23.463  22.853  1.00  0.00    -0.338 N 
ATOM     21  H   UNL A   1      31.170  22.948  22.193  1.00  0.00     0.165 HD
ATOM     22  O   UNL A   1      31.913  21.531  23.958  1.00  0.00    -0.249 OA
BRANCH  20  23
ATOM     23  C   UNL A   1      31.836  24.879  22.543  1.00  0.00     0.114 C 
ATOM     24  C   UNL A   1      32.773  25.192  21.397  1.00  0.00     0.027 C 
ENDBRANCH  20  23
ENDBRANCH  10  19
ENDBRANCH   7   9
ENDBRANCH   6   7
ENDBRANCH   5   6
ENDBRANCH   4   5
ENDBRANCH   3   4
ENDBRANCH   2   3
ENDBRANCH   1   2
BRANCH   1  25
ATOM     25  O   UNL A   1      33.049  30.536  26.598  1.00  0.00    -0.376 OA
BRANCH  25  26
ATOM     26  C   UNL A   1      31.816  31.196  26.811  1.00  0.00     0.202 C 
BRANCH  26  27
ATOM     27  C   UNL A   1      31.665  32.734  26.859  1.00  0.00     0.261 C 
BRANCH  27  28
ATOM     28  O   UNL A   1      32.854  33.539  26.836  1.00  0.00    -0.460 OA
BRANCH  28  29
ATOM     29  C   UNL A   1      33.265  34.033  28.032  1.00  0.00     0.338 C 
ATOM     30  O   UNL A   1      32.631  34.798  28.749  1.00  0.00    -0.246 OA
BRANCH  29  31
ATOM     31  C   UNL A   1      34.483  33.310  28.489  1.00  0.00     0.060 A 
ATOM     32  C   UNL A   1      34.317  32.144  29.255  1.00  0.00     0.016 A 
ATOM     33  C   UNL A   1      35.769  33.764  28.194  1.00  0.00     0.016 A 
ATOM     34  C   UNL A   1      35.423  31.458  29.761  1.00  0.00     0.010 A 
ATOM     35  C   UNL A   1      36.880  33.093  28.732  1.00  0.00     0.010 A 
ATOM     36  C   UNL A   1      36.713  31.958  29.552  1.00  0.00    -0.014 A 
BRANCH  36  37
ATOM     37  C   UNL A   1      37.841  31.429  30.372  1.00  0.00     0.031 A 
ATOM     38  C   UNL A   1      38.754  30.399  29.752  1.00  0.00     0.074 A 
ATOM     39  C   UNL A   1      38.102  31.885  31.612  1.00  0.00     0.049 A 
ATOM     40  N   UNL A   1      39.785  29.778  30.266  1.00  0.00    -0.248 NA
ATOM     41  C   UNL A   1      38.457  30.022  28.361  1.00  0.00     0.031 C 
ATOM     42  C   UNL A   1      37.342  32.920  32.310  1.00  0.00     0.029 A 
ATOM     43  N   UNL A   1      39.085  31.530  32.507  1.00  0.00    -0.354 N 
ATOM     44  C   UNL A   1      40.256  28.931  29.265  1.00  0.00     0.074 A 
ATOM     45  C   UNL A   1      39.371  29.092  28.131  1.00  0.00     0.031 C 
ATOM     46  C   UNL A   1      37.884  33.112  33.526  1.00  0.00     0.029 A 
ATOM     47  C   UNL A   1      39.004  32.190  33.713  1.00  0.00     0.049 A 
ATOM     48  H   UNL A   1      39.783  30.867  32.303  1.00  0.00     0.167 HD
ATOM     49  C   UNL A   1      41.331  28.104  29.282  1.00  0.00     0.034 A 
ATOM     50  C   UNL A   1      39.731  32.049  34.842  1.00  0.00     0.034 A 
ATOM     51  C   UNL A   1      42.204  27.940  30.420  1.00  0.00     0.049 A 
ATOM     52  C   UNL A   1      40.864  31.047  34.873  1.00  0.00     0.074 A 
ATOM     53  C   UNL A   1      43.324  27.134  30.536  1.00  0.00     0.029 A 
ATOM     54  N   UNL A   1      42.052  28.578  31.644  1.00  0.00    -0.354 N 
ATOM     55  N   UNL A   1      41.301  30.257  33.919  1.00  0.00    -0.248 NA
ATOM     56  C   UNL A   1      41.611  30.929  36.134  1.00  0.00     0.031 C 
ATOM     57  C   UNL A   1      43.796  27.220  31.850  1.00  0.00     0.029 A 
ATOM     58  C   UNL A   1      43.032  28.153  32.530  1.00  0.00     0.049 A 
ATOM     59  H   UNL A   1      41.350  29.235  31.853  1.00  0.00     0.167 HD
ATOM     60  C   UNL A   1      42.394  29.575  34.457  1.00  0.00     0.074 A 
ATOM     61  C   UNL A   1      42.561  30.067  35.808  1.00  0.00     0.031 C 
ATOM     62  C   UNL A   1      43.187  28.633  33.885  1.00  0.00     0.034 A 
BRANCH  49  63
ATOM     63  C   UNL A   1      41.586  27.270  28.048  1.00  0.00     0.023 A 
ATOM     64  C   UNL A   1      41.223  25.913  27.979  1.00  0.00     0.031 A 
ATOM     65  C   UNL A   1      42.223  27.837  26.930  1.00  0.00     0.131 A 
ATOM     66  C   UNL A   1      41.563  25.154  26.848  1.00  0.00     0.055 A 
ATOM     67  C   UNL A   1      42.481  27.098  25.775  1.00  0.00     0.041 A 
ATOM     68  F   UNL A   1      42.616  29.120  26.945  1.00  0.00    -0.206 F 
ATOM     69  C   UNL A   1      42.165  25.744  25.734  1.00  0.00     0.022 A 
BRANCH  66  70
ATOM     70  S   UNL A   1      41.345  23.354  26.914  1.00  0.00     0.124 S 
ATOM     71  O   UNL A   1      41.844  23.045  28.251  1.00  0.00    -0.237 OA
ATOM     72  O   UNL A   1      39.909  23.202  26.715  1.00  0.00    -0.237 OA
ATOM     73  O   UNL A   1      42.182  22.868  25.818  1.00  0.00    -0.744 OA
ENDBRANCH  66  70
ENDBRANCH  49  63
BRANCH  50  74
ATOM     74  C   UNL A   1      39.396  32.836  36.068  1.00  0.00     0.023 A 
ATOM     75  C   UNL A   1      39.975  34.092  36.313  1.00  0.00     0.031 A 
ATOM     76  C   UNL A   1      38.548  32.302  37.056  1.00  0.00     0.131 A 
ATOM     77  C   UNL A   1      39.741  34.747  37.534  1.00  0.00     0.055 A 
ATOM     78  C   UNL A   1      38.269  32.986  38.241  1.00  0.00     0.041 A 
ATOM     79  F   UNL A   1      37.976  31.100  36.883  1.00  0.00    -0.206 F 
ATOM     80  C   UNL A   1      38.879  34.210  38.491  1.00  0.00     0.022 A 
BRANCH  77  81
ATOM     81  S   UNL A   1      40.664  36.267  37.897  1.00  0.00     0.124 S 
ATOM     82  O   UNL A   1      41.239  36.585  36.595  1.00  0.00    -0.237 OA
ATOM     83  O   UNL A   1      39.607  37.158  38.366  1.00  0.00    -0.237 OA
ATOM     84  O   UNL A   1      41.621  35.848  38.919  1.00  0.00    -0.744 OA
ENDBRANCH  77  81
ENDBRANCH  50  74
BRANCH  62  85
ATOM     85  C   UNL A   1      44.343  28.107  34.710  1.00  0.00     0.023 A 
ATOM     86  C   UNL A   1      44.197  27.015  35.585  1.00  0.00     0.031 A 
ATOM     87  C   UNL A   1      45.603  28.730  34.647  1.00  0.00     0.131 A 
ATOM     88  C   UNL A   1      45.261  26.634  36.416  1.00  0.00     0.055 A 
ATOM     89  C   UNL A   1      46.682  28.296  35.420  1.00  0.00     0.041 A 
ATOM     90  F   UNL A   1      45.808  29.779  33.834  1.00  0.00    -0.206 F 
ATOM     91  C   UNL A   1      46.509  27.254  36.326  1.00  0.00     0.022 A 
BRANCH  88  92
ATOM     92  S   UNL A   1      44.953  25.406  37.717  1.00  0.00     0.124 S 
ATOM     93  O   UNL A   1      43.689  24.819  37.285  1.00  0.00    -0.237 OA
ATOM     94  O   UNL A   1      46.125  24.543  37.616  1.00  0.00    -0.237 OA
ATOM     95  O   UNL A   1      44.878  26.210  38.937  1.00  0.00    -0.744 OA
ENDBRANCH  88  92
ENDBRANCH  62  85
ENDBRANCH  36  37
ENDBRANCH  29  31
ENDBRANCH  28  29
ENDBRANCH  27  28
ENDBRANCH  26  27
ENDBRANCH  25  26
ENDBRANCH   1  25
TORSDOF 22
ENDMDL
MODEL 2
REMARK VINA RESULT:      -9.9      5.843     11.082
REMARK SMILES CCNC(=O)N1[C@@H](C(=O)OCCOCCOCCOC(=O)c2ccc(-c3c4nc(c(-c5cc(S(=O)(=O)[O-])ccc5F)c5ccc([nH]5)c(-c5cc(S(=O)(=O)[O-])ccc5F)c5nc(c(-c6cc(S(=O)(=O)[O-])ccc6F)c6ccc3[nH]6)C=C5)C=C4)cc2)CC[C@@H]2CCCC[C@H]21
REMARK SMILES IDX 15 1 14 2 13 3 12 4 11 5 10 6 8 7 9 8 7 9 6 10 92 11 85 12
REMARK SMILES IDX 87 13 91 14 86 15 88 16 90 17 89 18 4 19 3 20 5 22 2 23 1 24
REMARK SMILES IDX 16 25 17 26 18 27 19 28 20 29 21 30 22 31 23 32 84 33 24 34
REMARK SMILES IDX 83 35 25 36 26 37 27 38 77 39 28 40 82 41 76 42 78 43 29 44
REMARK SMILES IDX 81 45 75 46 74 47 30 49 62 50 42 51 61 52 43 53 46 54 60 55
REMARK SMILES IDX 79 56 44 57 45 58 59 60 80 61 47 62 31 63 32 64 40 65 33 66
REMARK SMILES IDX 39 67 41 68 38 69 34 70 35 71 36 72 37 73 63 74 64 75 72 76
REMARK SMILES IDX 65 77 71 78 73 79 70 80 66 81 67 82 68 83 69 84 48 85 49 86
REMARK SMILES IDX 57 87 50 88 56 89 58 90 55 91 51 92 52 93 53 94 54 95
REMARK H PARENT 3 21 78 48 46 59
REMARK Flexibility Score: inf
ROOT
ATOM      1  C   UNL A   1      36.930  22.351  24.161  1.00  0.00     0.188 C 
ENDROOT
BRANCH   1   2
ATOM      2  C   UNL A   1      35.548  22.997  24.074  1.00  0.00     0.188 C 
BRANCH   2   3
ATOM      3  O   UNL A   1      34.860  22.981  22.844  1.00  0.00    -0.376 OA
BRANCH   3   4
ATOM      4  C   UNL A   1      33.485  22.656  22.768  1.00  0.00     0.202 C 
BRANCH   4   5
ATOM      5  C   UNL A   1      32.345  23.689  22.773  1.00  0.00     0.261 C 
BRANCH   5   6
ATOM      6  O   UNL A   1      32.636  25.049  22.408  1.00  0.00    -0.462 OA
BRANCH   6   7
ATOM      7  C   UNL A   1      31.742  25.973  22.864  1.00  0.00     0.329 C 
ATOM      8  O   UNL A   1      30.677  26.220  22.306  1.00  0.00    -0.250 OA
BRANCH   7   9
ATOM      9  C   UNL A   1      32.197  26.725  24.124  1.00  0.00     0.197 C 
ATOM     10  N   UNL A   1      31.895  28.171  24.199  1.00  0.00    -0.308 N 
ATOM     11  C   UNL A   1      32.232  28.806  25.497  1.00  0.00     0.091 C 
ATOM     12  C   UNL A   1      33.625  26.401  24.585  1.00  0.00     0.038 C 
ATOM     13  C   UNL A   1      33.624  28.399  26.050  1.00  0.00     0.012 C 
ATOM     14  C   UNL A   1      32.116  30.342  25.537  1.00  0.00     0.025 C 
ATOM     15  C   UNL A   1      33.822  26.890  26.012  1.00  0.00     0.008 C 
ATOM     16  C   UNL A   1      33.806  28.910  27.485  1.00  0.00     0.006 C 
ATOM     17  C   UNL A   1      32.343  30.890  26.946  1.00  0.00     0.002 C 
ATOM     18  C   UNL A   1      33.670  30.425  27.542  1.00  0.00     0.000 C 
BRANCH  10  19
ATOM     19  C   UNL A   1      31.885  28.910  23.038  1.00  0.00     0.318 C 
ATOM     20  N   UNL A   1      30.678  29.402  22.622  1.00  0.00    -0.338 N 
ATOM     21  H   UNL A   1      30.718  29.973  21.820  1.00  0.00     0.165 HD
ATOM     22  O   UNL A   1      32.897  29.214  22.412  1.00  0.00    -0.249 OA
BRANCH  20  23
ATOM     23  C   UNL A   1      29.342  29.219  23.174  1.00  0.00     0.114 C 
ATOM     24  C   UNL A   1      28.216  29.760  22.322  1.00  0.00     0.027 C 
ENDBRANCH  20  23
ENDBRANCH  10  19
ENDBRANCH   7   9
ENDBRANCH   6   7
ENDBRANCH   5   6
ENDBRANCH   4   5
ENDBRANCH   3   4
ENDBRANCH   2   3
ENDBRANCH   1   2
BRANCH   1  25
ATOM     25  O   UNL A   1      37.243  21.444  25.188  1.00  0.00    -0.376 OA
BRANCH  25  26
ATOM     26  C   UNL A   1      37.677  20.144  24.836  1.00  0.00     0.202 C 
BRANCH  26  27
ATOM     27  C   UNL A   1      38.896  19.444  25.479  1.00  0.00     0.261 C 
BRANCH  27  28
ATOM     28  O   UNL A   1      39.836  20.245  26.214  1.00  0.00    -0.460 OA
BRANCH  28  29
ATOM     29  C   UNL A   1      41.135  19.858  26.143  1.00  0.00     0.338 C 
ATOM     30  O   UNL A   1      41.538  18.760  25.776  1.00  0.00    -0.246 OA
BRANCH  29  31
ATOM     31  C   UNL A   1      42.027  21.036  26.318  1.00  0.00     0.060 A 
ATOM     32  C   UNL A   1      42.308  21.471  27.625  1.00  0.00     0.016 A 
ATOM     33  C   UNL A   1      42.570  21.721  25.231  1.00  0.00     0.016 A 
ATOM     34  C   UNL A   1      43.090  22.606  27.847  1.00  0.00     0.010 A 
ATOM     35  C   UNL A   1      43.328  22.883  25.456  1.00  0.00     0.010 A 
ATOM     36  C   UNL A   1      43.561  23.356  26.763  1.00  0.00    -0.014 A 
BRANCH  36  37
ATOM     37  C   UNL A   1      44.086  24.731  27.004  1.00  0.00     0.031 A 
ATOM     38  C   UNL A   1      43.132  25.779  27.526  1.00  0.00     0.074 A 
ATOM     39  C   UNL A   1      45.384  25.044  26.831  1.00  0.00     0.049 A 
ATOM     40  N   UNL A   1      43.344  27.042  27.795  1.00  0.00    -0.248 NA
ATOM     41  C   UNL A   1      41.753  25.333  27.778  1.00  0.00     0.031 C 
ATOM     42  C   UNL A   1      46.426  24.118  26.392  1.00  0.00     0.029 A 
ATOM     43  N   UNL A   1      46.048  26.236  27.006  1.00  0.00    -0.354 N 
ATOM     44  C   UNL A   1      42.123  27.545  28.240  1.00  0.00     0.074 A 
ATOM     45  C   UNL A   1      41.171  26.458  28.164  1.00  0.00     0.031 C 
ATOM     46  C   UNL A   1      47.596  24.779  26.326  1.00  0.00     0.029 A 
ATOM     47  C   UNL A   1      47.384  26.182  26.680  1.00  0.00     0.049 A 
ATOM     48  H   UNL A   1      45.607  27.053  27.336  1.00  0.00     0.167 HD
ATOM     49  C   UNL A   1      41.824  28.793  28.680  1.00  0.00     0.034 A 
ATOM     50  C   UNL A   1      48.321  27.155  26.646  1.00  0.00     0.034 A 
ATOM     51  C   UNL A   1      42.776  29.876  28.744  1.00  0.00     0.049 A 
ATOM     52  C   UNL A   1      47.940  28.564  27.046  1.00  0.00     0.074 A 
ATOM     53  C   UNL A   1      42.574  31.174  29.182  1.00  0.00     0.029 A 
ATOM     54  N   UNL A   1      44.103  29.798  28.344  1.00  0.00    -0.354 N 
ATOM     55  N   UNL A   1      46.784  29.024  27.468  1.00  0.00    -0.248 NA
ATOM     56  C   UNL A   1      48.999  29.581  26.976  1.00  0.00     0.031 C 
ATOM     57  C   UNL A   1      43.751  31.900  28.969  1.00  0.00     0.029 A 
ATOM     58  C   UNL A   1      44.719  31.033  28.489  1.00  0.00     0.049 A 
ATOM     59  H   UNL A   1      44.543  28.985  28.007  1.00  0.00     0.167 HD
ATOM     60  C   UNL A   1      46.990  30.376  27.745  1.00  0.00     0.074 A 
ATOM     61  C   UNL A   1      48.384  30.647  27.465  1.00  0.00     0.031 C 
ATOM     62  C   UNL A   1      46.108  31.307  28.193  1.00  0.00     0.034 A 
BRANCH  49  63
ATOM     63  C   UNL A   1      40.390  29.065  29.074  1.00  0.00     0.023 A 
ATOM     64  C   UNL A   1      39.972  29.050  30.417  1.00  0.00     0.031 A 
ATOM     65  C   UNL A   1      39.422  29.322  28.087  1.00  0.00     0.131 A 
ATOM     66  C   UNL A   1      38.613  29.217  30.728  1.00  0.00     0.055 A 
ATOM     67  C   UNL A   1      38.087  29.572  28.411  1.00  0.00     0.041 A 
ATOM     68  F   UNL A   1      39.755  29.324  26.787  1.00  0.00    -0.206 F 
ATOM     69  C   UNL A   1      37.673  29.505  29.737  1.00  0.00     0.022 A 
BRANCH  66  70
ATOM     70  S   UNL A   1      38.068  28.901  32.430  1.00  0.00     0.124 S 
ATOM     71  O   UNL A   1      36.664  29.297  32.369  1.00  0.00    -0.237 OA
ATOM     72  O   UNL A   1      38.325  27.474  32.584  1.00  0.00    -0.237 OA
ATOM     73  O   UNL A   1      38.921  29.779  33.230  1.00  0.00    -0.744 OA
ENDBRANCH  66  70
ENDBRANCH  49  63
BRANCH  50  74
ATOM     74  C   UNL A   1      49.708  26.861  26.173  1.00  0.00     0.023 A 
ATOM     75  C   UNL A   1      50.133  27.215  24.882  1.00  0.00     0.031 A 
ATOM     76  C   UNL A   1      50.608  26.144  26.985  1.00  0.00     0.131 A 
ATOM     77  C   UNL A   1      51.397  26.810  24.422  1.00  0.00     0.055 A 
ATOM     78  C   UNL A   1      51.887  25.797  26.545  1.00  0.00     0.041 A 
ATOM     79  F   UNL A   1      50.253  25.767  28.223  1.00  0.00    -0.206 F 
ATOM     80  C   UNL A   1      52.283  26.119  25.251  1.00  0.00     0.022 A 
BRANCH  77  81
ATOM     81  S   UNL A   1      51.830  27.109  22.686  1.00  0.00     0.124 S 
ATOM     82  O   UNL A   1      52.814  26.061  22.439  1.00  0.00    -0.237 OA
ATOM     83  O   UNL A   1      50.541  26.949  22.020  1.00  0.00    -0.237 OA
ATOM     84  O   UNL A   1      52.358  28.472  22.697  1.00  0.00    -0.744 OA
ENDBRANCH  77  81
ENDBRANCH  50  74
BRANCH  62  85
ATOM     85  C   UNL A   1      46.643  32.699  28.455  1.00  0.00     0.023 A 
ATOM     86  C   UNL A   1      46.620  33.702  27.469  1.00  0.00     0.031 A 
ATOM     87  C   UNL A   1      47.216  33.017  29.699  1.00  0.00     0.131 A 
ATOM     88  C   UNL A   1      47.231  34.942  27.715  1.00  0.00     0.055 A 
ATOM     89  C   UNL A   1      47.752  34.279  29.965  1.00  0.00     0.041 A 
ATOM     90  F   UNL A   1      47.272  32.104  30.682  1.00  0.00    -0.206 F 
ATOM     91  C   UNL A   1      47.779  35.244  28.963  1.00  0.00     0.022 A 
BRANCH  88  92
ATOM     92  S   UNL A   1      47.421  36.107  26.335  1.00  0.00     0.124 S 
ATOM     93  O   UNL A   1      48.818  35.908  25.964  1.00  0.00    -0.237 OA
ATOM     94  O   UNL A   1      46.431  35.622  25.379  1.00  0.00    -0.237 OA
ATOM     95  O   UNL A   1      47.118  37.404  26.938  1.00  0.00    -0.744 OA
ENDBRANCH  88  92
ENDBRANCH  62  85
ENDBRANCH  36  37
ENDBRANCH  29  31
ENDBRANCH  28  29
ENDBRANCH  27  28
ENDBRANCH  26  27
ENDBRANCH  25  26
ENDBRANCH   1  25
TORSDOF 22
ENDMDL
MODEL 3
REMARK VINA RESULT:      -9.9      1.634      2.377
REMARK SMILES CCNC(=O)N1[C@@H](C(=O)OCCOCCOCCOC(=O)c2ccc(-c3c4nc(c(-c5cc(S(=O)(=O)[O-])ccc5F)c5ccc([nH]5)c(-c5cc(S(=O)(=O)[O-])ccc5F)c5nc(c(-c6cc(S(=O)(=O)[O-])ccc6F)c6ccc3[nH]6)C=C5)C=C4)cc2)CC[C@@H]2CCCC[C@H]21
REMARK SMILES IDX 15 1 14 2 13 3 12 4 11 5 10 6 8 7 9 8 7 9 6 10 92 11 85 12
REMARK SMILES IDX 87 13 91 14 86 15 88 16 90 17 89 18 4 19 3 20 5 22 2 23 1 24
REMARK SMILES IDX 16 25 17 26 18 27 19 28 20 29 21 30 22 31 23 32 84 33 24 34
REMARK SMILES IDX 83 35 25 36 26 37 27 38 77 39 28 40 82 41 76 42 78 43 29 44
REMARK SMILES IDX 81 45 75 46 74 47 30 49 62 50 42 51 61 52 43 53 46 54 60 55
REMARK SMILES IDX 79 56 44 57 45 58 59 60 80 61 47 62 31 63 32 64 40 65 33 66
REMARK SMILES IDX 39 67 41 68 38 69 34 70 35 71 36 72 37 73 63 74 64 75 72 76
REMARK SMILES IDX 65 77 71 78 73 79 70 80 66 81 67 82 68 83 69 84 48 85 49 86
REMARK SMILES IDX 57 87 50 88 56 89 58 90 55 91 51 92 52 93 53 94 54 95
REMARK H PARENT 3 21 78 48 46 59
REMARK Flexibility Score: inf
ROOT
ATOM      1  C   UNL A   1      32.904  29.739  26.921  1.00  0.00     0.188 C 
ENDROOT
BRANCH   1   2
ATOM      2  C   UNL A   1      31.754  29.124  26.123  1.00  0.00     0.188 C 
BRANCH   2   3
ATOM      3  O   UNL A   1      31.461  29.632  24.842  1.00  0.00    -0.376 OA
BRANCH   3   4
ATOM      4  C   UNL A   1      31.640  28.849  23.676  1.00  0.00     0.202 C 
BRANCH   4   5
ATOM      5  C   UNL A   1      30.820  27.594  23.336  1.00  0.00     0.261 C 
BRANCH   5   6
ATOM      6  O   UNL A   1      31.479  26.481  22.706  1.00  0.00    -0.462 OA
BRANCH   6   7
ATOM      7  C   UNL A   1      31.025  25.252  23.085  1.00  0.00     0.329 C 
ATOM      8  O   UNL A   1      29.835  24.962  23.163  1.00  0.00    -0.250 OA
BRANCH   7   9
ATOM      9  C   UNL A   1      32.134  24.255  23.456  1.00  0.00     0.197 C 
ATOM     10  N   UNL A   1      32.429  24.072  24.894  1.00  0.00    -0.308 N 
ATOM     11  C   UNL A   1      33.407  22.996  25.191  1.00  0.00     0.091 C 
ATOM     12  C   UNL A   1      33.408  24.367  22.607  1.00  0.00     0.038 C 
ATOM     13  C   UNL A   1      34.652  23.009  24.265  1.00  0.00     0.012 C 
ATOM     14  C   UNL A   1      33.883  22.915  26.655  1.00  0.00     0.025 C 
ATOM     15  C   UNL A   1      34.258  23.119  22.798  1.00  0.00     0.008 C 
ATOM     16  C   UNL A   1      35.499  21.748  24.480  1.00  0.00     0.006 C 
ATOM     17  C   UNL A   1      34.773  21.695  26.893  1.00  0.00     0.002 C 
ATOM     18  C   UNL A   1      35.956  21.643  25.929  1.00  0.00     0.000 C 
BRANCH  10  19
ATOM     19  C   UNL A   1      32.284  25.143  25.746  1.00  0.00     0.318 C 
ATOM     20  N   UNL A   1      31.135  25.201  26.486  1.00  0.00    -0.338 N 
ATOM     21  H   UNL A   1      31.091  25.949  27.124  1.00  0.00     0.165 HD
ATOM     22  O   UNL A   1      33.152  25.991  25.932  1.00  0.00    -0.249 OA
BRANCH  20  23
ATOM     23  C   UNL A   1      29.965  24.333  26.483  1.00  0.00     0.114 C 
ATOM     24  C   UNL A   1      30.221  22.907  26.917  1.00  0.00     0.027 C 
ENDBRANCH  20  23
ENDBRANCH  10  19
ENDBRANCH   7   9
ENDBRANCH   6   7
ENDBRANCH   5   6
ENDBRANCH   4   5
ENDBRANCH   3   4
ENDBRANCH   2   3
ENDBRANCH   1   2
BRANCH   1  25
ATOM     25  O   UNL A   1      33.047  31.133  27.030  1.00  0.00    -0.376 OA
BRANCH  25  26
ATOM     26  C   UNL A   1      31.899  31.946  26.884  1.00  0.00     0.202 C 
BRANCH  26  27
ATOM     27  C   UNL A   1      31.858  33.445  27.261  1.00  0.00     0.261 C 
BRANCH  27  28
ATOM     28  O   UNL A   1      33.101  34.129  27.485  1.00  0.00    -0.460 OA
BRANCH  28  29
ATOM     29  C   UNL A   1      33.430  34.362  28.781  1.00  0.00     0.338 C 
ATOM     30  O   UNL A   1      32.731  34.939  29.607  1.00  0.00    -0.246 OA
BRANCH  29  31
ATOM     31  C   UNL A   1      34.648  33.588  29.144  1.00  0.00     0.060 A 
ATOM     32  C   UNL A   1      34.482  32.356  29.802  1.00  0.00     0.016 A 
ATOM     33  C   UNL A   1      35.933  34.055  28.868  1.00  0.00     0.016 A 
ATOM     34  C   UNL A   1      35.589  31.615  30.219  1.00  0.00     0.010 A 
ATOM     35  C   UNL A   1      37.046  33.325  29.319  1.00  0.00     0.010 A 
ATOM     36  C   UNL A   1      36.881  32.120  30.032  1.00  0.00    -0.014 A 
BRANCH  36  37
ATOM     37  C   UNL A   1      38.017  31.505  30.777  1.00  0.00     0.031 A 
ATOM     38  C   UNL A   1      38.850  30.460  30.075  1.00  0.00     0.074 A 
ATOM     39  C   UNL A   1      38.356  31.896  32.020  1.00  0.00     0.049 A 
ATOM     40  N   UNL A   1      39.872  29.770  30.514  1.00  0.00    -0.248 NA
ATOM     41  C   UNL A   1      38.473  30.156  28.686  1.00  0.00     0.031 C 
ATOM     42  C   UNL A   1      37.680  32.936  32.793  1.00  0.00     0.029 A 
ATOM     43  N   UNL A   1      39.360  31.459  32.853  1.00  0.00    -0.354 N 
ATOM     44  C   UNL A   1      40.256  28.945  29.460  1.00  0.00     0.074 A 
ATOM     45  C   UNL A   1      39.330  29.194  28.376  1.00  0.00     0.031 C 
ATOM     46  C   UNL A   1      38.285  33.052  33.989  1.00  0.00     0.029 A 
ATOM     47  C   UNL A   1      39.366  32.071  34.086  1.00  0.00     0.049 A 
ATOM     48  H   UNL A   1      40.015  30.773  32.590  1.00  0.00     0.167 HD
ATOM     49  C   UNL A   1      41.289  28.069  29.394  1.00  0.00     0.034 A 
ATOM     50  C   UNL A   1      40.136  31.850  35.174  1.00  0.00     0.034 A 
ATOM     51  C   UNL A   1      42.204  27.816  30.482  1.00  0.00     0.049 A 
ATOM     52  C   UNL A   1      41.219  30.795  35.112  1.00  0.00     0.074 A 
ATOM     53  C   UNL A   1      43.287  26.955  30.513  1.00  0.00     0.029 A 
ATOM     54  N   UNL A   1      42.138  28.410  31.736  1.00  0.00    -0.354 N 
ATOM     55  N   UNL A   1      41.573  30.026  34.108  1.00  0.00    -0.248 NA
ATOM     56  C   UNL A   1      42.015  30.591  36.331  1.00  0.00     0.031 C 
ATOM     57  C   UNL A   1      43.821  26.964  31.807  1.00  0.00     0.029 A 
ATOM     58  C   UNL A   1      43.135  27.903  32.558  1.00  0.00     0.049 A 
ATOM     59  H   UNL A   1      41.479  29.090  32.003  1.00  0.00     0.167 HD
ATOM     60  C   UNL A   1      42.655  29.272  34.567  1.00  0.00     0.074 A 
ATOM     61  C   UNL A   1      42.907  29.699  35.927  1.00  0.00     0.031 C 
ATOM     62  C   UNL A   1      43.375  28.318  33.922  1.00  0.00     0.034 A 
BRANCH  49  63
ATOM     63  C   UNL A   1      41.447  27.275  28.117  1.00  0.00     0.023 A 
ATOM     64  C   UNL A   1      41.069  25.924  28.030  1.00  0.00     0.031 A 
ATOM     65  C   UNL A   1      42.006  27.876  26.976  1.00  0.00     0.131 A 
ATOM     66  C   UNL A   1      41.320  25.201  26.852  1.00  0.00     0.055 A 
ATOM     67  C   UNL A   1      42.174  27.175  25.780  1.00  0.00     0.041 A 
ATOM     68  F   UNL A   1      42.410  29.156  27.005  1.00  0.00    -0.206 F 
ATOM     69  C   UNL A   1      41.844  25.825  25.718  1.00  0.00     0.022 A 
BRANCH  66  70
ATOM     70  S   UNL A   1      41.092  23.402  26.873  1.00  0.00     0.124 S 
ATOM     71  O   UNL A   1      41.973  22.980  25.787  1.00  0.00    -0.237 OA
ATOM     72  O   UNL A   1      41.522  23.045  28.220  1.00  0.00    -0.237 OA
ATOM     73  O   UNL A   1      39.664  23.234  26.608  1.00  0.00    -0.744 OA
ENDBRANCH  66  70
ENDBRANCH  49  63
BRANCH  50  74
ATOM     74  C   UNL A   1      39.895  32.600  36.444  1.00  0.00     0.023 A 
ATOM     75  C   UNL A   1      38.920  32.185  37.366  1.00  0.00     0.031 A 
ATOM     76  C   UNL A   1      40.585  33.797  36.715  1.00  0.00     0.131 A 
ATOM     77  C   UNL A   1      38.627  32.983  38.485  1.00  0.00     0.055 A 
ATOM     78  C   UNL A   1      40.334  34.554  37.861  1.00  0.00     0.041 A 
ATOM     79  F   UNL A   1      41.519  34.250  35.863  1.00  0.00    -0.206 F 
ATOM     80  C   UNL A   1      39.339  34.155  38.747  1.00  0.00     0.022 A 
BRANCH  77  81
ATOM     81  S   UNL A   1      37.227  32.520  39.542  1.00  0.00     0.124 S 
ATOM     82  O   UNL A   1      37.547  31.136  39.871  1.00  0.00    -0.237 OA
ATOM     83  O   UNL A   1      37.341  33.482  40.635  1.00  0.00    -0.237 OA
ATOM     84  O   UNL A   1      36.067  32.705  38.672  1.00  0.00    -0.744 OA
ENDBRANCH  77  81
ENDBRANCH  50  74
BRANCH  62  85
ATOM     85  C   UNL A   1      44.539  27.705  34.670  1.00  0.00     0.023 A 
ATOM     86  C   UNL A   1      44.439  26.455  35.307  1.00  0.00     0.031 A 
ATOM     87  C   UNL A   1      45.759  28.398  34.777  1.00  0.00     0.131 A 
ATOM     88  C   UNL A   1      45.504  25.977  36.087  1.00  0.00     0.055 A 
ATOM     89  C   UNL A   1      46.843  27.880  35.489  1.00  0.00     0.041 A 
ATOM     90  F   UNL A   1      45.920  29.597  34.194  1.00  0.00    -0.206 F 
ATOM     91  C   UNL A   1      46.713  26.671  36.166  1.00  0.00     0.022 A 
BRANCH  88  92
ATOM     92  S   UNL A   1      45.240  24.500  37.109  1.00  0.00     0.124 S 
ATOM     93  O   UNL A   1      44.524  25.051  38.255  1.00  0.00    -0.237 OA
ATOM     94  O   UNL A   1      44.460  23.643  36.222  1.00  0.00    -0.237 OA
ATOM     95  O   UNL A   1      46.596  24.031  37.391  1.00  0.00    -0.744 OA
ENDBRANCH  88  92
ENDBRANCH  62  85
ENDBRANCH  36  37
ENDBRANCH  29  31
ENDBRANCH  28  29
ENDBRANCH  27  28
ENDBRANCH  26  27
ENDBRANCH  25  26
ENDBRANCH   1  25
TORSDOF 22
ENDMDL
