MODEL 1
REMARK VINA RESULT:      -9.4      0.000      0.000
REMARK SMILES CC(C)CN(C)c1cc2c(cc1Cl)C=C(C(=O)OCCOCCOCCOC(=O)c1ccc(-c3c4nc(c(-c5cc(S(=O)(=O)[O-])ccc5F)c5ccc([nH]5)c(-c5cc(S(=O)(=O)[O-])ccc5F)c5nc(c(-c6cc(S(=O)(=O)[O-])ccc6F)c6ccc3[nH]6)C=C5)C=C4)cc1)[C@@H](C(F)(F)F)O2
REMARK SMILES IDX 22 1 21 2 20 3 19 4 18 5 16 6 17 7 15 8 7 9 8 10 12 11 9 12
REMARK SMILES IDX 11 13 13 14 10 15 98 16 14 17 93 18 5 19 6 20 4 21 2 22 1 23
REMARK SMILES IDX 3 24 94 25 95 26 96 27 97 28 23 29 24 30 25 31 26 32 27 33
REMARK SMILES IDX 28 34 29 35 30 36 31 37 92 38 32 39 91 40 33 41 34 42 35 43
REMARK SMILES IDX 85 44 36 45 90 46 84 47 86 48 37 49 89 50 83 51 82 52 38 54
REMARK SMILES IDX 70 55 50 56 69 57 51 58 54 59 68 60 87 61 52 62 53 63 67 65
REMARK SMILES IDX 88 66 55 67 39 68 40 69 48 70 41 71 47 72 49 73 46 74 42 75
REMARK SMILES IDX 43 76 44 77 45 78 71 79 72 80 80 81 73 82 79 83 81 84 78 85
REMARK SMILES IDX 74 86 75 87 76 88 77 89 56 90 57 91 65 92 58 93 64 94 66 95
REMARK SMILES IDX 63 96 59 97 60 98 61 99 62 100
REMARK H PARENT 86 53 54 64
REMARK Flexibility Score: inf
ROOT
ATOM      1  C   UNL A   1      34.552  32.525  27.912  1.00  0.00     0.188 C 
ENDROOT
BRANCH   1   2
ATOM      2  O   UNL A   1      34.067  31.253  28.314  1.00  0.00    -0.376 OA
BRANCH   2   3
ATOM      3  C   UNL A   1      33.714  30.371  27.258  1.00  0.00     0.202 C 
BRANCH   3   4
ATOM      4  C   UNL A   1      32.227  30.398  26.876  1.00  0.00     0.261 C 
BRANCH   4   5
ATOM      5  O   UNL A   1      31.695  29.139  26.427  1.00  0.00    -0.460 OA
BRANCH   5   6
ATOM      6  C   UNL A   1      32.053  28.748  25.186  1.00  0.00     0.338 C 
ATOM      7  O   UNL A   1      32.422  29.487  24.287  1.00  0.00    -0.246 OA
BRANCH   6   8
ATOM      8  C   UNL A   1      32.051  27.271  25.106  1.00  0.00     0.087 C 
ATOM      9  C   UNL A   1      33.298  22.455  24.253  1.00  0.00     0.059 A 
ATOM     10  C   UNL A   1      32.126  23.102  24.702  1.00  0.00     0.074 A 
ATOM     11  C   UNL A   1      34.433  23.270  24.046  1.00  0.00     0.065 A 
ATOM     12  C   UNL A   1      32.094  24.490  24.924  1.00  0.00     0.130 A 
ATOM     13  C   UNL A   1      34.435  24.625  24.387  1.00  0.00     0.034 A 
ATOM     14  Cl  UNL A   1      35.849  22.707  23.225  1.00  0.00    -0.082 Cl
ATOM     15  C   UNL A   1      33.261  25.241  24.807  1.00  0.00     0.019 A 
ATOM     16  O   UNL A   1      30.889  25.056  25.250  1.00  0.00    -0.475 OA
ATOM     17  C   UNL A   1      33.246  26.675  25.033  1.00  0.00     0.027 C 
ATOM     18  C   UNL A   1      30.753  26.503  25.078  1.00  0.00     0.316 C 
BRANCH   9  19
ATOM     19  N   UNL A   1      33.304  21.084  23.968  1.00  0.00    -0.373 N 
ATOM     20  C   UNL A   1      32.244  20.609  23.088  1.00  0.00     0.143 C 
BRANCH  19  21
ATOM     21  C   UNL A   1      33.840  20.129  24.965  1.00  0.00     0.119 C 
BRANCH  21  22
ATOM     22  C   UNL A   1      33.552  18.653  24.620  1.00  0.00     0.002 C 
ATOM     23  C   UNL A   1      34.841  17.872  24.356  1.00  0.00     0.009 C 
ATOM     24  C   UNL A   1      32.760  17.943  25.724  1.00  0.00     0.009 C 
ENDBRANCH  21  22
ENDBRANCH  19  21
ENDBRANCH   9  19
BRANCH  18  25
ATOM     25  C   UNL A   1      29.949  26.819  23.810  1.00  0.00     0.430 C 
ATOM     26  F   UNL A   1      29.488  28.094  23.817  1.00  0.00    -0.167 F 
ATOM     27  F   UNL A   1      30.711  26.692  22.696  1.00  0.00    -0.167 F 
ATOM     28  F   UNL A   1      28.882  26.004  23.658  1.00  0.00    -0.167 F 
ENDBRANCH  18  25
ENDBRANCH   6   8
ENDBRANCH   5   6
ENDBRANCH   4   5
ENDBRANCH   3   4
ENDBRANCH   2   3
ENDBRANCH   1   2
BRANCH   1  29
ATOM     29  C   UNL A   1      33.607  33.694  28.264  1.00  0.00     0.188 C 
BRANCH  29  30
ATOM     30  O   UNL A   1      33.454  34.122  29.610  1.00  0.00    -0.376 OA
BRANCH  30  31
ATOM     31  C   UNL A   1      34.556  34.008  30.498  1.00  0.00     0.202 C 
BRANCH  31  32
ATOM     32  C   UNL A   1      34.728  32.739  31.349  1.00  0.00     0.261 C 
BRANCH  32  33
ATOM     33  O   UNL A   1      35.998  32.076  31.235  1.00  0.00    -0.460 OA
BRANCH  33  34
ATOM     34  C   UNL A   1      36.293  31.187  32.221  1.00  0.00     0.338 C 
ATOM     35  O   UNL A   1      36.157  29.977  32.180  1.00  0.00    -0.246 OA
BRANCH  34  36
ATOM     36  C   UNL A   1      37.018  31.896  33.303  1.00  0.00     0.060 A 
ATOM     37  C   UNL A   1      36.590  33.143  33.756  1.00  0.00     0.016 A 
ATOM     38  C   UNL A   1      38.154  31.293  33.863  1.00  0.00     0.016 A 
ATOM     39  C   UNL A   1      37.292  33.778  34.788  1.00  0.00     0.010 A 
ATOM     40  C   UNL A   1      38.866  31.938  34.878  1.00  0.00     0.010 A 
ATOM     41  C   UNL A   1      38.428  33.178  35.365  1.00  0.00    -0.014 A 
BRANCH  41  42
ATOM     42  C   UNL A   1      39.025  33.752  36.598  1.00  0.00     0.031 A 
ATOM     43  C   UNL A   1      40.264  34.597  36.573  1.00  0.00     0.074 A 
ATOM     44  C   UNL A   1      38.419  33.483  37.770  1.00  0.00     0.049 A 
ATOM     45  N   UNL A   1      40.824  35.252  37.556  1.00  0.00    -0.248 NA
ATOM     46  C   UNL A   1      40.968  34.724  35.288  1.00  0.00     0.031 C 
ATOM     47  C   UNL A   1      37.233  32.638  37.913  1.00  0.00     0.029 A 
ATOM     48  N   UNL A   1      38.698  33.890  39.051  1.00  0.00    -0.354 N 
ATOM     49  C   UNL A   1      41.933  35.889  37.014  1.00  0.00     0.074 A 
ATOM     50  C   UNL A   1      41.993  35.502  35.618  1.00  0.00     0.031 C 
ATOM     51  C   UNL A   1      36.863  32.619  39.201  1.00  0.00     0.029 A 
ATOM     52  C   UNL A   1      37.800  33.423  39.984  1.00  0.00     0.049 A 
ATOM     53  H   UNL A   1      39.465  34.460  39.281  1.00  0.00     0.167 HD
ATOM     54  C   UNL A   1      42.800  36.734  37.625  1.00  0.00     0.034 A 
ATOM     55  C   UNL A   1      37.724  33.627  41.314  1.00  0.00     0.034 A 
ATOM     56  C   UNL A   1      42.725  37.099  39.021  1.00  0.00     0.049 A 
ATOM     57  C   UNL A   1      38.722  34.548  41.970  1.00  0.00     0.074 A 
ATOM     58  C   UNL A   1      43.524  37.997  39.709  1.00  0.00     0.029 A 
ATOM     59  N   UNL A   1      41.821  36.590  39.942  1.00  0.00    -0.354 N 
ATOM     60  N   UNL A   1      39.687  35.245  41.419  1.00  0.00    -0.248 NA
ATOM     61  C   UNL A   1      38.614  34.725  43.425  1.00  0.00     0.031 C 
ATOM     62  C   UNL A   1      43.159  37.970  41.054  1.00  0.00     0.029 A 
ATOM     63  C   UNL A   1      42.070  37.125  41.197  1.00  0.00     0.049 A 
ATOM     64  H   UNL A   1      41.108  35.944  39.734  1.00  0.00     0.167 HD
ATOM     65  C   UNL A   1      40.278  35.968  42.452  1.00  0.00     0.074 A 
ATOM     66  C   UNL A   1      39.546  35.641  43.658  1.00  0.00     0.031 C 
ATOM     67  C   UNL A   1      41.332  36.820  42.400  1.00  0.00     0.034 A 
BRANCH  54  68
ATOM     68  C   UNL A   1      43.899  37.379  36.812  1.00  0.00     0.023 A 
ATOM     69  C   UNL A   1      43.629  38.525  36.039  1.00  0.00     0.031 A 
ATOM     70  C   UNL A   1      45.142  36.744  36.643  1.00  0.00     0.131 A 
ATOM     71  C   UNL A   1      44.565  38.965  35.093  1.00  0.00     0.055 A 
ATOM     72  C   UNL A   1      46.089  37.214  35.732  1.00  0.00     0.041 A 
ATOM     73  F   UNL A   1      45.445  35.641  37.349  1.00  0.00    -0.206 F 
ATOM     74  C   UNL A   1      45.795  38.318  34.939  1.00  0.00     0.022 A 
BRANCH  71  75
ATOM     75  S   UNL A   1      44.186  40.331  33.961  1.00  0.00     0.124 S 
ATOM     76  O   UNL A   1      45.316  40.274  33.035  1.00  0.00    -0.237 OA
ATOM     77  O   UNL A   1      42.902  39.919  33.402  1.00  0.00    -0.237 OA
ATOM     78  O   UNL A   1      44.153  41.506  34.825  1.00  0.00    -0.744 OA
ENDBRANCH  71  75
ENDBRANCH  54  68
BRANCH  55  79
ATOM     79  C   UNL A   1      36.605  33.009  42.084  1.00  0.00     0.023 A 
ATOM     80  C   UNL A   1      35.364  33.660  42.212  1.00  0.00     0.031 A 
ATOM     81  C   UNL A   1      36.796  31.808  42.787  1.00  0.00     0.131 A 
ATOM     82  C   UNL A   1      34.390  33.140  43.074  1.00  0.00     0.055 A 
ATOM     83  C   UNL A   1      35.796  31.253  43.586  1.00  0.00     0.041 A 
ATOM     84  F   UNL A   1      37.969  31.159  42.711  1.00  0.00    -0.206 F 
ATOM     85  C   UNL A   1      34.591  31.931  43.747  1.00  0.00     0.022 A 
BRANCH  82  86
ATOM     86  S   UNL A   1      32.889  34.083  43.458  1.00  0.00     0.124 S 
ATOM     87  O   UNL A   1      32.112  33.119  44.230  1.00  0.00    -0.237 OA
ATOM     88  O   UNL A   1      33.430  35.210  44.215  1.00  0.00    -0.237 OA
ATOM     89  O   UNL A   1      32.349  34.421  42.145  1.00  0.00    -0.744 OA
ENDBRANCH  82  86
ENDBRANCH  55  79
BRANCH  67  90
ATOM     90  C   UNL A   1      41.787  37.498  43.673  1.00  0.00     0.023 A 
ATOM     91  C   UNL A   1      42.701  36.850  44.528  1.00  0.00     0.031 A 
ATOM     92  C   UNL A   1      41.202  38.696  44.118  1.00  0.00     0.131 A 
ATOM     93  C   UNL A   1      42.963  37.375  45.800  1.00  0.00     0.055 A 
ATOM     94  C   UNL A   1      41.509  39.246  45.364  1.00  0.00     0.041 A 
ATOM     95  F   UNL A   1      40.316  39.349  43.349  1.00  0.00    -0.206 F 
ATOM     96  C   UNL A   1      42.380  38.575  46.219  1.00  0.00     0.022 A 
BRANCH  93  97
ATOM     97  S   UNL A   1      43.989  36.474  46.996  1.00  0.00     0.124 S 
ATOM     98  O   UNL A   1      44.997  35.864  46.130  1.00  0.00    -0.237 OA
ATOM     99  O   UNL A   1      44.475  37.549  47.856  1.00  0.00    -0.237 OA
ATOM    100  O   UNL A   1      43.061  35.538  47.622  1.00  0.00    -0.744 OA
ENDBRANCH  93  97
ENDBRANCH  67  90
ENDBRANCH  41  42
ENDBRANCH  34  36
ENDBRANCH  33  34
ENDBRANCH  32  33
ENDBRANCH  31  32
ENDBRANCH  30  31
ENDBRANCH  29  30
ENDBRANCH   1  29
TORSDOF 24
ENDMDL
MODEL 2
REMARK VINA RESULT:      -9.3     11.167     18.456
REMARK SMILES CC(C)CN(C)c1cc2c(cc1Cl)C=C(C(=O)OCCOCCOCCOC(=O)c1ccc(-c3c4nc(c(-c5cc(S(=O)(=O)[O-])ccc5F)c5ccc([nH]5)c(-c5cc(S(=O)(=O)[O-])ccc5F)c5nc(c(-c6cc(S(=O)(=O)[O-])ccc6F)c6ccc3[nH]6)C=C5)C=C4)cc1)[C@@H](C(F)(F)F)O2
REMARK SMILES IDX 22 1 21 2 20 3 19 4 18 5 16 6 17 7 15 8 7 9 8 10 12 11 9 12
REMARK SMILES IDX 11 13 13 14 10 15 98 16 14 17 93 18 5 19 6 20 4 21 2 22 1 23
REMARK SMILES IDX 3 24 94 25 95 26 96 27 97 28 23 29 24 30 25 31 26 32 27 33
REMARK SMILES IDX 28 34 29 35 30 36 31 37 92 38 32 39 91 40 33 41 34 42 35 43
REMARK SMILES IDX 85 44 36 45 90 46 84 47 86 48 37 49 89 50 83 51 82 52 38 54
REMARK SMILES IDX 70 55 50 56 69 57 51 58 54 59 68 60 87 61 52 62 53 63 67 65
REMARK SMILES IDX 88 66 55 67 39 68 40 69 48 70 41 71 47 72 49 73 46 74 42 75
REMARK SMILES IDX 43 76 44 77 45 78 71 79 72 80 80 81 73 82 79 83 81 84 78 85
REMARK SMILES IDX 74 86 75 87 76 88 77 89 56 90 57 91 65 92 58 93 64 94 66 95
REMARK SMILES IDX 63 96 59 97 60 98 61 99 62 100
REMARK H PARENT 86 53 54 64
REMARK Flexibility Score: inf
ROOT
ATOM      1  C   UNL A   1      48.136  39.330  27.931  1.00  0.00     0.188 C 
ENDROOT
BRANCH   1   2
ATOM      2  O   UNL A   1      47.889  40.694  28.240  1.00  0.00    -0.376 OA
BRANCH   2   3
ATOM      3  C   UNL A   1      47.417  41.489  27.161  1.00  0.00     0.202 C 
BRANCH   3   4
ATOM      4  C   UNL A   1      45.919  41.333  26.864  1.00  0.00     0.261 C 
BRANCH   4   5
ATOM      5  O   UNL A   1      45.392  42.267  25.904  1.00  0.00    -0.460 OA
BRANCH   5   6
ATOM      6  C   UNL A   1      44.522  41.768  25.002  1.00  0.00     0.338 C 
ATOM      7  O   UNL A   1      43.753  40.838  25.194  1.00  0.00    -0.246 OA
BRANCH   6   8
ATOM      8  C   UNL A   1      44.543  42.594  23.775  1.00  0.00     0.087 C 
ATOM      9  C   UNL A   1      43.420  44.734  19.344  1.00  0.00     0.059 A 
ATOM     10  C   UNL A   1      44.542  44.779  20.201  1.00  0.00     0.074 A 
ATOM     11  C   UNL A   1      42.301  44.004  19.801  1.00  0.00     0.065 A 
ATOM     12  C   UNL A   1      44.542  44.122  21.443  1.00  0.00     0.130 A 
ATOM     13  C   UNL A   1      42.257  43.460  21.087  1.00  0.00     0.034 A 
ATOM     14  Cl  UNL A   1      40.969  43.597  18.774  1.00  0.00    -0.082 Cl
ATOM     15  C   UNL A   1      43.384  43.500  21.902  1.00  0.00     0.019 A 
ATOM     16  O   UNL A   1      45.708  44.119  22.163  1.00  0.00    -0.475 OA
ATOM     17  C   UNL A   1      43.365  42.817  23.183  1.00  0.00     0.027 C 
ATOM     18  C   UNL A   1      45.846  43.120  23.223  1.00  0.00     0.316 C 
BRANCH   9  19
ATOM     19  N   UNL A   1      43.452  45.333  18.078  1.00  0.00    -0.373 N 
ATOM     20  C   UNL A   1      43.754  44.449  16.959  1.00  0.00     0.143 C 
BRANCH  19  21
ATOM     21  C   UNL A   1      43.848  46.754  17.948  1.00  0.00     0.119 C 
BRANCH  21  22
ATOM     22  C   UNL A   1      42.658  47.701  17.685  1.00  0.00     0.002 C 
ATOM     23  C   UNL A   1      43.074  49.171  17.782  1.00  0.00     0.009 C 
ATOM     24  C   UNL A   1      42.015  47.458  16.315  1.00  0.00     0.009 C 
ENDBRANCH  21  22
ENDBRANCH  19  21
ENDBRANCH   9  19
BRANCH  18  25
ATOM     25  C   UNL A   1      46.756  41.974  22.765  1.00  0.00     0.430 C 
ATOM     26  F   UNL A   1      47.904  42.438  22.215  1.00  0.00    -0.167 F 
ATOM     27  F   UNL A   1      47.120  41.184  23.805  1.00  0.00    -0.167 F 
ATOM     28  F   UNL A   1      46.162  41.177  21.849  1.00  0.00    -0.167 F 
ENDBRANCH  18  25
ENDBRANCH   6   8
ENDBRANCH   5   6
ENDBRANCH   4   5
ENDBRANCH   3   4
ENDBRANCH   2   3
ENDBRANCH   1   2
BRANCH   1  29
ATOM     29  C   UNL A   1      48.733  38.522  29.104  1.00  0.00     0.188 C 
BRANCH  29  30
ATOM     30  O   UNL A   1      48.943  39.131  30.370  1.00  0.00    -0.376 OA
BRANCH  30  31
ATOM     31  C   UNL A   1      47.831  39.338  31.229  1.00  0.00     0.202 C 
BRANCH  31  32
ATOM     32  C   UNL A   1      46.519  38.573  30.983  1.00  0.00     0.261 C 
BRANCH  32  33
ATOM     33  O   UNL A   1      46.658  37.181  30.657  1.00  0.00    -0.460 OA
BRANCH  33  34
ATOM     34  C   UNL A   1      46.266  36.304  31.620  1.00  0.00     0.338 C 
ATOM     35  O   UNL A   1      46.119  36.539  32.806  1.00  0.00    -0.246 OA
BRANCH  34  36
ATOM     36  C   UNL A   1      45.832  35.044  30.972  1.00  0.00     0.060 A 
ATOM     37  C   UNL A   1      46.204  33.804  31.491  1.00  0.00     0.016 A 
ATOM     38  C   UNL A   1      45.042  35.115  29.815  1.00  0.00     0.016 A 
ATOM     39  C   UNL A   1      45.766  32.634  30.860  1.00  0.00     0.010 A 
ATOM     40  C   UNL A   1      44.623  33.946  29.173  1.00  0.00     0.010 A 
ATOM     41  C   UNL A   1      44.963  32.694  29.703  1.00  0.00    -0.014 A 
BRANCH  41  42
ATOM     42  C   UNL A   1      44.325  31.459  29.178  1.00  0.00     0.031 A 
ATOM     43  C   UNL A   1      45.025  30.537  28.225  1.00  0.00     0.074 A 
ATOM     44  C   UNL A   1      43.070  31.185  29.580  1.00  0.00     0.049 A 
ATOM     45  N   UNL A   1      44.629  29.373  27.778  1.00  0.00    -0.248 NA
ATOM     46  C   UNL A   1      46.328  30.971  27.700  1.00  0.00     0.031 C 
ATOM     47  C   UNL A   1      42.282  32.036  30.472  1.00  0.00     0.029 A 
ATOM     48  N   UNL A   1      42.241  30.125  29.310  1.00  0.00    -0.354 N 
ATOM     49  C   UNL A   1      45.639  28.917  26.939  1.00  0.00     0.074 A 
ATOM     50  C   UNL A   1      46.647  29.957  26.901  1.00  0.00     0.031 C 
ATOM     51  C   UNL A   1      41.100  31.449  30.706  1.00  0.00     0.029 A 
ATOM     52  C   UNL A   1      41.030  30.194  29.959  1.00  0.00     0.049 A 
ATOM     53  H   UNL A   1      42.489  29.386  28.709  1.00  0.00     0.167 HD
ATOM     54  C   UNL A   1      45.718  27.733  26.285  1.00  0.00     0.034 A 
ATOM     55  C   UNL A   1      39.984  29.343  29.967  1.00  0.00     0.034 A 
ATOM     56  C   UNL A   1      44.694  26.713  26.331  1.00  0.00     0.049 A 
ATOM     57  C   UNL A   1      40.090  28.047  29.204  1.00  0.00     0.074 A 
ATOM     58  C   UNL A   1      44.719  25.457  25.750  1.00  0.00     0.029 A 
ATOM     59  N   UNL A   1      43.471  26.826  26.976  1.00  0.00    -0.354 N 
ATOM     60  N   UNL A   1      41.104  27.574  28.520  1.00  0.00    -0.248 NA
ATOM     61  C   UNL A   1      38.919  27.159  29.225  1.00  0.00     0.031 C 
ATOM     62  C   UNL A   1      43.486  24.845  25.972  1.00  0.00     0.029 A 
ATOM     63  C   UNL A   1      42.720  25.678  26.771  1.00  0.00     0.049 A 
ATOM     64  H   UNL A   1      43.179  27.606  27.500  1.00  0.00     0.167 HD
ATOM     65  C   UNL A   1      40.707  26.321  28.059  1.00  0.00     0.074 A 
ATOM     66  C   UNL A   1      39.367  26.101  28.563  1.00  0.00     0.031 C 
ATOM     67  C   UNL A   1      41.391  25.441  27.287  1.00  0.00     0.034 A 
BRANCH  54  68
ATOM     68  C   UNL A   1      46.957  27.414  25.481  1.00  0.00     0.023 A 
ATOM     69  C   UNL A   1      47.087  27.889  24.161  1.00  0.00     0.031 A 
ATOM     70  C   UNL A   1      47.900  26.480  25.945  1.00  0.00     0.131 A 
ATOM     71  C   UNL A   1      48.100  27.385  23.335  1.00  0.00     0.055 A 
ATOM     72  C   UNL A   1      48.935  26.015  25.132  1.00  0.00     0.041 A 
ATOM     73  F   UNL A   1      47.815  25.988  27.193  1.00  0.00    -0.206 F 
ATOM     74  C   UNL A   1      49.027  26.454  23.815  1.00  0.00     0.022 A 
BRANCH  71  75
ATOM     75  S   UNL A   1      48.199  27.841  21.582  1.00  0.00     0.124 S 
ATOM     76  O   UNL A   1      48.511  26.557  20.956  1.00  0.00    -0.237 OA
ATOM     77  O   UNL A   1      46.856  28.350  21.322  1.00  0.00    -0.237 OA
ATOM     78  O   UNL A   1      49.270  28.830  21.535  1.00  0.00    -0.744 OA
ENDBRANCH  71  75
ENDBRANCH  54  68
BRANCH  55  79
ATOM     79  C   UNL A   1      38.789  29.666  30.802  1.00  0.00     0.023 A 
ATOM     80  C   UNL A   1      37.794  30.544  30.338  1.00  0.00     0.031 A 
ATOM     81  C   UNL A   1      38.681  29.180  32.116  1.00  0.00     0.131 A 
ATOM     82  C   UNL A   1      36.773  30.960  31.202  1.00  0.00     0.055 A 
ATOM     83  C   UNL A   1      37.620  29.536  32.949  1.00  0.00     0.041 A 
ATOM     84  F   UNL A   1      39.615  28.352  32.610  1.00  0.00    -0.206 F 
ATOM     85  C   UNL A   1      36.668  30.446  32.498  1.00  0.00     0.022 A 
BRANCH  82  86
ATOM     86  S   UNL A   1      35.627  32.282  30.720  1.00  0.00     0.124 S 
ATOM     87  O   UNL A   1      36.534  33.404  30.497  1.00  0.00    -0.237 OA
ATOM     88  O   UNL A   1      35.010  31.720  29.522  1.00  0.00    -0.237 OA
ATOM     89  O   UNL A   1      34.741  32.406  31.873  1.00  0.00    -0.744 OA
ENDBRANCH  82  86
ENDBRANCH  55  79
BRANCH  67  90
ATOM     90  C   UNL A   1      40.739  24.127  26.922  1.00  0.00     0.023 A 
ATOM     91  C   UNL A   1      39.503  24.118  26.246  1.00  0.00     0.031 A 
ATOM     92  C   UNL A   1      41.251  22.900  27.380  1.00  0.00     0.131 A 
ATOM     93  C   UNL A   1      38.797  22.917  26.093  1.00  0.00     0.055 A 
ATOM     94  C   UNL A   1      40.570  21.698  27.175  1.00  0.00     0.041 A 
ATOM     95  F   UNL A   1      42.419  22.852  28.040  1.00  0.00    -0.206 F 
ATOM     96  C   UNL A   1      39.329  21.705  26.544  1.00  0.00     0.022 A 
BRANCH  93  97
ATOM     97  S   UNL A   1      37.123  22.894  25.392  1.00  0.00     0.124 S 
ATOM     98  O   UNL A   1      37.392  23.014  23.961  1.00  0.00    -0.237 OA
ATOM     99  O   UNL A   1      36.626  21.592  25.826  1.00  0.00    -0.237 OA
ATOM    100  O   UNL A   1      36.471  24.050  26.000  1.00  0.00    -0.744 OA
ENDBRANCH  93  97
ENDBRANCH  67  90
ENDBRANCH  41  42
ENDBRANCH  34  36
ENDBRANCH  33  34
ENDBRANCH  32  33
ENDBRANCH  31  32
ENDBRANCH  30  31
ENDBRANCH  29  30
ENDBRANCH   1  29
TORSDOF 24
ENDMDL
MODEL 3
REMARK VINA RESULT:      -8.6      8.082     12.501
REMARK SMILES CC(C)CN(C)c1cc2c(cc1Cl)C=C(C(=O)OCCOCCOCCOC(=O)c1ccc(-c3c4nc(c(-c5cc(S(=O)(=O)[O-])ccc5F)c5ccc([nH]5)c(-c5cc(S(=O)(=O)[O-])ccc5F)c5nc(c(-c6cc(S(=O)(=O)[O-])ccc6F)c6ccc3[nH]6)C=C5)C=C4)cc1)[C@@H](C(F)(F)F)O2
REMARK SMILES IDX 22 1 21 2 20 3 19 4 18 5 16 6 17 7 15 8 7 9 8 10 12 11 9 12
REMARK SMILES IDX 11 13 13 14 10 15 98 16 14 17 93 18 5 19 6 20 4 21 2 22 1 23
REMARK SMILES IDX 3 24 94 25 95 26 96 27 97 28 23 29 24 30 25 31 26 32 27 33
REMARK SMILES IDX 28 34 29 35 30 36 31 37 92 38 32 39 91 40 33 41 34 42 35 43
REMARK SMILES IDX 85 44 36 45 90 46 84 47 86 48 37 49 89 50 83 51 82 52 38 54
REMARK SMILES IDX 70 55 50 56 69 57 51 58 54 59 68 60 87 61 52 62 53 63 67 65
REMARK SMILES IDX 88 66 55 67 39 68 40 69 48 70 41 71 47 72 49 73 46 74 42 75
REMARK SMILES IDX 43 76 44 77 45 78 71 79 72 80 80 81 73 82 79 83 81 84 78 85
REMARK SMILES IDX 74 86 75 87 76 88 77 89 56 90 57 91 65 92 58 93 64 94 66 95
REMARK SMILES IDX 63 96 59 97 60 98 61 99 62 100
REMARK H PARENT 86 53 54 64
REMARK Flexibility Score: inf
ROOT
ATOM      1  C   UNL A   1      34.221  32.707  27.943  1.00  0.00     0.188 C 
ENDROOT
BRANCH   1   2
ATOM      2  O   UNL A   1      33.631  31.425  28.106  1.00  0.00    -0.376 OA
BRANCH   2   3
ATOM      3  C   UNL A   1      33.245  30.773  26.904  1.00  0.00     0.202 C 
BRANCH   3   4
ATOM      4  C   UNL A   1      31.734  30.779  26.634  1.00  0.00     0.261 C 
BRANCH   4   5
ATOM      5  O   UNL A   1      31.301  29.874  25.602  1.00  0.00    -0.460 OA
BRANCH   5   6
ATOM      6  C   UNL A   1      32.273  29.323  24.846  1.00  0.00     0.338 C 
ATOM      7  O   UNL A   1      33.243  29.912  24.394  1.00  0.00    -0.246 OA
BRANCH   6   8
ATOM      8  C   UNL A   1      32.060  27.862  24.742  1.00  0.00     0.087 C 
ATOM      9  C   UNL A   1      32.651  22.917  23.927  1.00  0.00     0.059 A 
ATOM     10  C   UNL A   1      31.552  23.730  24.282  1.00  0.00     0.074 A 
ATOM     11  C   UNL A   1      33.907  23.554  23.833  1.00  0.00     0.065 A 
ATOM     12  C   UNL A   1      31.706  25.106  24.521  1.00  0.00     0.130 A 
ATOM     13  C   UNL A   1      34.080  24.892  24.194  1.00  0.00     0.034 A 
ATOM     14  Cl  UNL A   1      35.292  22.788  23.131  1.00  0.00    -0.082 Cl
ATOM     15  C   UNL A   1      32.977  25.675  24.519  1.00  0.00     0.019 A 
ATOM     16  O   UNL A   1      30.574  25.845  24.749  1.00  0.00    -0.475 OA
ATOM     17  C   UNL A   1      33.155  27.095  24.766  1.00  0.00     0.027 C 
ATOM     18  C   UNL A   1      30.670  27.296  24.589  1.00  0.00     0.316 C 
BRANCH   9  19
ATOM     19  N   UNL A   1      32.478  21.561  23.622  1.00  0.00    -0.373 N 
ATOM     20  C   UNL A   1      32.073  21.258  22.255  1.00  0.00     0.143 C 
BRANCH  19  21
ATOM     21  C   UNL A   1      32.053  20.618  24.682  1.00  0.00     0.119 C 
BRANCH  21  22
ATOM     22  C   UNL A   1      33.232  19.931  25.403  1.00  0.00     0.002 C 
ATOM     23  C   UNL A   1      33.628  20.678  26.678  1.00  0.00     0.009 C 
ATOM     24  C   UNL A   1      32.922  18.473  25.760  1.00  0.00     0.009 C 
ENDBRANCH  21  22
ENDBRANCH  19  21
ENDBRANCH   9  19
BRANCH  18  25
ATOM     25  C   UNL A   1      30.038  27.732  23.260  1.00  0.00     0.430 C 
ATOM     26  F   UNL A   1      29.917  29.080  23.184  1.00  0.00    -0.167 F 
ATOM     27  F   UNL A   1      30.798  27.354  22.203  1.00  0.00    -0.167 F 
ATOM     28  F   UNL A   1      28.807  27.204  23.076  1.00  0.00    -0.167 F 
ENDBRANCH  18  25
ENDBRANCH   6   8
ENDBRANCH   5   6
ENDBRANCH   4   5
ENDBRANCH   3   4
ENDBRANCH   2   3
ENDBRANCH   1   2
BRANCH   1  29
ATOM     29  C   UNL A   1      33.608  33.797  28.849  1.00  0.00     0.188 C 
BRANCH  29  30
ATOM     30  O   UNL A   1      33.866  33.807  30.246  1.00  0.00    -0.376 OA
BRANCH  30  31
ATOM     31  C   UNL A   1      34.993  33.101  30.744  1.00  0.00     0.202 C 
BRANCH  31  32
ATOM     32  C   UNL A   1      35.006  32.604  32.199  1.00  0.00     0.261 C 
BRANCH  32  33
ATOM     33  O   UNL A   1      35.999  31.614  32.514  1.00  0.00    -0.460 OA
BRANCH  33  34
ATOM     34  C   UNL A   1      37.078  32.058  33.212  1.00  0.00     0.338 C 
ATOM     35  O   UNL A   1      37.075  32.563  34.321  1.00  0.00    -0.246 OA
BRANCH  34  36
ATOM     36  C   UNL A   1      38.312  31.642  32.504  1.00  0.00     0.060 A 
ATOM     37  C   UNL A   1      38.463  31.859  31.135  1.00  0.00     0.016 A 
ATOM     38  C   UNL A   1      39.331  31.013  33.235  1.00  0.00     0.016 A 
ATOM     39  C   UNL A   1      39.647  31.463  30.501  1.00  0.00     0.010 A 
ATOM     40  C   UNL A   1      40.504  30.598  32.597  1.00  0.00     0.010 A 
ATOM     41  C   UNL A   1      40.681  30.840  31.227  1.00  0.00    -0.014 A 
BRANCH  41  42
ATOM     42  C   UNL A   1      42.009  30.630  30.595  1.00  0.00     0.031 A 
ATOM     43  C   UNL A   1      42.985  31.748  30.387  1.00  0.00     0.074 A 
ATOM     44  C   UNL A   1      42.320  29.382  30.195  1.00  0.00     0.049 A 
ATOM     45  N   UNL A   1      44.218  31.685  29.953  1.00  0.00    -0.248 NA
ATOM     46  C   UNL A   1      42.527  33.111  30.698  1.00  0.00     0.031 C 
ATOM     47  C   UNL A   1      41.427  28.229  30.311  1.00  0.00     0.029 A 
ATOM     48  N   UNL A   1      43.459  28.869  29.625  1.00  0.00    -0.354 N 
ATOM     49  C   UNL A   1      44.697  32.989  29.958  1.00  0.00     0.074 A 
ATOM     50  C   UNL A   1      43.602  33.832  30.395  1.00  0.00     0.031 C 
ATOM     51  C   UNL A   1      42.063  27.137  29.864  1.00  0.00     0.029 A 
ATOM     52  C   UNL A   1      43.397  27.513  29.400  1.00  0.00     0.049 A 
ATOM     53  H   UNL A   1      44.243  29.417  29.400  1.00  0.00     0.167 HD
ATOM     54  C   UNL A   1      45.942  33.428  29.648  1.00  0.00     0.034 A 
ATOM     55  C   UNL A   1      44.311  26.660  28.893  1.00  0.00     0.034 A 
ATOM     56  C   UNL A   1      47.017  32.569  29.206  1.00  0.00     0.049 A 
ATOM     57  C   UNL A   1      45.676  27.186  28.528  1.00  0.00     0.074 A 
ATOM     58  C   UNL A   1      48.327  32.920  28.930  1.00  0.00     0.029 A 
ATOM     59  N   UNL A   1      46.914  31.207  28.964  1.00  0.00    -0.354 N 
ATOM     60  N   UNL A   1      46.155  28.400  28.661  1.00  0.00    -0.248 NA
ATOM     61  C   UNL A   1      46.633  26.226  27.960  1.00  0.00     0.031 C 
ATOM     62  C   UNL A   1      48.992  31.794  28.447  1.00  0.00     0.029 A 
ATOM     63  C   UNL A   1      48.126  30.714  28.505  1.00  0.00     0.049 A 
ATOM     64  H   UNL A   1      46.100  30.669  29.099  1.00  0.00     0.167 HD
ATOM     65  C   UNL A   1      47.477  28.342  28.226  1.00  0.00     0.074 A 
ATOM     66  C   UNL A   1      47.729  26.966  27.848  1.00  0.00     0.031 C 
ATOM     67  C   UNL A   1      48.392  29.340  28.146  1.00  0.00     0.034 A 
BRANCH  54  68
ATOM     68  C   UNL A   1      46.266  34.896  29.802  1.00  0.00     0.023 A 
ATOM     69  C   UNL A   1      46.177  35.761  28.693  1.00  0.00     0.031 A 
ATOM     70  C   UNL A   1      46.855  35.388  30.980  1.00  0.00     0.131 A 
ATOM     71  C   UNL A   1      46.721  37.050  28.769  1.00  0.00     0.055 A 
ATOM     72  C   UNL A   1      47.354  36.688  31.064  1.00  0.00     0.041 A 
ATOM     73  F   UNL A   1      46.973  34.600  32.062  1.00  0.00    -0.206 F 
ATOM     74  C   UNL A   1      47.304  37.520  29.949  1.00  0.00     0.022 A 
BRANCH  71  75
ATOM     75  S   UNL A   1      46.780  38.133  27.314  1.00  0.00     0.124 S 
ATOM     76  O   UNL A   1      45.363  38.265  26.981  1.00  0.00    -0.237 OA
ATOM     77  O   UNL A   1      47.408  39.336  27.853  1.00  0.00    -0.237 OA
ATOM     78  O   UNL A   1      47.576  37.383  26.349  1.00  0.00    -0.744 OA
ENDBRANCH  71  75
ENDBRANCH  54  68
BRANCH  55  79
ATOM     79  C   UNL A   1      43.976  25.210  28.790  1.00  0.00     0.023 A 
ATOM     80  C   UNL A   1      43.594  24.637  27.564  1.00  0.00     0.031 A 
ATOM     81  C   UNL A   1      43.934  24.401  29.938  1.00  0.00     0.131 A 
ATOM     82  C   UNL A   1      43.125  23.317  27.527  1.00  0.00     0.055 A 
ATOM     83  C   UNL A   1      43.539  23.064  29.885  1.00  0.00     0.041 A 
ATOM     84  F   UNL A   1      44.274  24.907  31.135  1.00  0.00    -0.206 F 
ATOM     85  C   UNL A   1      43.114  22.521  28.676  1.00  0.00     0.022 A 
BRANCH  82  86
ATOM     86  S   UNL A   1      42.387  22.635  26.017  1.00  0.00     0.124 S 
ATOM     87  O   UNL A   1      42.956  21.291  25.980  1.00  0.00    -0.237 OA
ATOM     88  O   UNL A   1      40.960  22.708  26.323  1.00  0.00    -0.237 OA
ATOM     89  O   UNL A   1      42.843  23.543  24.969  1.00  0.00    -0.744 OA
ENDBRANCH  82  86
ENDBRANCH  55  79
BRANCH  67  90
ATOM     90  C   UNL A   1      49.781  29.020  27.642  1.00  0.00     0.023 A 
ATOM     91  C   UNL A   1      50.053  29.050  26.260  1.00  0.00     0.031 A 
ATOM     92  C   UNL A   1      50.781  28.533  28.502  1.00  0.00     0.131 A 
ATOM     93  C   UNL A   1      51.271  28.554  25.775  1.00  0.00     0.055 A 
ATOM     94  C   UNL A   1      52.015  28.093  28.019  1.00  0.00     0.041 A 
ATOM     95  F   UNL A   1      50.571  28.472  29.827  1.00  0.00    -0.206 F 
ATOM     96  C   UNL A   1      52.258  28.086  26.648  1.00  0.00     0.022 A 
BRANCH  93  97
ATOM     97  S   UNL A   1      51.582  28.406  23.993  1.00  0.00     0.124 S 
ATOM     98  O   UNL A   1      50.457  27.582  23.556  1.00  0.00    -0.237 OA
ATOM     99  O   UNL A   1      51.541  29.799  23.558  1.00  0.00    -0.237 OA
ATOM    100  O   UNL A   1      52.889  27.762  23.916  1.00  0.00    -0.744 OA
ENDBRANCH  93  97
ENDBRANCH  67  90
ENDBRANCH  41  42
ENDBRANCH  34  36
ENDBRANCH  33  34
ENDBRANCH  32  33
ENDBRANCH  31  32
ENDBRANCH  30  31
ENDBRANCH  29  30
ENDBRANCH   1  29
TORSDOF 24
ENDMDL
