MODEL 1
REMARK VINA RESULT:     -10.3      0.000      0.000
REMARK SMILES Nc1cc([N+](=O)[O-])ccc1[C@H]([NH3+])C(=O)OCCOCCOCCOC(=O)c1ccc(-c2c3nc(c(-c4cc(S(=O)(=O)[O-])ccc4F)c4ccc([nH]4)c(-c4cc(S(=O)(=O)[O-])ccc4F)c4nc(c(-c5cc(S(=O)(=O)[O-])ccc5F)c5ccc2[nH]5)C=C4)C=C3)cc1
REMARK SMILES IDX 20 1 19 2 18 3 17 4 16 5 15 6 13 7 14 8 11 9 10 10 2 11 3 12
REMARK SMILES IDX 4 13 9 14 8 15 1 16 5 19 6 20 7 21 12 22 21 26 22 27 23 28
REMARK SMILES IDX 24 29 25 30 26 31 27 32 28 33 89 34 29 35 88 36 30 37 31 38
REMARK SMILES IDX 32 39 82 40 33 41 87 42 81 43 83 44 34 45 86 46 80 47 79 48
REMARK SMILES IDX 35 50 67 51 47 52 66 53 48 54 51 55 65 56 84 57 49 58 50 59
REMARK SMILES IDX 64 61 85 62 52 63 36 64 37 65 45 66 38 67 44 68 46 69 43 70
REMARK SMILES IDX 39 71 40 72 41 73 42 74 68 75 69 76 77 77 70 78 76 79 78 80
REMARK SMILES IDX 75 81 71 82 72 83 73 84 74 85 53 86 54 87 62 88 55 89 61 90
REMARK SMILES IDX 63 91 60 92 56 93 57 94 58 95 59 96
REMARK H PARENT 1 17 1 18 12 23 12 24 12 25 83 49 51 60
REMARK Flexibility Score: inf
ROOT
ATOM      1  C   UNL A   1      31.112  28.899  23.111  1.00  0.00     0.188 C 
ENDROOT
BRANCH   1   2
ATOM      2  C   UNL A   1      30.375  27.685  22.521  1.00  0.00     0.188 C 
BRANCH   2   3
ATOM      3  O   UNL A   1      30.917  26.380  22.666  1.00  0.00    -0.376 OA
BRANCH   3   4
ATOM      4  C   UNL A   1      31.581  26.007  23.862  1.00  0.00     0.202 C 
BRANCH   4   5
ATOM      5  C   UNL A   1      32.728  24.983  23.862  1.00  0.00     0.261 C 
BRANCH   5   6
ATOM      6  O   UNL A   1      32.703  23.978  24.885  1.00  0.00    -0.459 OA
BRANCH   6   7
ATOM      7  C   UNL A   1      33.622  22.976  24.762  1.00  0.00     0.369 C 
ATOM      8  O   UNL A   1      34.524  22.990  23.927  1.00  0.00    -0.245 OA
BRANCH   7   9
ATOM      9  C   UNL A   1      33.434  21.804  25.782  1.00  0.00     0.325 C 
BRANCH   9  10
ATOM     10  C   UNL A   1      33.592  20.409  25.161  1.00  0.00     0.044 A 
ATOM     11  C   UNL A   1      34.847  19.785  24.945  1.00  0.00     0.048 A 
ATOM     12  C   UNL A   1      34.887  18.451  24.520  1.00  0.00     0.111 A 
ATOM     13  C   UNL A   1      33.713  17.772  24.187  1.00  0.00     0.271 A 
ATOM     14  C   UNL A   1      32.432  19.718  24.740  1.00  0.00     0.020 A 
ATOM     15  C   UNL A   1      32.482  18.413  24.263  1.00  0.00     0.086 A 
BRANCH  11  16
ATOM     16  N   UNL A   1      36.062  20.384  25.275  1.00  0.00    -0.398 N 
ATOM     17  H   UNL A   1      36.906  19.898  25.125  1.00  0.00     0.156 HD
ATOM     18  H   UNL A   1      36.078  21.291  25.657  1.00  0.00     0.156 HD
ENDBRANCH  11  16
BRANCH  13  19
ATOM     19  N   UNL A   1      33.777  16.373  23.765  1.00  0.00     0.062 N 
ATOM     20  O   UNL A   1      34.206  16.131  22.627  1.00  0.00    -0.258 OA
ATOM     21  O   UNL A   1      33.418  15.508  24.577  1.00  0.00    -0.258 OA
ENDBRANCH  13  19
ENDBRANCH   9  10
BRANCH   9  22
ATOM     22  N   UNL A   1      32.163  21.961  26.522  1.00  0.00    -0.342 N 
ATOM     23  H   UNL A   1      31.906  22.948  26.552  1.00  0.00     0.345 HD
ATOM     24  H   UNL A   1      32.277  21.610  27.473  1.00  0.00     0.345 HD
ATOM     25  H   UNL A   1      31.428  21.434  26.051  1.00  0.00     0.345 HD
ENDBRANCH   9  22
ENDBRANCH   7   9
ENDBRANCH   6   7
ENDBRANCH   5   6
ENDBRANCH   4   5
ENDBRANCH   3   4
ENDBRANCH   2   3
ENDBRANCH   1   2
BRANCH   1  26
ATOM     26  O   UNL A   1      30.311  29.833  23.783  1.00  0.00    -0.376 OA
BRANCH  26  27
ATOM     27  C   UNL A   1      30.783  30.410  24.984  1.00  0.00     0.202 C 
BRANCH  27  28
ATOM     28  C   UNL A   1      32.111  30.043  25.682  1.00  0.00     0.261 C 
BRANCH  28  29
ATOM     29  O   UNL A   1      32.322  30.449  27.041  1.00  0.00    -0.460 OA
BRANCH  29  30
ATOM     30  C   UNL A   1      32.995  31.611  27.232  1.00  0.00     0.338 C 
ATOM     31  O   UNL A   1      32.524  32.740  27.192  1.00  0.00    -0.246 OA
BRANCH  30  32
ATOM     32  C   UNL A   1      34.354  31.296  27.730  1.00  0.00     0.060 A 
ATOM     33  C   UNL A   1      34.668  29.970  28.070  1.00  0.00     0.016 A 
ATOM     34  C   UNL A   1      35.311  32.300  27.866  1.00  0.00     0.016 A 
ATOM     35  C   UNL A   1      35.934  29.649  28.568  1.00  0.00     0.010 A 
ATOM     36  C   UNL A   1      36.570  31.982  28.391  1.00  0.00     0.010 A 
ATOM     37  C   UNL A   1      36.880  30.662  28.771  1.00  0.00    -0.014 A 
BRANCH  37  38
ATOM     38  C   UNL A   1      38.107  30.392  29.568  1.00  0.00     0.031 A 
ATOM     39  C   UNL A   1      39.125  29.439  29.003  1.00  0.00     0.074 A 
ATOM     40  C   UNL A   1      38.320  30.968  30.765  1.00  0.00     0.049 A 
ATOM     41  N   UNL A   1      40.206  28.949  29.550  1.00  0.00    -0.248 NA
ATOM     42  C   UNL A   1      38.872  28.966  27.634  1.00  0.00     0.031 C 
ATOM     43  C   UNL A   1      37.440  31.946  31.400  1.00  0.00     0.029 A 
ATOM     44  N   UNL A   1      39.338  30.791  31.670  1.00  0.00    -0.354 N 
ATOM     45  C   UNL A   1      40.759  28.099  28.597  1.00  0.00     0.074 A 
ATOM     46  C   UNL A   1      39.866  28.112  27.457  1.00  0.00     0.031 C 
ATOM     47  C   UNL A   1      37.943  32.262  32.608  1.00  0.00     0.029 A 
ATOM     48  C   UNL A   1      39.152  31.474  32.850  1.00  0.00     0.049 A 
ATOM     49  H   UNL A   1      40.126  30.229  31.492  1.00  0.00     0.167 HD
ATOM     50  C   UNL A   1      41.908  27.380  28.663  1.00  0.00     0.034 A 
ATOM     51  C   UNL A   1      39.849  31.435  34.006  1.00  0.00     0.034 A 
ATOM     52  C   UNL A   1      42.774  27.359  29.817  1.00  0.00     0.049 A 
ATOM     53  C   UNL A   1      41.071  30.549  34.102  1.00  0.00     0.074 A 
ATOM     54  C   UNL A   1      43.964  26.674  29.989  1.00  0.00     0.029 A 
ATOM     55  N   UNL A   1      42.534  28.038  31.006  1.00  0.00    -0.354 N 
ATOM     56  N   UNL A   1      41.591  29.753  33.194  1.00  0.00    -0.248 NA
ATOM     57  C   UNL A   1      41.804  30.563  35.375  1.00  0.00     0.031 C 
ATOM     58  C   UNL A   1      44.397  26.868  31.305  1.00  0.00     0.029 A 
ATOM     59  C   UNL A   1      43.533  27.756  31.927  1.00  0.00     0.049 A 
ATOM     60  H   UNL A   1      41.768  28.633  31.170  1.00  0.00     0.167 HD
ATOM     61  C   UNL A   1      42.728  29.197  33.780  1.00  0.00     0.074 A 
ATOM     62  C   UNL A   1      42.823  29.759  35.111  1.00  0.00     0.031 C 
ATOM     63  C   UNL A   1      43.616  28.309  33.260  1.00  0.00     0.034 A 
BRANCH  50  64
ATOM     64  C   UNL A   1      42.247  26.512  27.472  1.00  0.00     0.023 A 
ATOM     65  C   UNL A   1      41.775  25.191  27.363  1.00  0.00     0.031 A 
ATOM     66  C   UNL A   1      43.099  26.990  26.462  1.00  0.00     0.131 A 
ATOM     67  C   UNL A   1      42.234  24.368  26.323  1.00  0.00     0.055 A 
ATOM     68  C   UNL A   1      43.475  26.196  25.377  1.00  0.00     0.041 A 
ATOM     69  F   UNL A   1      43.603  28.234  26.522  1.00  0.00    -0.206 F 
ATOM     70  C   UNL A   1      43.059  24.869  25.313  1.00  0.00     0.022 A 
BRANCH  67  71
ATOM     71  S   UNL A   1      41.888  22.589  26.414  1.00  0.00     0.124 S 
ATOM     72  O   UNL A   1      42.470  22.242  27.709  1.00  0.00    -0.237 OA
ATOM     73  O   UNL A   1      40.433  22.547  26.337  1.00  0.00    -0.237 OA
ATOM     74  O   UNL A   1      42.593  22.044  25.257  1.00  0.00    -0.744 OA
ENDBRANCH  67  71
ENDBRANCH  50  64
BRANCH  51  75
ATOM     75  C   UNL A   1      39.378  32.209  35.193  1.00  0.00     0.023 A 
ATOM     76  C   UNL A   1      39.801  33.526  35.427  1.00  0.00     0.031 A 
ATOM     77  C   UNL A   1      38.524  31.614  36.141  1.00  0.00     0.131 A 
ATOM     78  C   UNL A   1      39.399  34.193  36.597  1.00  0.00     0.055 A 
ATOM     79  C   UNL A   1      38.082  32.301  37.273  1.00  0.00     0.041 A 
ATOM     80  F   UNL A   1      38.097  30.352  35.973  1.00  0.00    -0.206 F 
ATOM     81  C   UNL A   1      38.529  33.596  37.512  1.00  0.00     0.022 A 
BRANCH  78  82
ATOM     82  S   UNL A   1      40.096  35.831  36.949  1.00  0.00     0.124 S 
ATOM     83  O   UNL A   1      39.703  36.581  35.762  1.00  0.00    -0.237 OA
ATOM     84  O   UNL A   1      39.419  36.190  38.190  1.00  0.00    -0.237 OA
ATOM     85  O   UNL A   1      41.529  35.570  37.077  1.00  0.00    -0.744 OA
ENDBRANCH  78  82
ENDBRANCH  51  75
BRANCH  63  86
ATOM     86  C   UNL A   1      44.804  27.929  34.116  1.00  0.00     0.023 A 
ATOM     87  C   UNL A   1      44.777  26.827  34.989  1.00  0.00     0.031 A 
ATOM     88  C   UNL A   1      45.987  28.690  34.056  1.00  0.00     0.131 A 
ATOM     89  C   UNL A   1      45.886  26.550  35.803  1.00  0.00     0.055 A 
ATOM     90  C   UNL A   1      47.112  28.368  34.816  1.00  0.00     0.041 A 
ATOM     91  F   UNL A   1      46.073  29.757  33.246  1.00  0.00    -0.206 F 
ATOM     92  C   UNL A   1      47.061  27.301  35.708  1.00  0.00     0.022 A 
BRANCH  89  93
ATOM     93  S   UNL A   1      45.742  25.258  37.069  1.00  0.00     0.124 S 
ATOM     94  O   UNL A   1      44.451  24.659  36.743  1.00  0.00    -0.237 OA
ATOM     95  O   UNL A   1      46.914  24.429  36.804  1.00  0.00    -0.237 OA
ATOM     96  O   UNL A   1      45.780  26.002  38.327  1.00  0.00    -0.744 OA
ENDBRANCH  89  93
ENDBRANCH  63  86
ENDBRANCH  37  38
ENDBRANCH  30  32
ENDBRANCH  29  30
ENDBRANCH  28  29
ENDBRANCH  27  28
ENDBRANCH  26  27
ENDBRANCH   1  26
TORSDOF 24
ENDMDL
MODEL 2
REMARK VINA RESULT:     -10.1      1.753      2.087
REMARK SMILES Nc1cc([N+](=O)[O-])ccc1[C@H]([NH3+])C(=O)OCCOCCOCCOC(=O)c1ccc(-c2c3nc(c(-c4cc(S(=O)(=O)[O-])ccc4F)c4ccc([nH]4)c(-c4cc(S(=O)(=O)[O-])ccc4F)c4nc(c(-c5cc(S(=O)(=O)[O-])ccc5F)c5ccc2[nH]5)C=C4)C=C3)cc1
REMARK SMILES IDX 20 1 19 2 18 3 17 4 16 5 15 6 13 7 14 8 11 9 10 10 2 11 3 12
REMARK SMILES IDX 4 13 9 14 8 15 1 16 5 19 6 20 7 21 12 22 21 26 22 27 23 28
REMARK SMILES IDX 24 29 25 30 26 31 27 32 28 33 89 34 29 35 88 36 30 37 31 38
REMARK SMILES IDX 32 39 82 40 33 41 87 42 81 43 83 44 34 45 86 46 80 47 79 48
REMARK SMILES IDX 35 50 67 51 47 52 66 53 48 54 51 55 65 56 84 57 49 58 50 59
REMARK SMILES IDX 64 61 85 62 52 63 36 64 37 65 45 66 38 67 44 68 46 69 43 70
REMARK SMILES IDX 39 71 40 72 41 73 42 74 68 75 69 76 77 77 70 78 76 79 78 80
REMARK SMILES IDX 75 81 71 82 72 83 73 84 74 85 53 86 54 87 62 88 55 89 61 90
REMARK SMILES IDX 63 91 60 92 56 93 57 94 58 95 59 96
REMARK H PARENT 1 17 1 18 12 23 12 24 12 25 83 49 51 60
REMARK Flexibility Score: inf
ROOT
ATOM      1  C   UNL A   1      31.566  28.828  23.390  1.00  0.00     0.188 C 
ENDROOT
BRANCH   1   2
ATOM      2  C   UNL A   1      30.884  27.571  22.823  1.00  0.00     0.188 C 
BRANCH   2   3
ATOM      3  O   UNL A   1      29.595  27.189  23.281  1.00  0.00    -0.376 OA
BRANCH   3   4
ATOM      4  C   UNL A   1      29.443  26.080  24.152  1.00  0.00     0.202 C 
BRANCH   4   5
ATOM      5  C   UNL A   1      30.632  25.503  24.937  1.00  0.00     0.261 C 
BRANCH   5   6
ATOM      6  O   UNL A   1      30.345  24.461  25.881  1.00  0.00    -0.459 OA
BRANCH   6   7
ATOM      7  C   UNL A   1      31.426  23.812  26.403  1.00  0.00     0.369 C 
ATOM      8  O   UNL A   1      31.511  23.492  27.587  1.00  0.00    -0.245 OA
BRANCH   7   9
ATOM      9  C   UNL A   1      32.552  23.501  25.361  1.00  0.00     0.325 C 
BRANCH   9  10
ATOM     10  C   UNL A   1      32.458  22.098  24.746  1.00  0.00     0.044 A 
ATOM     11  C   UNL A   1      32.085  21.855  23.400  1.00  0.00     0.048 A 
ATOM     12  C   UNL A   1      32.179  20.556  22.883  1.00  0.00     0.111 A 
ATOM     13  C   UNL A   1      32.513  19.482  23.711  1.00  0.00     0.271 A 
ATOM     14  C   UNL A   1      32.715  20.977  25.570  1.00  0.00     0.020 A 
ATOM     15  C   UNL A   1      32.749  19.681  25.065  1.00  0.00     0.086 A 
BRANCH  11  16
ATOM     16  N   UNL A   1      31.763  22.873  22.503  1.00  0.00    -0.398 N 
ATOM     17  H   UNL A   1      31.366  22.652  21.630  1.00  0.00     0.156 HD
ATOM     18  H   UNL A   1      31.933  23.813  22.742  1.00  0.00     0.156 HD
ENDBRANCH  11  16
BRANCH  13  19
ATOM     19  N   UNL A   1      32.625  18.136  23.146  1.00  0.00     0.062 N 
ATOM     20  O   UNL A   1      32.902  17.206  23.917  1.00  0.00    -0.258 OA
ATOM     21  O   UNL A   1      32.415  18.001  21.932  1.00  0.00    -0.258 OA
ENDBRANCH  13  19
ENDBRANCH   9  10
BRANCH   9  22
ATOM     22  N   UNL A   1      33.884  23.786  25.937  1.00  0.00    -0.342 N 
ATOM     23  H   UNL A   1      33.829  24.619  26.525  1.00  0.00     0.345 HD
ATOM     24  H   UNL A   1      34.553  23.945  25.185  1.00  0.00     0.345 HD
ATOM     25  H   UNL A   1      34.188  22.993  26.501  1.00  0.00     0.345 HD
ENDBRANCH   9  22
ENDBRANCH   7   9
ENDBRANCH   6   7
ENDBRANCH   5   6
ENDBRANCH   4   5
ENDBRANCH   3   4
ENDBRANCH   2   3
ENDBRANCH   1   2
BRANCH   1  26
ATOM     26  O   UNL A   1      30.737  29.702  24.108  1.00  0.00    -0.376 OA
BRANCH  26  27
ATOM     27  C   UNL A   1      31.199  30.247  25.327  1.00  0.00     0.202 C 
BRANCH  27  28
ATOM     28  C   UNL A   1      32.653  30.158  25.844  1.00  0.00     0.261 C 
BRANCH  28  29
ATOM     29  O   UNL A   1      32.917  30.406  27.231  1.00  0.00    -0.460 OA
BRANCH  29  30
ATOM     30  C   UNL A   1      33.638  31.517  27.524  1.00  0.00     0.338 C 
ATOM     31  O   UNL A   1      33.214  32.663  27.595  1.00  0.00    -0.246 OA
BRANCH  30  32
ATOM     32  C   UNL A   1      34.985  31.101  27.980  1.00  0.00     0.060 A 
ATOM     33  C   UNL A   1      35.193  29.771  28.380  1.00  0.00     0.016 A 
ATOM     34  C   UNL A   1      36.036  32.017  28.017  1.00  0.00     0.016 A 
ATOM     35  C   UNL A   1      36.447  29.359  28.839  1.00  0.00     0.010 A 
ATOM     36  C   UNL A   1      37.285  31.609  28.504  1.00  0.00     0.010 A 
ATOM     37  C   UNL A   1      37.490  30.287  28.943  1.00  0.00    -0.014 A 
BRANCH  37  38
ATOM     38  C   UNL A   1      38.724  29.945  29.700  1.00  0.00     0.031 A 
ATOM     39  C   UNL A   1      39.618  28.866  29.150  1.00  0.00     0.074 A 
ATOM     40  C   UNL A   1      39.051  30.564  30.849  1.00  0.00     0.049 A 
ATOM     41  N   UNL A   1      40.674  28.305  29.677  1.00  0.00    -0.248 NA
ATOM     42  C   UNL A   1      39.253  28.343  27.825  1.00  0.00     0.031 C 
ATOM     43  C   UNL A   1      38.301  31.658  31.461  1.00  0.00     0.029 A 
ATOM     44  N   UNL A   1      40.092  30.340  31.717  1.00  0.00    -0.354 N 
ATOM     45  C   UNL A   1      41.096  27.353  28.755  1.00  0.00     0.074 A 
ATOM     46  C   UNL A   1      40.152  27.387  27.657  1.00  0.00     0.031 C 
ATOM     47  C   UNL A   1      38.891  31.991  32.623  1.00  0.00     0.029 A 
ATOM     48  C   UNL A   1      40.031  31.104  32.860  1.00  0.00     0.049 A 
ATOM     49  H   UNL A   1      40.813  29.695  31.539  1.00  0.00     0.167 HD
ATOM     50  C   UNL A   1      42.173  26.530  28.814  1.00  0.00     0.034 A 
ATOM     51  C   UNL A   1      40.779  31.063  33.984  1.00  0.00     0.034 A 
ATOM     52  C   UNL A   1      43.090  26.490  29.927  1.00  0.00     0.049 A 
ATOM     53  C   UNL A   1      41.914  30.069  34.079  1.00  0.00     0.074 A 
ATOM     54  C   UNL A   1      44.217  25.703  30.088  1.00  0.00     0.029 A 
ATOM     55  N   UNL A   1      42.976  27.255  31.082  1.00  0.00    -0.354 N 
ATOM     56  N   UNL A   1      42.310  29.176  33.200  1.00  0.00    -0.248 NA
ATOM     57  C   UNL A   1      42.708  30.084  35.316  1.00  0.00     0.031 C 
ATOM     58  C   UNL A   1      44.732  25.929  31.369  1.00  0.00     0.029 A 
ATOM     59  C   UNL A   1      43.988  26.930  31.973  1.00  0.00     0.049 A 
ATOM     60  H   UNL A   1      42.279  27.931  31.243  1.00  0.00     0.167 HD
ATOM     61  C   UNL A   1      43.417  28.546  33.768  1.00  0.00     0.074 A 
ATOM     62  C   UNL A   1      43.632  29.171  35.056  1.00  0.00     0.031 C 
ATOM     63  C   UNL A   1      44.190  27.548  33.264  1.00  0.00     0.034 A 
BRANCH  50  64
ATOM     64  C   UNL A   1      42.367  25.567  27.665  1.00  0.00     0.023 A 
ATOM     65  C   UNL A   1      41.736  24.310  27.639  1.00  0.00     0.031 A 
ATOM     66  C   UNL A   1      43.240  25.884  26.610  1.00  0.00     0.131 A 
ATOM     67  C   UNL A   1      42.061  23.384  26.635  1.00  0.00     0.055 A 
ATOM     68  C   UNL A   1      43.484  24.994  25.561  1.00  0.00     0.041 A 
ATOM     69  F   UNL A   1      43.892  27.058  26.589  1.00  0.00    -0.206 F 
ATOM     70  C   UNL A   1      42.908  23.727  25.580  1.00  0.00     0.022 A 
BRANCH  67  71
ATOM     71  S   UNL A   1      41.504  21.668  26.832  1.00  0.00     0.124 S 
ATOM     72  O   UNL A   1      40.422  21.819  27.802  1.00  0.00    -0.237 OA
ATOM     73  O   UNL A   1      41.102  21.309  25.479  1.00  0.00    -0.237 OA
ATOM     74  O   UNL A   1      42.691  20.980  27.337  1.00  0.00    -0.744 OA
ENDBRANCH  67  71
ENDBRANCH  50  64
BRANCH  51  75
ATOM     75  C   UNL A   1      40.443  31.946  35.141  1.00  0.00     0.023 A 
ATOM     76  C   UNL A   1      39.435  31.605  36.056  1.00  0.00     0.031 A 
ATOM     77  C   UNL A   1      41.104  33.176  35.318  1.00  0.00     0.131 A 
ATOM     78  C   UNL A   1      39.093  32.499  37.086  1.00  0.00     0.055 A 
ATOM     79  C   UNL A   1      40.799  34.034  36.376  1.00  0.00     0.041 A 
ATOM     80  F   UNL A   1      42.069  33.557  34.465  1.00  0.00    -0.206 F 
ATOM     81  C   UNL A   1      39.780  33.702  37.262  1.00  0.00     0.022 A 
BRANCH  78  82
ATOM     82  S   UNL A   1      37.678  32.102  38.149  1.00  0.00     0.124 S 
ATOM     83  O   UNL A   1      36.702  33.101  37.729  1.00  0.00    -0.237 OA
ATOM     84  O   UNL A   1      37.389  30.723  37.769  1.00  0.00    -0.237 OA
ATOM     85  O   UNL A   1      38.208  32.276  39.500  1.00  0.00    -0.744 OA
ENDBRANCH  78  82
ENDBRANCH  51  75
BRANCH  63  86
ATOM     86  C   UNL A   1      45.378  27.103  34.088  1.00  0.00     0.023 A 
ATOM     87  C   UNL A   1      45.302  26.031  34.995  1.00  0.00     0.031 A 
ATOM     88  C   UNL A   1      46.612  27.769  33.961  1.00  0.00     0.131 A 
ATOM     89  C   UNL A   1      46.418  25.694  35.777  1.00  0.00     0.055 A 
ATOM     90  C   UNL A   1      47.738  27.385  34.691  1.00  0.00     0.041 A 
ATOM     91  F   UNL A   1      46.747  28.803  33.116  1.00  0.00    -0.206 F 
ATOM     92  C   UNL A   1      47.642  26.350  35.616  1.00  0.00     0.022 A 
BRANCH  89  93
ATOM     93  S   UNL A   1      46.226  24.453  37.087  1.00  0.00     0.124 S 
ATOM     94  O   UNL A   1      44.896  23.921  36.806  1.00  0.00    -0.237 OA
ATOM     95  O   UNL A   1      47.342  23.549  36.827  1.00  0.00    -0.237 OA
ATOM     96  O   UNL A   1      46.333  25.233  38.319  1.00  0.00    -0.744 OA
ENDBRANCH  89  93
ENDBRANCH  63  86
ENDBRANCH  37  38
ENDBRANCH  30  32
ENDBRANCH  29  30
ENDBRANCH  28  29
ENDBRANCH  27  28
ENDBRANCH  26  27
ENDBRANCH   1  26
TORSDOF 24
ENDMDL
MODEL 3
REMARK VINA RESULT:      -9.9      1.115      7.857
REMARK SMILES Nc1cc([N+](=O)[O-])ccc1[C@H]([NH3+])C(=O)OCCOCCOCCOC(=O)c1ccc(-c2c3nc(c(-c4cc(S(=O)(=O)[O-])ccc4F)c4ccc([nH]4)c(-c4cc(S(=O)(=O)[O-])ccc4F)c4nc(c(-c5cc(S(=O)(=O)[O-])ccc5F)c5ccc2[nH]5)C=C4)C=C3)cc1
REMARK SMILES IDX 20 1 19 2 18 3 17 4 16 5 15 6 13 7 14 8 11 9 10 10 2 11 3 12
REMARK SMILES IDX 4 13 9 14 8 15 1 16 5 19 6 20 7 21 12 22 21 26 22 27 23 28
REMARK SMILES IDX 24 29 25 30 26 31 27 32 28 33 89 34 29 35 88 36 30 37 31 38
REMARK SMILES IDX 32 39 82 40 33 41 87 42 81 43 83 44 34 45 86 46 80 47 79 48
REMARK SMILES IDX 35 50 67 51 47 52 66 53 48 54 51 55 65 56 84 57 49 58 50 59
REMARK SMILES IDX 64 61 85 62 52 63 36 64 37 65 45 66 38 67 44 68 46 69 43 70
REMARK SMILES IDX 39 71 40 72 41 73 42 74 68 75 69 76 77 77 70 78 76 79 78 80
REMARK SMILES IDX 75 81 71 82 72 83 73 84 74 85 53 86 54 87 62 88 55 89 61 90
REMARK SMILES IDX 63 91 60 92 56 93 57 94 58 95 59 96
REMARK H PARENT 1 17 1 18 12 23 12 24 12 25 83 49 51 60
REMARK Flexibility Score: inf
ROOT
ATOM      1  C   UNL A   1      32.745  29.588  26.350  1.00  0.00     0.188 C 
ENDROOT
BRANCH   1   2
ATOM      2  C   UNL A   1      33.536  28.681  25.394  1.00  0.00     0.188 C 
BRANCH   2   3
ATOM      3  O   UNL A   1      33.264  27.288  25.340  1.00  0.00    -0.376 OA
BRANCH   3   4
ATOM      4  C   UNL A   1      33.573  26.540  24.175  1.00  0.00     0.202 C 
BRANCH   4   5
ATOM      5  C   UNL A   1      33.000  25.131  23.946  1.00  0.00     0.261 C 
BRANCH   5   6
ATOM      6  O   UNL A   1      33.574  24.063  24.712  1.00  0.00    -0.459 OA
BRANCH   6   7
ATOM      7  C   UNL A   1      32.825  23.609  25.759  1.00  0.00     0.369 C 
ATOM      8  O   UNL A   1      31.755  24.116  26.090  1.00  0.00    -0.245 OA
BRANCH   7   9
ATOM      9  C   UNL A   1      33.443  22.379  26.503  1.00  0.00     0.325 C 
BRANCH   9  10
ATOM     10  C   UNL A   1      33.500  21.103  25.652  1.00  0.00     0.044 A 
ATOM     11  C   UNL A   1      34.707  20.452  25.294  1.00  0.00     0.048 A 
ATOM     12  C   UNL A   1      34.655  19.209  24.650  1.00  0.00     0.111 A 
ATOM     13  C   UNL A   1      33.433  18.667  24.244  1.00  0.00     0.271 A 
ATOM     14  C   UNL A   1      32.290  20.563  25.157  1.00  0.00     0.020 A 
ATOM     15  C   UNL A   1      32.247  19.357  24.466  1.00  0.00     0.086 A 
BRANCH  11  16
ATOM     16  N   UNL A   1      35.965  20.913  25.682  1.00  0.00    -0.398 N 
ATOM     17  H   UNL A   1      36.645  20.276  26.000  1.00  0.00     0.156 HD
ATOM     18  H   UNL A   1      36.173  21.874  25.639  1.00  0.00     0.156 HD
ENDBRANCH  11  16
BRANCH  13  19
ATOM     19  N   UNL A   1      33.399  17.358  23.591  1.00  0.00     0.062 N 
ATOM     20  O   UNL A   1      33.161  16.366  24.295  1.00  0.00    -0.258 OA
ATOM     21  O   UNL A   1      33.590  17.320  22.367  1.00  0.00    -0.258 OA
ENDBRANCH  13  19
ENDBRANCH   9  10
BRANCH   9  22
ATOM     22  N   UNL A   1      32.772  22.170  27.804  1.00  0.00    -0.342 N 
ATOM     23  H   UNL A   1      32.082  21.422  27.716  1.00  0.00     0.345 HD
ATOM     24  H   UNL A   1      32.305  23.031  28.089  1.00  0.00     0.345 HD
ATOM     25  H   UNL A   1      33.464  21.911  28.507  1.00  0.00     0.345 HD
ENDBRANCH   9  22
ENDBRANCH   7   9
ENDBRANCH   6   7
ENDBRANCH   5   6
ENDBRANCH   4   5
ENDBRANCH   3   4
ENDBRANCH   2   3
ENDBRANCH   1   2
BRANCH   1  26
ATOM     26  O   UNL A   1      31.975  30.592  25.743  1.00  0.00    -0.376 OA
BRANCH  26  27
ATOM     27  C   UNL A   1      31.367  31.578  26.552  1.00  0.00     0.202 C 
BRANCH  27  28
ATOM     28  C   UNL A   1      31.957  32.976  26.841  1.00  0.00     0.261 C 
BRANCH  28  29
ATOM     29  O   UNL A   1      32.748  33.171  28.022  1.00  0.00    -0.460 OA
BRANCH  29  30
ATOM     30  C   UNL A   1      33.887  33.892  27.880  1.00  0.00     0.338 C 
ATOM     31  O   UNL A   1      33.965  35.091  27.644  1.00  0.00    -0.246 OA
BRANCH  30  32
ATOM     32  C   UNL A   1      35.035  33.050  28.286  1.00  0.00     0.060 A 
ATOM     33  C   UNL A   1      34.806  31.719  28.673  1.00  0.00     0.016 A 
ATOM     34  C   UNL A   1      36.329  33.568  28.291  1.00  0.00     0.016 A 
ATOM     35  C   UNL A   1      35.868  30.910  29.086  1.00  0.00     0.010 A 
ATOM     36  C   UNL A   1      37.389  32.765  28.732  1.00  0.00     0.010 A 
ATOM     37  C   UNL A   1      37.161  31.442  29.158  1.00  0.00    -0.014 A 
BRANCH  37  38
ATOM     38  C   UNL A   1      38.237  30.701  29.871  1.00  0.00     0.031 A 
ATOM     39  C   UNL A   1      38.507  31.052  31.309  1.00  0.00     0.074 A 
ATOM     40  C   UNL A   1      38.965  29.744  29.267  1.00  0.00     0.049 A 
ATOM     41  N   UNL A   1      39.460  30.643  32.105  1.00  0.00    -0.248 NA
ATOM     42  C   UNL A   1      37.575  32.009  31.923  1.00  0.00     0.031 C 
ATOM     43  C   UNL A   1      38.771  29.275  27.897  1.00  0.00     0.029 A 
ATOM     44  N   UNL A   1      40.033  29.013  29.727  1.00  0.00    -0.354 N 
ATOM     45  C   UNL A   1      39.251  31.302  33.313  1.00  0.00     0.074 A 
ATOM     46  C   UNL A   1      38.106  32.168  33.124  1.00  0.00     0.031 C 
ATOM     47  C   UNL A   1      39.710  28.353  27.618  1.00  0.00     0.029 A 
ATOM     48  C   UNL A   1      40.599  28.202  28.771  1.00  0.00     0.049 A 
ATOM     49  H   UNL A   1      40.362  29.064  30.653  1.00  0.00     0.167 HD
ATOM     50  C   UNL A   1      39.945  31.191  34.474  1.00  0.00     0.034 A 
ATOM     51  C   UNL A   1      41.727  27.459  28.805  1.00  0.00     0.034 A 
ATOM     52  C   UNL A   1      41.101  30.342  34.637  1.00  0.00     0.049 A 
ATOM     53  C   UNL A   1      42.550  27.425  30.074  1.00  0.00     0.074 A 
ATOM     54  C   UNL A   1      41.873  30.147  35.769  1.00  0.00     0.029 A 
ATOM     55  N   UNL A   1      41.664  29.561  33.635  1.00  0.00    -0.354 N 
ATOM     56  N   UNL A   1      42.342  28.047  31.213  1.00  0.00    -0.248 NA
ATOM     57  C   UNL A   1      43.754  26.583  30.062  1.00  0.00     0.031 C 
ATOM     58  C   UNL A   1      42.949  29.320  35.429  1.00  0.00     0.029 A 
ATOM     59  C   UNL A   1      42.796  28.915  34.112  1.00  0.00     0.049 A 
ATOM     60  H   UNL A   1      41.311  29.477  32.721  1.00  0.00     0.167 HD
ATOM     61  C   UNL A   1      43.374  27.645  32.060  1.00  0.00     0.074 A 
ATOM     62  C   UNL A   1      44.192  26.720  31.305  1.00  0.00     0.031 C 
ATOM     63  C   UNL A   1      43.617  28.003  33.349  1.00  0.00     0.034 A 
BRANCH  50  64
ATOM     64  C   UNL A   1      39.502  32.063  35.627  1.00  0.00     0.023 A 
ATOM     65  C   UNL A   1      40.063  33.333  35.852  1.00  0.00     0.031 A 
ATOM     66  C   UNL A   1      38.548  31.595  36.547  1.00  0.00     0.131 A 
ATOM     67  C   UNL A   1      39.739  34.045  37.017  1.00  0.00     0.055 A 
ATOM     68  C   UNL A   1      38.157  32.352  37.653  1.00  0.00     0.041 A 
ATOM     69  F   UNL A   1      37.994  30.380  36.401  1.00  0.00    -0.206 F 
ATOM     70  C   UNL A   1      38.768  33.577  37.905  1.00  0.00     0.022 A 
BRANCH  67  71
ATOM     71  S   UNL A   1      40.737  35.498  37.445  1.00  0.00     0.124 S 
ATOM     72  O   UNL A   1      39.845  36.591  37.066  1.00  0.00    -0.237 OA
ATOM     73  O   UNL A   1      40.955  35.320  38.875  1.00  0.00    -0.237 OA
ATOM     74  O   UNL A   1      41.926  35.356  36.607  1.00  0.00    -0.744 OA
ENDBRANCH  67  71
ENDBRANCH  50  64
BRANCH  51  75
ATOM     75  C   UNL A   1      42.186  26.735  27.583  1.00  0.00     0.023 A 
ATOM     76  C   UNL A   1      41.935  25.366  27.402  1.00  0.00     0.031 A 
ATOM     77  C   UNL A   1      42.929  27.404  26.592  1.00  0.00     0.131 A 
ATOM     78  C   UNL A   1      42.453  24.702  26.277  1.00  0.00     0.055 A 
ATOM     79  C   UNL A   1      43.392  26.752  25.448  1.00  0.00     0.041 A 
ATOM     80  F   UNL A   1      43.207  28.712  26.719  1.00  0.00    -0.206 F 
ATOM     81  C   UNL A   1      43.164  25.389  25.291  1.00  0.00     0.022 A 
BRANCH  78  82
ATOM     82  S   UNL A   1      42.253  22.903  26.159  1.00  0.00     0.124 S 
ATOM     83  O   UNL A   1      42.989  22.445  27.331  1.00  0.00    -0.237 OA
ATOM     84  O   UNL A   1      40.802  22.755  26.212  1.00  0.00    -0.237 OA
ATOM     85  O   UNL A   1      42.863  22.577  24.871  1.00  0.00    -0.744 OA
ENDBRANCH  78  82
ENDBRANCH  51  75
BRANCH  63  86
ATOM     86  C   UNL A   1      44.790  27.348  34.045  1.00  0.00     0.023 A 
ATOM     87  C   UNL A   1      44.653  26.161  34.788  1.00  0.00     0.031 A 
ATOM     88  C   UNL A   1      46.070  27.926  33.962  1.00  0.00     0.131 A 
ATOM     89  C   UNL A   1      45.762  25.624  35.461  1.00  0.00     0.055 A 
ATOM     90  C   UNL A   1      47.183  27.350  34.576  1.00  0.00     0.041 A 
ATOM     91  F   UNL A   1      46.264  29.062  33.273  1.00  0.00    -0.206 F 
ATOM     92  C   UNL A   1      47.030  26.199  35.343  1.00  0.00     0.022 A 
BRANCH  89  93
ATOM     93  S   UNL A   1      45.509  24.219  36.581  1.00  0.00     0.124 S 
ATOM     94  O   UNL A   1      44.102  23.903  36.355  1.00  0.00    -0.237 OA
ATOM     95  O   UNL A   1      46.471  23.243  36.080  1.00  0.00    -0.237 OA
ATOM     96  O   UNL A   1      45.816  24.772  37.900  1.00  0.00    -0.744 OA
ENDBRANCH  89  93
ENDBRANCH  63  86
ENDBRANCH  37  38
ENDBRANCH  30  32
ENDBRANCH  29  30
ENDBRANCH  28  29
ENDBRANCH  27  28
ENDBRANCH  26  27
ENDBRANCH   1  26
TORSDOF 24
ENDMDL
