MODEL 1
REMARK VINA RESULT:      -8.3      0.000      0.000
REMARK SMILES CCOc1cccc(OCC)c1-c1ccc([C@@H](C)C(=O)OCCOCCOCCOC(=O)c2ccc(-c3c4nc(c(-c5cc(S(=O)(=O)[O-])ccc5F)c5ccc([nH]5)c(-c5cc(S(=O)(=O)[O-])ccc5F)c5nc(c(-c6cc(S(=O)(=O)[O-])ccc6F)c6ccc3[nH]6)C=C5)C=C4)cc2)cc1F
REMARK SMILES IDX 25 1 24 2 23 3 22 4 21 5 19 6 20 7 17 8 18 9 16 10 13 11
REMARK SMILES IDX 14 12 97 13 15 14 96 15 98 16 12 17 4 18 5 19 6 20 8 21 7 22
REMARK SMILES IDX 3 23 2 24 1 25 9 26 10 27 11 28 26 29 27 30 28 31 29 32
REMARK SMILES IDX 30 33 31 34 32 35 33 36 34 37 95 38 35 39 94 40 36 41 37 42
REMARK SMILES IDX 38 43 88 44 39 45 93 46 87 47 89 48 40 49 92 50 86 51 85 52
REMARK SMILES IDX 41 54 73 55 53 56 72 57 54 58 57 59 71 60 90 61 55 62 56 63
REMARK SMILES IDX 70 65 91 66 58 67 42 68 43 69 51 70 44 71 50 72 52 73 49 74
REMARK SMILES IDX 45 75 46 76 47 77 48 78 74 79 75 80 83 81 76 82 82 83 84 84
REMARK SMILES IDX 81 85 77 86 78 87 79 88 80 89 59 90 60 91 68 92 61 93 67 94
REMARK SMILES IDX 69 95 66 96 62 97 63 98 64 99 65 100
REMARK H PARENT 89 53 57 64
REMARK Flexibility Score: inf
ROOT
ATOM      1  C   UNL A   1      37.726  33.228  30.396  1.00  0.00     0.188 C 
ENDROOT
BRANCH   1   2
ATOM      2  O   UNL A   1      37.370  33.436  29.034  1.00  0.00    -0.376 OA
BRANCH   2   3
ATOM      3  C   UNL A   1      36.155  34.107  28.731  1.00  0.00     0.202 C 
BRANCH   3   4
ATOM      4  C   UNL A   1      35.097  33.336  27.936  1.00  0.00     0.261 C 
BRANCH   4   5
ATOM      5  O   UNL A   1      34.433  32.282  28.674  1.00  0.00    -0.463 OA
BRANCH   5   6
ATOM      6  C   UNL A   1      34.557  31.032  28.164  1.00  0.00     0.313 C 
ATOM      7  O   UNL A   1      35.427  30.244  28.534  1.00  0.00    -0.252 OA
BRANCH   6   8
ATOM      8  C   UNL A   1      33.598  30.642  27.040  1.00  0.00     0.126 C 
ATOM      9  C   UNL A   1      32.301  31.428  27.251  1.00  0.00     0.025 C 
BRANCH   8  10
ATOM     10  C   UNL A   1      33.261  29.198  26.663  1.00  0.00    -0.031 A 
ATOM     11  C   UNL A   1      32.586  26.592  25.623  1.00  0.00     0.025 A 
ATOM     12  C   UNL A   1      31.914  27.161  26.724  1.00  0.00     0.012 A 
ATOM     13  C   UNL A   1      33.657  27.326  25.109  1.00  0.00     0.131 A 
ATOM     14  C   UNL A   1      32.202  28.457  27.196  1.00  0.00     0.005 A 
ATOM     15  C   UNL A   1      33.995  28.590  25.620  1.00  0.00     0.044 A 
ATOM     16  F   UNL A   1      34.366  26.857  24.072  1.00  0.00    -0.206 F 
BRANCH  11  17
ATOM     17  C   UNL A   1      32.153  25.286  25.059  1.00  0.00     0.069 A 
ATOM     18  C   UNL A   1      32.647  24.080  25.630  1.00  0.00     0.130 A 
ATOM     19  C   UNL A   1      32.180  22.810  25.266  1.00  0.00     0.047 A 
ATOM     20  C   UNL A   1      31.198  22.692  24.305  1.00  0.00     0.008 A 
ATOM     21  C   UNL A   1      31.214  25.132  24.011  1.00  0.00     0.130 A 
ATOM     22  C   UNL A   1      30.745  23.842  23.669  1.00  0.00     0.047 A 
BRANCH  18  23
ATOM     23  O   UNL A   1      33.715  24.120  26.492  1.00  0.00    -0.493 OA
BRANCH  23  24
ATOM     24  C   UNL A   1      34.755  23.215  26.129  1.00  0.00     0.226 C 
ATOM     25  C   UNL A   1      35.744  24.010  25.324  1.00  0.00     0.049 C 
ENDBRANCH  23  24
ENDBRANCH  18  23
BRANCH  21  26
ATOM     26  O   UNL A   1      30.643  26.041  23.164  1.00  0.00    -0.493 OA
BRANCH  26  27
ATOM     27  C   UNL A   1      29.783  27.088  23.571  1.00  0.00     0.226 C 
ATOM     28  C   UNL A   1      28.444  26.489  23.962  1.00  0.00     0.049 C 
ENDBRANCH  26  27
ENDBRANCH  21  26
ENDBRANCH  11  17
ENDBRANCH   8  10
ENDBRANCH   6   8
ENDBRANCH   5   6
ENDBRANCH   4   5
ENDBRANCH   3   4
ENDBRANCH   2   3
ENDBRANCH   1   2
BRANCH   1  29
ATOM     29  C   UNL A   1      36.940  32.194  31.218  1.00  0.00     0.188 C 
BRANCH  29  30
ATOM     30  O   UNL A   1      35.939  32.729  32.071  1.00  0.00    -0.376 OA
BRANCH  30  31
ATOM     31  C   UNL A   1      35.839  34.146  32.092  1.00  0.00     0.202 C 
BRANCH  31  32
ATOM     32  C   UNL A   1      36.004  34.771  33.478  1.00  0.00     0.261 C 
BRANCH  32  33
ATOM     33  O   UNL A   1      37.294  34.473  34.047  1.00  0.00    -0.460 OA
BRANCH  33  34
ATOM     34  C   UNL A   1      37.365  33.583  35.052  1.00  0.00     0.338 C 
ATOM     35  O   UNL A   1      36.699  33.579  36.082  1.00  0.00    -0.246 OA
BRANCH  34  36
ATOM     36  C   UNL A   1      38.393  32.581  34.712  1.00  0.00     0.060 A 
ATOM     37  C   UNL A   1      38.216  31.223  35.016  1.00  0.00     0.016 A 
ATOM     38  C   UNL A   1      39.577  33.011  34.120  1.00  0.00     0.016 A 
ATOM     39  C   UNL A   1      39.219  30.293  34.746  1.00  0.00     0.010 A 
ATOM     40  C   UNL A   1      40.577  32.079  33.836  1.00  0.00     0.010 A 
ATOM     41  C   UNL A   1      40.414  30.721  34.167  1.00  0.00    -0.014 A 
BRANCH  41  42
ATOM     42  C   UNL A   1      41.566  29.801  34.026  1.00  0.00     0.031 A 
ATOM     43  C   UNL A   1      42.597  29.785  35.117  1.00  0.00     0.074 A 
ATOM     44  C   UNL A   1      41.716  29.036  32.931  1.00  0.00     0.049 A 
ATOM     45  N   UNL A   1      43.807  29.296  35.111  1.00  0.00    -0.248 NA
ATOM     46  C   UNL A   1      42.205  30.426  36.381  1.00  0.00     0.031 C 
ATOM     47  C   UNL A   1      40.739  28.898  31.851  1.00  0.00     0.029 A 
ATOM     48  N   UNL A   1      42.772  28.256  32.531  1.00  0.00    -0.354 N 
ATOM     49  C   UNL A   1      44.341  29.603  36.358  1.00  0.00     0.074 A 
ATOM     50  C   UNL A   1      43.323  30.330  37.086  1.00  0.00     0.031 C 
ATOM     51  C   UNL A   1      41.258  28.112  30.893  1.00  0.00     0.029 A 
ATOM     52  C   UNL A   1      42.625  27.750  31.260  1.00  0.00     0.049 A 
ATOM     53  H   UNL A   1      43.557  28.077  33.097  1.00  0.00     0.167 HD
ATOM     54  C   UNL A   1      45.574  29.310  36.839  1.00  0.00     0.034 A 
ATOM     55  C   UNL A   1      43.515  27.122  30.466  1.00  0.00     0.034 A 
ATOM     56  C   UNL A   1      46.569  28.585  36.087  1.00  0.00     0.049 A 
ATOM     57  C   UNL A   1      44.918  26.894  30.980  1.00  0.00     0.074 A 
ATOM     58  C   UNL A   1      47.852  28.234  36.467  1.00  0.00     0.029 A 
ATOM     59  N   UNL A   1      46.393  28.106  34.794  1.00  0.00    -0.354 N 
ATOM     60  N   UNL A   1      45.439  27.227  32.140  1.00  0.00    -0.248 NA
ATOM     61  C   UNL A   1      45.852  26.210  30.078  1.00  0.00     0.031 C 
ATOM     62  C   UNL A   1      48.472  27.601  35.383  1.00  0.00     0.029 A 
ATOM     63  C   UNL A   1      47.551  27.487  34.353  1.00  0.00     0.049 A 
ATOM     64  H   UNL A   1      45.565  28.193  34.269  1.00  0.00     0.167 HD
ATOM     65  C   UNL A   1      46.752  26.764  32.115  1.00  0.00     0.074 A 
ATOM     66  C   UNL A   1      46.938  26.120  30.831  1.00  0.00     0.031 C 
ATOM     67  C   UNL A   1      47.717  26.854  33.065  1.00  0.00     0.034 A 
BRANCH  54  68
ATOM     68  C   UNL A   1      45.926  29.839  38.207  1.00  0.00     0.023 A 
ATOM     69  C   UNL A   1      45.521  29.188  39.385  1.00  0.00     0.031 A 
ATOM     70  C   UNL A   1      46.645  31.042  38.332  1.00  0.00     0.131 A 
ATOM     71  C   UNL A   1      45.777  29.778  40.632  1.00  0.00     0.055 A 
ATOM     72  C   UNL A   1      46.966  31.582  39.579  1.00  0.00     0.041 A 
ATOM     73  F   UNL A   1      47.034  31.722  37.243  1.00  0.00    -0.206 F 
ATOM     74  C   UNL A   1      46.519  30.956  40.739  1.00  0.00     0.022 A 
BRANCH  71  75
ATOM     75  S   UNL A   1      45.008  29.055  42.108  1.00  0.00     0.124 S 
ATOM     76  O   UNL A   1      44.093  30.119  42.515  1.00  0.00    -0.237 OA
ATOM     77  O   UNL A   1      44.388  27.846  41.581  1.00  0.00    -0.237 OA
ATOM     78  O   UNL A   1      46.137  28.836  43.010  1.00  0.00    -0.744 OA
ENDBRANCH  71  75
ENDBRANCH  54  68
BRANCH  55  79
ATOM     79  C   UNL A   1      43.148  26.729  29.075  1.00  0.00     0.023 A 
ATOM     80  C   UNL A   1      42.995  27.693  28.067  1.00  0.00     0.031 A 
ATOM     81  C   UNL A   1      42.880  25.387  28.747  1.00  0.00     0.131 A 
ATOM     82  C   UNL A   1      42.540  27.312  26.795  1.00  0.00     0.055 A 
ATOM     83  C   UNL A   1      42.481  25.005  27.466  1.00  0.00     0.041 A 
ATOM     84  F   UNL A   1      43.004  24.423  29.673  1.00  0.00    -0.206 F 
ATOM     85  C   UNL A   1      42.295  25.973  26.483  1.00  0.00     0.022 A 
BRANCH  82  86
ATOM     86  S   UNL A   1      42.180  28.608  25.579  1.00  0.00     0.124 S 
ATOM     87  O   UNL A   1      43.055  29.685  26.026  1.00  0.00    -0.237 OA
ATOM     88  O   UNL A   1      42.550  27.958  24.326  1.00  0.00    -0.237 OA
ATOM     89  O   UNL A   1      40.750  28.852  25.754  1.00  0.00    -0.744 OA
ENDBRANCH  82  86
ENDBRANCH  55  79
BRANCH  67  90
ATOM     90  C   UNL A   1      49.037  26.186  32.769  1.00  0.00     0.023 A 
ATOM     91  C   UNL A   1      49.306  24.862  33.161  1.00  0.00     0.031 A 
ATOM     92  C   UNL A   1      50.045  26.893  32.089  1.00  0.00     0.131 A 
ATOM     93  C   UNL A   1      50.571  24.306  32.918  1.00  0.00     0.055 A 
ATOM     94  C   UNL A   1      51.281  26.313  31.798  1.00  0.00     0.041 A 
ATOM     95  F   UNL A   1      49.843  28.160  31.693  1.00  0.00    -0.206 F 
ATOM     96  C   UNL A   1      51.554  25.017  32.224  1.00  0.00     0.022 A 
BRANCH  93  97
ATOM     97  S   UNL A   1      50.950  22.667  33.598  1.00  0.00     0.124 S 
ATOM     98  O   UNL A   1      51.717  23.005  34.793  1.00  0.00    -0.237 OA
ATOM     99  O   UNL A   1      49.621  22.112  33.831  1.00  0.00    -0.237 OA
ATOM    100  O   UNL A   1      51.714  22.022  32.533  1.00  0.00    -0.744 OA
ENDBRANCH  93  97
ENDBRANCH  67  90
ENDBRANCH  41  42
ENDBRANCH  34  36
ENDBRANCH  33  34
ENDBRANCH  32  33
ENDBRANCH  31  32
ENDBRANCH  30  31
ENDBRANCH  29  30
ENDBRANCH   1  29
TORSDOF 26
ENDMDL
MODEL 2
REMARK VINA RESULT:      -8.3      6.321      7.888
REMARK SMILES CCOc1cccc(OCC)c1-c1ccc([C@@H](C)C(=O)OCCOCCOCCOC(=O)c2ccc(-c3c4nc(c(-c5cc(S(=O)(=O)[O-])ccc5F)c5ccc([nH]5)c(-c5cc(S(=O)(=O)[O-])ccc5F)c5nc(c(-c6cc(S(=O)(=O)[O-])ccc6F)c6ccc3[nH]6)C=C5)C=C4)cc2)cc1F
REMARK SMILES IDX 25 1 24 2 23 3 22 4 21 5 19 6 20 7 17 8 18 9 16 10 13 11
REMARK SMILES IDX 14 12 97 13 15 14 96 15 98 16 12 17 4 18 5 19 6 20 8 21 7 22
REMARK SMILES IDX 3 23 2 24 1 25 9 26 10 27 11 28 26 29 27 30 28 31 29 32
REMARK SMILES IDX 30 33 31 34 32 35 33 36 34 37 95 38 35 39 94 40 36 41 37 42
REMARK SMILES IDX 38 43 88 44 39 45 93 46 87 47 89 48 40 49 92 50 86 51 85 52
REMARK SMILES IDX 41 54 73 55 53 56 72 57 54 58 57 59 71 60 90 61 55 62 56 63
REMARK SMILES IDX 70 65 91 66 58 67 42 68 43 69 51 70 44 71 50 72 52 73 49 74
REMARK SMILES IDX 45 75 46 76 47 77 48 78 74 79 75 80 83 81 76 82 82 83 84 84
REMARK SMILES IDX 81 85 77 86 78 87 79 88 80 89 59 90 60 91 68 92 61 93 67 94
REMARK SMILES IDX 69 95 66 96 62 97 63 98 64 99 65 100
REMARK H PARENT 89 53 57 64
REMARK Flexibility Score: inf
ROOT
ATOM      1  C   UNL A   1      36.625  33.246  30.573  1.00  0.00     0.188 C 
ENDROOT
BRANCH   1   2
ATOM      2  O   UNL A   1      36.206  33.379  29.219  1.00  0.00    -0.376 OA
BRANCH   2   3
ATOM      3  C   UNL A   1      34.837  33.183  28.896  1.00  0.00     0.202 C 
BRANCH   3   4
ATOM      4  C   UNL A   1      34.512  32.309  27.680  1.00  0.00     0.261 C 
BRANCH   4   5
ATOM      5  O   UNL A   1      33.591  31.224  27.944  1.00  0.00    -0.463 OA
BRANCH   5   6
ATOM      6  C   UNL A   1      33.911  30.026  27.394  1.00  0.00     0.313 C 
ATOM      7  O   UNL A   1      34.829  29.323  27.813  1.00  0.00    -0.252 OA
BRANCH   6   8
ATOM      8  C   UNL A   1      33.116  29.594  26.162  1.00  0.00     0.126 C 
ATOM      9  C   UNL A   1      31.759  30.301  26.221  1.00  0.00     0.025 C 
BRANCH   8  10
ATOM     10  C   UNL A   1      32.912  28.137  25.742  1.00  0.00    -0.031 A 
ATOM     11  C   UNL A   1      32.795  25.436  24.731  1.00  0.00     0.025 A 
ATOM     12  C   UNL A   1      31.668  26.282  24.751  1.00  0.00     0.012 A 
ATOM     13  C   UNL A   1      33.961  25.950  25.303  1.00  0.00     0.131 A 
ATOM     14  C   UNL A   1      31.736  27.620  25.189  1.00  0.00     0.005 A 
ATOM     15  C   UNL A   1      34.018  27.261  25.807  1.00  0.00     0.044 A 
ATOM     16  F   UNL A   1      35.080  25.212  25.345  1.00  0.00    -0.206 F 
BRANCH  11  17
ATOM     17  C   UNL A   1      32.720  24.082  24.121  1.00  0.00     0.069 A 
ATOM     18  C   UNL A   1      32.353  22.971  24.931  1.00  0.00     0.130 A 
ATOM     19  C   UNL A   1      32.110  21.691  24.415  1.00  0.00     0.047 A 
ATOM     20  C   UNL A   1      32.231  21.466  23.059  1.00  0.00     0.008 A 
ATOM     21  C   UNL A   1      32.928  23.803  22.749  1.00  0.00     0.130 A 
ATOM     22  C   UNL A   1      32.662  22.508  22.246  1.00  0.00     0.047 A 
BRANCH  18  23
ATOM     23  O   UNL A   1      32.346  23.095  26.298  1.00  0.00    -0.493 OA
BRANCH  23  24
ATOM     24  C   UNL A   1      31.163  22.570  26.897  1.00  0.00     0.226 C 
ATOM     25  C   UNL A   1      30.138  23.667  26.841  1.00  0.00     0.049 C 
ENDBRANCH  23  24
ENDBRANCH  18  23
BRANCH  21  26
ATOM     26  O   UNL A   1      33.405  24.577  21.728  1.00  0.00    -0.493 OA
BRANCH  26  27
ATOM     27  C   UNL A   1      32.790  25.765  21.266  1.00  0.00     0.226 C 
ATOM     28  C   UNL A   1      33.621  26.949  21.726  1.00  0.00     0.049 C 
ENDBRANCH  26  27
ENDBRANCH  21  26
ENDBRANCH  11  17
ENDBRANCH   8  10
ENDBRANCH   6   8
ENDBRANCH   5   6
ENDBRANCH   4   5
ENDBRANCH   3   4
ENDBRANCH   2   3
ENDBRANCH   1   2
BRANCH   1  29
ATOM     29  C   UNL A   1      36.242  31.972  31.344  1.00  0.00     0.188 C 
BRANCH  29  30
ATOM     30  O   UNL A   1      35.432  32.176  32.491  1.00  0.00    -0.376 OA
BRANCH  30  31
ATOM     31  C   UNL A   1      35.037  33.518  32.737  1.00  0.00     0.202 C 
BRANCH  31  32
ATOM     32  C   UNL A   1      35.205  33.971  34.188  1.00  0.00     0.261 C 
BRANCH  32  33
ATOM     33  O   UNL A   1      36.500  34.560  34.417  1.00  0.00    -0.460 OA
BRANCH  33  34
ATOM     34  C   UNL A   1      37.391  33.885  35.164  1.00  0.00     0.338 C 
ATOM     35  O   UNL A   1      37.205  33.402  36.277  1.00  0.00    -0.246 OA
BRANCH  34  36
ATOM     36  C   UNL A   1      38.661  33.812  34.418  1.00  0.00     0.060 A 
ATOM     37  C   UNL A   1      39.838  33.347  35.026  1.00  0.00     0.016 A 
ATOM     38  C   UNL A   1      38.690  34.256  33.100  1.00  0.00     0.016 A 
ATOM     39  C   UNL A   1      41.046  33.338  34.330  1.00  0.00     0.010 A 
ATOM     40  C   UNL A   1      39.897  34.234  32.397  1.00  0.00     0.010 A 
ATOM     41  C   UNL A   1      41.084  33.797  33.013  1.00  0.00    -0.014 A 
BRANCH  41  42
ATOM     42  C   UNL A   1      42.372  33.968  32.301  1.00  0.00     0.031 A 
ATOM     43  C   UNL A   1      43.067  35.294  32.405  1.00  0.00     0.074 A 
ATOM     44  C   UNL A   1      42.882  32.984  31.541  1.00  0.00     0.049 A 
ATOM     45  N   UNL A   1      44.032  35.786  31.677  1.00  0.00    -0.248 NA
ATOM     46  C   UNL A   1      42.590  36.189  33.469  1.00  0.00     0.031 C 
ATOM     47  C   UNL A   1      42.347  31.627  31.437  1.00  0.00     0.029 A 
ATOM     48  N   UNL A   1      43.952  32.991  30.682  1.00  0.00    -0.354 N 
ATOM     49  C   UNL A   1      44.256  37.067  32.169  1.00  0.00     0.074 A 
ATOM     50  C   UNL A   1      43.316  37.275  33.250  1.00  0.00     0.031 C 
ATOM     51  C   UNL A   1      43.069  30.943  30.533  1.00  0.00     0.029 A 
ATOM     52  C   UNL A   1      44.069  31.832  29.949  1.00  0.00     0.049 A 
ATOM     53  H   UNL A   1      44.574  33.750  30.598  1.00  0.00     0.167 HD
ATOM     54  C   UNL A   1      45.159  37.984  31.744  1.00  0.00     0.034 A 
ATOM     55  C   UNL A   1      44.853  31.551  28.888  1.00  0.00     0.034 A 
ATOM     56  C   UNL A   1      46.082  37.748  30.661  1.00  0.00     0.049 A 
ATOM     57  C   UNL A   1      45.782  32.621  28.363  1.00  0.00     0.074 A 
ATOM     58  C   UNL A   1      47.039  38.602  30.139  1.00  0.00     0.029 A 
ATOM     59  N   UNL A   1      46.159  36.571  29.926  1.00  0.00    -0.354 N 
ATOM     60  N   UNL A   1      45.960  33.849  28.796  1.00  0.00    -0.248 NA
ATOM     61  C   UNL A   1      46.611  32.268  27.204  1.00  0.00     0.031 C 
ATOM     62  C   UNL A   1      47.647  37.966  29.051  1.00  0.00     0.029 A 
ATOM     63  C   UNL A   1      47.125  36.685  28.941  1.00  0.00     0.049 A 
ATOM     64  H   UNL A   1      45.607  35.772  30.084  1.00  0.00     0.167 HD
ATOM     65  C   UNL A   1      46.945  34.401  27.981  1.00  0.00     0.074 A 
ATOM     66  C   UNL A   1      47.328  33.370  27.039  1.00  0.00     0.031 C 
ATOM     67  C   UNL A   1      47.490  35.644  28.008  1.00  0.00     0.034 A 
BRANCH  54  68
ATOM     68  C   UNL A   1      45.133  39.339  32.406  1.00  0.00     0.023 A 
ATOM     69  C   UNL A   1      44.371  40.404  31.896  1.00  0.00     0.031 A 
ATOM     70  C   UNL A   1      45.920  39.580  33.547  1.00  0.00     0.131 A 
ATOM     71  C   UNL A   1      44.465  41.675  32.482  1.00  0.00     0.055 A 
ATOM     72  C   UNL A   1      45.947  40.827  34.173  1.00  0.00     0.041 A 
ATOM     73  F   UNL A   1      46.690  38.610  34.063  1.00  0.00    -0.206 F 
ATOM     74  C   UNL A   1      45.227  41.888  33.633  1.00  0.00     0.022 A 
BRANCH  71  75
ATOM     75  S   UNL A   1      43.685  43.080  31.639  1.00  0.00     0.124 S 
ATOM     76  O   UNL A   1      42.299  42.960  32.088  1.00  0.00    -0.237 OA
ATOM     77  O   UNL A   1      44.431  44.217  32.164  1.00  0.00    -0.237 OA
ATOM     78  O   UNL A   1      43.900  42.792  30.223  1.00  0.00    -0.744 OA
ENDBRANCH  71  75
ENDBRANCH  54  68
BRANCH  55  79
ATOM     79  C   UNL A   1      44.749  30.234  28.195  1.00  0.00     0.023 A 
ATOM     80  C   UNL A   1      43.641  29.925  27.391  1.00  0.00     0.031 A 
ATOM     81  C   UNL A   1      45.726  29.239  28.379  1.00  0.00     0.131 A 
ATOM     82  C   UNL A   1      43.510  28.640  26.842  1.00  0.00     0.055 A 
ATOM     83  C   UNL A   1      45.620  27.981  27.784  1.00  0.00     0.041 A 
ATOM     84  F   UNL A   1      46.804  29.478  29.142  1.00  0.00    -0.206 F 
ATOM     85  C   UNL A   1      44.499  27.670  27.021  1.00  0.00     0.022 A 
BRANCH  82  86
ATOM     86  S   UNL A   1      41.979  28.224  25.964  1.00  0.00     0.124 S 
ATOM     87  O   UNL A   1      41.050  29.210  26.505  1.00  0.00    -0.237 OA
ATOM     88  O   UNL A   1      42.370  28.407  24.571  1.00  0.00    -0.237 OA
ATOM     89  O   UNL A   1      41.724  26.842  26.361  1.00  0.00    -0.744 OA
ENDBRANCH  82  86
ENDBRANCH  55  79
BRANCH  67  90
ATOM     90  C   UNL A   1      48.601  35.928  27.027  1.00  0.00     0.023 A 
ATOM     91  C   UNL A   1      49.939  35.595  27.302  1.00  0.00     0.031 A 
ATOM     92  C   UNL A   1      48.313  36.551  25.799  1.00  0.00     0.131 A 
ATOM     93  C   UNL A   1      50.946  35.936  26.386  1.00  0.00     0.055 A 
ATOM     94  C   UNL A   1      49.311  36.834  24.866  1.00  0.00     0.041 A 
ATOM     95  F   UNL A   1      47.052  36.891  25.486  1.00  0.00    -0.206 F 
ATOM     96  C   UNL A   1      50.638  36.538  25.163  1.00  0.00     0.022 A 
BRANCH  93  97
ATOM     97  S   UNL A   1      52.678  35.664  26.850  1.00  0.00     0.124 S 
ATOM     98  O   UNL A   1      53.095  34.648  25.888  1.00  0.00    -0.237 OA
ATOM     99  O   UNL A   1      53.262  36.989  26.670  1.00  0.00    -0.237 OA
ATOM    100  O   UNL A   1      52.594  35.207  28.235  1.00  0.00    -0.744 OA
ENDBRANCH  93  97
ENDBRANCH  67  90
ENDBRANCH  41  42
ENDBRANCH  34  36
ENDBRANCH  33  34
ENDBRANCH  32  33
ENDBRANCH  31  32
ENDBRANCH  30  31
ENDBRANCH  29  30
ENDBRANCH   1  29
TORSDOF 26
ENDMDL
MODEL 3
REMARK VINA RESULT:      -8.2      1.855      2.091
REMARK SMILES CCOc1cccc(OCC)c1-c1ccc([C@@H](C)C(=O)OCCOCCOCCOC(=O)c2ccc(-c3c4nc(c(-c5cc(S(=O)(=O)[O-])ccc5F)c5ccc([nH]5)c(-c5cc(S(=O)(=O)[O-])ccc5F)c5nc(c(-c6cc(S(=O)(=O)[O-])ccc6F)c6ccc3[nH]6)C=C5)C=C4)cc2)cc1F
REMARK SMILES IDX 25 1 24 2 23 3 22 4 21 5 19 6 20 7 17 8 18 9 16 10 13 11
REMARK SMILES IDX 14 12 97 13 15 14 96 15 98 16 12 17 4 18 5 19 6 20 8 21 7 22
REMARK SMILES IDX 3 23 2 24 1 25 9 26 10 27 11 28 26 29 27 30 28 31 29 32
REMARK SMILES IDX 30 33 31 34 32 35 33 36 34 37 95 38 35 39 94 40 36 41 37 42
REMARK SMILES IDX 38 43 88 44 39 45 93 46 87 47 89 48 40 49 92 50 86 51 85 52
REMARK SMILES IDX 41 54 73 55 53 56 72 57 54 58 57 59 71 60 90 61 55 62 56 63
REMARK SMILES IDX 70 65 91 66 58 67 42 68 43 69 51 70 44 71 50 72 52 73 49 74
REMARK SMILES IDX 45 75 46 76 47 77 48 78 74 79 75 80 83 81 76 82 82 83 84 84
REMARK SMILES IDX 81 85 77 86 78 87 79 88 80 89 59 90 60 91 68 92 61 93 67 94
REMARK SMILES IDX 69 95 66 96 62 97 63 98 64 99 65 100
REMARK H PARENT 89 53 57 64
REMARK Flexibility Score: inf
ROOT
ATOM      1  C   UNL A   1      37.726  32.863  30.761  1.00  0.00     0.188 C 
ENDROOT
BRANCH   1   2
ATOM      2  O   UNL A   1      37.671  33.080  29.356  1.00  0.00    -0.376 OA
BRANCH   2   3
ATOM      3  C   UNL A   1      36.597  33.834  28.814  1.00  0.00     0.202 C 
BRANCH   3   4
ATOM      4  C   UNL A   1      35.610  33.107  27.894  1.00  0.00     0.261 C 
BRANCH   4   5
ATOM      5  O   UNL A   1      34.709  32.199  28.572  1.00  0.00    -0.463 OA
BRANCH   5   6
ATOM      6  C   UNL A   1      34.715  30.917  28.130  1.00  0.00     0.313 C 
ATOM      7  O   UNL A   1      35.502  30.069  28.552  1.00  0.00    -0.252 OA
BRANCH   6   8
ATOM      8  C   UNL A   1      33.732  30.561  27.015  1.00  0.00     0.126 C 
ATOM      9  C   UNL A   1      32.451  31.365  27.261  1.00  0.00     0.025 C 
BRANCH   8  10
ATOM     10  C   UNL A   1      33.364  29.130  26.620  1.00  0.00    -0.031 A 
ATOM     11  C   UNL A   1      32.610  26.556  25.555  1.00  0.00     0.025 A 
ATOM     12  C   UNL A   1      32.021  27.092  26.718  1.00  0.00     0.012 A 
ATOM     13  C   UNL A   1      33.642  27.306  24.986  1.00  0.00     0.131 A 
ATOM     14  C   UNL A   1      32.345  28.373  27.207  1.00  0.00     0.005 A 
ATOM     15  C   UNL A   1      34.019  28.554  25.509  1.00  0.00     0.044 A 
ATOM     16  F   UNL A   1      34.273  26.868  23.887  1.00  0.00    -0.206 F 
BRANCH  11  17
ATOM     17  C   UNL A   1      32.134  25.268  24.984  1.00  0.00     0.069 A 
ATOM     18  C   UNL A   1      32.594  24.044  25.544  1.00  0.00     0.130 A 
ATOM     19  C   UNL A   1      32.086  22.791  25.175  1.00  0.00     0.047 A 
ATOM     20  C   UNL A   1      31.096  22.709  24.218  1.00  0.00     0.008 A 
ATOM     21  C   UNL A   1      31.185  25.150  23.941  1.00  0.00     0.130 A 
ATOM     22  C   UNL A   1      30.675  23.877  23.593  1.00  0.00     0.047 A 
BRANCH  18  23
ATOM     23  O   UNL A   1      33.667  24.045  26.400  1.00  0.00    -0.493 OA
BRANCH  23  24
ATOM     24  C   UNL A   1      34.729  23.201  25.960  1.00  0.00     0.226 C 
ATOM     25  C   UNL A   1      35.780  24.110  25.388  1.00  0.00     0.049 C 
ENDBRANCH  23  24
ENDBRANCH  18  23
BRANCH  21  26
ATOM     26  O   UNL A   1      30.637  26.082  23.102  1.00  0.00    -0.493 OA
BRANCH  26  27
ATOM     27  C   UNL A   1      29.696  27.061  23.497  1.00  0.00     0.226 C 
ATOM     28  C   UNL A   1      30.323  28.433  23.323  1.00  0.00     0.049 C 
ENDBRANCH  26  27
ENDBRANCH  21  26
ENDBRANCH  11  17
ENDBRANCH   8  10
ENDBRANCH   6   8
ENDBRANCH   5   6
ENDBRANCH   4   5
ENDBRANCH   3   4
ENDBRANCH   2   3
ENDBRANCH   1   2
BRANCH   1  29
ATOM     29  C   UNL A   1      36.704  31.911  31.403  1.00  0.00     0.188 C 
BRANCH  29  30
ATOM     30  O   UNL A   1      35.633  32.542  32.090  1.00  0.00    -0.376 OA
BRANCH  30  31
ATOM     31  C   UNL A   1      35.579  33.957  31.980  1.00  0.00     0.202 C 
BRANCH  31  32
ATOM     32  C   UNL A   1      35.577  34.695  33.320  1.00  0.00     0.261 C 
BRANCH  32  33
ATOM     33  O   UNL A   1      36.855  34.603  33.980  1.00  0.00    -0.460 OA
BRANCH  33  34
ATOM     34  C   UNL A   1      36.987  33.749  35.010  1.00  0.00     0.338 C 
ATOM     35  O   UNL A   1      36.374  33.772  36.072  1.00  0.00    -0.246 OA
BRANCH  34  36
ATOM     36  C   UNL A   1      38.010  32.748  34.652  1.00  0.00     0.060 A 
ATOM     37  C   UNL A   1      37.812  31.381  34.905  1.00  0.00     0.016 A 
ATOM     38  C   UNL A   1      39.209  33.184  34.096  1.00  0.00     0.016 A 
ATOM     39  C   UNL A   1      38.810  30.450  34.619  1.00  0.00     0.010 A 
ATOM     40  C   UNL A   1      40.204  32.251  33.796  1.00  0.00     0.010 A 
ATOM     41  C   UNL A   1      40.020  30.884  34.076  1.00  0.00    -0.014 A 
BRANCH  41  42
ATOM     42  C   UNL A   1      41.164  29.956  33.922  1.00  0.00     0.031 A 
ATOM     43  C   UNL A   1      42.228  29.964  34.980  1.00  0.00     0.074 A 
ATOM     44  C   UNL A   1      41.276  29.164  32.842  1.00  0.00     0.049 A 
ATOM     45  N   UNL A   1      43.436  29.470  34.948  1.00  0.00    -0.248 NA
ATOM     46  C   UNL A   1      41.879  30.639  36.239  1.00  0.00     0.031 C 
ATOM     47  C   UNL A   1      40.265  29.003  31.798  1.00  0.00     0.029 A 
ATOM     48  N   UNL A   1      42.316  28.369  32.429  1.00  0.00    -0.354 N 
ATOM     49  C   UNL A   1      44.010  29.806  36.169  1.00  0.00     0.074 A 
ATOM     50  C   UNL A   1      43.018  30.555  36.911  1.00  0.00     0.031 C 
ATOM     51  C   UNL A   1      40.751  28.190  30.844  1.00  0.00     0.029 A 
ATOM     52  C   UNL A   1      42.127  27.832  31.177  1.00  0.00     0.049 A 
ATOM     53  H   UNL A   1      43.119  28.201  32.975  1.00  0.00     0.167 HD
ATOM     54  C   UNL A   1      45.257  29.520  36.618  1.00  0.00     0.034 A 
ATOM     55  C   UNL A   1      42.991  27.181  30.371  1.00  0.00     0.034 A 
ATOM     56  C   UNL A   1      46.225  28.773  35.854  1.00  0.00     0.049 A 
ATOM     57  C   UNL A   1      44.408  26.960  30.847  1.00  0.00     0.074 A 
ATOM     58  C   UNL A   1      47.519  28.426  36.202  1.00  0.00     0.029 A 
ATOM     59  N   UNL A   1      46.007  28.262  34.580  1.00  0.00    -0.354 N 
ATOM     60  N   UNL A   1      44.966  27.320  31.981  1.00  0.00    -0.248 NA
ATOM     61  C   UNL A   1      45.311  26.250  29.932  1.00  0.00     0.031 C 
ATOM     62  C   UNL A   1      48.102  27.764  35.116  1.00  0.00     0.029 A 
ATOM     63  C   UNL A   1      47.148  27.628  34.118  1.00  0.00     0.049 A 
ATOM     64  H   UNL A   1      45.163  28.340  34.079  1.00  0.00     0.167 HD
ATOM     65  C   UNL A   1      46.276  26.851  31.925  1.00  0.00     0.074 A 
ATOM     66  C   UNL A   1      46.420  26.174  30.653  1.00  0.00     0.031 C 
ATOM     67  C   UNL A   1      47.271  26.962  32.842  1.00  0.00     0.034 A 
BRANCH  54  68
ATOM     68  C   UNL A   1      45.654  30.083  37.961  1.00  0.00     0.023 A 
ATOM     69  C   UNL A   1      46.213  31.365  38.095  1.00  0.00     0.031 A 
ATOM     70  C   UNL A   1      45.507  29.303  39.121  1.00  0.00     0.131 A 
ATOM     71  C   UNL A   1      46.669  31.801  39.349  1.00  0.00     0.055 A 
ATOM     72  C   UNL A   1      45.889  29.774  40.379  1.00  0.00     0.041 A 
ATOM     73  F   UNL A   1      45.005  28.060  39.051  1.00  0.00    -0.206 F 
ATOM     74  C   UNL A   1      46.487  31.025  40.496  1.00  0.00     0.022 A 
BRANCH  71  75
ATOM     75  S   UNL A   1      47.627  33.339  39.439  1.00  0.00     0.124 S 
ATOM     76  O   UNL A   1      48.955  32.883  39.035  1.00  0.00    -0.237 OA
ATOM     77  O   UNL A   1      46.931  34.200  38.490  1.00  0.00    -0.237 OA
ATOM     78  O   UNL A   1      47.511  33.733  40.841  1.00  0.00    -0.744 OA
ENDBRANCH  71  75
ENDBRANCH  54  68
BRANCH  55  79
ATOM     79  C   UNL A   1      42.578  26.754  29.003  1.00  0.00     0.023 A 
ATOM     80  C   UNL A   1      42.167  25.436  28.749  1.00  0.00     0.031 A 
ATOM     81  C   UNL A   1      42.650  27.641  27.913  1.00  0.00     0.131 A 
ATOM     82  C   UNL A   1      41.892  25.028  27.435  1.00  0.00     0.055 A 
ATOM     83  C   UNL A   1      42.321  27.246  26.616  1.00  0.00     0.041 A 
ATOM     84  F   UNL A   1      43.042  28.912  28.096  1.00  0.00    -0.206 F 
ATOM     85  C   UNL A   1      41.952  25.927  26.368  1.00  0.00     0.022 A 
BRANCH  82  86
ATOM     86  S   UNL A   1      41.544  23.275  27.127  1.00  0.00     0.124 S 
ATOM     87  O   UNL A   1      41.994  23.121  25.748  1.00  0.00    -0.237 OA
ATOM     88  O   UNL A   1      42.358  22.621  28.145  1.00  0.00    -0.237 OA
ATOM     89  O   UNL A   1      40.100  23.174  27.328  1.00  0.00    -0.744 OA
ENDBRANCH  82  86
ENDBRANCH  55  79
BRANCH  67  90
ATOM     90  C   UNL A   1      48.580  26.281  32.522  1.00  0.00     0.023 A 
ATOM     91  C   UNL A   1      48.902  25.011  33.031  1.00  0.00     0.031 A 
ATOM     92  C   UNL A   1      49.522  26.923  31.697  1.00  0.00     0.131 A 
ATOM     93  C   UNL A   1      50.157  24.446  32.755  1.00  0.00     0.055 A 
ATOM     94  C   UNL A   1      50.744  26.329  31.378  1.00  0.00     0.041 A 
ATOM     95  F   UNL A   1      49.266  28.137  31.185  1.00  0.00    -0.206 F 
ATOM     96  C   UNL A   1      51.072  25.090  31.918  1.00  0.00     0.022 A 
BRANCH  93  97
ATOM     97  S   UNL A   1      50.616  22.895  33.576  1.00  0.00     0.124 S 
ATOM     98  O   UNL A   1      51.503  23.363  34.636  1.00  0.00    -0.237 OA
ATOM     99  O   UNL A   1      49.323  22.377  34.010  1.00  0.00    -0.237 OA
ATOM    100  O   UNL A   1      51.267  22.126  32.518  1.00  0.00    -0.744 OA
ENDBRANCH  93  97
ENDBRANCH  67  90
ENDBRANCH  41  42
ENDBRANCH  34  36
ENDBRANCH  33  34
ENDBRANCH  32  33
ENDBRANCH  31  32
ENDBRANCH  30  31
ENDBRANCH  29  30
ENDBRANCH   1  29
TORSDOF 26
ENDMDL
