MODEL 1
REMARK VINA RESULT:      -9.1      0.000      0.000
REMARK SMILES C[C@@H](CN1C(=O)C(C)(C)S1(=O)=O)C(=O)OCCOCCOCCOC(=O)c1ccc(-c2c3nc(c(-c4cc(S(=O)(=O)[O-])ccc4F)c4ccc([nH]4)c(-c4cc(S(=O)(=O)[O-])ccc4F)c4nc(c(-c5cc(S(=O)(=O)[O-])ccc5F)c5ccc2[nH]5)C=C4)C=C3)cc1
REMARK SMILES IDX 20 1 19 2 18 3 17 4 16 5 15 6 13 7 14 8 2 9 1 10 3 11 4 12
REMARK SMILES IDX 5 13 10 14 6 15 7 16 11 17 12 18 8 19 9 20 21 21 22 22 23 23
REMARK SMILES IDX 24 24 25 25 26 26 27 27 28 28 89 29 29 30 88 31 30 32 31 33
REMARK SMILES IDX 32 34 82 35 33 36 87 37 81 38 83 39 34 40 86 41 80 42 79 43
REMARK SMILES IDX 35 45 67 46 47 47 66 48 48 49 51 50 65 51 84 52 49 53 50 54
REMARK SMILES IDX 64 56 85 57 52 58 36 59 37 60 45 61 38 62 44 63 46 64 43 65
REMARK SMILES IDX 39 66 40 67 41 68 42 69 68 70 69 71 77 72 70 73 76 74 78 75
REMARK SMILES IDX 75 76 71 77 72 78 73 79 74 80 53 81 54 82 62 83 55 84 61 85
REMARK SMILES IDX 63 86 60 87 56 88 57 89 58 90 59 91
REMARK H PARENT 83 44 51 55
REMARK Flexibility Score: inf
ROOT
ATOM      1  C   UNL A   1      34.952  32.340  28.988  1.00  0.00     0.188 C 
ENDROOT
BRANCH   1   2
ATOM      2  C   UNL A   1      34.260  31.875  27.696  1.00  0.00     0.188 C 
BRANCH   2   3
ATOM      3  O   UNL A   1      33.746  30.550  27.652  1.00  0.00    -0.376 OA
BRANCH   3   4
ATOM      4  C   UNL A   1      32.469  30.350  27.060  1.00  0.00     0.202 C 
BRANCH   4   5
ATOM      5  C   UNL A   1      31.825  28.954  27.134  1.00  0.00     0.261 C 
BRANCH   5   6
ATOM      6  O   UNL A   1      32.017  28.072  25.998  1.00  0.00    -0.463 OA
BRANCH   6   7
ATOM      7  C   UNL A   1      31.068  27.132  25.748  1.00  0.00     0.310 C 
ATOM      8  O   UNL A   1      30.640  26.362  26.602  1.00  0.00    -0.252 OA
BRANCH   7   9
ATOM      9  C   UNL A   1      30.645  26.999  24.276  1.00  0.00     0.117 C 
ATOM     10  C   UNL A   1      29.987  28.159  23.532  1.00  0.00     0.022 C 
BRANCH   9  11
ATOM     11  C   UNL A   1      31.799  26.411  23.466  1.00  0.00     0.153 C 
BRANCH  11  12
ATOM     12  N   UNL A   1      32.294  25.165  24.016  1.00  0.00    -0.236 N 
ATOM     13  C   UNL A   1      31.825  23.857  23.769  1.00  0.00     0.258 C 
ATOM     14  S   UNL A   1      33.862  24.612  23.991  1.00  0.00     0.251 S 
ATOM     15  O   UNL A   1      30.782  23.526  23.249  1.00  0.00    -0.272 OA
ATOM     16  C   UNL A   1      32.965  23.207  24.602  1.00  0.00     0.165 C 
ATOM     17  O   UNL A   1      34.296  24.466  22.622  1.00  0.00    -0.205 OA
ATOM     18  O   UNL A   1      34.676  25.201  25.023  1.00  0.00    -0.205 OA
ATOM     19  C   UNL A   1      33.508  21.867  24.145  1.00  0.00     0.041 C 
ATOM     20  C   UNL A   1      32.617  23.192  26.094  1.00  0.00     0.041 C 
ENDBRANCH  11  12
ENDBRANCH   9  11
ENDBRANCH   7   9
ENDBRANCH   6   7
ENDBRANCH   5   6
ENDBRANCH   4   5
ENDBRANCH   3   4
ENDBRANCH   2   3
ENDBRANCH   1   2
BRANCH   1  21
ATOM     21  O   UNL A   1      34.979  33.736  29.161  1.00  0.00    -0.376 OA
BRANCH  21  22
ATOM     22  C   UNL A   1      33.992  34.512  28.518  1.00  0.00     0.202 C 
BRANCH  22  23
ATOM     23  C   UNL A   1      32.898  35.186  29.365  1.00  0.00     0.261 C 
BRANCH  23  24
ATOM     24  O   UNL A   1      33.328  36.017  30.457  1.00  0.00    -0.460 OA
BRANCH  24  25
ATOM     25  C   UNL A   1      32.961  35.643  31.709  1.00  0.00     0.338 C 
ATOM     26  O   UNL A   1      31.843  35.710  32.186  1.00  0.00    -0.246 OA
BRANCH  25  27
ATOM     27  C   UNL A   1      34.102  34.896  32.301  1.00  0.00     0.060 A 
ATOM     28  C   UNL A   1      35.405  35.406  32.160  1.00  0.00     0.016 A 
ATOM     29  C   UNL A   1      33.886  33.730  33.035  1.00  0.00     0.016 A 
ATOM     30  C   UNL A   1      36.490  34.743  32.742  1.00  0.00     0.010 A 
ATOM     31  C   UNL A   1      34.977  33.052  33.589  1.00  0.00     0.010 A 
ATOM     32  C   UNL A   1      36.288  33.540  33.426  1.00  0.00    -0.014 A 
BRANCH  32  33
ATOM     33  C   UNL A   1      37.442  32.672  33.782  1.00  0.00     0.031 A 
ATOM     34  C   UNL A   1      38.216  33.011  35.027  1.00  0.00     0.074 A 
ATOM     35  C   UNL A   1      37.812  31.622  33.027  1.00  0.00     0.049 A 
ATOM     36  N   UNL A   1      39.332  32.503  35.483  1.00  0.00    -0.248 NA
ATOM     37  C   UNL A   1      37.655  34.084  35.864  1.00  0.00     0.031 C 
ATOM     38  C   UNL A   1      37.114  31.152  31.833  1.00  0.00     0.029 A 
ATOM     39  N   UNL A   1      38.885  30.772  33.146  1.00  0.00    -0.354 N 
ATOM     40  C   UNL A   1      39.617  33.206  36.650  1.00  0.00     0.074 A 
ATOM     41  C   UNL A   1      38.573  34.196  36.809  1.00  0.00     0.031 C 
ATOM     42  C   UNL A   1      37.790  30.110  31.316  1.00  0.00     0.029 A 
ATOM     43  C   UNL A   1      38.996  29.872  32.110  1.00  0.00     0.049 A 
ATOM     44  H   UNL A   1      39.515  30.802  33.902  1.00  0.00     0.167 HD
ATOM     45  C   UNL A   1      40.652  33.039  37.509  1.00  0.00     0.034 A 
ATOM     46  C   UNL A   1      39.977  28.991  31.814  1.00  0.00     0.034 A 
ATOM     47  C   UNL A   1      41.692  32.056  37.326  1.00  0.00     0.049 A 
ATOM     48  C   UNL A   1      41.179  28.892  32.728  1.00  0.00     0.074 A 
ATOM     49  C   UNL A   1      42.776  31.789  38.145  1.00  0.00     0.029 A 
ATOM     50  N   UNL A   1      41.793  31.193  36.243  1.00  0.00    -0.354 N 
ATOM     51  N   UNL A   1      41.439  29.556  33.832  1.00  0.00    -0.248 NA
ATOM     52  C   UNL A   1      42.219  27.920  32.358  1.00  0.00     0.031 C 
ATOM     53  C   UNL A   1      43.578  30.834  37.513  1.00  0.00     0.029 A 
ATOM     54  C   UNL A   1      42.943  30.426  36.351  1.00  0.00     0.049 A 
ATOM     55  H   UNL A   1      41.143  31.133  35.507  1.00  0.00     0.167 HD
ATOM     56  C   UNL A   1      42.652  29.055  34.304  1.00  0.00     0.074 A 
ATOM     57  C   UNL A   1      43.066  28.028  33.372  1.00  0.00     0.031 C 
ATOM     58  C   UNL A   1      43.354  29.406  35.412  1.00  0.00     0.034 A 
BRANCH  45  59
ATOM     59  C   UNL A   1      40.742  33.987  38.681  1.00  0.00     0.023 A 
ATOM     60  C   UNL A   1      40.112  33.715  39.908  1.00  0.00     0.031 A 
ATOM     61  C   UNL A   1      41.440  35.202  38.555  1.00  0.00     0.131 A 
ATOM     62  C   UNL A   1      40.125  34.677  40.929  1.00  0.00     0.055 A 
ATOM     63  C   UNL A   1      41.527  36.114  39.607  1.00  0.00     0.041 A 
ATOM     64  F   UNL A   1      42.038  35.531  37.399  1.00  0.00    -0.206 F 
ATOM     65  C   UNL A   1      40.852  35.863  40.798  1.00  0.00     0.022 A 
BRANCH  62  66
ATOM     66  S   UNL A   1      39.042  34.433  42.363  1.00  0.00     0.124 S 
ATOM     67  O   UNL A   1      38.196  33.330  41.908  1.00  0.00    -0.237 OA
ATOM     68  O   UNL A   1      39.990  34.113  43.424  1.00  0.00    -0.237 OA
ATOM     69  O   UNL A   1      38.359  35.717  42.501  1.00  0.00    -0.744 OA
ENDBRANCH  62  66
ENDBRANCH  45  59
BRANCH  46  70
ATOM     70  C   UNL A   1      39.909  28.172  30.566  1.00  0.00     0.023 A 
ATOM     71  C   UNL A   1      40.632  28.528  29.416  1.00  0.00     0.031 A 
ATOM     72  C   UNL A   1      39.064  27.050  30.487  1.00  0.00     0.131 A 
ATOM     73  C   UNL A   1      40.463  27.801  28.227  1.00  0.00     0.055 A 
ATOM     74  C   UNL A   1      38.947  26.291  29.321  1.00  0.00     0.041 A 
ATOM     75  F   UNL A   1      38.337  26.671  31.550  1.00  0.00    -0.206 F 
ATOM     76  C   UNL A   1      39.641  26.672  28.177  1.00  0.00     0.022 A 
BRANCH  73  77
ATOM     77  S   UNL A   1      41.257  28.407  26.713  1.00  0.00     0.124 S 
ATOM     78  O   UNL A   1      40.224  29.279  26.166  1.00  0.00    -0.237 OA
ATOM     79  O   UNL A   1      42.446  29.071  27.238  1.00  0.00    -0.237 OA
ATOM     80  O   UNL A   1      41.513  27.187  25.949  1.00  0.00    -0.744 OA
ENDBRANCH  73  77
ENDBRANCH  46  70
BRANCH  58  81
ATOM     81  C   UNL A   1      44.618  28.632  35.716  1.00  0.00     0.023 A 
ATOM     82  C   UNL A   1      44.607  27.437  36.456  1.00  0.00     0.031 A 
ATOM     83  C   UNL A   1      45.858  29.099  35.239  1.00  0.00     0.131 A 
ATOM     84  C   UNL A   1      45.815  26.779  36.740  1.00  0.00     0.055 A 
ATOM     85  C   UNL A   1      47.046  28.402  35.464  1.00  0.00     0.041 A 
ATOM     86  F   UNL A   1      45.934  30.237  34.530  1.00  0.00    -0.206 F 
ATOM     87  C   UNL A   1      47.031  27.241  36.230  1.00  0.00     0.022 A 
BRANCH  84  88
ATOM     88  S   UNL A   1      45.791  25.359  37.869  1.00  0.00     0.124 S 
ATOM     89  O   UNL A   1      44.371  25.025  37.906  1.00  0.00    -0.237 OA
ATOM     90  O   UNL A   1      46.655  24.401  37.186  1.00  0.00    -0.237 OA
ATOM     91  O   UNL A   1      46.332  25.902  39.114  1.00  0.00    -0.744 OA
ENDBRANCH  84  88
ENDBRANCH  58  81
ENDBRANCH  32  33
ENDBRANCH  25  27
ENDBRANCH  24  25
ENDBRANCH  23  24
ENDBRANCH  22  23
ENDBRANCH  21  22
ENDBRANCH   1  21
TORSDOF 22
ENDMDL
MODEL 2
REMARK VINA RESULT:      -8.9      1.651      2.054
REMARK SMILES C[C@@H](CN1C(=O)C(C)(C)S1(=O)=O)C(=O)OCCOCCOCCOC(=O)c1ccc(-c2c3nc(c(-c4cc(S(=O)(=O)[O-])ccc4F)c4ccc([nH]4)c(-c4cc(S(=O)(=O)[O-])ccc4F)c4nc(c(-c5cc(S(=O)(=O)[O-])ccc5F)c5ccc2[nH]5)C=C4)C=C3)cc1
REMARK SMILES IDX 20 1 19 2 18 3 17 4 16 5 15 6 13 7 14 8 2 9 1 10 3 11 4 12
REMARK SMILES IDX 5 13 10 14 6 15 7 16 11 17 12 18 8 19 9 20 21 21 22 22 23 23
REMARK SMILES IDX 24 24 25 25 26 26 27 27 28 28 89 29 29 30 88 31 30 32 31 33
REMARK SMILES IDX 32 34 82 35 33 36 87 37 81 38 83 39 34 40 86 41 80 42 79 43
REMARK SMILES IDX 35 45 67 46 47 47 66 48 48 49 51 50 65 51 84 52 49 53 50 54
REMARK SMILES IDX 64 56 85 57 52 58 36 59 37 60 45 61 38 62 44 63 46 64 43 65
REMARK SMILES IDX 39 66 40 67 41 68 42 69 68 70 69 71 77 72 70 73 76 74 78 75
REMARK SMILES IDX 75 76 71 77 72 78 73 79 74 80 53 81 54 82 62 83 55 84 61 85
REMARK SMILES IDX 63 86 60 87 56 88 57 89 58 90 59 91
REMARK H PARENT 83 44 51 55
REMARK Flexibility Score: inf
ROOT
ATOM      1  C   UNL A   1      34.767  32.390  28.953  1.00  0.00     0.188 C 
ENDROOT
BRANCH   1   2
ATOM      2  C   UNL A   1      33.817  31.994  27.812  1.00  0.00     0.188 C 
BRANCH   2   3
ATOM      3  O   UNL A   1      33.562  30.611  27.603  1.00  0.00    -0.376 OA
BRANCH   3   4
ATOM      4  C   UNL A   1      32.274  30.234  27.133  1.00  0.00     0.202 C 
BRANCH   4   5
ATOM      5  C   UNL A   1      31.842  28.761  27.245  1.00  0.00     0.261 C 
BRANCH   5   6
ATOM      6  O   UNL A   1      32.624  27.782  26.515  1.00  0.00    -0.463 OA
BRANCH   6   7
ATOM      7  C   UNL A   1      32.038  26.594  26.206  1.00  0.00     0.310 C 
ATOM      8  O   UNL A   1      31.176  26.066  26.903  1.00  0.00    -0.252 OA
BRANCH   7   9
ATOM      9  C   UNL A   1      32.620  25.873  24.980  1.00  0.00     0.117 C 
ATOM     10  C   UNL A   1      33.967  26.278  24.387  1.00  0.00     0.022 C 
BRANCH   9  11
ATOM     11  C   UNL A   1      32.548  24.362  25.196  1.00  0.00     0.153 C 
BRANCH  11  12
ATOM     12  N   UNL A   1      33.845  23.720  25.104  1.00  0.00    -0.236 N 
ATOM     13  C   UNL A   1      34.522  22.980  26.095  1.00  0.00     0.258 C 
ATOM     14  S   UNL A   1      34.344  22.636  23.946  1.00  0.00     0.251 S 
ATOM     15  O   UNL A   1      34.281  22.929  27.282  1.00  0.00    -0.272 OA
ATOM     16  C   UNL A   1      35.670  22.583  25.125  1.00  0.00     0.165 C 
ATOM     17  O   UNL A   1      33.495  21.470  23.984  1.00  0.00    -0.205 OA
ATOM     18  O   UNL A   1      34.757  23.278  22.725  1.00  0.00    -0.205 OA
ATOM     19  C   UNL A   1      36.307  21.218  25.294  1.00  0.00     0.041 C 
ATOM     20  C   UNL A   1      36.728  23.690  25.042  1.00  0.00     0.041 C 
ENDBRANCH  11  12
ENDBRANCH   9  11
ENDBRANCH   7   9
ENDBRANCH   6   7
ENDBRANCH   5   6
ENDBRANCH   4   5
ENDBRANCH   3   4
ENDBRANCH   2   3
ENDBRANCH   1   2
BRANCH   1  21
ATOM     21  O   UNL A   1      34.940  33.778  29.109  1.00  0.00    -0.376 OA
BRANCH  21  22
ATOM     22  C   UNL A   1      34.014  34.643  28.490  1.00  0.00     0.202 C 
BRANCH  22  23
ATOM     23  C   UNL A   1      32.935  35.325  29.351  1.00  0.00     0.261 C 
BRANCH  23  24
ATOM     24  O   UNL A   1      33.377  36.057  30.506  1.00  0.00    -0.460 OA
BRANCH  24  25
ATOM     25  C   UNL A   1      32.996  35.594  31.724  1.00  0.00     0.338 C 
ATOM     26  O   UNL A   1      31.865  35.590  32.174  1.00  0.00    -0.246 OA
BRANCH  25  27
ATOM     27  C   UNL A   1      34.151  34.856  32.300  1.00  0.00     0.060 A 
ATOM     28  C   UNL A   1      35.456  35.305  32.032  1.00  0.00     0.016 A 
ATOM     29  C   UNL A   1      33.949  33.761  33.140  1.00  0.00     0.016 A 
ATOM     30  C   UNL A   1      36.557  34.652  32.594  1.00  0.00     0.010 A 
ATOM     31  C   UNL A   1      35.054  33.090  33.676  1.00  0.00     0.010 A 
ATOM     32  C   UNL A   1      36.365  33.515  33.388  1.00  0.00    -0.014 A 
BRANCH  32  33
ATOM     33  C   UNL A   1      37.513  32.638  33.738  1.00  0.00     0.031 A 
ATOM     34  C   UNL A   1      38.296  32.970  34.980  1.00  0.00     0.074 A 
ATOM     35  C   UNL A   1      37.870  31.585  32.981  1.00  0.00     0.049 A 
ATOM     36  N   UNL A   1      39.409  32.451  35.431  1.00  0.00    -0.248 NA
ATOM     37  C   UNL A   1      37.747  34.046  35.820  1.00  0.00     0.031 C 
ATOM     38  C   UNL A   1      37.163  31.122  31.789  1.00  0.00     0.029 A 
ATOM     39  N   UNL A   1      38.937  30.725  33.095  1.00  0.00    -0.354 N 
ATOM     40  C   UNL A   1      39.705  33.151  36.596  1.00  0.00     0.074 A 
ATOM     41  C   UNL A   1      38.671  34.150  36.761  1.00  0.00     0.031 C 
ATOM     42  C   UNL A   1      37.828  30.074  31.269  1.00  0.00     0.029 A 
ATOM     43  C   UNL A   1      39.035  29.826  32.057  1.00  0.00     0.049 A 
ATOM     44  H   UNL A   1      39.571  30.750  33.848  1.00  0.00     0.167 HD
ATOM     45  C   UNL A   1      40.743  32.974  37.451  1.00  0.00     0.034 A 
ATOM     46  C   UNL A   1      40.007  28.937  31.756  1.00  0.00     0.034 A 
ATOM     47  C   UNL A   1      41.773  31.983  37.263  1.00  0.00     0.049 A 
ATOM     48  C   UNL A   1      41.213  28.826  32.665  1.00  0.00     0.074 A 
ATOM     49  C   UNL A   1      42.858  31.706  38.076  1.00  0.00     0.029 A 
ATOM     50  N   UNL A   1      41.862  31.119  36.179  1.00  0.00    -0.354 N 
ATOM     51  N   UNL A   1      41.483  29.487  33.768  1.00  0.00    -0.248 NA
ATOM     52  C   UNL A   1      42.243  27.846  32.290  1.00  0.00     0.031 C 
ATOM     53  C   UNL A   1      43.650  30.745  37.441  1.00  0.00     0.029 A 
ATOM     54  C   UNL A   1      43.006  30.343  36.281  1.00  0.00     0.049 A 
ATOM     55  H   UNL A   1      41.208  31.066  35.445  1.00  0.00     0.167 HD
ATOM     56  C   UNL A   1      42.695  28.976  34.234  1.00  0.00     0.074 A 
ATOM     57  C   UNL A   1      43.096  27.946  33.300  1.00  0.00     0.031 C 
ATOM     58  C   UNL A   1      43.405  29.320  35.340  1.00  0.00     0.034 A 
BRANCH  45  59
ATOM     59  C   UNL A   1      40.846  33.921  38.623  1.00  0.00     0.023 A 
ATOM     60  C   UNL A   1      41.667  35.061  38.590  1.00  0.00     0.031 A 
ATOM     61  C   UNL A   1      40.136  33.657  39.809  1.00  0.00     0.131 A 
ATOM     62  C   UNL A   1      41.821  35.846  39.742  1.00  0.00     0.055 A 
ATOM     63  C   UNL A   1      40.222  34.494  40.921  1.00  0.00     0.041 A 
ATOM     64  F   UNL A   1      39.358  32.568  39.912  1.00  0.00    -0.206 F 
ATOM     65  C   UNL A   1      41.082  35.588  40.899  1.00  0.00     0.022 A 
BRANCH  62  66
ATOM     66  S   UNL A   1      43.123  37.108  39.762  1.00  0.00     0.124 S 
ATOM     67  O   UNL A   1      44.330  36.288  39.660  1.00  0.00    -0.237 OA
ATOM     68  O   UNL A   1      42.800  37.915  38.590  1.00  0.00    -0.237 OA
ATOM     69  O   UNL A   1      42.938  37.773  41.050  1.00  0.00    -0.744 OA
ENDBRANCH  62  66
ENDBRANCH  45  59
BRANCH  46  70
ATOM     70  C   UNL A   1      39.927  28.119  30.508  1.00  0.00     0.023 A 
ATOM     71  C   UNL A   1      40.654  28.466  29.357  1.00  0.00     0.031 A 
ATOM     72  C   UNL A   1      39.067  27.008  30.430  1.00  0.00     0.131 A 
ATOM     73  C   UNL A   1      40.473  27.741  28.168  1.00  0.00     0.055 A 
ATOM     74  C   UNL A   1      38.939  26.251  29.264  1.00  0.00     0.041 A 
ATOM     75  F   UNL A   1      38.336  26.639  31.493  1.00  0.00    -0.206 F 
ATOM     76  C   UNL A   1      39.636  26.624  28.119  1.00  0.00     0.022 A 
BRANCH  73  77
ATOM     77  S   UNL A   1      41.274  28.337  26.653  1.00  0.00     0.124 S 
ATOM     78  O   UNL A   1      42.494  28.937  27.180  1.00  0.00    -0.237 OA
ATOM     79  O   UNL A   1      41.442  27.104  25.892  1.00  0.00    -0.237 OA
ATOM     80  O   UNL A   1      40.302  29.280  26.101  1.00  0.00    -0.744 OA
ENDBRANCH  73  77
ENDBRANCH  46  70
BRANCH  58  81
ATOM     81  C   UNL A   1      44.663  28.535  35.637  1.00  0.00     0.023 A 
ATOM     82  C   UNL A   1      44.648  27.353  36.398  1.00  0.00     0.031 A 
ATOM     83  C   UNL A   1      45.901  28.977  35.133  1.00  0.00     0.131 A 
ATOM     84  C   UNL A   1      45.852  26.684  36.675  1.00  0.00     0.055 A 
ATOM     85  C   UNL A   1      47.083  28.269  35.353  1.00  0.00     0.041 A 
ATOM     86  F   UNL A   1      45.980  30.102  34.404  1.00  0.00    -0.206 F 
ATOM     87  C   UNL A   1      47.065  27.122  36.139  1.00  0.00     0.022 A 
BRANCH  84  88
ATOM     88  S   UNL A   1      45.827  25.284  37.828  1.00  0.00     0.124 S 
ATOM     89  O   UNL A   1      45.774  24.144  36.920  1.00  0.00    -0.237 OA
ATOM     90  O   UNL A   1      47.078  25.459  38.560  1.00  0.00    -0.237 OA
ATOM     91  O   UNL A   1      44.615  25.508  38.614  1.00  0.00    -0.744 OA
ENDBRANCH  84  88
ENDBRANCH  58  81
ENDBRANCH  32  33
ENDBRANCH  25  27
ENDBRANCH  24  25
ENDBRANCH  23  24
ENDBRANCH  22  23
ENDBRANCH  21  22
ENDBRANCH   1  21
TORSDOF 22
ENDMDL
MODEL 3
REMARK VINA RESULT:      -8.8      6.689     10.633
REMARK SMILES C[C@@H](CN1C(=O)C(C)(C)S1(=O)=O)C(=O)OCCOCCOCCOC(=O)c1ccc(-c2c3nc(c(-c4cc(S(=O)(=O)[O-])ccc4F)c4ccc([nH]4)c(-c4cc(S(=O)(=O)[O-])ccc4F)c4nc(c(-c5cc(S(=O)(=O)[O-])ccc5F)c5ccc2[nH]5)C=C4)C=C3)cc1
REMARK SMILES IDX 20 1 19 2 18 3 17 4 16 5 15 6 13 7 14 8 2 9 1 10 3 11 4 12
REMARK SMILES IDX 5 13 10 14 6 15 7 16 11 17 12 18 8 19 9 20 21 21 22 22 23 23
REMARK SMILES IDX 24 24 25 25 26 26 27 27 28 28 89 29 29 30 88 31 30 32 31 33
REMARK SMILES IDX 32 34 82 35 33 36 87 37 81 38 83 39 34 40 86 41 80 42 79 43
REMARK SMILES IDX 35 45 67 46 47 47 66 48 48 49 51 50 65 51 84 52 49 53 50 54
REMARK SMILES IDX 64 56 85 57 52 58 36 59 37 60 45 61 38 62 44 63 46 64 43 65
REMARK SMILES IDX 39 66 40 67 41 68 42 69 68 70 69 71 77 72 70 73 76 74 78 75
REMARK SMILES IDX 75 76 71 77 72 78 73 79 74 80 53 81 54 82 62 83 55 84 61 85
REMARK SMILES IDX 63 86 60 87 56 88 57 89 58 90 59 91
REMARK H PARENT 83 44 51 55
REMARK Flexibility Score: inf
ROOT
ATOM      1  C   UNL A   1      34.998  22.936  24.444  1.00  0.00     0.188 C 
ENDROOT
BRANCH   1   2
ATOM      2  C   UNL A   1      33.957  23.400  25.477  1.00  0.00     0.188 C 
BRANCH   2   3
ATOM      3  O   UNL A   1      34.125  24.684  26.064  1.00  0.00    -0.376 OA
BRANCH   3   4
ATOM      4  C   UNL A   1      33.466  25.787  25.454  1.00  0.00     0.202 C 
BRANCH   4   5
ATOM      5  C   UNL A   1      33.861  27.214  25.874  1.00  0.00     0.261 C 
BRANCH   5   6
ATOM      6  O   UNL A   1      33.127  27.810  26.976  1.00  0.00    -0.463 OA
BRANCH   6   7
ATOM      7  C   UNL A   1      31.798  28.040  26.810  1.00  0.00     0.310 C 
ATOM      8  O   UNL A   1      30.934  27.197  27.032  1.00  0.00    -0.252 OA
BRANCH   7   9
ATOM      9  C   UNL A   1      31.438  29.401  26.195  1.00  0.00     0.117 C 
ATOM     10  C   UNL A   1      31.947  30.706  26.803  1.00  0.00     0.022 C 
BRANCH   9  11
ATOM     11  C   UNL A   1      31.691  29.363  24.689  1.00  0.00     0.153 C 
BRANCH  11  12
ATOM     12  N   UNL A   1      30.466  29.303  23.915  1.00  0.00    -0.236 N 
ATOM     13  C   UNL A   1      29.531  30.333  23.683  1.00  0.00     0.258 C 
ATOM     14  S   UNL A   1      30.300  28.790  22.343  1.00  0.00     0.251 S 
ATOM     15  O   UNL A   1      29.430  31.392  24.265  1.00  0.00    -0.272 OA
ATOM     16  C   UNL A   1      28.697  29.462  22.704  1.00  0.00     0.165 C 
ATOM     17  O   UNL A   1      31.094  29.632  21.479  1.00  0.00    -0.205 OA
ATOM     18  O   UNL A   1      30.251  27.356  22.227  1.00  0.00    -0.205 OA
ATOM     19  C   UNL A   1      28.025  30.150  21.532  1.00  0.00     0.041 C 
ATOM     20  C   UNL A   1      27.715  28.564  23.465  1.00  0.00     0.041 C 
ENDBRANCH  11  12
ENDBRANCH   9  11
ENDBRANCH   7   9
ENDBRANCH   6   7
ENDBRANCH   5   6
ENDBRANCH   4   5
ENDBRANCH   3   4
ENDBRANCH   2   3
ENDBRANCH   1   2
BRANCH   1  21
ATOM     21  O   UNL A   1      35.750  21.816  24.843  1.00  0.00    -0.376 OA
BRANCH  21  22
ATOM     22  C   UNL A   1      37.093  21.724  24.422  1.00  0.00     0.202 C 
BRANCH  22  23
ATOM     23  C   UNL A   1      38.034  20.734  25.130  1.00  0.00     0.261 C 
BRANCH  23  24
ATOM     24  O   UNL A   1      39.188  21.278  25.793  1.00  0.00    -0.460 OA
BRANCH  24  25
ATOM     25  C   UNL A   1      40.260  20.462  25.956  1.00  0.00     0.338 C 
ATOM     26  O   UNL A   1      40.337  19.294  25.621  1.00  0.00    -0.246 OA
BRANCH  25  27
ATOM     27  C   UNL A   1      41.406  21.313  26.372  1.00  0.00     0.060 A 
ATOM     28  C   UNL A   1      42.689  20.745  26.454  1.00  0.00     0.016 A 
ATOM     29  C   UNL A   1      41.227  22.672  26.627  1.00  0.00     0.016 A 
ATOM     30  C   UNL A   1      43.790  21.534  26.804  1.00  0.00     0.010 A 
ATOM     31  C   UNL A   1      42.325  23.452  27.007  1.00  0.00     0.010 A 
ATOM     32  C   UNL A   1      43.608  22.884  27.122  1.00  0.00    -0.014 A 
BRANCH  32  33
ATOM     33  C   UNL A   1      44.694  23.655  27.783  1.00  0.00     0.031 A 
ATOM     34  C   UNL A   1      44.582  23.897  29.264  1.00  0.00     0.074 A 
ATOM     35  C   UNL A   1      45.746  24.144  27.101  1.00  0.00     0.049 A 
ATOM     36  N   UNL A   1      45.315  24.644  30.048  1.00  0.00    -0.248 NA
ATOM     37  C   UNL A   1      43.478  23.205  29.948  1.00  0.00     0.031 C 
ATOM     38  C   UNL A   1      46.004  23.932  25.679  1.00  0.00     0.029 A 
ATOM     39  N   UNL A   1      46.786  24.942  27.517  1.00  0.00    -0.354 N 
ATOM     40  C   UNL A   1      44.751  24.529  31.314  1.00  0.00     0.074 A 
ATOM     41  C   UNL A   1      43.596  23.666  31.183  1.00  0.00     0.031 C 
ATOM     42  C   UNL A   1      47.119  24.602  25.335  1.00  0.00     0.029 A 
ATOM     43  C   UNL A   1      47.625  25.332  26.497  1.00  0.00     0.049 A 
ATOM     44  H   UNL A   1      46.920  25.207  28.455  1.00  0.00     0.167 HD
ATOM     45  C   UNL A   1      45.159  25.090  32.479  1.00  0.00     0.034 A 
ATOM     46  C   UNL A   1      48.651  26.210  26.494  1.00  0.00     0.034 A 
ATOM     47  C   UNL A   1      46.304  25.960  32.589  1.00  0.00     0.049 A 
ATOM     48  C   UNL A   1      49.028  26.909  27.783  1.00  0.00     0.074 A 
ATOM     49  C   UNL A   1      46.817  26.567  33.723  1.00  0.00     0.029 A 
ATOM     50  N   UNL A   1      47.103  26.367  31.528  1.00  0.00    -0.354 N 
ATOM     51  N   UNL A   1      48.493  26.791  28.978  1.00  0.00    -0.248 NA
ATOM     52  C   UNL A   1      50.151  27.858  27.724  1.00  0.00     0.031 C 
ATOM     53  C   UNL A   1      47.863  27.409  33.334  1.00  0.00     0.029 A 
ATOM     54  C   UNL A   1      48.074  27.250  31.974  1.00  0.00     0.049 A 
ATOM     55  H   UNL A   1      46.995  26.071  30.595  1.00  0.00     0.167 HD
ATOM     56  C   UNL A   1      49.238  27.622  29.815  1.00  0.00     0.074 A 
ATOM     57  C   UNL A   1      50.264  28.226  28.992  1.00  0.00     0.031 C 
ATOM     58  C   UNL A   1      49.092  27.855  31.145  1.00  0.00     0.034 A 
BRANCH  45  59
ATOM     59  C   UNL A   1      44.318  24.831  33.707  1.00  0.00     0.023 A 
ATOM     60  C   UNL A   1      43.393  25.774  34.188  1.00  0.00     0.031 A 
ATOM     61  C   UNL A   1      44.472  23.634  34.429  1.00  0.00     0.131 A 
ATOM     62  C   UNL A   1      42.720  25.539  35.396  1.00  0.00     0.055 A 
ATOM     63  C   UNL A   1      43.731  23.367  35.580  1.00  0.00     0.041 A 
ATOM     64  F   UNL A   1      45.361  22.707  34.036  1.00  0.00    -0.206 F 
ATOM     65  C   UNL A   1      42.860  24.330  36.081  1.00  0.00     0.022 A 
BRANCH  62  66
ATOM     66  S   UNL A   1      41.788  26.902  36.146  1.00  0.00     0.124 S 
ATOM     67  O   UNL A   1      42.849  27.652  36.816  1.00  0.00    -0.237 OA
ATOM     68  O   UNL A   1      41.185  27.549  34.986  1.00  0.00    -0.237 OA
ATOM     69  O   UNL A   1      40.852  26.227  37.042  1.00  0.00    -0.744 OA
ENDBRANCH  62  66
ENDBRANCH  45  59
BRANCH  46  70
ATOM     70  C   UNL A   1      49.365  26.538  25.223  1.00  0.00     0.023 A 
ATOM     71  C   UNL A   1      48.713  27.192  24.164  1.00  0.00     0.031 A 
ATOM     72  C   UNL A   1      50.701  26.142  25.025  1.00  0.00     0.131 A 
ATOM     73  C   UNL A   1      49.379  27.388  22.944  1.00  0.00     0.055 A 
ATOM     74  C   UNL A   1      51.380  26.397  23.832  1.00  0.00     0.041 A 
ATOM     75  F   UNL A   1      51.370  25.501  25.995  1.00  0.00    -0.206 F 
ATOM     76  C   UNL A   1      50.715  27.013  22.777  1.00  0.00     0.022 A 
BRANCH  73  77
ATOM     77  S   UNL A   1      48.445  28.053  21.538  1.00  0.00     0.124 S 
ATOM     78  O   UNL A   1      49.279  29.179  21.135  1.00  0.00    -0.237 OA
ATOM     79  O   UNL A   1      48.418  26.915  20.625  1.00  0.00    -0.237 OA
ATOM     80  O   UNL A   1      47.154  28.410  22.123  1.00  0.00    -0.744 OA
ENDBRANCH  73  77
ENDBRANCH  46  70
BRANCH  58  81
ATOM     81  C   UNL A   1      50.104  28.760  31.813  1.00  0.00     0.023 A 
ATOM     82  C   UNL A   1      49.913  30.149  31.920  1.00  0.00     0.031 A 
ATOM     83  C   UNL A   1      51.279  28.213  32.364  1.00  0.00     0.131 A 
ATOM     84  C   UNL A   1      50.903  30.947  32.516  1.00  0.00     0.055 A 
ATOM     85  C   UNL A   1      52.225  29.003  33.018  1.00  0.00     0.041 A 
ATOM     86  F   UNL A   1      51.519  26.894  32.288  1.00  0.00    -0.206 F 
ATOM     87  C   UNL A   1      52.046  30.380  33.086  1.00  0.00     0.022 A 
BRANCH  84  88
ATOM     88  S   UNL A   1      50.724  32.751  32.455  1.00  0.00     0.124 S 
ATOM     89  O   UNL A   1      49.722  32.921  31.409  1.00  0.00    -0.237 OA
ATOM     90  O   UNL A   1      50.292  33.070  33.812  1.00  0.00    -0.237 OA
ATOM     91  O   UNL A   1      52.067  33.217  32.108  1.00  0.00    -0.744 OA
ENDBRANCH  84  88
ENDBRANCH  58  81
ENDBRANCH  32  33
ENDBRANCH  25  27
ENDBRANCH  24  25
ENDBRANCH  23  24
ENDBRANCH  22  23
ENDBRANCH  21  22
ENDBRANCH   1  21
TORSDOF 22
ENDMDL
