MODEL 1
REMARK VINA RESULT:     -10.2      0.000      0.000
REMARK SMILES NC(=O)c1c(-c2ccc(Cl)cc2)csc1NC(=O)[C@H]1[C@@H](C(=O)OCCOCCOCCOC(=O)c2ccc(-c3c4nc(c(-c5cc(S(=O)(=O)[O-])ccc5F)c5ccc([nH]5)c(-c5cc(S(=O)(=O)[O-])ccc5F)c5nc(c(-c6cc(S(=O)(=O)[O-])ccc6F)c6ccc3[nH]6)C=C5)C=C4)cc2)[C@@H]2CC[C@H]1O2
REMARK SMILES IDX 27 1 26 2 25 3 24 4 23 5 21 6 22 7 20 8 19 9 101 10 98 11
REMARK SMILES IDX 100 12 102 13 99 14 17 15 16 16 18 18 15 19 4 20 5 21 13 22
REMARK SMILES IDX 14 23 2 24 1 25 3 28 6 29 7 30 12 31 8 32 11 33 9 34 10 35
REMARK SMILES IDX 28 36 29 37 30 38 31 39 32 40 33 41 34 42 35 43 36 44 97 45
REMARK SMILES IDX 37 46 96 47 38 48 39 49 40 50 90 51 41 52 95 53 89 54 91 55
REMARK SMILES IDX 42 56 94 57 88 58 87 59 43 61 75 62 55 63 74 64 56 65 59 66
REMARK SMILES IDX 73 67 92 68 57 69 58 70 72 72 93 73 60 74 44 75 45 76 53 77
REMARK SMILES IDX 46 78 52 79 54 80 51 81 47 82 48 83 49 84 50 85 76 86 77 87
REMARK SMILES IDX 85 88 78 89 84 90 86 91 83 92 79 93 80 94 81 95 82 96 61 97
REMARK SMILES IDX 62 98 70 99 63 100 69 101 71 102 68 103 64 104 65 105 66 106
REMARK SMILES IDX 67 107
REMARK H PARENT 16 17 1 26 1 27 91 60 59 71
REMARK Flexibility Score: inf
ROOT
ATOM      1  C   UNL A   1      38.336  24.017  26.298  1.00  0.00     0.188 C 
ENDROOT
BRANCH   1   2
ATOM      2  O   UNL A   1      37.365  22.993  26.122  1.00  0.00    -0.376 OA
BRANCH   2   3
ATOM      3  C   UNL A   1      36.489  23.196  25.018  1.00  0.00     0.202 C 
BRANCH   3   4
ATOM      4  C   UNL A   1      35.128  23.746  25.441  1.00  0.00     0.261 C 
BRANCH   4   5
ATOM      5  O   UNL A   1      35.031  25.180  25.374  1.00  0.00    -0.463 OA
BRANCH   5   6
ATOM      6  C   UNL A   1      34.011  25.717  24.638  1.00  0.00     0.312 C 
ATOM      7  O   UNL A   1      34.028  25.807  23.421  1.00  0.00    -0.252 OA
BRANCH   6   8
ATOM      8  C   UNL A   1      33.004  26.323  25.606  1.00  0.00     0.143 C 
ATOM      9  C   UNL A   1      31.549  26.698  25.216  1.00  0.00     0.124 C 
ATOM     10  C   UNL A   1      31.652  28.239  25.175  1.00  0.00     0.132 C 
ATOM     11  C   UNL A   1      33.591  27.680  25.987  1.00  0.00     0.133 C 
ATOM     12  C   UNL A   1      31.593  28.814  26.593  1.00  0.00     0.035 C 
ATOM     13  O   UNL A   1      33.057  28.491  24.920  1.00  0.00    -0.373 OA
ATOM     14  C   UNL A   1      32.881  28.264  27.209  1.00  0.00     0.036 C 
BRANCH   9  15
ATOM     15  C   UNL A   1      30.898  26.096  23.974  1.00  0.00     0.231 C 
ATOM     16  N   UNL A   1      30.844  24.747  23.701  1.00  0.00    -0.317 N 
ATOM     17  H   UNL A   1      30.416  24.562  22.833  1.00  0.00     0.170 HD
ATOM     18  O   UNL A   1      30.474  26.832  23.077  1.00  0.00    -0.274 OA
BRANCH  16  19
ATOM     19  C   UNL A   1      31.243  23.579  24.348  1.00  0.00     0.108 A 
ATOM     20  C   UNL A   1      31.945  22.500  23.814  1.00  0.00     0.082 A 
ATOM     21  C   UNL A   1      32.187  21.459  24.780  1.00  0.00     0.007 A 
ATOM     22  C   UNL A   1      31.617  21.745  25.994  1.00  0.00     0.076 A 
ATOM     23  S   UNL A   1      30.847  23.265  25.968  1.00  0.00    -0.125 S 
BRANCH  20  24
ATOM     24  C   UNL A   1      32.516  22.381  22.489  1.00  0.00     0.252 C 
ATOM     25  N   UNL A   1      31.879  21.512  21.668  1.00  0.00    -0.365 N 
ATOM     26  H   UNL A   1      32.205  21.373  20.749  1.00  0.00     0.159 HD
ATOM     27  H   UNL A   1      31.090  21.020  21.990  1.00  0.00     0.159 HD
ATOM     28  O   UNL A   1      33.567  22.931  22.192  1.00  0.00    -0.269 OA
ENDBRANCH  20  24
BRANCH  21  29
ATOM     29  C   UNL A   1      32.934  20.238  24.499  1.00  0.00    -0.017 A 
ATOM     30  C   UNL A   1      34.281  20.150  24.861  1.00  0.00     0.010 A 
ATOM     31  C   UNL A   1      32.248  19.084  24.085  1.00  0.00     0.010 A 
ATOM     32  C   UNL A   1      34.932  18.913  24.825  1.00  0.00     0.021 A 
ATOM     33  C   UNL A   1      32.901  17.848  24.052  1.00  0.00     0.021 A 
ATOM     34  C   UNL A   1      34.238  17.769  24.429  1.00  0.00     0.041 A 
ATOM     35  Cl  UNL A   1      35.041  16.247  24.431  1.00  0.00    -0.084 Cl
ENDBRANCH  21  29
ENDBRANCH  16  19
ENDBRANCH   9  15
ENDBRANCH   6   8
ENDBRANCH   5   6
ENDBRANCH   4   5
ENDBRANCH   3   4
ENDBRANCH   2   3
ENDBRANCH   1   2
BRANCH   1  36
ATOM     36  C   UNL A   1      39.725  23.513  26.751  1.00  0.00     0.188 C 
BRANCH  36  37
ATOM     37  O   UNL A   1      39.886  22.156  27.150  1.00  0.00    -0.376 OA
BRANCH  37  38
ATOM     38  C   UNL A   1      40.029  21.178  26.126  1.00  0.00     0.202 C 
BRANCH  38  39
ATOM     39  C   UNL A   1      40.777  19.878  26.461  1.00  0.00     0.261 C 
BRANCH  39  40
ATOM     40  O   UNL A   1      42.161  20.076  26.807  1.00  0.00    -0.460 OA
BRANCH  40  41
ATOM     41  C   UNL A   1      43.007  20.304  25.769  1.00  0.00     0.338 C 
ATOM     42  O   UNL A   1      43.210  19.576  24.814  1.00  0.00    -0.246 OA
BRANCH  41  43
ATOM     43  C   UNL A   1      43.577  21.662  25.888  1.00  0.00     0.060 A 
ATOM     44  C   UNL A   1      44.312  21.974  27.027  1.00  0.00     0.016 A 
ATOM     45  C   UNL A   1      43.330  22.652  24.933  1.00  0.00     0.016 A 
ATOM     46  C   UNL A   1      44.825  23.256  27.194  1.00  0.00     0.010 A 
ATOM     47  C   UNL A   1      43.790  23.966  25.150  1.00  0.00     0.010 A 
ATOM     48  C   UNL A   1      44.520  24.292  26.304  1.00  0.00    -0.014 A 
BRANCH  48  49
ATOM     49  C   UNL A   1      44.807  25.707  26.705  1.00  0.00     0.031 A 
ATOM     50  C   UNL A   1      43.755  26.490  27.463  1.00  0.00     0.074 A 
ATOM     51  C   UNL A   1      46.038  26.248  26.596  1.00  0.00     0.049 A 
ATOM     52  N   UNL A   1      43.794  27.721  27.916  1.00  0.00    -0.248 NA
ATOM     53  C   UNL A   1      42.509  25.776  27.776  1.00  0.00     0.031 C 
ATOM     54  C   UNL A   1      47.227  25.550  26.111  1.00  0.00     0.029 A 
ATOM     55  N   UNL A   1      46.507  27.494  26.960  1.00  0.00    -0.354 N 
ATOM     56  C   UNL A   1      42.567  27.937  28.542  1.00  0.00     0.074 A 
ATOM     57  C   UNL A   1      41.813  26.707  28.412  1.00  0.00     0.031 C 
ATOM     58  C   UNL A   1      48.292  26.359  26.244  1.00  0.00     0.029 A 
ATOM     59  C   UNL A   1      47.858  27.664  26.748  1.00  0.00     0.049 A 
ATOM     60  H   UNL A   1      45.930  28.197  27.336  1.00  0.00     0.167 HD
ATOM     61  C   UNL A   1      42.098  29.052  29.158  1.00  0.00     0.034 A 
ATOM     62  C   UNL A   1      48.653  28.745  26.913  1.00  0.00     0.034 A 
ATOM     63  C   UNL A   1      42.838  30.282  29.302  1.00  0.00     0.049 A 
ATOM     64  C   UNL A   1      48.060  30.036  27.435  1.00  0.00     0.074 A 
ATOM     65  C   UNL A   1      42.422  31.476  29.871  1.00  0.00     0.029 A 
ATOM     66  N   UNL A   1      44.140  30.485  28.874  1.00  0.00    -0.354 N 
ATOM     67  N   UNL A   1      46.864  30.255  27.932  1.00  0.00    -0.248 NA
ATOM     68  C   UNL A   1      48.924  31.226  27.409  1.00  0.00     0.031 C 
ATOM     69  C   UNL A   1      43.444  32.420  29.715  1.00  0.00     0.029 A 
ATOM     70  C   UNL A   1      44.529  31.794  29.125  1.00  0.00     0.049 A 
ATOM     71  H   UNL A   1      44.707  29.800  28.452  1.00  0.00     0.167 HD
ATOM     72  C   UNL A   1      46.843  31.606  28.282  1.00  0.00     0.074 A 
ATOM     73  C   UNL A   1      48.152  32.139  27.978  1.00  0.00     0.031 C 
ATOM     74  C   UNL A   1      45.827  32.339  28.806  1.00  0.00     0.034 A 
BRANCH  61  75
ATOM     75  C   UNL A   1      40.666  29.030  29.635  1.00  0.00     0.023 A 
ATOM     76  C   UNL A   1      39.611  29.580  28.886  1.00  0.00     0.031 A 
ATOM     77  C   UNL A   1      40.360  28.452  30.882  1.00  0.00     0.131 A 
ATOM     78  C   UNL A   1      38.310  29.585  29.416  1.00  0.00     0.055 A 
ATOM     79  C   UNL A   1      39.056  28.398  31.372  1.00  0.00     0.041 A 
ATOM     80  F   UNL A   1      41.333  27.930  31.647  1.00  0.00    -0.206 F 
ATOM     81  C   UNL A   1      38.023  28.979  30.643  1.00  0.00     0.022 A 
BRANCH  78  82
ATOM     82  S   UNL A   1      37.016  30.510  28.544  1.00  0.00     0.124 S 
ATOM     83  O   UNL A   1      37.455  31.891  28.732  1.00  0.00    -0.237 OA
ATOM     84  O   UNL A   1      37.114  29.989  27.186  1.00  0.00    -0.237 OA
ATOM     85  O   UNL A   1      35.795  30.151  29.265  1.00  0.00    -0.744 OA
ENDBRANCH  78  82
ENDBRANCH  61  75
BRANCH  62  86
ATOM     86  C   UNL A   1      50.091  28.707  26.506  1.00  0.00     0.023 A 
ATOM     87  C   UNL A   1      50.508  29.156  25.240  1.00  0.00     0.031 A 
ATOM     88  C   UNL A   1      51.057  28.118  27.343  1.00  0.00     0.131 A 
ATOM     89  C   UNL A   1      51.840  28.968  24.835  1.00  0.00     0.055 A 
ATOM     90  C   UNL A   1      52.394  27.996  26.961  1.00  0.00     0.041 A 
ATOM     91  F   UNL A   1      50.711  27.644  28.550  1.00  0.00    -0.206 F 
ATOM     92  C   UNL A   1      52.789  28.408  25.694  1.00  0.00     0.022 A 
BRANCH  89  93
ATOM     93  S   UNL A   1      52.292  29.368  23.124  1.00  0.00     0.124 S 
ATOM     94  O   UNL A   1      53.746  29.435  23.212  1.00  0.00    -0.237 OA
ATOM     95  O   UNL A   1      51.747  28.228  22.394  1.00  0.00    -0.237 OA
ATOM     96  O   UNL A   1      51.620  30.643  22.882  1.00  0.00    -0.744 OA
ENDBRANCH  89  93
ENDBRANCH  62  86
BRANCH  74  97
ATOM     97  C   UNL A   1      46.094  33.798  29.106  1.00  0.00     0.023 A 
ATOM     98  C   UNL A   1      45.816  34.809  28.169  1.00  0.00     0.031 A 
ATOM     99  C   UNL A   1      46.634  34.184  30.347  1.00  0.00     0.131 A 
ATOM    100  C   UNL A   1      46.123  36.147  28.465  1.00  0.00     0.055 A 
ATOM    101  C   UNL A   1      46.881  35.524  30.659  1.00  0.00     0.041 A 
ATOM    102  F   UNL A   1      46.925  33.266  31.281  1.00  0.00    -0.206 F 
ATOM    103  C   UNL A   1      46.638  36.512  29.711  1.00  0.00     0.022 A 
BRANCH 100 104
ATOM    104  S   UNL A   1      45.918  37.400  27.168  1.00  0.00     0.124 S 
ATOM    105  O   UNL A   1      46.543  36.751  26.019  1.00  0.00    -0.237 OA
ATOM    106  O   UNL A   1      44.469  37.551  27.105  1.00  0.00    -0.237 OA
ATOM    107  O   UNL A   1      46.638  38.559  27.692  1.00  0.00    -0.744 OA
ENDBRANCH 100 104
ENDBRANCH  74  97
ENDBRANCH  48  49
ENDBRANCH  41  43
ENDBRANCH  40  41
ENDBRANCH  39  40
ENDBRANCH  38  39
ENDBRANCH  37  38
ENDBRANCH  36  37
ENDBRANCH   1  36
TORSDOF 24
ENDMDL
MODEL 2
REMARK VINA RESULT:     -10.1      1.977      2.732
REMARK SMILES NC(=O)c1c(-c2ccc(Cl)cc2)csc1NC(=O)[C@H]1[C@@H](C(=O)OCCOCCOCCOC(=O)c2ccc(-c3c4nc(c(-c5cc(S(=O)(=O)[O-])ccc5F)c5ccc([nH]5)c(-c5cc(S(=O)(=O)[O-])ccc5F)c5nc(c(-c6cc(S(=O)(=O)[O-])ccc6F)c6ccc3[nH]6)C=C5)C=C4)cc2)[C@@H]2CC[C@H]1O2
REMARK SMILES IDX 27 1 26 2 25 3 24 4 23 5 21 6 22 7 20 8 19 9 101 10 98 11
REMARK SMILES IDX 100 12 102 13 99 14 17 15 16 16 18 18 15 19 4 20 5 21 13 22
REMARK SMILES IDX 14 23 2 24 1 25 3 28 6 29 7 30 12 31 8 32 11 33 9 34 10 35
REMARK SMILES IDX 28 36 29 37 30 38 31 39 32 40 33 41 34 42 35 43 36 44 97 45
REMARK SMILES IDX 37 46 96 47 38 48 39 49 40 50 90 51 41 52 95 53 89 54 91 55
REMARK SMILES IDX 42 56 94 57 88 58 87 59 43 61 75 62 55 63 74 64 56 65 59 66
REMARK SMILES IDX 73 67 92 68 57 69 58 70 72 72 93 73 60 74 44 75 45 76 53 77
REMARK SMILES IDX 46 78 52 79 54 80 51 81 47 82 48 83 49 84 50 85 76 86 77 87
REMARK SMILES IDX 85 88 78 89 84 90 86 91 83 92 79 93 80 94 81 95 82 96 61 97
REMARK SMILES IDX 62 98 70 99 63 100 69 101 71 102 68 103 64 104 65 105 66 106
REMARK SMILES IDX 67 107
REMARK H PARENT 16 17 1 26 1 27 91 60 59 71
REMARK Flexibility Score: inf
ROOT
ATOM      1  C   UNL A   1      38.580  23.767  26.397  1.00  0.00     0.188 C 
ENDROOT
BRANCH   1   2
ATOM      2  O   UNL A   1      37.435  22.952  26.184  1.00  0.00    -0.376 OA
BRANCH   2   3
ATOM      3  C   UNL A   1      36.692  23.272  25.013  1.00  0.00     0.202 C 
BRANCH   3   4
ATOM      4  C   UNL A   1      35.276  23.750  25.326  1.00  0.00     0.261 C 
BRANCH   4   5
ATOM      5  O   UNL A   1      35.136  25.182  25.361  1.00  0.00    -0.463 OA
BRANCH   5   6
ATOM      6  C   UNL A   1      34.102  25.740  24.661  1.00  0.00     0.312 C 
ATOM      7  O   UNL A   1      34.097  25.868  23.447  1.00  0.00    -0.252 OA
BRANCH   6   8
ATOM      8  C   UNL A   1      33.111  26.311  25.666  1.00  0.00     0.143 C 
ATOM      9  C   UNL A   1      31.647  26.689  25.315  1.00  0.00     0.124 C 
ATOM     10  C   UNL A   1      31.741  28.231  25.316  1.00  0.00     0.132 C 
ATOM     11  C   UNL A   1      33.698  27.660  26.074  1.00  0.00     0.133 C 
ATOM     12  C   UNL A   1      31.707  28.764  26.752  1.00  0.00     0.035 C 
ATOM     13  O   UNL A   1      33.139  28.499  25.043  1.00  0.00    -0.373 OA
ATOM     14  C   UNL A   1      33.009  28.204  27.326  1.00  0.00     0.036 C 
BRANCH   9  15
ATOM     15  C   UNL A   1      30.975  26.120  24.068  1.00  0.00     0.231 C 
ATOM     16  N   UNL A   1      30.886  24.777  23.777  1.00  0.00    -0.317 N 
ATOM     17  H   UNL A   1      30.450  24.614  22.909  1.00  0.00     0.170 HD
ATOM     18  O   UNL A   1      30.565  26.878  23.184  1.00  0.00    -0.274 OA
BRANCH  16  19
ATOM     19  C   UNL A   1      31.261  23.591  24.406  1.00  0.00     0.108 A 
ATOM     20  C   UNL A   1      31.979  22.524  23.869  1.00  0.00     0.082 A 
ATOM     21  C   UNL A   1      32.185  21.457  24.814  1.00  0.00     0.007 A 
ATOM     22  C   UNL A   1      31.573  21.712  26.014  1.00  0.00     0.076 A 
ATOM     23  S   UNL A   1      30.807  23.235  26.002  1.00  0.00    -0.125 S 
BRANCH  20  24
ATOM     24  C   UNL A   1      32.597  22.440  22.562  1.00  0.00     0.252 C 
ATOM     25  N   UNL A   1      31.960  21.631  21.680  1.00  0.00    -0.365 N 
ATOM     26  H   UNL A   1      32.316  21.518  20.769  1.00  0.00     0.159 HD
ATOM     27  H   UNL A   1      31.141  21.157  21.951  1.00  0.00     0.159 HD
ATOM     28  O   UNL A   1      33.678  22.961  22.329  1.00  0.00    -0.269 OA
ENDBRANCH  20  24
BRANCH  21  29
ATOM     29  C   UNL A   1      32.939  20.242  24.527  1.00  0.00    -0.017 A 
ATOM     30  C   UNL A   1      34.292  20.167  24.871  1.00  0.00     0.010 A 
ATOM     31  C   UNL A   1      32.259  19.081  24.125  1.00  0.00     0.010 A 
ATOM     32  C   UNL A   1      34.953  18.937  24.831  1.00  0.00     0.021 A 
ATOM     33  C   UNL A   1      32.922  17.851  24.088  1.00  0.00     0.021 A 
ATOM     34  C   UNL A   1      34.265  17.785  24.447  1.00  0.00     0.041 A 
ATOM     35  Cl  UNL A   1      35.081  16.270  24.443  1.00  0.00    -0.084 Cl
ENDBRANCH  21  29
ENDBRANCH  16  19
ENDBRANCH   9  15
ENDBRANCH   6   8
ENDBRANCH   5   6
ENDBRANCH   4   5
ENDBRANCH   3   4
ENDBRANCH   2   3
ENDBRANCH   1   2
BRANCH   1  36
ATOM     36  C   UNL A   1      39.740  23.063  27.137  1.00  0.00     0.188 C 
BRANCH  36  37
ATOM     37  O   UNL A   1      39.853  21.646  27.082  1.00  0.00    -0.376 OA
BRANCH  37  38
ATOM     38  C   UNL A   1      40.685  21.087  26.070  1.00  0.00     0.202 C 
BRANCH  38  39
ATOM     39  C   UNL A   1      42.186  20.940  26.361  1.00  0.00     0.261 C 
BRANCH  39  40
ATOM     40  O   UNL A   1      42.854  22.189  26.622  1.00  0.00    -0.460 OA
BRANCH  40  41
ATOM     41  C   UNL A   1      43.229  22.902  25.529  1.00  0.00     0.338 C 
ATOM     42  O   UNL A   1      43.188  22.541  24.367  1.00  0.00    -0.246 OA
BRANCH  41  43
ATOM     43  C   UNL A   1      43.589  24.276  25.938  1.00  0.00     0.060 A 
ATOM     44  C   UNL A   1      44.063  24.479  27.230  1.00  0.00     0.016 A 
ATOM     45  C   UNL A   1      43.389  25.372  25.095  1.00  0.00     0.016 A 
ATOM     46  C   UNL A   1      44.368  25.765  27.664  1.00  0.00     0.010 A 
ATOM     47  C   UNL A   1      43.629  26.677  25.572  1.00  0.00     0.010 A 
ATOM     48  C   UNL A   1      44.094  26.891  26.879  1.00  0.00    -0.014 A 
BRANCH  48  49
ATOM     49  C   UNL A   1      44.120  28.248  27.515  1.00  0.00     0.031 A 
ATOM     50  C   UNL A   1      42.859  28.789  28.158  1.00  0.00     0.074 A 
ATOM     51  C   UNL A   1      45.269  28.924  27.716  1.00  0.00     0.049 A 
ATOM     52  N   UNL A   1      42.658  29.931  28.772  1.00  0.00    -0.248 NA
ATOM     53  C   UNL A   1      41.682  27.908  28.128  1.00  0.00     0.031 C 
ATOM     54  C   UNL A   1      46.605  28.438  27.376  1.00  0.00     0.029 A 
ATOM     55  N   UNL A   1      45.501  30.140  28.327  1.00  0.00    -0.354 N 
ATOM     56  C   UNL A   1      41.324  29.917  29.176  1.00  0.00     0.074 A 
ATOM     57  C   UNL A   1      40.771  28.650  28.741  1.00  0.00     0.031 C 
ATOM     58  C   UNL A   1      47.516  29.323  27.818  1.00  0.00     0.029 A 
ATOM     59  C   UNL A   1      46.835  30.480  28.401  1.00  0.00     0.049 A 
ATOM     60  H   UNL A   1      44.781  30.711  28.678  1.00  0.00     0.167 HD
ATOM     61  C   UNL A   1      40.613  30.867  29.837  1.00  0.00     0.034 A 
ATOM     62  C   UNL A   1      47.440  31.599  28.858  1.00  0.00     0.034 A 
ATOM     63  C   UNL A   1      41.150  32.129  30.284  1.00  0.00     0.049 A 
ATOM     64  C   UNL A   1      46.603  32.723  29.428  1.00  0.00     0.074 A 
ATOM     65  C   UNL A   1      40.489  33.170  30.919  1.00  0.00     0.029 A 
ATOM     66  N   UNL A   1      42.468  32.531  30.142  1.00  0.00    -0.354 N 
ATOM     67  N   UNL A   1      45.321  32.736  29.713  1.00  0.00    -0.248 NA
ATOM     68  C   UNL A   1      47.295  33.986  29.727  1.00  0.00     0.031 C 
ATOM     69  C   UNL A   1      41.390  34.227  31.089  1.00  0.00     0.029 A 
ATOM     70  C   UNL A   1      42.633  33.818  30.637  1.00  0.00     0.049 A 
ATOM     71  H   UNL A   1      43.185  31.983  29.748  1.00  0.00     0.167 HD
ATOM     72  C   UNL A   1      45.062  34.006  30.233  1.00  0.00     0.074 A 
ATOM     73  C   UNL A   1      46.323  34.713  30.258  1.00  0.00     0.031 C 
ATOM     74  C   UNL A   1      43.884  34.539  30.648  1.00  0.00     0.034 A 
BRANCH  61  75
ATOM     75  C   UNL A   1      39.136  30.622  30.026  1.00  0.00     0.023 A 
ATOM     76  C   UNL A   1      38.163  31.181  29.180  1.00  0.00     0.031 A 
ATOM     77  C   UNL A   1      38.699  29.814  31.093  1.00  0.00     0.131 A 
ATOM     78  C   UNL A   1      36.801  30.966  29.448  1.00  0.00     0.055 A 
ATOM     79  C   UNL A   1      37.348  29.549  31.314  1.00  0.00     0.041 A 
ATOM     80  F   UNL A   1      39.585  29.272  31.944  1.00  0.00    -0.206 F 
ATOM     81  C   UNL A   1      36.389  30.137  30.496  1.00  0.00     0.022 A 
BRANCH  78  82
ATOM     82  S   UNL A   1      35.566  31.889  28.492  1.00  0.00     0.124 S 
ATOM     83  O   UNL A   1      36.339  33.043  28.039  1.00  0.00    -0.237 OA
ATOM     84  O   UNL A   1      35.184  30.933  27.460  1.00  0.00    -0.237 OA
ATOM     85  O   UNL A   1      34.528  32.194  29.477  1.00  0.00    -0.744 OA
ENDBRANCH  78  82
ENDBRANCH  61  75
BRANCH  62  86
ATOM     86  C   UNL A   1      48.920  31.775  28.731  1.00  0.00     0.023 A 
ATOM     87  C   UNL A   1      49.497  32.316  27.569  1.00  0.00     0.031 A 
ATOM     88  C   UNL A   1      49.787  31.302  29.734  1.00  0.00     0.131 A 
ATOM     89  C   UNL A   1      50.894  32.329  27.423  1.00  0.00     0.055 A 
ATOM     90  C   UNL A   1      51.174  31.379  29.611  1.00  0.00     0.041 A 
ATOM     91  F   UNL A   1      49.292  30.747  30.852  1.00  0.00    -0.206 F 
ATOM     92  C   UNL A   1      51.737  31.882  28.444  1.00  0.00     0.022 A 
BRANCH  89  93
ATOM     93  S   UNL A   1      51.596  32.840  25.829  1.00  0.00     0.124 S 
ATOM     94  O   UNL A   1      52.202  31.598  25.363  1.00  0.00    -0.237 OA
ATOM     95  O   UNL A   1      50.411  33.284  25.106  1.00  0.00    -0.237 OA
ATOM     96  O   UNL A   1      52.538  33.897  26.195  1.00  0.00    -0.744 OA
ENDBRANCH  89  93
ENDBRANCH  62  86
BRANCH  74  97
ATOM     97  C   UNL A   1      43.902  35.952  31.187  1.00  0.00     0.023 A 
ATOM     98  C   UNL A   1      43.812  37.069  30.338  1.00  0.00     0.031 A 
ATOM     99  C   UNL A   1      44.010  36.186  32.570  1.00  0.00     0.131 A 
ATOM    100  C   UNL A   1      43.881  38.366  30.872  1.00  0.00     0.055 A 
ATOM    101  C   UNL A   1      44.018  37.479  33.101  1.00  0.00     0.041 A 
ATOM    102  F   UNL A   1      44.104  35.162  33.432  1.00  0.00    -0.206 F 
ATOM    103  C   UNL A   1      43.966  38.578  32.250  1.00  0.00     0.022 A 
BRANCH 100 104
ATOM    104  S   UNL A   1      43.943  39.779  29.733  1.00  0.00     0.124 S 
ATOM    105  O   UNL A   1      42.587  40.309  29.834  1.00  0.00    -0.237 OA
ATOM    106  O   UNL A   1      44.996  40.604  30.316  1.00  0.00    -0.237 OA
ATOM    107  O   UNL A   1      44.276  39.170  28.447  1.00  0.00    -0.744 OA
ENDBRANCH 100 104
ENDBRANCH  74  97
ENDBRANCH  48  49
ENDBRANCH  41  43
ENDBRANCH  40  41
ENDBRANCH  39  40
ENDBRANCH  38  39
ENDBRANCH  37  38
ENDBRANCH  36  37
ENDBRANCH   1  36
TORSDOF 24
ENDMDL
MODEL 3
REMARK VINA RESULT:      -9.9      2.325      8.109
REMARK SMILES NC(=O)c1c(-c2ccc(Cl)cc2)csc1NC(=O)[C@H]1[C@@H](C(=O)OCCOCCOCCOC(=O)c2ccc(-c3c4nc(c(-c5cc(S(=O)(=O)[O-])ccc5F)c5ccc([nH]5)c(-c5cc(S(=O)(=O)[O-])ccc5F)c5nc(c(-c6cc(S(=O)(=O)[O-])ccc6F)c6ccc3[nH]6)C=C5)C=C4)cc2)[C@@H]2CC[C@H]1O2
REMARK SMILES IDX 27 1 26 2 25 3 24 4 23 5 21 6 22 7 20 8 19 9 101 10 98 11
REMARK SMILES IDX 100 12 102 13 99 14 17 15 16 16 18 18 15 19 4 20 5 21 13 22
REMARK SMILES IDX 14 23 2 24 1 25 3 28 6 29 7 30 12 31 8 32 11 33 9 34 10 35
REMARK SMILES IDX 28 36 29 37 30 38 31 39 32 40 33 41 34 42 35 43 36 44 97 45
REMARK SMILES IDX 37 46 96 47 38 48 39 49 40 50 90 51 41 52 95 53 89 54 91 55
REMARK SMILES IDX 42 56 94 57 88 58 87 59 43 61 75 62 55 63 74 64 56 65 59 66
REMARK SMILES IDX 73 67 92 68 57 69 58 70 72 72 93 73 60 74 44 75 45 76 53 77
REMARK SMILES IDX 46 78 52 79 54 80 51 81 47 82 48 83 49 84 50 85 76 86 77 87
REMARK SMILES IDX 85 88 78 89 84 90 86 91 83 92 79 93 80 94 81 95 82 96 61 97
REMARK SMILES IDX 62 98 70 99 63 100 69 101 71 102 68 103 64 104 65 105 66 106
REMARK SMILES IDX 67 107
REMARK H PARENT 16 17 1 26 1 27 91 60 59 71
REMARK Flexibility Score: inf
ROOT
ATOM      1  C   UNL A   1      40.406  21.883  27.090  1.00  0.00     0.188 C 
ENDROOT
BRANCH   1   2
ATOM      2  O   UNL A   1      39.532  21.685  25.986  1.00  0.00    -0.376 OA
BRANCH   2   3
ATOM      3  C   UNL A   1      38.425  22.579  25.943  1.00  0.00     0.202 C 
BRANCH   3   4
ATOM      4  C   UNL A   1      37.410  22.208  24.864  1.00  0.00     0.261 C 
BRANCH   4   5
ATOM      5  O   UNL A   1      36.295  23.115  24.774  1.00  0.00    -0.463 OA
BRANCH   5   6
ATOM      6  C   UNL A   1      35.189  22.699  24.085  1.00  0.00     0.312 C 
ATOM      7  O   UNL A   1      34.965  22.992  22.921  1.00  0.00    -0.252 OA
BRANCH   6   8
ATOM      8  C   UNL A   1      34.257  22.006  25.070  1.00  0.00     0.143 C 
ATOM      9  C   UNL A   1      32.718  22.206  25.089  1.00  0.00     0.124 C 
ATOM     10  C   UNL A   1      32.558  23.078  26.354  1.00  0.00     0.132 C 
ATOM     11  C   UNL A   1      34.665  22.542  26.440  1.00  0.00     0.133 C 
ATOM     12  C   UNL A   1      32.625  22.208  27.612  1.00  0.00     0.035 C 
ATOM     13  O   UNL A   1      33.847  23.728  26.498  1.00  0.00    -0.373 OA
ATOM     14  C   UNL A   1      34.065  21.694  27.563  1.00  0.00     0.036 C 
BRANCH   9  15
ATOM     15  C   UNL A   1      31.992  22.763  23.868  1.00  0.00     0.231 C 
ATOM     16  N   UNL A   1      31.410  24.010  23.811  1.00  0.00    -0.317 N 
ATOM     17  H   UNL A   1      30.957  24.168  22.951  1.00  0.00     0.170 HD
ATOM     18  O   UNL A   1      31.796  22.046  22.882  1.00  0.00    -0.274 OA
BRANCH  16  19
ATOM     19  C   UNL A   1      31.302  25.103  24.669  1.00  0.00     0.108 A 
ATOM     20  C   UNL A   1      32.197  26.158  24.831  1.00  0.00     0.082 A 
ATOM     21  C   UNL A   1      31.759  27.117  25.812  1.00  0.00     0.007 A 
ATOM     22  C   UNL A   1      30.584  26.739  26.408  1.00  0.00     0.076 A 
ATOM     23  S   UNL A   1      30.007  25.275  25.752  1.00  0.00    -0.125 S 
BRANCH  20  24
ATOM     24  C   UNL A   1      33.402  26.424  24.071  1.00  0.00     0.252 C 
ATOM     25  N   UNL A   1      34.485  25.701  24.446  1.00  0.00    -0.365 N 
ATOM     26  H   UNL A   1      35.343  25.822  23.980  1.00  0.00     0.159 HD
ATOM     27  H   UNL A   1      34.413  25.054  25.184  1.00  0.00     0.159 HD
ATOM     28  O   UNL A   1      33.454  27.325  23.247  1.00  0.00    -0.269 OA
ENDBRANCH  20  24
BRANCH  21  29
ATOM     29  C   UNL A   1      32.486  28.337  26.148  1.00  0.00    -0.017 A 
ATOM     30  C   UNL A   1      31.880  29.581  25.952  1.00  0.00     0.010 A 
ATOM     31  C   UNL A   1      33.684  28.254  26.875  1.00  0.00     0.010 A 
ATOM     32  C   UNL A   1      32.460  30.731  26.497  1.00  0.00     0.021 A 
ATOM     33  C   UNL A   1      34.261  29.405  27.420  1.00  0.00     0.021 A 
ATOM     34  C   UNL A   1      33.642  30.637  27.232  1.00  0.00     0.041 A 
ATOM     35  Cl  UNL A   1      34.321  32.055  27.932  1.00  0.00    -0.084 Cl
ENDBRANCH  21  29
ENDBRANCH  16  19
ENDBRANCH   9  15
ENDBRANCH   6   8
ENDBRANCH   5   6
ENDBRANCH   4   5
ENDBRANCH   3   4
ENDBRANCH   2   3
ENDBRANCH   1   2
BRANCH   1  36
ATOM     36  C   UNL A   1      41.441  20.755  27.297  1.00  0.00     0.188 C 
BRANCH  36  37
ATOM     37  O   UNL A   1      41.559  19.720  26.327  1.00  0.00    -0.376 OA
BRANCH  37  38
ATOM     38  C   UNL A   1      42.528  18.703  26.559  1.00  0.00     0.202 C 
BRANCH  38  39
ATOM     39  C   UNL A   1      43.450  18.298  25.399  1.00  0.00     0.261 C 
BRANCH  39  40
ATOM     40  O   UNL A   1      44.632  19.112  25.282  1.00  0.00    -0.460 OA
BRANCH  40  41
ATOM     41  C   UNL A   1      44.573  20.121  24.375  1.00  0.00     0.338 C 
ATOM     42  O   UNL A   1      44.528  20.015  23.163  1.00  0.00    -0.246 OA
BRANCH  41  43
ATOM     43  C   UNL A   1      44.436  21.411  25.082  1.00  0.00     0.060 A 
ATOM     44  C   UNL A   1      43.927  22.499  24.380  1.00  0.00     0.016 A 
ATOM     45  C   UNL A   1      44.875  21.582  26.397  1.00  0.00     0.016 A 
ATOM     46  C   UNL A   1      43.826  23.740  25.000  1.00  0.00     0.010 A 
ATOM     47  C   UNL A   1      44.839  22.861  26.988  1.00  0.00     0.010 A 
ATOM     48  C   UNL A   1      44.340  23.967  26.281  1.00  0.00    -0.014 A 
BRANCH  48  49
ATOM     49  C   UNL A   1      44.513  25.376  26.759  1.00  0.00     0.031 A 
ATOM     50  C   UNL A   1      45.830  26.084  26.517  1.00  0.00     0.074 A 
ATOM     51  C   UNL A   1      43.480  26.110  27.219  1.00  0.00     0.049 A 
ATOM     52  N   UNL A   1      46.195  27.303  26.836  1.00  0.00    -0.248 NA
ATOM     53  C   UNL A   1      46.857  25.322  25.791  1.00  0.00     0.031 C 
ATOM     54  C   UNL A   1      42.091  25.659  27.292  1.00  0.00     0.029 A 
ATOM     55  N   UNL A   1      43.428  27.422  27.644  1.00  0.00    -0.354 N 
ATOM     56  C   UNL A   1      47.504  27.444  26.374  1.00  0.00     0.074 A 
ATOM     57  C   UNL A   1      47.861  26.186  25.750  1.00  0.00     0.031 C 
ATOM     58  C   UNL A   1      41.321  26.686  27.693  1.00  0.00     0.029 A 
ATOM     59  C   UNL A   1      42.163  27.847  27.987  1.00  0.00     0.049 A 
ATOM     60  H   UNL A   1      44.222  28.002  27.697  1.00  0.00     0.167 HD
ATOM     61  C   UNL A   1      48.341  28.509  26.466  1.00  0.00     0.034 A 
ATOM     62  C   UNL A   1      41.730  29.021  28.500  1.00  0.00     0.034 A 
ATOM     63  C   UNL A   1      47.999  29.770  27.077  1.00  0.00     0.049 A 
ATOM     64  C   UNL A   1      42.721  30.134  28.761  1.00  0.00     0.074 A 
ATOM     65  C   UNL A   1      48.801  30.887  27.255  1.00  0.00     0.029 A 
ATOM     66  N   UNL A   1      46.761  30.087  27.615  1.00  0.00    -0.354 N 
ATOM     67  N   UNL A   1      43.984  30.215  28.410  1.00  0.00    -0.248 NA
ATOM     68  C   UNL A   1      42.229  31.308  29.497  1.00  0.00     0.031 C 
ATOM     69  C   UNL A   1      48.072  31.846  27.969  1.00  0.00     0.029 A 
ATOM     70  C   UNL A   1      46.789  31.362  28.163  1.00  0.00     0.049 A 
ATOM     71  H   UNL A   1      45.976  29.493  27.609  1.00  0.00     0.167 HD
ATOM     72  C   UNL A   1      44.427  31.454  28.877  1.00  0.00     0.074 A 
ATOM     73  C   UNL A   1      43.291  32.098  29.498  1.00  0.00     0.031 C 
ATOM     74  C   UNL A   1      45.666  32.005  28.802  1.00  0.00     0.034 A 
BRANCH  61  75
ATOM     75  C   UNL A   1      49.758  28.320  25.983  1.00  0.00     0.023 A 
ATOM     76  C   UNL A   1      50.145  28.580  24.657  1.00  0.00     0.031 A 
ATOM     77  C   UNL A   1      50.739  27.854  26.879  1.00  0.00     0.131 A 
ATOM     78  C   UNL A   1      51.466  28.323  24.254  1.00  0.00     0.055 A 
ATOM     79  C   UNL A   1      52.065  27.666  26.490  1.00  0.00     0.041 A 
ATOM     80  F   UNL A   1      50.418  27.571  28.152  1.00  0.00    -0.206 F 
ATOM     81  C   UNL A   1      52.432  27.888  25.167  1.00  0.00     0.022 A 
BRANCH  78  82
ATOM     82  S   UNL A   1      51.880  28.435  22.492  1.00  0.00     0.124 S 
ATOM     83  O   UNL A   1      51.696  27.054  22.052  1.00  0.00    -0.237 OA
ATOM     84  O   UNL A   1      50.903  29.398  21.997  1.00  0.00    -0.237 OA
ATOM     85  O   UNL A   1      53.267  28.898  22.495  1.00  0.00    -0.744 OA
ENDBRANCH  78  82
ENDBRANCH  61  75
BRANCH  62  86
ATOM     86  C   UNL A   1      40.298  29.203  28.892  1.00  0.00     0.023 A 
ATOM     87  C   UNL A   1      39.894  29.155  30.238  1.00  0.00     0.031 A 
ATOM     88  C   UNL A   1      39.296  29.322  27.911  1.00  0.00     0.131 A 
ATOM     89  C   UNL A   1      38.527  29.180  30.558  1.00  0.00     0.055 A 
ATOM     90  C   UNL A   1      37.943  29.415  28.240  1.00  0.00     0.041 A 
ATOM     91  F   UNL A   1      39.621  29.343  26.609  1.00  0.00    -0.206 F 
ATOM     92  C   UNL A   1      37.550  29.329  29.570  1.00  0.00     0.022 A 
BRANCH  89  93
ATOM     93  S   UNL A   1      38.034  28.905  32.284  1.00  0.00     0.124 S 
ATOM     94  O   UNL A   1      36.654  29.377  32.273  1.00  0.00    -0.237 OA
ATOM     95  O   UNL A   1      38.217  27.465  32.424  1.00  0.00    -0.237 OA
ATOM     96  O   UNL A   1      38.972  29.731  33.042  1.00  0.00    -0.744 OA
ENDBRANCH  89  93
ENDBRANCH  62  86
BRANCH  74  97
ATOM     97  C   UNL A   1      45.858  33.387  29.387  1.00  0.00     0.023 A 
ATOM     98  C   UNL A   1      45.587  34.550  28.644  1.00  0.00     0.031 A 
ATOM     99  C   UNL A   1      46.318  33.545  30.708  1.00  0.00     0.131 A 
ATOM    100  C   UNL A   1      45.823  35.815  29.206  1.00  0.00     0.055 A 
ATOM    101  C   UNL A   1      46.495  34.806  31.282  1.00  0.00     0.041 A 
ATOM    102  F   UNL A   1      46.599  32.473  31.467  1.00  0.00    -0.206 F 
ATOM    103  C   UNL A   1      46.259  35.950  30.527  1.00  0.00     0.022 A 
BRANCH 100 104
ATOM    104  S   UNL A   1      45.634  37.286  28.160  1.00  0.00     0.124 S 
ATOM    105  O   UNL A   1      44.432  36.963  27.398  1.00  0.00    -0.237 OA
ATOM    106  O   UNL A   1      45.497  38.354  29.145  1.00  0.00    -0.237 OA
ATOM    107  O   UNL A   1      46.872  37.317  27.383  1.00  0.00    -0.744 OA
ENDBRANCH 100 104
ENDBRANCH  74  97
ENDBRANCH  48  49
ENDBRANCH  41  43
ENDBRANCH  40  41
ENDBRANCH  39  40
ENDBRANCH  38  39
ENDBRANCH  37  38
ENDBRANCH  36  37
ENDBRANCH   1  36
TORSDOF 24
ENDMDL
