MODEL 1
REMARK VINA RESULT:      -8.9      0.000      0.000
REMARK SMILES C=CCc1cccc(-c2ccc([C@@H](C)C(=O)OCCOCCOCCOC(=O)c3ccc(-c4c5nc(c(-c6cc(S(=O)(=O)[O-])ccc6F)c6ccc([nH]6)c(-c6cc(S(=O)(=O)[O-])ccc6F)c6nc(c(-c7cc(S(=O)(=O)[O-])ccc7F)c7ccc4[nH]7)C=C6)C=C5)cc3)cc2)c1
REMARK SMILES IDX 21 1 20 2 19 3 18 4 17 5 15 6 16 7 13 8 14 9 12 10 9 11
REMARK SMILES IDX 10 12 93 13 11 14 92 15 8 16 4 17 5 18 94 19 6 20 7 21 3 22
REMARK SMILES IDX 2 23 1 24 22 25 23 26 24 27 25 28 26 29 27 30 28 31 29 32
REMARK SMILES IDX 30 33 91 34 31 35 90 36 32 37 33 38 34 39 84 40 35 41 89 42
REMARK SMILES IDX 83 43 85 44 36 45 88 46 82 47 81 48 37 50 69 51 49 52 68 53
REMARK SMILES IDX 50 54 53 55 67 56 86 57 51 58 52 59 66 61 87 62 54 63 38 64
REMARK SMILES IDX 39 65 47 66 40 67 46 68 48 69 45 70 41 71 42 72 43 73 44 74
REMARK SMILES IDX 70 75 71 76 79 77 72 78 78 79 80 80 77 81 73 82 74 83 75 84
REMARK SMILES IDX 76 85 55 86 56 87 64 88 57 89 63 90 65 91 62 92 58 93 59 94
REMARK SMILES IDX 60 95 61 96
REMARK H PARENT 85 49 53 60
REMARK Flexibility Score: inf
ROOT
ATOM      1  C   UNL A   1      40.461  20.817  25.960  1.00  0.00     0.188 C 
ENDROOT
BRANCH   1   2
ATOM      2  O   UNL A   1      39.300  21.596  26.236  1.00  0.00    -0.376 OA
BRANCH   2   3
ATOM      3  C   UNL A   1      38.046  21.189  25.704  1.00  0.00     0.202 C 
BRANCH   3   4
ATOM      4  C   UNL A   1      37.058  22.272  25.237  1.00  0.00     0.261 C 
BRANCH   4   5
ATOM      5  O   UNL A   1      35.994  21.818  24.369  1.00  0.00    -0.463 OA
BRANCH   5   6
ATOM      6  C   UNL A   1      35.614  22.669  23.381  1.00  0.00     0.313 C 
ATOM      7  O   UNL A   1      36.326  22.926  22.411  1.00  0.00    -0.252 OA
BRANCH   6   8
ATOM      8  C   UNL A   1      34.223  23.301  23.515  1.00  0.00     0.126 C 
ATOM      9  C   UNL A   1      33.520  23.206  22.162  1.00  0.00     0.025 C 
BRANCH   8  10
ATOM     10  C   UNL A   1      34.027  24.696  24.110  1.00  0.00    -0.034 A 
ATOM     11  C   UNL A   1      33.676  27.261  25.342  1.00  0.00    -0.018 A 
ATOM     12  C   UNL A   1      33.484  27.071  23.962  1.00  0.00     0.009 A 
ATOM     13  C   UNL A   1      34.049  26.143  26.097  1.00  0.00     0.009 A 
ATOM     14  C   UNL A   1      33.645  25.812  23.355  1.00  0.00     0.005 A 
ATOM     15  C   UNL A   1      34.212  24.884  25.495  1.00  0.00     0.005 A 
BRANCH  11  16
ATOM     16  C   UNL A   1      33.424  28.571  25.984  1.00  0.00    -0.018 A 
ATOM     17  C   UNL A   1      34.172  30.535  27.261  1.00  0.00    -0.044 A 
ATOM     18  C   UNL A   1      32.861  31.029  27.265  1.00  0.00     0.004 A 
ATOM     19  C   UNL A   1      34.442  29.306  26.623  1.00  0.00     0.012 A 
ATOM     20  C   UNL A   1      31.843  30.318  26.636  1.00  0.00     0.001 A 
ATOM     21  C   UNL A   1      32.124  29.104  26.005  1.00  0.00     0.009 A 
BRANCH  17  22
ATOM     22  C   UNL A   1      35.264  31.294  27.981  1.00  0.00     0.062 C 
BRANCH  22  23
ATOM     23  C   UNL A   1      35.904  30.481  29.070  1.00  0.00    -0.030 C 
ATOM     24  C   UNL A   1      37.167  30.033  29.034  1.00  0.00     0.004 C 
ENDBRANCH  22  23
ENDBRANCH  17  22
ENDBRANCH  11  16
ENDBRANCH   8  10
ENDBRANCH   6   8
ENDBRANCH   5   6
ENDBRANCH   4   5
ENDBRANCH   3   4
ENDBRANCH   2   3
ENDBRANCH   1   2
BRANCH   1  25
ATOM     25  C   UNL A   1      41.638  20.854  26.945  1.00  0.00     0.188 C 
BRANCH  25  26
ATOM     26  O   UNL A   1      42.910  20.825  26.336  1.00  0.00    -0.376 OA
BRANCH  26  27
ATOM     27  C   UNL A   1      43.154  21.786  25.330  1.00  0.00     0.202 C 
BRANCH  27  28
ATOM     28  C   UNL A   1      43.090  23.252  25.782  1.00  0.00     0.261 C 
BRANCH  28  29
ATOM     29  O   UNL A   1      44.302  23.804  26.330  1.00  0.00    -0.460 OA
BRANCH  29  30
ATOM     30  C   UNL A   1      44.854  24.858  25.685  1.00  0.00     0.338 C 
ATOM     31  O   UNL A   1      45.397  24.836  24.588  1.00  0.00    -0.246 OA
BRANCH  30  32
ATOM     32  C   UNL A   1      44.502  26.090  26.432  1.00  0.00     0.060 A 
ATOM     33  C   UNL A   1      43.939  27.177  25.746  1.00  0.00     0.016 A 
ATOM     34  C   UNL A   1      44.718  26.169  27.809  1.00  0.00     0.016 A 
ATOM     35  C   UNL A   1      43.617  28.354  26.432  1.00  0.00     0.010 A 
ATOM     36  C   UNL A   1      44.416  27.354  28.489  1.00  0.00     0.010 A 
ATOM     37  C   UNL A   1      43.889  28.466  27.802  1.00  0.00    -0.014 A 
BRANCH  37  38
ATOM     38  C   UNL A   1      43.799  29.784  28.490  1.00  0.00     0.031 A 
ATOM     39  C   UNL A   1      45.005  30.689  28.459  1.00  0.00     0.074 A 
ATOM     40  C   UNL A   1      42.685  30.171  29.140  1.00  0.00     0.049 A 
ATOM     41  N   UNL A   1      45.208  31.826  29.071  1.00  0.00    -0.248 NA
ATOM     42  C   UNL A   1      46.135  30.243  27.626  1.00  0.00     0.031 C 
ATOM     43  C   UNL A   1      41.434  29.416  29.201  1.00  0.00     0.029 A 
ATOM     44  N   UNL A   1      42.431  31.297  29.890  1.00  0.00    -0.354 N 
ATOM     45  C   UNL A   1      46.496  32.220  28.720  1.00  0.00     0.074 A 
ATOM     46  C   UNL A   1      47.030  31.194  27.852  1.00  0.00     0.031 C 
ATOM     47  C   UNL A   1      40.553  30.091  29.961  1.00  0.00     0.029 A 
ATOM     48  C   UNL A   1      41.189  31.300  30.485  1.00  0.00     0.049 A 
ATOM     49  H   UNL A   1      43.079  32.031  29.992  1.00  0.00     0.167 HD
ATOM     50  C   UNL A   1      47.170  33.336  29.091  1.00  0.00     0.034 A 
ATOM     51  C   UNL A   1      40.645  32.156  31.377  1.00  0.00     0.034 A 
ATOM     52  C   UNL A   1      46.626  34.357  29.951  1.00  0.00     0.049 A 
ATOM     53  C   UNL A   1      41.457  33.350  31.843  1.00  0.00     0.074 A 
ATOM     54  C   UNL A   1      47.214  35.546  30.349  1.00  0.00     0.029 A 
ATOM     55  N   UNL A   1      45.381  34.308  30.562  1.00  0.00    -0.354 N 
ATOM     56  N   UNL A   1      42.663  33.725  31.478  1.00  0.00    -0.248 NA
ATOM     57  C   UNL A   1      40.834  34.236  32.836  1.00  0.00     0.031 C 
ATOM     58  C   UNL A   1      46.367  36.168  31.269  1.00  0.00     0.029 A 
ATOM     59  C   UNL A   1      45.205  35.421  31.370  1.00  0.00     0.049 A 
ATOM     60  H   UNL A   1      44.721  33.588  30.440  1.00  0.00     0.167 HD
ATOM     61  C   UNL A   1      42.914  34.915  32.163  1.00  0.00     0.074 A 
ATOM     62  C   UNL A   1      41.734  35.200  32.947  1.00  0.00     0.031 C 
ATOM     63  C   UNL A   1      44.020  35.702  32.143  1.00  0.00     0.034 A 
BRANCH  50  64
ATOM     64  C   UNL A   1      48.597  33.489  28.626  1.00  0.00     0.023 A 
ATOM     65  C   UNL A   1      48.921  33.997  27.357  1.00  0.00     0.031 A 
ATOM     66  C   UNL A   1      49.653  33.149  29.491  1.00  0.00     0.131 A 
ATOM     67  C   UNL A   1      50.268  34.115  26.976  1.00  0.00     0.055 A 
ATOM     68  C   UNL A   1      50.989  33.336  29.134  1.00  0.00     0.041 A 
ATOM     69  F   UNL A   1      49.401  32.635  30.706  1.00  0.00    -0.206 F 
ATOM     70  C   UNL A   1      51.303  33.816  27.867  1.00  0.00     0.022 A 
BRANCH  67  71
ATOM     71  S   UNL A   1      50.653  34.571  25.264  1.00  0.00     0.124 S 
ATOM     72  O   UNL A   1      51.277  33.347  24.765  1.00  0.00    -0.237 OA
ATOM     73  O   UNL A   1      49.338  34.884  24.716  1.00  0.00    -0.237 OA
ATOM     74  O   UNL A   1      51.557  35.710  25.406  1.00  0.00    -0.744 OA
ENDBRANCH  67  71
ENDBRANCH  50  64
BRANCH  51  75
ATOM     75  C   UNL A   1      39.287  31.914  31.958  1.00  0.00     0.023 A 
ATOM     76  C   UNL A   1      38.163  32.615  31.490  1.00  0.00     0.031 A 
ATOM     77  C   UNL A   1      39.115  31.073  33.073  1.00  0.00     0.131 A 
ATOM     78  C   UNL A   1      36.942  32.527  32.180  1.00  0.00     0.055 A 
ATOM     79  C   UNL A   1      37.879  30.930  33.709  1.00  0.00     0.041 A 
ATOM     80  F   UNL A   1      40.154  30.389  33.577  1.00  0.00    -0.206 F 
ATOM     81  C   UNL A   1      36.788  31.676  33.277  1.00  0.00     0.022 A 
BRANCH  78  82
ATOM     82  S   UNL A   1      35.604  33.665  31.721  1.00  0.00     0.124 S 
ATOM     83  O   UNL A   1      35.879  34.807  32.587  1.00  0.00    -0.237 OA
ATOM     84  O   UNL A   1      35.852  33.865  30.298  1.00  0.00    -0.237 OA
ATOM     85  O   UNL A   1      34.393  32.913  32.043  1.00  0.00    -0.744 OA
ENDBRANCH  78  82
ENDBRANCH  51  75
BRANCH  63  86
ATOM     86  C   UNL A   1      43.976  36.988  32.938  1.00  0.00     0.023 A 
ATOM     87  C   UNL A   1      43.472  38.184  32.398  1.00  0.00     0.031 A 
ATOM     88  C   UNL A   1      44.454  37.013  34.261  1.00  0.00     0.131 A 
ATOM     89  C   UNL A   1      43.511  39.365  33.156  1.00  0.00     0.055 A 
ATOM     90  C   UNL A   1      44.425  38.174  35.035  1.00  0.00     0.041 A 
ATOM     91  F   UNL A   1      44.952  35.904  34.831  1.00  0.00    -0.206 F 
ATOM     92  C   UNL A   1      43.965  39.364  34.477  1.00  0.00     0.022 A 
BRANCH  89  93
ATOM     93  S   UNL A   1      43.055  40.930  32.359  1.00  0.00     0.124 S 
ATOM     94  O   UNL A   1      42.085  41.479  33.301  1.00  0.00    -0.237 OA
ATOM     95  O   UNL A   1      44.336  41.627  32.285  1.00  0.00    -0.237 OA
ATOM     96  O   UNL A   1      42.503  40.513  31.071  1.00  0.00    -0.744 OA
ENDBRANCH  89  93
ENDBRANCH  63  86
ENDBRANCH  37  38
ENDBRANCH  30  32
ENDBRANCH  29  30
ENDBRANCH  28  29
ENDBRANCH  27  28
ENDBRANCH  26  27
ENDBRANCH  25  26
ENDBRANCH   1  25
TORSDOF 24
ENDMDL
MODEL 2
REMARK VINA RESULT:      -8.8      3.661     10.814
REMARK SMILES C=CCc1cccc(-c2ccc([C@@H](C)C(=O)OCCOCCOCCOC(=O)c3ccc(-c4c5nc(c(-c6cc(S(=O)(=O)[O-])ccc6F)c6ccc([nH]6)c(-c6cc(S(=O)(=O)[O-])ccc6F)c6nc(c(-c7cc(S(=O)(=O)[O-])ccc7F)c7ccc4[nH]7)C=C6)C=C5)cc3)cc2)c1
REMARK SMILES IDX 21 1 20 2 19 3 18 4 17 5 15 6 16 7 13 8 14 9 12 10 9 11
REMARK SMILES IDX 10 12 93 13 11 14 92 15 8 16 4 17 5 18 94 19 6 20 7 21 3 22
REMARK SMILES IDX 2 23 1 24 22 25 23 26 24 27 25 28 26 29 27 30 28 31 29 32
REMARK SMILES IDX 30 33 91 34 31 35 90 36 32 37 33 38 34 39 84 40 35 41 89 42
REMARK SMILES IDX 83 43 85 44 36 45 88 46 82 47 81 48 37 50 69 51 49 52 68 53
REMARK SMILES IDX 50 54 53 55 67 56 86 57 51 58 52 59 66 61 87 62 54 63 38 64
REMARK SMILES IDX 39 65 47 66 40 67 46 68 48 69 45 70 41 71 42 72 43 73 44 74
REMARK SMILES IDX 70 75 71 76 79 77 72 78 78 79 80 80 77 81 73 82 74 83 75 84
REMARK SMILES IDX 76 85 55 86 56 87 64 88 57 89 63 90 65 91 62 92 58 93 59 94
REMARK SMILES IDX 60 95 61 96
REMARK H PARENT 85 49 53 60
REMARK Flexibility Score: inf
ROOT
ATOM      1  C   UNL A   1      33.958  32.589  27.754  1.00  0.00     0.188 C 
ENDROOT
BRANCH   1   2
ATOM      2  O   UNL A   1      33.750  31.210  28.043  1.00  0.00    -0.376 OA
BRANCH   2   3
ATOM      3  C   UNL A   1      33.664  30.279  26.972  1.00  0.00     0.202 C 
BRANCH   3   4
ATOM      4  C   UNL A   1      32.438  29.353  26.897  1.00  0.00     0.261 C 
BRANCH   4   5
ATOM      5  O   UNL A   1      31.642  29.460  25.694  1.00  0.00    -0.463 OA
BRANCH   5   6
ATOM      6  C   UNL A   1      31.694  28.407  24.838  1.00  0.00     0.313 C 
ATOM      7  O   UNL A   1      30.688  27.891  24.354  1.00  0.00    -0.252 OA
BRANCH   6   8
ATOM      8  C   UNL A   1      33.089  27.884  24.476  1.00  0.00     0.126 C 
ATOM      9  C   UNL A   1      33.464  28.427  23.098  1.00  0.00     0.025 C 
BRANCH   8  10
ATOM     10  C   UNL A   1      33.439  26.397  24.565  1.00  0.00    -0.034 A 
ATOM     11  C   UNL A   1      34.104  23.608  24.602  1.00  0.00    -0.018 A 
ATOM     12  C   UNL A   1      33.741  24.298  25.773  1.00  0.00     0.009 A 
ATOM     13  C   UNL A   1      34.131  24.341  23.410  1.00  0.00     0.009 A 
ATOM     14  C   UNL A   1      33.404  25.665  25.757  1.00  0.00     0.005 A 
ATOM     15  C   UNL A   1      33.796  25.705  23.389  1.00  0.00     0.005 A 
BRANCH  11  16
ATOM     16  C   UNL A   1      34.376  22.154  24.616  1.00  0.00    -0.018 A 
ATOM     17  C   UNL A   1      33.664  19.815  24.354  1.00  0.00    -0.044 A 
ATOM     18  C   UNL A   1      34.939  19.385  24.742  1.00  0.00     0.004 A 
ATOM     19  C   UNL A   1      33.392  21.198  24.297  1.00  0.00     0.012 A 
ATOM     20  C   UNL A   1      35.926  20.315  25.059  1.00  0.00     0.001 A 
ATOM     21  C   UNL A   1      35.645  21.681  24.995  1.00  0.00     0.009 A 
BRANCH  17  22
ATOM     22  C   UNL A   1      32.586  18.798  24.050  1.00  0.00     0.062 C 
BRANCH  22  23
ATOM     23  C   UNL A   1      33.095  17.658  23.215  1.00  0.00    -0.030 C 
ATOM     24  C   UNL A   1      33.646  16.543  23.716  1.00  0.00     0.004 C 
ENDBRANCH  22  23
ENDBRANCH  17  22
ENDBRANCH  11  16
ENDBRANCH   8  10
ENDBRANCH   6   8
ENDBRANCH   5   6
ENDBRANCH   4   5
ENDBRANCH   3   4
ENDBRANCH   2   3
ENDBRANCH   1   2
BRANCH   1  25
ATOM     25  C   UNL A   1      35.288  33.244  28.151  1.00  0.00     0.188 C 
BRANCH  25  26
ATOM     26  O   UNL A   1      35.212  34.082  29.283  1.00  0.00    -0.376 OA
BRANCH  26  27
ATOM     27  C   UNL A   1      34.810  33.476  30.494  1.00  0.00     0.202 C 
BRANCH  27  28
ATOM     28  C   UNL A   1      35.510  33.990  31.760  1.00  0.00     0.261 C 
BRANCH  28  29
ATOM     29  O   UNL A   1      36.871  33.561  31.955  1.00  0.00    -0.460 OA
BRANCH  29  30
ATOM     30  C   UNL A   1      37.069  32.294  32.388  1.00  0.00     0.338 C 
ATOM     31  O   UNL A   1      36.299  31.630  33.069  1.00  0.00    -0.246 OA
BRANCH  30  32
ATOM     32  C   UNL A   1      38.283  31.766  31.720  1.00  0.00     0.060 A 
ATOM     33  C   UNL A   1      39.388  31.383  32.496  1.00  0.00     0.016 A 
ATOM     34  C   UNL A   1      38.329  31.640  30.331  1.00  0.00     0.016 A 
ATOM     35  C   UNL A   1      40.549  30.900  31.882  1.00  0.00     0.010 A 
ATOM     36  C   UNL A   1      39.498  31.177  29.717  1.00  0.00     0.010 A 
ATOM     37  C   UNL A   1      40.627  30.829  30.484  1.00  0.00    -0.014 A 
BRANCH  37  38
ATOM     38  C   UNL A   1      41.928  30.569  29.808  1.00  0.00     0.031 A 
ATOM     39  C   UNL A   1      42.282  29.143  29.465  1.00  0.00     0.074 A 
ATOM     40  C   UNL A   1      42.788  31.563  29.514  1.00  0.00     0.049 A 
ATOM     41  N   UNL A   1      43.393  28.654  28.980  1.00  0.00    -0.248 NA
ATOM     42  C   UNL A   1      41.237  28.134  29.710  1.00  0.00     0.031 C 
ATOM     43  C   UNL A   1      42.546  32.987  29.743  1.00  0.00     0.029 A 
ATOM     44  N   UNL A   1      44.052  31.524  28.970  1.00  0.00    -0.354 N 
ATOM     45  C   UNL A   1      43.193  27.280  28.885  1.00  0.00     0.074 A 
ATOM     46  C   UNL A   1      41.858  27.013  29.375  1.00  0.00     0.031 C 
ATOM     47  C   UNL A   1      43.632  33.681  29.358  1.00  0.00     0.029 A 
ATOM     48  C   UNL A   1      44.667  32.754  28.904  1.00  0.00     0.049 A 
ATOM     49  H   UNL A   1      44.475  30.691  28.658  1.00  0.00     0.167 HD
ATOM     50  C   UNL A   1      44.046  26.330  28.432  1.00  0.00     0.034 A 
ATOM     51  C   UNL A   1      45.930  33.086  28.557  1.00  0.00     0.034 A 
ATOM     52  C   UNL A   1      45.372  26.608  27.939  1.00  0.00     0.049 A 
ATOM     53  C   UNL A   1      46.891  31.990  28.138  1.00  0.00     0.074 A 
ATOM     54  C   UNL A   1      46.296  25.719  27.416  1.00  0.00     0.029 A 
ATOM     55  N   UNL A   1      45.973  27.859  27.921  1.00  0.00    -0.354 N 
ATOM     56  N   UNL A   1      46.677  30.698  28.024  1.00  0.00    -0.248 NA
ATOM     57  C   UNL A   1      48.262  32.398  27.798  1.00  0.00     0.031 C 
ATOM     58  C   UNL A   1      47.483  26.414  27.171  1.00  0.00     0.029 A 
ATOM     59  C   UNL A   1      47.270  27.756  27.443  1.00  0.00     0.049 A 
ATOM     60  H   UNL A   1      45.541  28.696  28.207  1.00  0.00     0.167 HD
ATOM     61  C   UNL A   1      47.873  30.155  27.553  1.00  0.00     0.074 A 
ATOM     62  C   UNL A   1      48.795  31.256  27.390  1.00  0.00     0.031 C 
ATOM     63  C   UNL A   1      48.181  28.862  27.277  1.00  0.00     0.034 A 
BRANCH  50  64
ATOM     64  C   UNL A   1      43.606  24.890  28.505  1.00  0.00     0.023 A 
ATOM     65  C   UNL A   1      43.065  24.214  27.398  1.00  0.00     0.031 A 
ATOM     66  C   UNL A   1      43.767  24.171  29.704  1.00  0.00     0.131 A 
ATOM     67  C   UNL A   1      42.669  22.872  27.525  1.00  0.00     0.055 A 
ATOM     68  C   UNL A   1      43.439  22.819  29.803  1.00  0.00     0.041 A 
ATOM     69  F   UNL A   1      44.254  24.774  30.800  1.00  0.00    -0.206 F 
ATOM     70  C   UNL A   1      42.880  22.163  28.711  1.00  0.00     0.022 A 
BRANCH  67  71
ATOM     71  S   UNL A   1      41.783  22.091  26.150  1.00  0.00     0.124 S 
ATOM     72  O   UNL A   1      40.524  22.835  26.150  1.00  0.00    -0.237 OA
ATOM     73  O   UNL A   1      42.669  22.339  25.019  1.00  0.00    -0.237 OA
ATOM     74  O   UNL A   1      41.672  20.694  26.561  1.00  0.00    -0.744 OA
ENDBRANCH  67  71
ENDBRANCH  50  64
BRANCH  51  75
ATOM     75  C   UNL A   1      46.411  34.500  28.638  1.00  0.00     0.023 A 
ATOM     76  C   UNL A   1      46.952  35.015  29.828  1.00  0.00     0.031 A 
ATOM     77  C   UNL A   1      46.220  35.394  27.568  1.00  0.00     0.131 A 
ATOM     78  C   UNL A   1      47.206  36.391  29.948  1.00  0.00     0.055 A 
ATOM     79  C   UNL A   1      46.547  36.748  27.666  1.00  0.00     0.041 A 
ATOM     80  F   UNL A   1      45.693  34.967  26.410  1.00  0.00    -0.206 F 
ATOM     81  C   UNL A   1      47.023  37.259  28.869  1.00  0.00     0.022 A 
BRANCH  78  82
ATOM     82  S   UNL A   1      47.626  37.056  31.585  1.00  0.00     0.124 S 
ATOM     83  O   UNL A   1      48.613  36.088  32.050  1.00  0.00    -0.237 OA
ATOM     84  O   UNL A   1      48.135  38.382  31.250  1.00  0.00    -0.237 OA
ATOM     85  O   UNL A   1      46.350  37.039  32.295  1.00  0.00    -0.744 OA
ENDBRANCH  78  82
ENDBRANCH  51  75
BRANCH  63  86
ATOM     86  C   UNL A   1      49.549  28.577  26.698  1.00  0.00     0.023 A 
ATOM     87  C   UNL A   1      49.782  28.536  25.312  1.00  0.00     0.031 A 
ATOM     88  C   UNL A   1      50.639  28.340  27.556  1.00  0.00     0.131 A 
ATOM     89  C   UNL A   1      51.056  28.207  24.826  1.00  0.00     0.055 A 
ATOM     90  C   UNL A   1      51.921  28.083  27.067  1.00  0.00     0.041 A 
ATOM     91  F   UNL A   1      50.479  28.361  28.888  1.00  0.00    -0.206 F 
ATOM     92  C   UNL A   1      52.132  28.000  25.694  1.00  0.00     0.022 A 
BRANCH  89  93
ATOM     93  S   UNL A   1      51.272  27.950  23.043  1.00  0.00     0.124 S 
ATOM     94  O   UNL A   1      51.352  29.320  22.547  1.00  0.00    -0.237 OA
ATOM     95  O   UNL A   1      52.510  27.179  22.986  1.00  0.00    -0.237 OA
ATOM     96  O   UNL A   1      50.068  27.217  22.652  1.00  0.00    -0.744 OA
ENDBRANCH  89  93
ENDBRANCH  63  86
ENDBRANCH  37  38
ENDBRANCH  30  32
ENDBRANCH  29  30
ENDBRANCH  28  29
ENDBRANCH  27  28
ENDBRANCH  26  27
ENDBRANCH  25  26
ENDBRANCH   1  25
TORSDOF 24
ENDMDL
MODEL 3
REMARK VINA RESULT:      -8.6      6.256     10.063
REMARK SMILES C=CCc1cccc(-c2ccc([C@@H](C)C(=O)OCCOCCOCCOC(=O)c3ccc(-c4c5nc(c(-c6cc(S(=O)(=O)[O-])ccc6F)c6ccc([nH]6)c(-c6cc(S(=O)(=O)[O-])ccc6F)c6nc(c(-c7cc(S(=O)(=O)[O-])ccc7F)c7ccc4[nH]7)C=C6)C=C5)cc3)cc2)c1
REMARK SMILES IDX 21 1 20 2 19 3 18 4 17 5 15 6 16 7 13 8 14 9 12 10 9 11
REMARK SMILES IDX 10 12 93 13 11 14 92 15 8 16 4 17 5 18 94 19 6 20 7 21 3 22
REMARK SMILES IDX 2 23 1 24 22 25 23 26 24 27 25 28 26 29 27 30 28 31 29 32
REMARK SMILES IDX 30 33 91 34 31 35 90 36 32 37 33 38 34 39 84 40 35 41 89 42
REMARK SMILES IDX 83 43 85 44 36 45 88 46 82 47 81 48 37 50 69 51 49 52 68 53
REMARK SMILES IDX 50 54 53 55 67 56 86 57 51 58 52 59 66 61 87 62 54 63 38 64
REMARK SMILES IDX 39 65 47 66 40 67 46 68 48 69 45 70 41 71 42 72 43 73 44 74
REMARK SMILES IDX 70 75 71 76 79 77 72 78 78 79 80 80 77 81 73 82 74 83 75 84
REMARK SMILES IDX 76 85 55 86 56 87 64 88 57 89 63 90 65 91 62 92 58 93 59 94
REMARK SMILES IDX 60 95 61 96
REMARK H PARENT 85 49 53 60
REMARK Flexibility Score: inf
ROOT
ATOM      1  C   UNL A   1      33.932  31.415  27.799  1.00  0.00     0.188 C 
ENDROOT
BRANCH   1   2
ATOM      2  O   UNL A   1      34.257  30.439  26.813  1.00  0.00    -0.376 OA
BRANCH   2   3
ATOM      3  C   UNL A   1      33.223  29.629  26.268  1.00  0.00     0.202 C 
BRANCH   3   4
ATOM      4  C   UNL A   1      32.568  28.567  27.168  1.00  0.00     0.261 C 
BRANCH   4   5
ATOM      5  O   UNL A   1      31.398  27.916  26.622  1.00  0.00    -0.463 OA
BRANCH   5   6
ATOM      6  C   UNL A   1      31.525  26.599  26.318  1.00  0.00     0.313 C 
ATOM      7  O   UNL A   1      30.832  25.725  26.837  1.00  0.00    -0.252 OA
BRANCH   6   8
ATOM      8  C   UNL A   1      32.578  26.235  25.264  1.00  0.00     0.126 C 
ATOM      9  C   UNL A   1      32.085  26.724  23.903  1.00  0.00     0.025 C 
BRANCH   8  10
ATOM     10  C   UNL A   1      33.134  24.815  25.140  1.00  0.00    -0.034 A 
ATOM     11  C   UNL A   1      34.072  22.122  24.840  1.00  0.00    -0.018 A 
ATOM     12  C   UNL A   1      34.754  23.058  25.637  1.00  0.00     0.009 A 
ATOM     13  C   UNL A   1      32.910  22.559  24.192  1.00  0.00     0.009 A 
ATOM     14  C   UNL A   1      34.291  24.378  25.796  1.00  0.00     0.005 A 
ATOM     15  C   UNL A   1      32.445  23.875  24.346  1.00  0.00     0.005 A 
BRANCH  11  16
ATOM     16  C   UNL A   1      34.521  20.715  24.746  1.00  0.00    -0.018 A 
ATOM     17  C   UNL A   1      34.069  18.311  24.494  1.00  0.00    -0.044 A 
ATOM     18  C   UNL A   1      35.434  18.040  24.659  1.00  0.00     0.004 A 
ATOM     19  C   UNL A   1      33.623  19.649  24.542  1.00  0.00     0.012 A 
ATOM     20  C   UNL A   1      36.336  19.081  24.859  1.00  0.00     0.001 A 
ATOM     21  C   UNL A   1      35.882  20.401  24.901  1.00  0.00     0.009 A 
BRANCH  17  22
ATOM     22  C   UNL A   1      33.091  17.171  24.317  1.00  0.00     0.062 C 
BRANCH  22  23
ATOM     23  C   UNL A   1      33.375  16.026  25.247  1.00  0.00    -0.030 C 
ATOM     24  C   UNL A   1      32.512  15.033  25.506  1.00  0.00     0.004 C 
ENDBRANCH  22  23
ENDBRANCH  17  22
ENDBRANCH  11  16
ENDBRANCH   8  10
ENDBRANCH   6   8
ENDBRANCH   5   6
ENDBRANCH   4   5
ENDBRANCH   3   4
ENDBRANCH   2   3
ENDBRANCH   1   2
BRANCH   1  25
ATOM     25  C   UNL A   1      35.032  32.355  28.311  1.00  0.00     0.188 C 
BRANCH  25  26
ATOM     26  O   UNL A   1      35.652  31.933  29.506  1.00  0.00    -0.376 OA
BRANCH  26  27
ATOM     27  C   UNL A   1      36.684  30.977  29.382  1.00  0.00     0.202 C 
BRANCH  27  28
ATOM     28  C   UNL A   1      36.352  29.569  29.898  1.00  0.00     0.261 C 
BRANCH  28  29
ATOM     29  O   UNL A   1      36.439  29.375  31.322  1.00  0.00    -0.460 OA
BRANCH  29  30
ATOM     30  C   UNL A   1      37.627  28.963  31.823  1.00  0.00     0.338 C 
ATOM     31  O   UNL A   1      38.286  28.006  31.440  1.00  0.00    -0.246 OA
BRANCH  30  32
ATOM     32  C   UNL A   1      38.105  29.994  32.776  1.00  0.00     0.060 A 
ATOM     33  C   UNL A   1      39.264  29.754  33.531  1.00  0.00     0.016 A 
ATOM     34  C   UNL A   1      37.416  31.200  32.919  1.00  0.00     0.016 A 
ATOM     35  C   UNL A   1      39.719  30.708  34.448  1.00  0.00     0.010 A 
ATOM     36  C   UNL A   1      37.861  32.143  33.852  1.00  0.00     0.010 A 
ATOM     37  C   UNL A   1      38.999  31.894  34.644  1.00  0.00    -0.014 A 
BRANCH  37  38
ATOM     38  C   UNL A   1      39.314  32.795  35.787  1.00  0.00     0.031 A 
ATOM     39  C   UNL A   1      40.362  33.861  35.588  1.00  0.00     0.074 A 
ATOM     40  C   UNL A   1      38.703  32.670  36.981  1.00  0.00     0.049 A 
ATOM     41  N   UNL A   1      40.886  34.687  36.455  1.00  0.00    -0.248 NA
ATOM     42  C   UNL A   1      40.892  34.009  34.221  1.00  0.00     0.031 C 
ATOM     43  C   UNL A   1      37.638  31.717  37.291  1.00  0.00     0.029 A 
ATOM     44  N   UNL A   1      38.905  33.340  38.166  1.00  0.00    -0.354 N 
ATOM     45  C   UNL A   1      41.824  35.435  35.749  1.00  0.00     0.074 A 
ATOM     46  C   UNL A   1      41.805  34.955  34.384  1.00  0.00     0.031 C 
ATOM     47  C   UNL A   1      37.292  31.854  38.584  1.00  0.00     0.029 A 
ATOM     48  C   UNL A   1      38.144  32.865  39.210  1.00  0.00     0.049 A 
ATOM     49  H   UNL A   1      39.536  34.091  38.257  1.00  0.00     0.167 HD
ATOM     50  C   UNL A   1      42.627  36.428  36.200  1.00  0.00     0.034 A 
ATOM     51  C   UNL A   1      38.161  33.181  40.524  1.00  0.00     0.034 A 
ATOM     52  C   UNL A   1      42.633  36.905  37.560  1.00  0.00     0.049 A 
ATOM     53  C   UNL A   1      39.134  34.235  41.015  1.00  0.00     0.074 A 
ATOM     54  C   UNL A   1      43.378  37.937  38.104  1.00  0.00     0.029 A 
ATOM     55  N   UNL A   1      41.875  36.375  38.596  1.00  0.00    -0.354 N 
ATOM     56  N   UNL A   1      39.993  34.954  40.329  1.00  0.00    -0.248 NA
ATOM     57  C   UNL A   1      39.135  34.523  42.457  1.00  0.00     0.031 C 
ATOM     58  C   UNL A   1      43.142  37.970  39.481  1.00  0.00     0.029 A 
ATOM     59  C   UNL A   1      42.172  37.028  39.782  1.00  0.00     0.049 A 
ATOM     60  H   UNL A   1      41.224  35.644  38.501  1.00  0.00     0.167 HD
ATOM     61  C   UNL A   1      40.597  35.809  41.253  1.00  0.00     0.074 A 
ATOM     62  C   UNL A   1      39.994  35.527  42.536  1.00  0.00     0.031 C 
ATOM     63  C   UNL A   1      41.560  36.745  41.058  1.00  0.00     0.034 A 
BRANCH  50  64
ATOM     64  C   UNL A   1      43.618  37.031  35.235  1.00  0.00     0.023 A 
ATOM     65  C   UNL A   1      43.359  38.226  34.543  1.00  0.00     0.031 A 
ATOM     66  C   UNL A   1      44.864  36.408  35.034  1.00  0.00     0.131 A 
ATOM     67  C   UNL A   1      44.319  38.739  33.655  1.00  0.00     0.055 A 
ATOM     68  C   UNL A   1      45.840  36.960  34.206  1.00  0.00     0.041 A 
ATOM     69  F   UNL A   1      45.154  35.250  35.650  1.00  0.00    -0.206 F 
ATOM     70  C   UNL A   1      45.568  38.131  33.504  1.00  0.00     0.022 A 
BRANCH  67  71
ATOM     71  S   UNL A   1      43.875  40.160  32.620  1.00  0.00     0.124 S 
ATOM     72  O   UNL A   1      44.812  41.177  33.096  1.00  0.00    -0.237 OA
ATOM     73  O   UNL A   1      44.112  39.657  31.272  1.00  0.00    -0.237 OA
ATOM     74  O   UNL A   1      42.475  40.407  32.956  1.00  0.00    -0.744 OA
ENDBRANCH  67  71
ENDBRANCH  50  64
BRANCH  51  75
ATOM     75  C   UNL A   1      37.285  32.467  41.505  1.00  0.00     0.023 A 
ATOM     76  C   UNL A   1      36.002  32.947  41.815  1.00  0.00     0.031 A 
ATOM     77  C   UNL A   1      37.766  31.368  42.242  1.00  0.00     0.131 A 
ATOM     78  C   UNL A   1      35.280  32.387  42.882  1.00  0.00     0.055 A 
ATOM     79  C   UNL A   1      37.012  30.766  43.251  1.00  0.00     0.041 A 
ATOM     80  F   UNL A   1      38.991  30.873  42.004  1.00  0.00    -0.206 F 
ATOM     81  C   UNL A   1      35.769  31.288  43.592  1.00  0.00     0.022 A 
BRANCH  78  82
ATOM     82  S   UNL A   1      33.763  33.219  43.434  1.00  0.00     0.124 S 
ATOM     83  O   UNL A   1      34.275  34.523  43.842  1.00  0.00    -0.237 OA
ATOM     84  O   UNL A   1      32.950  33.199  42.222  1.00  0.00    -0.237 OA
ATOM     85  O   UNL A   1      33.284  32.367  44.520  1.00  0.00    -0.744 OA
ENDBRANCH  78  82
ENDBRANCH  51  75
BRANCH  63  86
ATOM     86  C   UNL A   1      41.970  37.585  42.247  1.00  0.00     0.023 A 
ATOM     87  C   UNL A   1      43.042  37.227  43.083  1.00  0.00     0.031 A 
ATOM     88  C   UNL A   1      41.268  38.767  42.547  1.00  0.00     0.131 A 
ATOM     89  C   UNL A   1      43.343  38.007  44.209  1.00  0.00     0.055 A 
ATOM     90  C   UNL A   1      41.617  39.578  43.628  1.00  0.00     0.041 A 
ATOM     91  F   UNL A   1      40.233  39.160  41.788  1.00  0.00    -0.206 F 
ATOM     92  C   UNL A   1      42.651  39.192  44.475  1.00  0.00     0.022 A 
BRANCH  89  93
ATOM     93  S   UNL A   1      44.586  37.404  45.385  1.00  0.00     0.124 S 
ATOM     94  O   UNL A   1      45.353  36.474  44.563  1.00  0.00    -0.237 OA
ATOM     95  O   UNL A   1      45.275  38.632  45.769  1.00  0.00    -0.237 OA
ATOM     96  O   UNL A   1      43.788  36.785  46.442  1.00  0.00    -0.744 OA
ENDBRANCH  89  93
ENDBRANCH  63  86
ENDBRANCH  37  38
ENDBRANCH  30  32
ENDBRANCH  29  30
ENDBRANCH  28  29
ENDBRANCH  27  28
ENDBRANCH  26  27
ENDBRANCH  25  26
ENDBRANCH   1  25
TORSDOF 24
ENDMDL
