MODEL 1
REMARK VINA RESULT:     -10.8      0.000      0.000
REMARK SMILES CS(=O)(=O)c1ccc(/C=C(/C(=O)OCCOCCOCCOC(=O)c2ccc(-c3c4nc(c(-c5cc(S(=O)(=O)[O-])ccc5F)c5ccc([nH]5)c(-c5cc(S(=O)(=O)[O-])ccc5F)c5nc(c(-c6cc(S(=O)(=O)[O-])ccc6F)c6ccc3[nH]6)C=C5)C=C4)cc2)c2ccc(O)cc2)cc1
REMARK SMILES IDX 18 1 17 2 16 3 15 4 14 5 13 6 11 7 12 8 10 9 9 10 8 11 5 12
REMARK SMILES IDX 6 13 96 14 7 15 95 16 2 17 1 18 3 19 4 20 88 21 89 22 94 23
REMARK SMILES IDX 90 24 93 25 91 26 92 27 19 29 20 30 21 31 22 32 23 33 24 34
REMARK SMILES IDX 25 35 26 36 87 37 27 38 86 39 28 40 29 41 30 42 80 43 31 44
REMARK SMILES IDX 85 45 79 46 81 47 32 48 84 49 78 50 77 51 33 53 65 54 45 55
REMARK SMILES IDX 64 56 46 57 49 58 63 59 82 60 47 61 48 62 62 64 83 65 50 66
REMARK SMILES IDX 34 67 35 68 43 69 36 70 42 71 44 72 41 73 37 74 38 75 39 76
REMARK SMILES IDX 40 77 66 78 67 79 75 80 68 81 74 82 76 83 73 84 69 85 70 86
REMARK SMILES IDX 71 87 72 88 51 89 52 90 60 91 53 92 59 93 61 94 58 95 54 96
REMARK SMILES IDX 55 97 56 98 57 99
REMARK H PARENT 92 28 81 52 49 63
REMARK Flexibility Score: inf
ROOT
ATOM      1  C   UNL A   1      37.048  22.099  24.221  1.00  0.00     0.188 C 
ENDROOT
BRANCH   1   2
ATOM      2  C   UNL A   1      35.677  22.684  24.621  1.00  0.00     0.188 C 
BRANCH   2   3
ATOM      3  O   UNL A   1      34.780  21.712  25.129  1.00  0.00    -0.376 OA
BRANCH   3   4
ATOM      4  C   UNL A   1      34.808  21.538  26.538  1.00  0.00     0.202 C 
BRANCH   4   5
ATOM      5  C   UNL A   1      33.688  22.213  27.352  1.00  0.00     0.261 C 
BRANCH   5   6
ATOM      6  O   UNL A   1      33.208  23.478  26.858  1.00  0.00    -0.460 OA
BRANCH   6   7
ATOM      7  C   UNL A   1      31.867  23.679  26.806  1.00  0.00     0.338 C 
ATOM      8  O   UNL A   1      31.065  23.225  27.606  1.00  0.00    -0.246 OA
BRANCH   7   9
ATOM      9  C   UNL A   1      31.506  24.629  25.690  1.00  0.00     0.067 C 
ATOM     10  C   UNL A   1      30.809  25.763  25.965  1.00  0.00     0.024 C 
BRANCH  10  11
ATOM     11  C   UNL A   1      30.454  26.886  25.057  1.00  0.00    -0.025 A 
ATOM     12  C   UNL A   1      29.391  29.065  23.626  1.00  0.00     0.067 A 
ATOM     13  C   UNL A   1      30.573  29.221  24.343  1.00  0.00     0.021 A 
ATOM     14  C   UNL A   1      28.808  27.802  23.506  1.00  0.00     0.021 A 
ATOM     15  C   UNL A   1      31.116  28.122  25.022  1.00  0.00     0.009 A 
ATOM     16  C   UNL A   1      29.342  26.721  24.216  1.00  0.00     0.009 A 
BRANCH  12  17
ATOM     17  S   UNL A   1      28.569  30.477  22.927  1.00  0.00     0.175 S 
ATOM     18  C   UNL A   1      29.158  30.589  21.254  1.00  0.00     0.163 C 
ATOM     19  O   UNL A   1      29.069  31.651  23.623  1.00  0.00    -0.224 OA
ATOM     20  O   UNL A   1      27.152  30.178  22.903  1.00  0.00    -0.224 OA
ENDBRANCH  12  17
ENDBRANCH  10  11
BRANCH   9  21
ATOM     21  C   UNL A   1      31.905  24.271  24.310  1.00  0.00    -0.011 A 
ATOM     22  C   UNL A   1      32.743  25.142  23.593  1.00  0.00     0.013 A 
ATOM     23  C   UNL A   1      31.614  23.010  23.768  1.00  0.00     0.013 A 
ATOM     24  C   UNL A   1      33.327  24.737  22.395  1.00  0.00     0.047 A 
ATOM     25  C   UNL A   1      32.209  22.603  22.568  1.00  0.00     0.047 A 
ATOM     26  C   UNL A   1      33.076  23.464  21.905  1.00  0.00     0.115 A 
BRANCH  26  27
ATOM     27  O   UNL A   1      33.742  23.091  20.780  1.00  0.00    -0.508 OA
ATOM     28  H   UNL A   1      33.285  22.656  20.087  1.00  0.00     0.293 HD
ENDBRANCH  26  27
ENDBRANCH   9  21
ENDBRANCH   7   9
ENDBRANCH   6   7
ENDBRANCH   5   6
ENDBRANCH   4   5
ENDBRANCH   3   4
ENDBRANCH   2   3
ENDBRANCH   1   2
BRANCH   1  29
ATOM     29  O   UNL A   1      37.831  21.395  25.173  1.00  0.00    -0.376 OA
BRANCH  29  30
ATOM     30  C   UNL A   1      38.040  20.003  24.996  1.00  0.00     0.202 C 
BRANCH  30  31
ATOM     31  C   UNL A   1      39.177  19.268  25.735  1.00  0.00     0.261 C 
BRANCH  31  32
ATOM     32  O   UNL A   1      40.513  19.768  25.555  1.00  0.00    -0.460 OA
BRANCH  32  33
ATOM     33  C   UNL A   1      41.249  19.912  26.685  1.00  0.00     0.338 C 
ATOM     34  O   UNL A   1      41.897  19.038  27.249  1.00  0.00    -0.246 OA
BRANCH  33  35
ATOM     35  C   UNL A   1      41.327  21.344  27.050  1.00  0.00     0.060 A 
ATOM     36  C   UNL A   1      40.819  22.299  26.157  1.00  0.00     0.016 A 
ATOM     37  C   UNL A   1      41.928  21.753  28.242  1.00  0.00     0.016 A 
ATOM     38  C   UNL A   1      40.916  23.662  26.447  1.00  0.00     0.010 A 
ATOM     39  C   UNL A   1      42.053  23.121  28.517  1.00  0.00     0.010 A 
ATOM     40  C   UNL A   1      41.566  24.084  27.614  1.00  0.00    -0.014 A 
BRANCH  40  41
ATOM     41  C   UNL A   1      41.908  25.520  27.791  1.00  0.00     0.031 A 
ATOM     42  C   UNL A   1      43.239  26.006  27.284  1.00  0.00     0.074 A 
ATOM     43  C   UNL A   1      41.056  26.384  28.374  1.00  0.00     0.049 A 
ATOM     44  N   UNL A   1      43.790  27.187  27.390  1.00  0.00    -0.248 NA
ATOM     45  C   UNL A   1      44.055  25.019  26.562  1.00  0.00     0.031 C 
ATOM     46  C   UNL A   1      39.716  26.055  28.852  1.00  0.00     0.029 A 
ATOM     47  N   UNL A   1      41.200  27.719  28.668  1.00  0.00    -0.354 N 
ATOM     48  C   UNL A   1      45.024  27.085  26.755  1.00  0.00     0.074 A 
ATOM     49  C   UNL A   1      45.147  25.718  26.294  1.00  0.00     0.031 C 
ATOM     50  C   UNL A   1      39.160  27.160  29.381  1.00  0.00     0.029 A 
ATOM     51  C   UNL A   1      40.124  28.259  29.334  1.00  0.00     0.049 A 
ATOM     52  H   UNL A   1      41.998  28.240  28.425  1.00  0.00     0.167 HD
ATOM     53  C   UNL A   1      45.966  28.043  26.573  1.00  0.00     0.034 A 
ATOM     54  C   UNL A   1      39.952  29.485  29.874  1.00  0.00     0.034 A 
ATOM     55  C   UNL A   1      45.844  29.395  27.061  1.00  0.00     0.049 A 
ATOM     56  C   UNL A   1      41.067  30.504  29.762  1.00  0.00     0.074 A 
ATOM     57  C   UNL A   1      46.743  30.441  26.931  1.00  0.00     0.029 A 
ATOM     58  N   UNL A   1      44.768  29.888  27.787  1.00  0.00    -0.354 N 
ATOM     59  N   UNL A   1      42.231  30.396  29.164  1.00  0.00    -0.248 NA
ATOM     60  C   UNL A   1      40.841  31.809  30.399  1.00  0.00     0.031 C 
ATOM     61  C   UNL A   1      46.251  31.533  27.653  1.00  0.00     0.029 A 
ATOM     62  C   UNL A   1      44.998  31.208  28.148  1.00  0.00     0.049 A 
ATOM     63  H   UNL A   1      43.958  29.374  28.015  1.00  0.00     0.167 HD
ATOM     64  C   UNL A   1      42.857  31.633  29.322  1.00  0.00     0.074 A 
ATOM     65  C   UNL A   1      41.937  32.471  30.059  1.00  0.00     0.031 C 
ATOM     66  C   UNL A   1      44.078  32.040  28.889  1.00  0.00     0.034 A 
BRANCH  53  67
ATOM     67  C   UNL A   1      47.239  27.636  25.872  1.00  0.00     0.023 A 
ATOM     68  C   UNL A   1      47.426  27.839  24.493  1.00  0.00     0.031 A 
ATOM     69  C   UNL A   1      48.270  27.002  26.589  1.00  0.00     0.131 A 
ATOM     70  C   UNL A   1      48.580  27.348  23.864  1.00  0.00     0.055 A 
ATOM     71  C   UNL A   1      49.454  26.595  25.973  1.00  0.00     0.041 A 
ATOM     72  F   UNL A   1      48.139  26.757  27.902  1.00  0.00    -0.206 F 
ATOM     73  C   UNL A   1      49.608  26.751  24.598  1.00  0.00     0.022 A 
BRANCH  70  74
ATOM     74  S   UNL A   1      48.648  27.358  22.052  1.00  0.00     0.124 S 
ATOM     75  O   UNL A   1      48.645  25.929  21.748  1.00  0.00    -0.237 OA
ATOM     76  O   UNL A   1      47.439  28.090  21.696  1.00  0.00    -0.237 OA
ATOM     77  O   UNL A   1      49.904  28.047  21.761  1.00  0.00    -0.744 OA
ENDBRANCH  70  74
ENDBRANCH  53  67
BRANCH  54  78
ATOM     78  C   UNL A   1      38.706  29.818  30.629  1.00  0.00     0.023 A 
ATOM     79  C   UNL A   1      37.690  30.597  30.051  1.00  0.00     0.031 A 
ATOM     80  C   UNL A   1      38.551  29.431  31.972  1.00  0.00     0.131 A 
ATOM     81  C   UNL A   1      36.593  31.008  30.827  1.00  0.00     0.055 A 
ATOM     82  C   UNL A   1      37.428  29.789  32.721  1.00  0.00     0.041 A 
ATOM     83  F   UNL A   1      39.496  28.697  32.582  1.00  0.00    -0.206 F 
ATOM     84  C   UNL A   1      36.448  30.595  32.153  1.00  0.00     0.022 A 
BRANCH  81  85
ATOM     85  S   UNL A   1      35.409  32.179  30.109  1.00  0.00     0.124 S 
ATOM     86  O   UNL A   1      34.891  31.421  28.977  1.00  0.00    -0.237 OA
ATOM     87  O   UNL A   1      34.482  32.392  31.217  1.00  0.00    -0.237 OA
ATOM     88  O   UNL A   1      36.236  33.333  29.764  1.00  0.00    -0.744 OA
ENDBRANCH  81  85
ENDBRANCH  54  78
BRANCH  66  89
ATOM     89  C   UNL A   1      44.469  33.478  29.145  1.00  0.00     0.023 A 
ATOM     90  C   UNL A   1      45.138  33.877  30.316  1.00  0.00     0.031 A 
ATOM     91  C   UNL A   1      44.165  34.470  28.194  1.00  0.00     0.131 A 
ATOM     92  C   UNL A   1      45.432  35.233  30.529  1.00  0.00     0.055 A 
ATOM     93  C   UNL A   1      44.520  35.807  28.380  1.00  0.00     0.041 A 
ATOM     94  F   UNL A   1      43.521  34.153  27.059  1.00  0.00    -0.206 F 
ATOM     95  C   UNL A   1      45.146  36.197  29.559  1.00  0.00     0.022 A 
BRANCH  92  96
ATOM     96  S   UNL A   1      46.103  35.742  32.137  1.00  0.00     0.124 S 
ATOM     97  O   UNL A   1      47.072  36.763  31.750  1.00  0.00    -0.237 OA
ATOM     98  O   UNL A   1      44.915  36.221  32.834  1.00  0.00    -0.237 OA
ATOM     99  O   UNL A   1      46.681  34.510  32.673  1.00  0.00    -0.744 OA
ENDBRANCH  92  96
ENDBRANCH  66  89
ENDBRANCH  40  41
ENDBRANCH  33  35
ENDBRANCH  32  33
ENDBRANCH  31  32
ENDBRANCH  30  31
ENDBRANCH  29  30
ENDBRANCH   1  29
TORSDOF 24
ENDMDL
MODEL 2
REMARK VINA RESULT:     -10.5      2.505      7.780
REMARK SMILES CS(=O)(=O)c1ccc(/C=C(/C(=O)OCCOCCOCCOC(=O)c2ccc(-c3c4nc(c(-c5cc(S(=O)(=O)[O-])ccc5F)c5ccc([nH]5)c(-c5cc(S(=O)(=O)[O-])ccc5F)c5nc(c(-c6cc(S(=O)(=O)[O-])ccc6F)c6ccc3[nH]6)C=C5)C=C4)cc2)c2ccc(O)cc2)cc1
REMARK SMILES IDX 18 1 17 2 16 3 15 4 14 5 13 6 11 7 12 8 10 9 9 10 8 11 5 12
REMARK SMILES IDX 6 13 96 14 7 15 95 16 2 17 1 18 3 19 4 20 88 21 89 22 94 23
REMARK SMILES IDX 90 24 93 25 91 26 92 27 19 29 20 30 21 31 22 32 23 33 24 34
REMARK SMILES IDX 25 35 26 36 87 37 27 38 86 39 28 40 29 41 30 42 80 43 31 44
REMARK SMILES IDX 85 45 79 46 81 47 32 48 84 49 78 50 77 51 33 53 65 54 45 55
REMARK SMILES IDX 64 56 46 57 49 58 63 59 82 60 47 61 48 62 62 64 83 65 50 66
REMARK SMILES IDX 34 67 35 68 43 69 36 70 42 71 44 72 41 73 37 74 38 75 39 76
REMARK SMILES IDX 40 77 66 78 67 79 75 80 68 81 74 82 76 83 73 84 69 85 70 86
REMARK SMILES IDX 71 87 72 88 51 89 52 90 60 91 53 92 59 93 61 94 58 95 54 96
REMARK SMILES IDX 55 97 56 98 57 99
REMARK H PARENT 92 28 81 52 49 63
REMARK Flexibility Score: inf
ROOT
ATOM      1  C   UNL A   1      37.072  21.885  25.282  1.00  0.00     0.188 C 
ENDROOT
BRANCH   1   2
ATOM      2  C   UNL A   1      36.065  22.786  26.026  1.00  0.00     0.188 C 
BRANCH   2   3
ATOM      3  O   UNL A   1      35.371  23.677  25.170  1.00  0.00    -0.376 OA
BRANCH   3   4
ATOM      4  C   UNL A   1      34.374  23.080  24.354  1.00  0.00     0.202 C 
BRANCH   4   5
ATOM      5  C   UNL A   1      32.906  23.287  24.773  1.00  0.00     0.261 C 
BRANCH   5   6
ATOM      6  O   UNL A   1      32.682  23.777  26.108  1.00  0.00    -0.460 OA
BRANCH   6   7
ATOM      7  C   UNL A   1      31.453  24.260  26.418  1.00  0.00     0.338 C 
ATOM      8  O   UNL A   1      30.693  23.757  27.230  1.00  0.00    -0.246 OA
BRANCH   7   9
ATOM      9  C   UNL A   1      31.189  25.564  25.706  1.00  0.00     0.067 C 
ATOM     10  C   UNL A   1      30.293  25.609  24.685  1.00  0.00     0.024 C 
BRANCH  10  11
ATOM     11  C   UNL A   1      29.792  26.789  23.931  1.00  0.00    -0.025 A 
ATOM     12  C   UNL A   1      28.698  29.187  22.942  1.00  0.00     0.067 A 
ATOM     13  C   UNL A   1      30.075  28.993  22.910  1.00  0.00     0.021 A 
ATOM     14  C   UNL A   1      27.854  28.148  23.336  1.00  0.00     0.021 A 
ATOM     15  C   UNL A   1      30.610  27.782  23.369  1.00  0.00     0.009 A 
ATOM     16  C   UNL A   1      28.402  26.956  23.824  1.00  0.00     0.009 A 
BRANCH  12  17
ATOM     17  S   UNL A   1      28.005  30.779  22.562  1.00  0.00     0.175 S 
ATOM     18  C   UNL A   1      29.291  31.953  22.915  1.00  0.00     0.163 C 
ATOM     19  O   UNL A   1      26.944  31.024  23.524  1.00  0.00    -0.224 OA
ATOM     20  O   UNL A   1      27.734  30.799  21.139  1.00  0.00    -0.224 OA
ENDBRANCH  12  17
ENDBRANCH  10  11
BRANCH   9  21
ATOM     21  C   UNL A   1      31.948  26.760  26.134  1.00  0.00    -0.011 A 
ATOM     22  C   UNL A   1      33.182  27.043  25.523  1.00  0.00     0.013 A 
ATOM     23  C   UNL A   1      31.389  27.709  27.004  1.00  0.00     0.013 A 
ATOM     24  C   UNL A   1      33.809  28.269  25.726  1.00  0.00     0.047 A 
ATOM     25  C   UNL A   1      32.018  28.945  27.199  1.00  0.00     0.047 A 
ATOM     26  C   UNL A   1      33.211  29.219  26.541  1.00  0.00     0.115 A 
BRANCH  26  27
ATOM     27  O   UNL A   1      33.823  30.430  26.632  1.00  0.00    -0.508 OA
ATOM     28  H   UNL A   1      33.378  31.203  26.340  1.00  0.00     0.293 HD
ENDBRANCH  26  27
ENDBRANCH   9  21
ENDBRANCH   7   9
ENDBRANCH   6   7
ENDBRANCH   5   6
ENDBRANCH   4   5
ENDBRANCH   3   4
ENDBRANCH   2   3
ENDBRANCH   1   2
BRANCH   1  29
ATOM     29  O   UNL A   1      36.799  20.504  25.100  1.00  0.00    -0.376 OA
BRANCH  29  30
ATOM     30  C   UNL A   1      37.841  19.648  24.660  1.00  0.00     0.202 C 
BRANCH  30  31
ATOM     31  C   UNL A   1      38.959  19.194  25.620  1.00  0.00     0.261 C 
BRANCH  31  32
ATOM     32  O   UNL A   1      39.826  20.210  26.150  1.00  0.00    -0.460 OA
BRANCH  32  33
ATOM     33  C   UNL A   1      41.151  19.919  26.149  1.00  0.00     0.338 C 
ATOM     34  O   UNL A   1      41.662  18.852  25.831  1.00  0.00    -0.246 OA
BRANCH  33  35
ATOM     35  C   UNL A   1      41.932  21.150  26.405  1.00  0.00     0.060 A 
ATOM     36  C   UNL A   1      42.307  21.452  27.723  1.00  0.00     0.016 A 
ATOM     37  C   UNL A   1      42.264  22.023  25.367  1.00  0.00     0.016 A 
ATOM     38  C   UNL A   1      43.005  22.627  28.008  1.00  0.00     0.010 A 
ATOM     39  C   UNL A   1      42.936  23.217  25.660  1.00  0.00     0.010 A 
ATOM     40  C   UNL A   1      43.294  23.536  26.983  1.00  0.00    -0.014 A 
BRANCH  40  41
ATOM     41  C   UNL A   1      43.789  24.897  27.319  1.00  0.00     0.031 A 
ATOM     42  C   UNL A   1      42.830  25.871  27.949  1.00  0.00     0.074 A 
ATOM     43  C   UNL A   1      45.064  25.264  27.088  1.00  0.00     0.049 A 
ATOM     44  N   UNL A   1      43.005  27.130  28.258  1.00  0.00    -0.248 NA
ATOM     45  C   UNL A   1      41.493  25.349  28.267  1.00  0.00     0.031 C 
ATOM     46  C   UNL A   1      46.105  24.398  26.541  1.00  0.00     0.029 A 
ATOM     47  N   UNL A   1      45.695  26.469  27.282  1.00  0.00    -0.354 N 
ATOM     48  C   UNL A   1      41.797  27.555  28.802  1.00  0.00     0.074 A 
ATOM     49  C   UNL A   1      40.893  26.425  28.750  1.00  0.00     0.031 C 
ATOM     50  C   UNL A   1      47.247  25.102  26.442  1.00  0.00     0.029 A 
ATOM     51  C   UNL A   1      47.005  26.482  26.861  1.00  0.00     0.049 A 
ATOM     52  H   UNL A   1      45.252  27.250  27.683  1.00  0.00     0.167 HD
ATOM     53  C   UNL A   1      41.473  28.774  29.299  1.00  0.00     0.034 A 
ATOM     54  C   UNL A   1      47.893  27.498  26.790  1.00  0.00     0.034 A 
ATOM     55  C   UNL A   1      42.374  29.900  29.320  1.00  0.00     0.049 A 
ATOM     56  C   UNL A   1      47.471  28.880  27.240  1.00  0.00     0.074 A 
ATOM     57  C   UNL A   1      42.142  31.179  29.798  1.00  0.00     0.029 A 
ATOM     58  N   UNL A   1      43.672  29.893  28.826  1.00  0.00    -0.354 N 
ATOM     59  N   UNL A   1      46.325  29.273  27.748  1.00  0.00    -0.248 NA
ATOM     60  C   UNL A   1      48.464  29.955  27.108  1.00  0.00     0.031 C 
ATOM     61  C   UNL A   1      43.264  31.964  29.514  1.00  0.00     0.029 A 
ATOM     62  C   UNL A   1      44.237  31.155  28.951  1.00  0.00     0.049 A 
ATOM     63  H   UNL A   1      44.126  29.108  28.443  1.00  0.00     0.167 HD
ATOM     64  C   UNL A   1      46.477  30.631  28.029  1.00  0.00     0.074 A 
ATOM     65  C   UNL A   1      47.827  30.984  27.645  1.00  0.00     0.031 C 
ATOM     66  C   UNL A   1      45.584  31.504  28.562  1.00  0.00     0.034 A 
BRANCH  53  67
ATOM     67  C   UNL A   1      40.060  28.964  29.796  1.00  0.00     0.023 A 
ATOM     68  C   UNL A   1      39.059  29.534  28.989  1.00  0.00     0.031 A 
ATOM     69  C   UNL A   1      39.718  28.601  31.110  1.00  0.00     0.131 A 
ATOM     70  C   UNL A   1      37.789  29.789  29.527  1.00  0.00     0.055 A 
ATOM     71  C   UNL A   1      38.427  28.778  31.612  1.00  0.00     0.041 A 
ATOM     72  F   UNL A   1      40.637  28.078  31.937  1.00  0.00    -0.206 F 
ATOM     73  C   UNL A   1      37.458  29.391  30.824  1.00  0.00     0.022 A 
BRANCH  70  74
ATOM     74  S   UNL A   1      36.627  30.793  28.562  1.00  0.00     0.124 S 
ATOM     75  O   UNL A   1      36.654  30.114  27.268  1.00  0.00    -0.237 OA
ATOM     76  O   UNL A   1      35.392  30.665  29.325  1.00  0.00    -0.237 OA
ATOM     77  O   UNL A   1      37.233  32.123  28.571  1.00  0.00    -0.744 OA
ENDBRANCH  70  74
ENDBRANCH  53  67
BRANCH  54  78
ATOM     78  C   UNL A   1      49.256  27.280  26.216  1.00  0.00     0.023 A 
ATOM     79  C   UNL A   1      50.375  27.095  27.045  1.00  0.00     0.031 A 
ATOM     80  C   UNL A   1      49.471  27.338  24.828  1.00  0.00     0.131 A 
ATOM     81  C   UNL A   1      51.661  27.028  26.483  1.00  0.00     0.055 A 
ATOM     82  C   UNL A   1      50.745  27.208  24.270  1.00  0.00     0.041 A 
ATOM     83  F   UNL A   1      48.442  27.527  23.986  1.00  0.00    -0.206 F 
ATOM     84  C   UNL A   1      51.851  27.067  25.101  1.00  0.00     0.022 A 
BRANCH  81  85
ATOM     85  S   UNL A   1      53.095  26.996  27.594  1.00  0.00     0.124 S 
ATOM     86  O   UNL A   1      52.498  27.399  28.861  1.00  0.00    -0.237 OA
ATOM     87  O   UNL A   1      53.521  25.602  27.499  1.00  0.00    -0.237 OA
ATOM     88  O   UNL A   1      54.011  27.965  26.996  1.00  0.00    -0.744 OA
ENDBRANCH  81  85
ENDBRANCH  54  78
BRANCH  66  89
ATOM     89  C   UNL A   1      46.056  32.917  28.824  1.00  0.00     0.023 A 
ATOM     90  C   UNL A   1      45.774  33.977  27.945  1.00  0.00     0.031 A 
ATOM     91  C   UNL A   1      46.805  33.205  29.982  1.00  0.00     0.131 A 
ATOM     92  C   UNL A   1      46.281  35.260  28.209  1.00  0.00     0.055 A 
ATOM     93  C   UNL A   1      47.247  34.496  30.274  1.00  0.00     0.041 A 
ATOM     94  F   UNL A   1      47.112  32.233  30.856  1.00  0.00    -0.206 F 
ATOM     95  C   UNL A   1      46.997  35.530  29.378  1.00  0.00     0.022 A 
BRANCH  92  96
ATOM     96  S   UNL A   1      46.079  36.556  26.954  1.00  0.00     0.124 S 
ATOM     97  O   UNL A   1      46.748  35.965  25.799  1.00  0.00    -0.237 OA
ATOM     98  O   UNL A   1      44.628  36.674  26.859  1.00  0.00    -0.237 OA
ATOM     99  O   UNL A   1      46.758  37.710  27.540  1.00  0.00    -0.744 OA
ENDBRANCH  92  96
ENDBRANCH  66  89
ENDBRANCH  40  41
ENDBRANCH  33  35
ENDBRANCH  32  33
ENDBRANCH  31  32
ENDBRANCH  30  31
ENDBRANCH  29  30
ENDBRANCH   1  29
TORSDOF 24
ENDMDL
MODEL 3
REMARK VINA RESULT:     -10.2      2.810      3.955
REMARK SMILES CS(=O)(=O)c1ccc(/C=C(/C(=O)OCCOCCOCCOC(=O)c2ccc(-c3c4nc(c(-c5cc(S(=O)(=O)[O-])ccc5F)c5ccc([nH]5)c(-c5cc(S(=O)(=O)[O-])ccc5F)c5nc(c(-c6cc(S(=O)(=O)[O-])ccc6F)c6ccc3[nH]6)C=C5)C=C4)cc2)c2ccc(O)cc2)cc1
REMARK SMILES IDX 18 1 17 2 16 3 15 4 14 5 13 6 11 7 12 8 10 9 9 10 8 11 5 12
REMARK SMILES IDX 6 13 96 14 7 15 95 16 2 17 1 18 3 19 4 20 88 21 89 22 94 23
REMARK SMILES IDX 90 24 93 25 91 26 92 27 19 29 20 30 21 31 22 32 23 33 24 34
REMARK SMILES IDX 25 35 26 36 87 37 27 38 86 39 28 40 29 41 30 42 80 43 31 44
REMARK SMILES IDX 85 45 79 46 81 47 32 48 84 49 78 50 77 51 33 53 65 54 45 55
REMARK SMILES IDX 64 56 46 57 49 58 63 59 82 60 47 61 48 62 62 64 83 65 50 66
REMARK SMILES IDX 34 67 35 68 43 69 36 70 42 71 44 72 41 73 37 74 38 75 39 76
REMARK SMILES IDX 40 77 66 78 67 79 75 80 68 81 74 82 76 83 73 84 69 85 70 86
REMARK SMILES IDX 71 87 72 88 51 89 52 90 60 91 53 92 59 93 61 94 58 95 54 96
REMARK SMILES IDX 55 97 56 98 57 99
REMARK H PARENT 92 28 81 52 49 63
REMARK Flexibility Score: inf
ROOT
ATOM      1  C   UNL A   1      36.939  21.873  25.752  1.00  0.00     0.188 C 
ENDROOT
BRANCH   1   2
ATOM      2  C   UNL A   1      35.959  20.805  25.223  1.00  0.00     0.188 C 
BRANCH   2   3
ATOM      3  O   UNL A   1      34.598  21.152  25.413  1.00  0.00    -0.376 OA
BRANCH   3   4
ATOM      4  C   UNL A   1      33.988  21.829  24.325  1.00  0.00     0.202 C 
BRANCH   4   5
ATOM      5  C   UNL A   1      32.789  22.741  24.646  1.00  0.00     0.261 C 
BRANCH   5   6
ATOM      6  O   UNL A   1      32.951  23.648  25.753  1.00  0.00    -0.460 OA
BRANCH   6   7
ATOM      7  C   UNL A   1      31.838  24.201  26.299  1.00  0.00     0.338 C 
ATOM      8  O   UNL A   1      31.262  23.772  27.286  1.00  0.00    -0.246 OA
BRANCH   7   9
ATOM      9  C   UNL A   1      31.467  25.481  25.590  1.00  0.00     0.067 C 
ATOM     10  C   UNL A   1      30.607  25.447  24.538  1.00  0.00     0.024 C 
BRANCH  10  11
ATOM     11  C   UNL A   1      30.014  26.579  23.778  1.00  0.00    -0.025 A 
ATOM     12  C   UNL A   1      28.792  28.911  22.780  1.00  0.00     0.067 A 
ATOM     13  C   UNL A   1      30.159  28.723  22.610  1.00  0.00     0.021 A 
ATOM     14  C   UNL A   1      28.007  27.891  23.322  1.00  0.00     0.021 A 
ATOM     15  C   UNL A   1      30.754  27.543  23.076  1.00  0.00     0.009 A 
ATOM     16  C   UNL A   1      28.619  26.732  23.813  1.00  0.00     0.009 A 
BRANCH  12  17
ATOM     17  S   UNL A   1      28.043  30.475  22.389  1.00  0.00     0.175 S 
ATOM     18  C   UNL A   1      29.352  31.670  22.509  1.00  0.00     0.163 C 
ATOM     19  O   UNL A   1      27.105  30.778  23.457  1.00  0.00    -0.224 OA
ATOM     20  O   UNL A   1      27.601  30.404  21.012  1.00  0.00    -0.224 OA
ENDBRANCH  12  17
ENDBRANCH  10  11
BRANCH   9  21
ATOM     21  C   UNL A   1      32.083  26.743  26.057  1.00  0.00    -0.011 A 
ATOM     22  C   UNL A   1      31.374  27.559  26.955  1.00  0.00     0.013 A 
ATOM     23  C   UNL A   1      33.419  27.056  25.765  1.00  0.00     0.013 A 
ATOM     24  C   UNL A   1      32.005  28.623  27.594  1.00  0.00     0.047 A 
ATOM     25  C   UNL A   1      34.053  28.121  26.416  1.00  0.00     0.047 A 
ATOM     26  C   UNL A   1      33.344  28.881  27.340  1.00  0.00     0.115 A 
BRANCH  26  27
ATOM     27  O   UNL A   1      33.931  29.875  28.058  1.00  0.00    -0.508 OA
ATOM     28  H   UNL A   1      33.464  30.284  28.760  1.00  0.00     0.293 HD
ENDBRANCH  26  27
ENDBRANCH   9  21
ENDBRANCH   7   9
ENDBRANCH   6   7
ENDBRANCH   5   6
ENDBRANCH   4   5
ENDBRANCH   3   4
ENDBRANCH   2   3
ENDBRANCH   1   2
BRANCH   1  29
ATOM     29  O   UNL A   1      38.304  21.847  25.364  1.00  0.00    -0.376 OA
BRANCH  29  30
ATOM     30  C   UNL A   1      39.297  22.206  26.311  1.00  0.00     0.202 C 
BRANCH  30  31
ATOM     31  C   UNL A   1      40.351  21.187  26.788  1.00  0.00     0.261 C 
BRANCH  31  32
ATOM     32  O   UNL A   1      41.625  21.703  27.209  1.00  0.00    -0.460 OA
BRANCH  32  33
ATOM     33  C   UNL A   1      42.366  22.308  26.248  1.00  0.00     0.338 C 
ATOM     34  O   UNL A   1      42.605  21.872  25.129  1.00  0.00    -0.246 OA
BRANCH  33  35
ATOM     35  C   UNL A   1      42.699  23.687  26.670  1.00  0.00     0.060 A 
ATOM     36  C   UNL A   1      42.937  23.940  28.029  1.00  0.00     0.016 A 
ATOM     37  C   UNL A   1      42.740  24.734  25.748  1.00  0.00     0.016 A 
ATOM     38  C   UNL A   1      43.209  25.237  28.471  1.00  0.00     0.010 A 
ATOM     39  C   UNL A   1      42.981  26.039  26.196  1.00  0.00     0.010 A 
ATOM     40  C   UNL A   1      43.198  26.302  27.561  1.00  0.00    -0.014 A 
BRANCH  40  41
ATOM     41  C   UNL A   1      43.216  27.702  28.062  1.00  0.00     0.031 A 
ATOM     42  C   UNL A   1      44.538  28.420  28.131  1.00  0.00     0.074 A 
ATOM     43  C   UNL A   1      42.089  28.336  28.435  1.00  0.00     0.049 A 
ATOM     44  N   UNL A   1      44.817  29.607  28.601  1.00  0.00    -0.248 NA
ATOM     45  C   UNL A   1      45.698  27.690  27.599  1.00  0.00     0.031 C 
ATOM     46  C   UNL A   1      40.742  27.776  28.359  1.00  0.00     0.029 A 
ATOM     47  N   UNL A   1      41.902  29.592  28.959  1.00  0.00    -0.354 N 
ATOM     48  C   UNL A   1      46.188  29.768  28.428  1.00  0.00     0.074 A 
ATOM     49  C   UNL A   1      46.683  28.541  27.838  1.00  0.00     0.031 C 
ATOM     50  C   UNL A   1      39.866  28.687  28.821  1.00  0.00     0.029 A 
ATOM     51  C   UNL A   1      40.593  29.870  29.281  1.00  0.00     0.049 A 
ATOM     52  H   UNL A   1      42.636  30.234  29.091  1.00  0.00     0.167 HD
ATOM     53  C   UNL A   1      46.963  30.838  28.734  1.00  0.00     0.034 A 
ATOM     54  C   UNL A   1      40.052  30.938  29.906  1.00  0.00     0.034 A 
ATOM     55  C   UNL A   1      46.462  32.044  29.347  1.00  0.00     0.049 A 
ATOM     56  C   UNL A   1      40.953  32.071  30.346  1.00  0.00     0.074 A 
ATOM     57  C   UNL A   1      47.164  33.185  29.699  1.00  0.00     0.029 A 
ATOM     58  N   UNL A   1      45.142  32.263  29.718  1.00  0.00    -0.354 N 
ATOM     59  N   UNL A   1      42.250  32.211  30.183  1.00  0.00    -0.248 NA
ATOM     60  C   UNL A   1      40.317  33.192  31.053  1.00  0.00     0.031 C 
ATOM     61  C   UNL A   1      46.288  34.052  30.360  1.00  0.00     0.029 A 
ATOM     62  C   UNL A   1      45.017  33.501  30.332  1.00  0.00     0.049 A 
ATOM     63  H   UNL A   1      44.402  31.631  29.568  1.00  0.00     0.167 HD
ATOM     64  C   UNL A   1      42.572  33.451  30.734  1.00  0.00     0.074 A 
ATOM     65  C   UNL A   1      41.335  34.021  31.222  1.00  0.00     0.031 C 
ATOM     66  C   UNL A   1      43.780  34.065  30.822  1.00  0.00     0.034 A 
BRANCH  53  67
ATOM     67  C   UNL A   1      48.444  30.718  28.468  1.00  0.00     0.023 A 
ATOM     68  C   UNL A   1      49.298  30.012  29.333  1.00  0.00     0.031 A 
ATOM     69  C   UNL A   1      49.015  31.349  27.349  1.00  0.00     0.131 A 
ATOM     70  C   UNL A   1      50.682  30.016  29.105  1.00  0.00     0.055 A 
ATOM     71  C   UNL A   1      50.383  31.276  27.080  1.00  0.00     0.041 A 
ATOM     72  F   UNL A   1      48.255  32.060  26.502  1.00  0.00    -0.206 F 
ATOM     73  C   UNL A   1      51.229  30.621  27.970  1.00  0.00     0.022 A 
BRANCH  70  74
ATOM     74  S   UNL A   1      51.773  29.358  30.395  1.00  0.00     0.124 S 
ATOM     75  O   UNL A   1      52.187  28.085  29.811  1.00  0.00    -0.237 OA
ATOM     76  O   UNL A   1      52.805  30.384  30.489  1.00  0.00    -0.237 OA
ATOM     77  O   UNL A   1      50.897  29.245  31.560  1.00  0.00    -0.744 OA
ENDBRANCH  70  74
ENDBRANCH  53  67
BRANCH  54  78
ATOM     78  C   UNL A   1      38.591  30.978  30.220  1.00  0.00     0.023 A 
ATOM     79  C   UNL A   1      37.694  31.712  29.426  1.00  0.00     0.031 A 
ATOM     80  C   UNL A   1      38.083  30.348  31.370  1.00  0.00     0.131 A 
ATOM     81  C   UNL A   1      36.353  31.843  29.820  1.00  0.00     0.055 A 
ATOM     82  C   UNL A   1      36.734  30.428  31.723  1.00  0.00     0.041 A 
ATOM     83  F   UNL A   1      38.894  29.642  32.174  1.00  0.00    -0.206 F 
ATOM     84  C   UNL A   1      35.864  31.192  30.954  1.00  0.00     0.022 A 
BRANCH  81  85
ATOM     85  S   UNL A   1      35.276  32.964  28.885  1.00  0.00     0.124 S 
ATOM     86  O   UNL A   1      35.943  34.246  29.079  1.00  0.00    -0.237 OA
ATOM     87  O   UNL A   1      35.345  32.401  27.540  1.00  0.00    -0.237 OA
ATOM     88  O   UNL A   1      33.981  32.826  29.548  1.00  0.00    -0.744 OA
ENDBRANCH  81  85
ENDBRANCH  54  78
BRANCH  66  89
ATOM     89  C   UNL A   1      43.818  35.456  31.413  1.00  0.00     0.023 A 
ATOM     90  C   UNL A   1      43.806  36.613  30.613  1.00  0.00     0.031 A 
ATOM     91  C   UNL A   1      43.866  35.626  32.810  1.00  0.00     0.131 A 
ATOM     92  C   UNL A   1      43.895  37.880  31.211  1.00  0.00     0.055 A 
ATOM     93  C   UNL A   1      43.885  36.890  33.402  1.00  0.00     0.041 A 
ATOM     94  F   UNL A   1      43.887  34.560  33.627  1.00  0.00    -0.206 F 
ATOM     95  C   UNL A   1      43.914  38.026  32.600  1.00  0.00     0.022 A 
BRANCH  92  96
ATOM     96  S   UNL A   1      44.089  39.338  30.147  1.00  0.00     0.124 S 
ATOM     97  O   UNL A   1      43.972  40.431  31.107  1.00  0.00    -0.237 OA
ATOM     98  O   UNL A   1      45.415  39.132  29.574  1.00  0.00    -0.237 OA
ATOM     99  O   UNL A   1      42.981  39.222  29.201  1.00  0.00    -0.744 OA
ENDBRANCH  92  96
ENDBRANCH  66  89
ENDBRANCH  40  41
ENDBRANCH  33  35
ENDBRANCH  32  33
ENDBRANCH  31  32
ENDBRANCH  30  31
ENDBRANCH  29  30
ENDBRANCH   1  29
TORSDOF 24
ENDMDL
