MODEL 1
REMARK VINA RESULT:     -10.3      0.000      0.000
REMARK SMILES Nn1c(S[C@@H](C(=O)OCCOCCOCCOC(=O)c2ccc(-c3c4nc(c(-c5cc(S(=O)(=O)[O-])ccc5F)c5ccc([nH]5)c(-c5cc(S(=O)(=O)[O-])ccc5F)c5nc(c(-c6cc(S(=O)(=O)[O-])ccc6F)c6ccc3[nH]6)C=C5)C=C4)cc2)c2ccccc2)nc2ccc(Br)cc2c1=O
REMARK SMILES IDX 12 1 11 2 10 3 9 4 8 5 6 6 7 7 5 8 4 9 3 10 2 11 97 12 89 13
REMARK SMILES IDX 96 14 98 15 90 16 95 17 91 18 93 19 92 20 94 21 1 22 83 25
REMARK SMILES IDX 84 26 88 27 85 28 87 29 86 30 13 31 14 32 15 33 16 34 17 35
REMARK SMILES IDX 18 36 19 37 20 38 21 39 82 40 22 41 81 42 23 43 24 44 25 45
REMARK SMILES IDX 75 46 26 47 80 48 74 49 76 50 27 51 79 52 73 53 72 54 28 56
REMARK SMILES IDX 60 57 40 58 59 59 41 60 44 61 58 62 77 63 42 64 43 65 57 67
REMARK SMILES IDX 78 68 45 69 29 70 30 71 38 72 31 73 37 74 39 75 36 76 32 77
REMARK SMILES IDX 33 78 34 79 35 80 61 81 62 82 70 83 63 84 69 85 71 86 68 87
REMARK SMILES IDX 64 88 65 89 66 90 67 91 46 92 47 93 55 94 48 95 54 96 56 97
REMARK SMILES IDX 53 98 49 99 50 100 51 101 52 102
REMARK H PARENT 1 23 1 24 76 55 44 66
REMARK Flexibility Score: inf
ROOT
ATOM      1  C   UNL A   1      36.721  29.720  28.444  1.00  0.00     0.188 C 
ENDROOT
BRANCH   1   2
ATOM      2  O   UNL A   1      35.470  30.136  27.908  1.00  0.00    -0.376 OA
BRANCH   2   3
ATOM      3  C   UNL A   1      34.723  29.142  27.219  1.00  0.00     0.202 C 
BRANCH   3   4
ATOM      4  C   UNL A   1      33.404  29.601  26.577  1.00  0.00     0.261 C 
BRANCH   4   5
ATOM      5  O   UNL A   1      33.221  29.363  25.143  1.00  0.00    -0.462 OA
BRANCH   5   6
ATOM      6  C   UNL A   1      31.908  29.393  24.745  1.00  0.00     0.324 C 
ATOM      7  O   UNL A   1      31.132  30.205  25.251  1.00  0.00    -0.251 OA
BRANCH   6   8
ATOM      8  C   UNL A   1      31.416  28.285  23.745  1.00  0.00     0.194 C 
BRANCH   8   9
ATOM      9  S   UNL A   1      32.628  27.169  22.966  1.00  0.00    -0.066 SA
BRANCH   9  10
ATOM     10  C   UNL A   1      32.682  25.519  23.592  1.00  0.00     0.191 A 
ATOM     11  N   UNL A   1      32.702  25.278  24.952  1.00  0.00    -0.202 N 
ATOM     12  C   UNL A   1      32.241  24.058  25.395  1.00  0.00     0.280 A 
ATOM     13  N   UNL A   1      32.568  24.540  22.728  1.00  0.00    -0.222 NA
ATOM     14  C   UNL A   1      32.504  22.919  24.564  1.00  0.00     0.069 A 
ATOM     15  O   UNL A   1      31.485  23.883  26.340  1.00  0.00    -0.267 OA
ATOM     16  C   UNL A   1      32.538  23.198  23.208  1.00  0.00     0.079 A 
ATOM     17  C   UNL A   1      32.503  21.638  25.133  1.00  0.00     0.031 A 
ATOM     18  C   UNL A   1      32.461  22.087  22.370  1.00  0.00     0.030 A 
ATOM     19  C   UNL A   1      32.456  20.556  24.280  1.00  0.00     0.018 A 
ATOM     20  C   UNL A   1      32.406  20.775  22.903  1.00  0.00     0.018 A 
ATOM     21  Br  UNL A   1      32.376  18.812  24.997  1.00  0.00    -0.051 Br
BRANCH  11  22
ATOM     22  N   UNL A   1      32.787  26.306  25.888  1.00  0.00    -0.334 N 
ATOM     23  H   UNL A   1      33.594  26.870  25.928  1.00  0.00     0.178 HD
ATOM     24  H   UNL A   1      32.042  26.469  26.510  1.00  0.00     0.178 HD
ENDBRANCH  11  22
ENDBRANCH   9  10
ENDBRANCH   8   9
BRANCH   8  25
ATOM     25  C   UNL A   1      30.158  28.753  22.981  1.00  0.00    -0.023 A 
ATOM     26  C   UNL A   1      30.105  29.849  22.114  1.00  0.00     0.005 A 
ATOM     27  C   UNL A   1      28.921  28.153  23.328  1.00  0.00     0.005 A 
ATOM     28  C   UNL A   1      28.878  30.421  21.750  1.00  0.00     0.000 A 
ATOM     29  C   UNL A   1      27.698  28.724  22.972  1.00  0.00     0.000 A 
ATOM     30  C   UNL A   1      27.679  29.881  22.208  1.00  0.00     0.000 A 
ENDBRANCH   8  25
ENDBRANCH   6   8
ENDBRANCH   5   6
ENDBRANCH   4   5
ENDBRANCH   3   4
ENDBRANCH   2   3
ENDBRANCH   1   2
BRANCH   1  31
ATOM     31  C   UNL A   1      36.702  29.411  29.943  1.00  0.00     0.188 C 
BRANCH  31  32
ATOM     32  O   UNL A   1      36.170  30.554  30.601  1.00  0.00    -0.376 OA
BRANCH  32  33
ATOM     33  C   UNL A   1      36.719  30.778  31.886  1.00  0.00     0.202 C 
BRANCH  33  34
ATOM     34  C   UNL A   1      38.085  31.497  31.979  1.00  0.00     0.261 C 
BRANCH  34  35
ATOM     35  O   UNL A   1      38.105  32.847  32.487  1.00  0.00    -0.460 OA
BRANCH  35  36
ATOM     36  C   UNL A   1      37.901  33.766  31.498  1.00  0.00     0.338 C 
ATOM     37  O   UNL A   1      36.804  34.140  31.090  1.00  0.00    -0.246 OA
BRANCH  36  38
ATOM     38  C   UNL A   1      39.153  34.290  30.901  1.00  0.00     0.060 A 
ATOM     39  C   UNL A   1      40.341  34.251  31.631  1.00  0.00     0.016 A 
ATOM     40  C   UNL A   1      39.224  34.607  29.546  1.00  0.00     0.016 A 
ATOM     41  C   UNL A   1      41.560  34.552  31.001  1.00  0.00     0.010 A 
ATOM     42  C   UNL A   1      40.416  34.907  28.909  1.00  0.00     0.010 A 
ATOM     43  C   UNL A   1      41.597  34.878  29.634  1.00  0.00    -0.014 A 
BRANCH  43  44
ATOM     44  C   UNL A   1      42.853  35.054  28.887  1.00  0.00     0.031 A 
ATOM     45  C   UNL A   1      43.216  36.381  28.304  1.00  0.00     0.074 A 
ATOM     46  C   UNL A   1      43.571  33.960  28.572  1.00  0.00     0.049 A 
ATOM     47  N   UNL A   1      44.360  36.768  27.815  1.00  0.00    -0.248 NA
ATOM     48  C   UNL A   1      42.149  37.394  28.223  1.00  0.00     0.031 C 
ATOM     49  C   UNL A   1      43.165  32.583  28.864  1.00  0.00     0.029 A 
ATOM     50  N   UNL A   1      44.761  33.826  27.908  1.00  0.00    -0.354 N 
ATOM     51  C   UNL A   1      44.177  38.090  27.433  1.00  0.00     0.074 A 
ATOM     52  C   UNL A   1      42.782  38.404  27.640  1.00  0.00     0.031 C 
ATOM     53  C   UNL A   1      44.097  31.743  28.387  1.00  0.00     0.029 A 
ATOM     54  C   UNL A   1      45.186  32.523  27.804  1.00  0.00     0.049 A 
ATOM     55  H   UNL A   1      45.263  34.589  27.541  1.00  0.00     0.167 HD
ATOM     56  C   UNL A   1      45.120  38.959  27.002  1.00  0.00     0.034 A 
ATOM     57  C   UNL A   1      46.352  32.024  27.349  1.00  0.00     0.034 A 
ATOM     58  C   UNL A   1      46.488  38.565  26.778  1.00  0.00     0.049 A 
ATOM     59  C   UNL A   1      47.437  33.004  26.977  1.00  0.00     0.074 A 
ATOM     60  C   UNL A   1      47.578  39.364  26.493  1.00  0.00     0.029 A 
ATOM     61  N   UNL A   1      46.942  37.253  26.784  1.00  0.00    -0.354 N 
ATOM     62  N   UNL A   1      47.369  34.315  26.910  1.00  0.00    -0.248 NA
ATOM     63  C   UNL A   1      48.766  32.459  26.678  1.00  0.00     0.031 C 
ATOM     64  C   UNL A   1      48.674  38.530  26.259  1.00  0.00     0.029 A 
ATOM     65  C   UNL A   1      48.288  37.214  26.472  1.00  0.00     0.049 A 
ATOM     66  H   UNL A   1      46.387  36.464  26.984  1.00  0.00     0.167 HD
ATOM     67  C   UNL A   1      48.649  34.754  26.588  1.00  0.00     0.074 A 
ATOM     68  C   UNL A   1      49.477  33.567  26.498  1.00  0.00     0.031 C 
ATOM     69  C   UNL A   1      49.096  36.019  26.384  1.00  0.00     0.034 A 
BRANCH  56  70
ATOM     70  C   UNL A   1      44.759  40.415  26.832  1.00  0.00     0.023 A 
ATOM     71  C   UNL A   1      44.248  40.891  25.610  1.00  0.00     0.031 A 
ATOM     72  C   UNL A   1      45.094  41.360  27.822  1.00  0.00     0.131 A 
ATOM     73  C   UNL A   1      44.127  42.272  25.396  1.00  0.00     0.055 A 
ATOM     74  C   UNL A   1      44.930  42.731  27.619  1.00  0.00     0.041 A 
ATOM     75  F   UNL A   1      45.603  40.963  29.000  1.00  0.00    -0.206 F 
ATOM     76  C   UNL A   1      44.460  43.192  26.396  1.00  0.00     0.022 A 
BRANCH  73  77
ATOM     77  S   UNL A   1      43.610  42.934  23.789  1.00  0.00     0.124 S 
ATOM     78  O   UNL A   1      43.549  44.370  24.060  1.00  0.00    -0.237 OA
ATOM     79  O   UNL A   1      44.704  42.511  22.919  1.00  0.00    -0.237 OA
ATOM     80  O   UNL A   1      42.322  42.296  23.544  1.00  0.00    -0.744 OA
ENDBRANCH  73  77
ENDBRANCH  56  70
BRANCH  57  81
ATOM     81  C   UNL A   1      46.575  30.552  27.426  1.00  0.00     0.023 A 
ATOM     82  C   UNL A   1      46.301  29.720  26.325  1.00  0.00     0.031 A 
ATOM     83  C   UNL A   1      46.891  29.944  28.653  1.00  0.00     0.131 A 
ATOM     84  C   UNL A   1      46.289  28.327  26.491  1.00  0.00     0.055 A 
ATOM     85  C   UNL A   1      46.939  28.557  28.797  1.00  0.00     0.041 A 
ATOM     86  F   UNL A   1      47.129  30.696  29.739  1.00  0.00    -0.206 F 
ATOM     87  C   UNL A   1      46.619  27.740  27.717  1.00  0.00     0.022 A 
BRANCH  84  88
ATOM     88  S   UNL A   1      45.700  27.234  25.167  1.00  0.00     0.124 S 
ATOM     89  O   UNL A   1      46.194  27.910  23.971  1.00  0.00    -0.237 OA
ATOM     90  O   UNL A   1      46.362  25.975  25.499  1.00  0.00    -0.237 OA
ATOM     91  O   UNL A   1      44.250  27.235  25.340  1.00  0.00    -0.744 OA
ENDBRANCH  84  88
ENDBRANCH  57  81
BRANCH  69  92
ATOM     92  C   UNL A   1      50.544  36.217  26.008  1.00  0.00     0.023 A 
ATOM     93  C   UNL A   1      51.524  36.319  27.013  1.00  0.00     0.031 A 
ATOM     94  C   UNL A   1      50.917  36.491  24.681  1.00  0.00     0.131 A 
ATOM     95  C   UNL A   1      52.817  36.740  26.682  1.00  0.00     0.055 A 
ATOM     96  C   UNL A   1      52.221  36.857  24.350  1.00  0.00     0.041 A 
ATOM     97  F   UNL A   1      50.013  36.419  23.690  1.00  0.00    -0.206 F 
ATOM     98  C   UNL A   1      53.173  37.001  25.355  1.00  0.00     0.022 A 
BRANCH  95  99
ATOM     99  S   UNL A   1      54.053  37.065  27.970  1.00  0.00     0.124 S 
ATOM    100  O   UNL A   1      55.305  36.911  27.232  1.00  0.00    -0.237 OA
ATOM    101  O   UNL A   1      53.728  38.431  28.369  1.00  0.00    -0.237 OA
ATOM    102  O   UNL A   1      53.795  36.039  28.974  1.00  0.00    -0.744 OA
ENDBRANCH  95  99
ENDBRANCH  69  92
ENDBRANCH  43  44
ENDBRANCH  36  38
ENDBRANCH  35  36
ENDBRANCH  34  35
ENDBRANCH  33  34
ENDBRANCH  32  33
ENDBRANCH  31  32
ENDBRANCH   1  31
TORSDOF 24
ENDMDL
MODEL 2
REMARK VINA RESULT:      -9.9      6.665     14.176
REMARK SMILES Nn1c(S[C@@H](C(=O)OCCOCCOCCOC(=O)c2ccc(-c3c4nc(c(-c5cc(S(=O)(=O)[O-])ccc5F)c5ccc([nH]5)c(-c5cc(S(=O)(=O)[O-])ccc5F)c5nc(c(-c6cc(S(=O)(=O)[O-])ccc6F)c6ccc3[nH]6)C=C5)C=C4)cc2)c2ccccc2)nc2ccc(Br)cc2c1=O
REMARK SMILES IDX 12 1 11 2 10 3 9 4 8 5 6 6 7 7 5 8 4 9 3 10 2 11 97 12 89 13
REMARK SMILES IDX 96 14 98 15 90 16 95 17 91 18 93 19 92 20 94 21 1 22 83 25
REMARK SMILES IDX 84 26 88 27 85 28 87 29 86 30 13 31 14 32 15 33 16 34 17 35
REMARK SMILES IDX 18 36 19 37 20 38 21 39 82 40 22 41 81 42 23 43 24 44 25 45
REMARK SMILES IDX 75 46 26 47 80 48 74 49 76 50 27 51 79 52 73 53 72 54 28 56
REMARK SMILES IDX 60 57 40 58 59 59 41 60 44 61 58 62 77 63 42 64 43 65 57 67
REMARK SMILES IDX 78 68 45 69 29 70 30 71 38 72 31 73 37 74 39 75 36 76 32 77
REMARK SMILES IDX 33 78 34 79 35 80 61 81 62 82 70 83 63 84 69 85 71 86 68 87
REMARK SMILES IDX 64 88 65 89 66 90 67 91 46 92 47 93 55 94 48 95 54 96 56 97
REMARK SMILES IDX 53 98 49 99 50 100 51 101 52 102
REMARK H PARENT 1 23 1 24 76 55 44 66
REMARK Flexibility Score: inf
ROOT
ATOM      1  C   UNL A   1      49.921  39.645  28.703  1.00  0.00     0.188 C 
ENDROOT
BRANCH   1   2
ATOM      2  O   UNL A   1      49.018  39.329  29.758  1.00  0.00    -0.376 OA
BRANCH   2   3
ATOM      3  C   UNL A   1      47.664  39.708  29.555  1.00  0.00     0.202 C 
BRANCH   3   4
ATOM      4  C   UNL A   1      47.261  40.058  28.113  1.00  0.00     0.261 C 
BRANCH   4   5
ATOM      5  O   UNL A   1      46.892  38.959  27.219  1.00  0.00    -0.462 OA
BRANCH   5   6
ATOM      6  C   UNL A   1      46.192  39.363  26.111  1.00  0.00     0.324 C 
ATOM      7  O   UNL A   1      46.797  39.661  25.079  1.00  0.00    -0.251 OA
BRANCH   6   8
ATOM      8  C   UNL A   1      44.639  39.561  26.251  1.00  0.00     0.194 C 
BRANCH   8   9
ATOM      9  S   UNL A   1      43.942  41.244  26.283  1.00  0.00    -0.066 SA
BRANCH   9  10
ATOM     10  C   UNL A   1      43.909  42.103  24.741  1.00  0.00     0.191 A 
ATOM     11  N   UNL A   1      45.045  42.711  24.245  1.00  0.00    -0.202 N 
ATOM     12  C   UNL A   1      45.126  42.908  22.884  1.00  0.00     0.280 A 
ATOM     13  N   UNL A   1      42.810  42.027  24.030  1.00  0.00    -0.222 NA
ATOM     14  C   UNL A   1      43.908  43.225  22.196  1.00  0.00     0.069 A 
ATOM     15  O   UNL A   1      46.102  42.672  22.187  1.00  0.00    -0.267 OA
ATOM     16  C   UNL A   1      42.775  42.652  22.749  1.00  0.00     0.079 A 
ATOM     17  C   UNL A   1      43.967  43.886  20.961  1.00  0.00     0.031 A 
ATOM     18  C   UNL A   1      41.644  42.664  21.934  1.00  0.00     0.030 A 
ATOM     19  C   UNL A   1      42.826  43.909  20.189  1.00  0.00     0.018 A 
ATOM     20  C   UNL A   1      41.673  43.276  20.656  1.00  0.00     0.018 A 
ATOM     21  Br  UNL A   1      42.874  44.719  18.485  1.00  0.00    -0.051 Br
BRANCH  11  22
ATOM     22  N   UNL A   1      46.234  42.771  24.969  1.00  0.00    -0.334 N 
ATOM     23  H   UNL A   1      46.877  43.498  24.800  1.00  0.00     0.178 HD
ATOM     24  H   UNL A   1      46.431  42.088  25.650  1.00  0.00     0.178 HD
ENDBRANCH  11  22
ENDBRANCH   9  10
ENDBRANCH   8   9
BRANCH   8  25
ATOM     25  C   UNL A   1      44.013  38.422  27.086  1.00  0.00    -0.023 A 
ATOM     26  C   UNL A   1      44.375  37.073  27.005  1.00  0.00     0.005 A 
ATOM     27  C   UNL A   1      42.859  38.729  27.849  1.00  0.00     0.005 A 
ATOM     28  C   UNL A   1      43.536  36.071  27.513  1.00  0.00     0.000 A 
ATOM     29  C   UNL A   1      42.019  37.734  28.350  1.00  0.00     0.000 A 
ATOM     30  C   UNL A   1      42.343  36.400  28.152  1.00  0.00     0.000 A 
ENDBRANCH   8  25
ENDBRANCH   6   8
ENDBRANCH   5   6
ENDBRANCH   4   5
ENDBRANCH   3   4
ENDBRANCH   2   3
ENDBRANCH   1   2
BRANCH   1  31
ATOM     31  C   UNL A   1      50.622  38.436  28.079  1.00  0.00     0.188 C 
BRANCH  31  32
ATOM     32  O   UNL A   1      51.245  38.883  26.881  1.00  0.00    -0.376 OA
BRANCH  32  33
ATOM     33  C   UNL A   1      52.057  37.904  26.262  1.00  0.00     0.202 C 
BRANCH  33  34
ATOM     34  C   UNL A   1      51.511  36.460  26.163  1.00  0.00     0.261 C 
BRANCH  34  35
ATOM     35  O   UNL A   1      51.227  35.935  24.851  1.00  0.00    -0.460 OA
BRANCH  35  36
ATOM     36  C   UNL A   1      50.744  34.659  24.907  1.00  0.00     0.338 C 
ATOM     37  O   UNL A   1      51.183  33.704  24.270  1.00  0.00    -0.246 OA
BRANCH  36  38
ATOM     38  C   UNL A   1      49.580  34.499  25.812  1.00  0.00     0.060 A 
ATOM     39  C   UNL A   1      48.320  34.935  25.408  1.00  0.00     0.016 A 
ATOM     40  C   UNL A   1      49.668  33.715  26.961  1.00  0.00     0.016 A 
ATOM     41  C   UNL A   1      47.186  34.603  26.168  1.00  0.00     0.010 A 
ATOM     42  C   UNL A   1      48.562  33.378  27.723  1.00  0.00     0.010 A 
ATOM     43  C   UNL A   1      47.308  33.818  27.328  1.00  0.00    -0.014 A 
BRANCH  43  44
ATOM     44  C   UNL A   1      46.147  33.312  28.078  1.00  0.00     0.031 A 
ATOM     45  C   UNL A   1      45.631  34.046  29.273  1.00  0.00     0.074 A 
ATOM     46  C   UNL A   1      45.682  32.082  27.788  1.00  0.00     0.049 A 
ATOM     47  N   UNL A   1      44.508  33.870  29.911  1.00  0.00    -0.248 NA
ATOM     48  C   UNL A   1      46.502  35.083  29.853  1.00  0.00     0.031 C 
ATOM     49  C   UNL A   1      46.286  31.170  26.814  1.00  0.00     0.029 A 
ATOM     50  N   UNL A   1      44.630  31.374  28.304  1.00  0.00    -0.354 N 
ATOM     51  C   UNL A   1      44.500  34.820  30.923  1.00  0.00     0.074 A 
ATOM     52  C   UNL A   1      45.778  35.493  30.887  1.00  0.00     0.031 C 
ATOM     53  C   UNL A   1      45.588  30.024  26.799  1.00  0.00     0.029 A 
ATOM     54  C   UNL A   1      44.461  30.142  27.721  1.00  0.00     0.049 A 
ATOM     55  H   UNL A   1      44.051  31.716  29.023  1.00  0.00     0.167 HD
ATOM     56  C   UNL A   1      43.480  35.121  31.760  1.00  0.00     0.034 A 
ATOM     57  C   UNL A   1      43.470  29.240  27.868  1.00  0.00     0.034 A 
ATOM     58  C   UNL A   1      42.244  34.379  31.768  1.00  0.00     0.049 A 
ATOM     59  C   UNL A   1      42.285  29.632  28.715  1.00  0.00     0.074 A 
ATOM     60  C   UNL A   1      41.074  34.664  32.446  1.00  0.00     0.029 A 
ATOM     61  N   UNL A   1      42.034  33.188  31.086  1.00  0.00    -0.354 N 
ATOM     62  N   UNL A   1      42.126  30.707  29.454  1.00  0.00    -0.248 NA
ATOM     63  C   UNL A   1      41.123  28.735  28.707  1.00  0.00     0.031 C 
ATOM     64  C   UNL A   1      40.184  33.609  32.229  1.00  0.00     0.029 A 
ATOM     65  C   UNL A   1      40.769  32.704  31.355  1.00  0.00     0.049 A 
ATOM     66  H   UNL A   1      42.691  32.753  30.495  1.00  0.00     0.167 HD
ATOM     67  C   UNL A   1      40.840  30.630  29.979  1.00  0.00     0.074 A 
ATOM     68  C   UNL A   1      40.255  29.413  29.450  1.00  0.00     0.031 C 
ATOM     69  C   UNL A   1      40.204  31.485  30.820  1.00  0.00     0.034 A 
BRANCH  56  70
ATOM     70  C   UNL A   1      43.594  36.329  32.658  1.00  0.00     0.023 A 
ATOM     71  C   UNL A   1      43.440  37.628  32.140  1.00  0.00     0.031 A 
ATOM     72  C   UNL A   1      44.037  36.196  33.989  1.00  0.00     0.131 A 
ATOM     73  C   UNL A   1      43.766  38.738  32.932  1.00  0.00     0.055 A 
ATOM     74  C   UNL A   1      44.317  37.306  34.788  1.00  0.00     0.041 A 
ATOM     75  F   UNL A   1      44.220  34.981  34.530  1.00  0.00    -0.206 F 
ATOM     76  C   UNL A   1      44.198  38.583  34.254  1.00  0.00     0.022 A 
BRANCH  73  77
ATOM     77  S   UNL A   1      43.720  40.422  32.260  1.00  0.00     0.124 S 
ATOM     78  O   UNL A   1      42.419  40.898  32.727  1.00  0.00    -0.237 OA
ATOM     79  O   UNL A   1      44.876  41.039  32.905  1.00  0.00    -0.237 OA
ATOM     80  O   UNL A   1      43.826  40.227  30.819  1.00  0.00    -0.744 OA
ENDBRANCH  73  77
ENDBRANCH  56  70
BRANCH  57  81
ATOM     81  C   UNL A   1      43.506  28.002  27.038  1.00  0.00     0.023 A 
ATOM     82  C   UNL A   1      44.338  26.922  27.386  1.00  0.00     0.031 A 
ATOM     83  C   UNL A   1      42.846  27.957  25.799  1.00  0.00     0.131 A 
ATOM     84  C   UNL A   1      44.535  25.874  26.475  1.00  0.00     0.055 A 
ATOM     85  C   UNL A   1      42.997  26.883  24.921  1.00  0.00     0.041 A 
ATOM     86  F   UNL A   1      42.067  28.979  25.410  1.00  0.00    -0.206 F 
ATOM     87  C   UNL A   1      43.860  25.842  25.250  1.00  0.00     0.022 A 
BRANCH  84  88
ATOM     88  S   UNL A   1      45.788  24.595  26.778  1.00  0.00     0.124 S 
ATOM     89  O   UNL A   1      46.243  24.287  25.426  1.00  0.00    -0.237 OA
ATOM     90  O   UNL A   1      46.747  25.308  27.619  1.00  0.00    -0.237 OA
ATOM     91  O   UNL A   1      45.042  23.536  27.452  1.00  0.00    -0.744 OA
ENDBRANCH  84  88
ENDBRANCH  57  81
BRANCH  69  92
ATOM     92  C   UNL A   1      38.805  31.143  31.269  1.00  0.00     0.023 A 
ATOM     93  C   UNL A   1      37.704  31.828  30.720  1.00  0.00     0.031 A 
ATOM     94  C   UNL A   1      38.583  30.286  32.360  1.00  0.00     0.131 A 
ATOM     95  C   UNL A   1      36.438  31.686  31.300  1.00  0.00     0.055 A 
ATOM     96  C   UNL A   1      37.309  30.107  32.900  1.00  0.00     0.041 A 
ATOM     97  F   UNL A   1      39.604  29.622  32.924  1.00  0.00    -0.206 F 
ATOM     98  C   UNL A   1      36.234  30.823  32.382  1.00  0.00     0.022 A 
BRANCH  95  99
ATOM     99  S   UNL A   1      35.036  32.693  30.743  1.00  0.00     0.124 S 
ATOM    100  O   UNL A   1      34.651  32.017  29.506  1.00  0.00    -0.237 OA
ATOM    101  O   UNL A   1      34.096  32.548  31.851  1.00  0.00    -0.237 OA
ATOM    102  O   UNL A   1      35.604  34.025  30.572  1.00  0.00    -0.744 OA
ENDBRANCH  95  99
ENDBRANCH  69  92
ENDBRANCH  43  44
ENDBRANCH  36  38
ENDBRANCH  35  36
ENDBRANCH  34  35
ENDBRANCH  33  34
ENDBRANCH  32  33
ENDBRANCH  31  32
ENDBRANCH   1  31
TORSDOF 24
ENDMDL
MODEL 3
REMARK VINA RESULT:      -9.8      1.710      2.104
REMARK SMILES Nn1c(S[C@@H](C(=O)OCCOCCOCCOC(=O)c2ccc(-c3c4nc(c(-c5cc(S(=O)(=O)[O-])ccc5F)c5ccc([nH]5)c(-c5cc(S(=O)(=O)[O-])ccc5F)c5nc(c(-c6cc(S(=O)(=O)[O-])ccc6F)c6ccc3[nH]6)C=C5)C=C4)cc2)c2ccccc2)nc2ccc(Br)cc2c1=O
REMARK SMILES IDX 12 1 11 2 10 3 9 4 8 5 6 6 7 7 5 8 4 9 3 10 2 11 97 12 89 13
REMARK SMILES IDX 96 14 98 15 90 16 95 17 91 18 93 19 92 20 94 21 1 22 83 25
REMARK SMILES IDX 84 26 88 27 85 28 87 29 86 30 13 31 14 32 15 33 16 34 17 35
REMARK SMILES IDX 18 36 19 37 20 38 21 39 82 40 22 41 81 42 23 43 24 44 25 45
REMARK SMILES IDX 75 46 26 47 80 48 74 49 76 50 27 51 79 52 73 53 72 54 28 56
REMARK SMILES IDX 60 57 40 58 59 59 41 60 44 61 58 62 77 63 42 64 43 65 57 67
REMARK SMILES IDX 78 68 45 69 29 70 30 71 38 72 31 73 37 74 39 75 36 76 32 77
REMARK SMILES IDX 33 78 34 79 35 80 61 81 62 82 70 83 63 84 69 85 71 86 68 87
REMARK SMILES IDX 64 88 65 89 66 90 67 91 46 92 47 93 55 94 48 95 54 96 56 97
REMARK SMILES IDX 53 98 49 99 50 100 51 101 52 102
REMARK H PARENT 1 23 1 24 76 55 44 66
REMARK Flexibility Score: inf
ROOT
ATOM      1  C   UNL A   1      37.055  29.682  28.438  1.00  0.00     0.188 C 
ENDROOT
BRANCH   1   2
ATOM      2  O   UNL A   1      35.896  30.272  27.859  1.00  0.00    -0.376 OA
BRANCH   2   3
ATOM      3  C   UNL A   1      34.929  29.369  27.339  1.00  0.00     0.202 C 
BRANCH   3   4
ATOM      4  C   UNL A   1      33.717  29.998  26.633  1.00  0.00     0.261 C 
BRANCH   4   5
ATOM      5  O   UNL A   1      33.229  29.358  25.409  1.00  0.00    -0.462 OA
BRANCH   5   6
ATOM      6  C   UNL A   1      31.890  29.557  25.182  1.00  0.00     0.324 C 
ATOM      7  O   UNL A   1      31.227  30.226  25.975  1.00  0.00    -0.251 OA
BRANCH   6   8
ATOM      8  C   UNL A   1      31.227  28.799  23.976  1.00  0.00     0.194 C 
BRANCH   8   9
ATOM      9  S   UNL A   1      32.274  27.886  22.796  1.00  0.00    -0.066 SA
BRANCH   9  10
ATOM     10  C   UNL A   1      32.248  26.126  22.932  1.00  0.00     0.191 A 
ATOM     11  N   UNL A   1      32.256  25.329  21.804  1.00  0.00    -0.202 N 
ATOM     12  C   UNL A   1      32.737  24.045  21.928  1.00  0.00     0.280 A 
ATOM     13  N   UNL A   1      32.356  25.609  24.132  1.00  0.00    -0.222 NA
ATOM     14  C   UNL A   1      32.470  23.363  23.161  1.00  0.00     0.069 A 
ATOM     15  O   UNL A   1      33.512  23.497  21.157  1.00  0.00    -0.267 OA
ATOM     16  C   UNL A   1      32.408  24.192  24.269  1.00  0.00     0.079 A 
ATOM     17  C   UNL A   1      32.495  21.962  23.192  1.00  0.00     0.031 A 
ATOM     18  C   UNL A   1      32.481  23.545  25.501  1.00  0.00     0.030 A 
ATOM     19  C   UNL A   1      32.536  21.347  24.425  1.00  0.00     0.018 A 
ATOM     20  C   UNL A   1      32.558  22.131  25.579  1.00  0.00     0.018 A 
ATOM     21  Br  UNL A   1      32.647  19.464  24.520  1.00  0.00    -0.051 Br
BRANCH  11  22
ATOM     22  N   UNL A   1      32.178  25.859  20.517  1.00  0.00    -0.334 N 
ATOM     23  H   UNL A   1      32.433  25.308  19.742  1.00  0.00     0.178 HD
ATOM     24  H   UNL A   1      31.869  26.784  20.384  1.00  0.00     0.178 HD
ENDBRANCH  11  22
ENDBRANCH   9  10
ENDBRANCH   8   9
BRANCH   8  25
ATOM     25  C   UNL A   1      29.945  29.524  23.508  1.00  0.00    -0.023 A 
ATOM     26  C   UNL A   1      29.678  30.884  23.694  1.00  0.00     0.005 A 
ATOM     27  C   UNL A   1      28.878  28.723  23.030  1.00  0.00     0.005 A 
ATOM     28  C   UNL A   1      28.374  31.385  23.575  1.00  0.00     0.000 A 
ATOM     29  C   UNL A   1      27.578  29.217  22.916  1.00  0.00     0.000 A 
ATOM     30  C   UNL A   1      27.321  30.545  23.221  1.00  0.00     0.000 A 
ENDBRANCH   8  25
ENDBRANCH   6   8
ENDBRANCH   5   6
ENDBRANCH   4   5
ENDBRANCH   3   4
ENDBRANCH   2   3
ENDBRANCH   1   2
BRANCH   1  31
ATOM     31  C   UNL A   1      36.961  29.437  29.946  1.00  0.00     0.188 C 
BRANCH  31  32
ATOM     32  O   UNL A   1      36.553  30.660  30.546  1.00  0.00    -0.376 OA
BRANCH  32  33
ATOM     33  C   UNL A   1      37.089  30.866  31.839  1.00  0.00     0.202 C 
BRANCH  33  34
ATOM     34  C   UNL A   1      38.464  31.566  31.955  1.00  0.00     0.261 C 
BRANCH  34  35
ATOM     35  O   UNL A   1      38.489  32.931  32.417  1.00  0.00    -0.460 OA
BRANCH  35  36
ATOM     36  C   UNL A   1      38.343  33.819  31.390  1.00  0.00     0.338 C 
ATOM     37  O   UNL A   1      37.271  34.164  30.896  1.00  0.00    -0.246 OA
BRANCH  36  38
ATOM     38  C   UNL A   1      39.626  34.345  30.866  1.00  0.00     0.060 A 
ATOM     39  C   UNL A   1      40.779  34.268  31.645  1.00  0.00     0.016 A 
ATOM     40  C   UNL A   1      39.760  34.703  29.526  1.00  0.00     0.016 A 
ATOM     41  C   UNL A   1      42.029  34.573  31.080  1.00  0.00     0.010 A 
ATOM     42  C   UNL A   1      40.984  35.007  28.952  1.00  0.00     0.010 A 
ATOM     43  C   UNL A   1      42.131  34.941  29.727  1.00  0.00    -0.014 A 
BRANCH  43  44
ATOM     44  C   UNL A   1      43.421  35.123  29.042  1.00  0.00     0.031 A 
ATOM     45  C   UNL A   1      43.861  36.478  28.592  1.00  0.00     0.074 A 
ATOM     46  C   UNL A   1      44.103  34.029  28.656  1.00  0.00     0.049 A 
ATOM     47  N   UNL A   1      45.039  36.853  28.178  1.00  0.00    -0.248 NA
ATOM     48  C   UNL A   1      42.842  37.541  28.564  1.00  0.00     0.031 C 
ATOM     49  C   UNL A   1      43.628  32.652  28.811  1.00  0.00     0.029 A 
ATOM     50  N   UNL A   1      45.310  33.899  28.024  1.00  0.00    -0.354 N 
ATOM     51  C   UNL A   1      44.927  38.210  27.909  1.00  0.00     0.074 A 
ATOM     52  C   UNL A   1      43.540  38.569  28.096  1.00  0.00     0.031 C 
ATOM     53  C   UNL A   1      44.541  31.815  28.294  1.00  0.00     0.029 A 
ATOM     54  C   UNL A   1      45.684  32.592  27.821  1.00  0.00     0.049 A 
ATOM     55  H   UNL A   1      45.858  34.667  27.744  1.00  0.00     0.167 HD
ATOM     56  C   UNL A   1      45.922  39.070  27.589  1.00  0.00     0.034 A 
ATOM     57  C   UNL A   1      46.845  32.082  27.363  1.00  0.00     0.034 A 
ATOM     58  C   UNL A   1      47.280  38.635  27.378  1.00  0.00     0.049 A 
ATOM     59  C   UNL A   1      47.983  33.040  27.117  1.00  0.00     0.074 A 
ATOM     60  C   UNL A   1      48.413  39.405  27.204  1.00  0.00     0.029 A 
ATOM     61  N   UNL A   1      47.677  37.307  27.285  1.00  0.00    -0.354 N 
ATOM     62  N   UNL A   1      47.973  34.354  27.164  1.00  0.00    -0.248 NA
ATOM     63  C   UNL A   1      49.299  32.463  26.817  1.00  0.00     0.031 C 
ATOM     64  C   UNL A   1      49.481  38.546  26.934  1.00  0.00     0.029 A 
ATOM     65  C   UNL A   1      49.030  37.235  27.016  1.00  0.00     0.049 A 
ATOM     66  H   UNL A   1      47.082  36.531  27.395  1.00  0.00     0.167 HD
ATOM     67  C   UNL A   1      49.282  34.760  26.926  1.00  0.00     0.074 A 
ATOM     68  C   UNL A   1      50.062  33.549  26.761  1.00  0.00     0.031 C 
ATOM     69  C   UNL A   1      49.790  36.016  26.851  1.00  0.00     0.034 A 
BRANCH  56  70
ATOM     70  C   UNL A   1      45.630  40.550  27.537  1.00  0.00     0.023 A 
ATOM     71  C   UNL A   1      45.494  41.299  28.720  1.00  0.00     0.031 A 
ATOM     72  C   UNL A   1      45.306  41.176  26.317  1.00  0.00     0.131 A 
ATOM     73  C   UNL A   1      45.007  42.613  28.661  1.00  0.00     0.055 A 
ATOM     74  C   UNL A   1      44.864  42.499  26.261  1.00  0.00     0.041 A 
ATOM     75  F   UNL A   1      45.399  40.504  25.158  1.00  0.00    -0.206 F 
ATOM     76  C   UNL A   1      44.698  43.217  27.438  1.00  0.00     0.022 A 
BRANCH  73  77
ATOM     77  S   UNL A   1      44.680  43.565  30.170  1.00  0.00     0.124 S 
ATOM     78  O   UNL A   1      45.886  43.308  30.956  1.00  0.00    -0.237 OA
ATOM     79  O   UNL A   1      44.554  44.924  29.652  1.00  0.00    -0.237 OA
ATOM     80  O   UNL A   1      43.458  42.972  30.701  1.00  0.00    -0.744 OA
ENDBRANCH  73  77
ENDBRANCH  56  70
BRANCH  57  81
ATOM     81  C   UNL A   1      47.001  30.600  27.318  1.00  0.00     0.023 A 
ATOM     82  C   UNL A   1      46.596  29.864  26.189  1.00  0.00     0.031 A 
ATOM     83  C   UNL A   1      47.390  29.890  28.466  1.00  0.00     0.131 A 
ATOM     84  C   UNL A   1      46.531  28.465  26.257  1.00  0.00     0.055 A 
ATOM     85  C   UNL A   1      47.382  28.495  28.508  1.00  0.00     0.041 A 
ATOM     86  F   UNL A   1      47.753  30.549  29.577  1.00  0.00    -0.206 F 
ATOM     87  C   UNL A   1      46.934  27.775  27.405  1.00  0.00     0.022 A 
BRANCH  84  88
ATOM     88  S   UNL A   1      45.780  27.499  24.916  1.00  0.00     0.124 S 
ATOM     89  O   UNL A   1      44.359  27.777  25.098  1.00  0.00    -0.237 OA
ATOM     90  O   UNL A   1      46.393  28.099  23.733  1.00  0.00    -0.237 OA
ATOM     91  O   UNL A   1      46.198  26.130  25.202  1.00  0.00    -0.744 OA
ENDBRANCH  84  88
ENDBRANCH  57  81
BRANCH  69  92
ATOM     92  C   UNL A   1      51.258  36.180  26.544  1.00  0.00     0.023 A 
ATOM     93  C   UNL A   1      52.186  36.310  27.594  1.00  0.00     0.031 A 
ATOM     94  C   UNL A   1      51.704  36.395  25.228  1.00  0.00     0.131 A 
ATOM     95  C   UNL A   1      53.501  36.700  27.316  1.00  0.00     0.055 A 
ATOM     96  C   UNL A   1      53.029  36.730  24.952  1.00  0.00     0.041 A 
ATOM     97  F   UNL A   1      50.852  36.295  24.195  1.00  0.00    -0.206 F 
ATOM     98  C   UNL A   1      53.929  36.903  25.999  1.00  0.00     0.022 A 
BRANCH  95  99
ATOM     99  S   UNL A   1      54.673  37.061  28.652  1.00  0.00     0.124 S 
ATOM    100  O   UNL A   1      54.892  38.496  28.482  1.00  0.00    -0.237 OA
ATOM    101  O   UNL A   1      53.911  36.682  29.838  1.00  0.00    -0.237 OA
ATOM    102  O   UNL A   1      55.825  36.218  28.349  1.00  0.00    -0.744 OA
ENDBRANCH  95  99
ENDBRANCH  69  92
ENDBRANCH  43  44
ENDBRANCH  36  38
ENDBRANCH  35  36
ENDBRANCH  34  35
ENDBRANCH  33  34
ENDBRANCH  32  33
ENDBRANCH  31  32
ENDBRANCH   1  31
TORSDOF 24
ENDMDL
