MODEL 1
REMARK VINA RESULT:     -10.1      0.000      0.000
REMARK SMILES Cc1ccc(S(C)(=O)=O)cc1C(=O)NCCOCC(=O)OCCOCCOCCOC(=O)c1ccc(-c2c3nc(c(-c4cc(S(=O)(=O)[O-])ccc4F)c4ccc([nH]4)c(-c4cc(S(=O)(=O)[O-])ccc4F)c4nc(c(-c5cc(S(=O)(=O)[O-])ccc5F)c5ccc2[nH]5)C=C4)C=C3)cc1
REMARK SMILES IDX 24 1 23 2 22 3 21 4 19 5 20 6 18 7 17 8 16 9 15 10 14 11
REMARK SMILES IDX 12 12 13 13 11 15 1 16 2 17 3 18 4 19 10 20 5 21 6 22 7 23
REMARK SMILES IDX 8 24 9 25 25 26 26 27 27 28 28 29 29 30 30 31 31 32 32 33
REMARK SMILES IDX 33 34 34 35 95 36 35 37 94 38 36 39 37 40 38 41 88 42 39 43
REMARK SMILES IDX 93 44 87 45 89 46 40 47 92 48 86 49 85 50 41 52 73 53 53 54
REMARK SMILES IDX 72 55 54 56 57 57 71 58 90 59 55 60 56 61 70 63 91 64 58 65
REMARK SMILES IDX 42 66 43 67 51 68 44 69 50 70 52 71 49 72 45 73 46 74 47 75
REMARK SMILES IDX 48 76 74 77 75 78 83 79 76 80 82 81 84 82 81 83 77 84 78 85
REMARK SMILES IDX 79 86 80 87 59 88 60 89 68 90 61 91 67 92 69 93 66 94 62 95
REMARK SMILES IDX 63 96 64 97 65 98
REMARK H PARENT 14 14 89 51 57 62
REMARK Flexibility Score: inf
ROOT
ATOM      1  O   UNL A   1      39.511  21.284  25.777  1.00  0.00    -0.376 OA
ENDROOT
BRANCH   1   2
ATOM      2  C   UNL A   1      38.291  21.998  25.646  1.00  0.00     0.202 C 
BRANCH   2   3
ATOM      3  C   UNL A   1      37.068  21.124  25.520  1.00  0.00     0.261 C 
BRANCH   3   4
ATOM      4  O   UNL A   1      35.718  21.455  26.079  1.00  0.00    -0.462 OA
BRANCH   4   5
ATOM      5  C   UNL A   1      34.400  21.240  25.906  1.00  0.00     0.332 C 
ATOM      6  O   UNL A   1      33.488  21.707  26.575  1.00  0.00    -0.250 OA
BRANCH   5   7
ATOM      7  C   UNL A   1      34.136  20.216  24.738  1.00  0.00     0.282 C 
BRANCH   7   8
ATOM      8  O   UNL A   1      32.851  19.786  24.310  1.00  0.00    -0.368 OA
BRANCH   8   9
ATOM      9  C   UNL A   1      32.530  20.142  22.976  1.00  0.00     0.182 C 
BRANCH   9  10
ATOM     10  C   UNL A   1      31.725  21.432  22.901  1.00  0.00     0.144 C 
BRANCH  10  11
ATOM     11  N   UNL A   1      32.496  22.586  22.510  1.00  0.00    -0.350 N 
ATOM     12  C   UNL A   1      32.660  23.890  22.866  1.00  0.00     0.251 C 
ATOM     13  O   UNL A   1      33.613  24.406  22.262  1.00  0.00    -0.269 OA
ATOM     14  H   UNL A   1      33.086  22.363  21.754  1.00  0.00     0.163 HD
BRANCH  12  15
ATOM     15  C   UNL A   1      31.896  24.763  23.844  1.00  0.00     0.044 A 
ATOM     16  C   UNL A   1      30.805  23.139  25.585  1.00  0.00     0.045 C 
ATOM     17  C   UNL A   1      31.113  24.476  24.989  1.00  0.00    -0.038 A 
ATOM     18  C   UNL A   1      30.511  25.546  25.710  1.00  0.00     0.005 A 
ATOM     19  C   UNL A   1      30.669  26.876  25.351  1.00  0.00     0.020 A 
ATOM     20  C   UNL A   1      32.025  26.142  23.502  1.00  0.00     0.034 A 
ATOM     21  C   UNL A   1      31.424  27.170  24.234  1.00  0.00     0.067 A 
BRANCH  21  22
ATOM     22  S   UNL A   1      31.655  28.867  23.766  1.00  0.00     0.175 S 
ATOM     23  C   UNL A   1      30.646  29.081  22.325  1.00  0.00     0.163 C 
ATOM     24  O   UNL A   1      31.084  29.662  24.841  1.00  0.00    -0.224 OA
ATOM     25  O   UNL A   1      33.042  29.043  23.381  1.00  0.00    -0.224 OA
ENDBRANCH  21  22
ENDBRANCH  12  15
ENDBRANCH  10  11
ENDBRANCH   9  10
ENDBRANCH   8   9
ENDBRANCH   7   8
ENDBRANCH   5   7
ENDBRANCH   4   5
ENDBRANCH   3   4
ENDBRANCH   2   3
ENDBRANCH   1   2
BRANCH   1  26
ATOM     26  C   UNL A   1      40.559  22.114  26.239  1.00  0.00     0.188 C 
BRANCH  26  27
ATOM     27  C   UNL A   1      40.103  23.034  27.363  1.00  0.00     0.188 C 
BRANCH  27  28
ATOM     28  O   UNL A   1      40.791  24.267  27.452  1.00  0.00    -0.376 OA
BRANCH  28  29
ATOM     29  C   UNL A   1      42.162  24.246  27.040  1.00  0.00     0.202 C 
BRANCH  29  30
ATOM     30  C   UNL A   1      42.545  25.700  26.802  1.00  0.00     0.261 C 
BRANCH  30  31
ATOM     31  O   UNL A   1      41.547  26.333  25.961  1.00  0.00    -0.460 OA
BRANCH  31  32
ATOM     32  C   UNL A   1      41.848  27.601  25.554  1.00  0.00     0.338 C 
ATOM     33  O   UNL A   1      42.572  27.884  24.611  1.00  0.00    -0.246 OA
BRANCH  32  34
ATOM     34  C   UNL A   1      41.308  28.595  26.542  1.00  0.00     0.060 A 
ATOM     35  C   UNL A   1      42.199  29.333  27.329  1.00  0.00     0.016 A 
ATOM     36  C   UNL A   1      39.945  28.634  26.858  1.00  0.00     0.016 A 
ATOM     37  C   UNL A   1      41.752  29.942  28.514  1.00  0.00     0.010 A 
ATOM     38  C   UNL A   1      39.524  29.177  28.079  1.00  0.00     0.010 A 
ATOM     39  C   UNL A   1      40.451  29.714  28.986  1.00  0.00    -0.014 A 
BRANCH  39  40
ATOM     40  C   UNL A   1      39.955  30.115  30.340  1.00  0.00     0.031 A 
ATOM     41  C   UNL A   1      39.251  31.408  30.338  1.00  0.00     0.074 A 
ATOM     42  C   UNL A   1      40.091  29.520  31.574  1.00  0.00     0.049 A 
ATOM     43  N   UNL A   1      39.280  32.257  31.312  1.00  0.00    -0.248 NA
ATOM     44  C   UNL A   1      38.605  31.917  29.124  1.00  0.00     0.031 C 
ATOM     45  C   UNL A   1      39.039  29.450  32.586  1.00  0.00     0.029 A 
ATOM     46  N   UNL A   1      41.108  28.780  32.196  1.00  0.00    -0.354 N 
ATOM     47  C   UNL A   1      38.283  33.149  31.004  1.00  0.00     0.074 A 
ATOM     48  C   UNL A   1      38.143  33.083  29.568  1.00  0.00     0.031 C 
ATOM     49  C   UNL A   1      39.470  28.755  33.662  1.00  0.00     0.029 A 
ATOM     50  C   UNL A   1      40.879  28.397  33.507  1.00  0.00     0.049 A 
ATOM     51  H   UNL A   1      41.939  28.546  31.725  1.00  0.00     0.167 HD
ATOM     52  C   UNL A   1      37.391  33.520  31.966  1.00  0.00     0.034 A 
ATOM     53  C   UNL A   1      41.836  28.279  34.485  1.00  0.00     0.034 A 
ATOM     54  C   UNL A   1      37.705  32.930  33.270  1.00  0.00     0.049 A 
ATOM     55  C   UNL A   1      41.699  29.488  35.391  1.00  0.00     0.074 A 
ATOM     56  C   UNL A   1      37.114  31.907  34.000  1.00  0.00     0.029 A 
ATOM     57  N   UNL A   1      38.925  33.183  33.892  1.00  0.00    -0.354 N 
ATOM     58  N   UNL A   1      40.839  30.431  35.147  1.00  0.00    -0.248 NA
ATOM     59  C   UNL A   1      42.534  29.797  36.549  1.00  0.00     0.031 C 
ATOM     60  C   UNL A   1      37.953  31.587  35.090  1.00  0.00     0.029 A 
ATOM     61  C   UNL A   1      39.066  32.403  35.023  1.00  0.00     0.049 A 
ATOM     62  H   UNL A   1      39.594  33.829  33.569  1.00  0.00     0.167 HD
ATOM     63  C   UNL A   1      40.994  31.455  36.031  1.00  0.00     0.074 A 
ATOM     64  C   UNL A   1      42.072  31.014  36.897  1.00  0.00     0.031 C 
ATOM     65  C   UNL A   1      40.204  32.562  35.918  1.00  0.00     0.034 A 
BRANCH  52  66
ATOM     66  C   UNL A   1      36.008  33.991  31.568  1.00  0.00     0.023 A 
ATOM     67  C   UNL A   1      35.510  33.681  30.292  1.00  0.00     0.031 A 
ATOM     68  C   UNL A   1      35.173  34.802  32.359  1.00  0.00     0.131 A 
ATOM     69  C   UNL A   1      34.344  34.277  29.792  1.00  0.00     0.055 A 
ATOM     70  C   UNL A   1      34.043  35.453  31.846  1.00  0.00     0.041 A 
ATOM     71  F   UNL A   1      35.408  34.975  33.669  1.00  0.00    -0.206 F 
ATOM     72  C   UNL A   1      33.632  35.205  30.545  1.00  0.00     0.022 A 
BRANCH  69  73
ATOM     73  S   UNL A   1      33.753  33.776  28.156  1.00  0.00     0.124 S 
ATOM     74  O   UNL A   1      34.677  34.477  27.270  1.00  0.00    -0.237 OA
ATOM     75  O   UNL A   1      33.887  32.325  28.210  1.00  0.00    -0.237 OA
ATOM     76  O   UNL A   1      32.376  34.267  28.133  1.00  0.00    -0.744 OA
ENDBRANCH  69  73
ENDBRANCH  52  66
BRANCH  53  77
ATOM     77  C   UNL A   1      43.173  27.602  34.263  1.00  0.00     0.023 A 
ATOM     78  C   UNL A   1      43.362  26.227  34.572  1.00  0.00     0.031 A 
ATOM     79  C   UNL A   1      44.271  28.259  33.682  1.00  0.00     0.131 A 
ATOM     80  C   UNL A   1      44.544  25.540  34.185  1.00  0.00     0.055 A 
ATOM     81  C   UNL A   1      45.458  27.589  33.338  1.00  0.00     0.041 A 
ATOM     82  F   UNL A   1      44.192  29.561  33.372  1.00  0.00    -0.206 F 
ATOM     83  C   UNL A   1      45.581  26.218  33.548  1.00  0.00     0.022 A 
BRANCH  80  84
ATOM     84  S   UNL A   1      44.705  23.721  34.360  1.00  0.00     0.124 S 
ATOM     85  O   UNL A   1      44.652  23.272  32.973  1.00  0.00    -0.237 OA
ATOM     86  O   UNL A   1      45.990  23.555  35.030  1.00  0.00    -0.237 OA
ATOM     87  O   UNL A   1      43.533  23.345  35.151  1.00  0.00    -0.744 OA
ENDBRANCH  80  84
ENDBRANCH  53  77
BRANCH  65  88
ATOM     88  C   UNL A   1      40.318  33.831  36.716  1.00  0.00     0.023 A 
ATOM     89  C   UNL A   1      40.008  33.918  38.076  1.00  0.00     0.031 A 
ATOM     90  C   UNL A   1      40.801  35.020  36.110  1.00  0.00     0.131 A 
ATOM     91  C   UNL A   1      40.089  35.149  38.750  1.00  0.00     0.055 A 
ATOM     92  C   UNL A   1      40.966  36.216  36.804  1.00  0.00     0.041 A 
ATOM     93  F   UNL A   1      41.133  35.075  34.812  1.00  0.00    -0.206 F 
ATOM     94  C   UNL A   1      40.588  36.293  38.131  1.00  0.00     0.022 A 
BRANCH  91  95
ATOM     95  S   UNL A   1      39.434  35.242  40.433  1.00  0.00     0.124 S 
ATOM     96  O   UNL A   1      39.175  36.672  40.574  1.00  0.00    -0.237 OA
ATOM     97  O   UNL A   1      38.255  34.386  40.356  1.00  0.00    -0.237 OA
ATOM     98  O   UNL A   1      40.526  34.724  41.255  1.00  0.00    -0.744 OA
ENDBRANCH  91  95
ENDBRANCH  65  88
ENDBRANCH  39  40
ENDBRANCH  32  34
ENDBRANCH  31  32
ENDBRANCH  30  31
ENDBRANCH  29  30
ENDBRANCH  28  29
ENDBRANCH  27  28
ENDBRANCH  26  27
ENDBRANCH   1  26
TORSDOF 26
ENDMDL
MODEL 2
REMARK VINA RESULT:     -10.0      1.820      2.478
REMARK SMILES Cc1ccc(S(C)(=O)=O)cc1C(=O)NCCOCC(=O)OCCOCCOCCOC(=O)c1ccc(-c2c3nc(c(-c4cc(S(=O)(=O)[O-])ccc4F)c4ccc([nH]4)c(-c4cc(S(=O)(=O)[O-])ccc4F)c4nc(c(-c5cc(S(=O)(=O)[O-])ccc5F)c5ccc2[nH]5)C=C4)C=C3)cc1
REMARK SMILES IDX 24 1 23 2 22 3 21 4 19 5 20 6 18 7 17 8 16 9 15 10 14 11
REMARK SMILES IDX 12 12 13 13 11 15 1 16 2 17 3 18 4 19 10 20 5 21 6 22 7 23
REMARK SMILES IDX 8 24 9 25 25 26 26 27 27 28 28 29 29 30 30 31 31 32 32 33
REMARK SMILES IDX 33 34 34 35 95 36 35 37 94 38 36 39 37 40 38 41 88 42 39 43
REMARK SMILES IDX 93 44 87 45 89 46 40 47 92 48 86 49 85 50 41 52 73 53 53 54
REMARK SMILES IDX 72 55 54 56 57 57 71 58 90 59 55 60 56 61 70 63 91 64 58 65
REMARK SMILES IDX 42 66 43 67 51 68 44 69 50 70 52 71 49 72 45 73 46 74 47 75
REMARK SMILES IDX 48 76 74 77 75 78 83 79 76 80 82 81 84 82 81 83 77 84 78 85
REMARK SMILES IDX 79 86 80 87 59 88 60 89 68 90 61 91 67 92 69 93 66 94 62 95
REMARK SMILES IDX 63 96 64 97 65 98
REMARK H PARENT 14 14 89 51 57 62
REMARK Flexibility Score: inf
ROOT
ATOM      1  O   UNL A   1      37.993  21.140  25.529  1.00  0.00    -0.376 OA
ENDROOT
BRANCH   1   2
ATOM      2  C   UNL A   1      36.783  20.674  24.948  1.00  0.00     0.202 C 
BRANCH   2   3
ATOM      3  C   UNL A   1      35.636  21.650  25.031  1.00  0.00     0.261 C 
BRANCH   3   4
ATOM      4  O   UNL A   1      34.635  21.888  23.943  1.00  0.00    -0.462 OA
BRANCH   4   5
ATOM      5  C   UNL A   1      33.330  21.758  23.634  1.00  0.00     0.332 C 
ATOM      6  O   UNL A   1      32.579  20.860  23.991  1.00  0.00    -0.250 OA
BRANCH   5   7
ATOM      7  C   UNL A   1      32.858  22.901  22.658  1.00  0.00     0.282 C 
BRANCH   7   8
ATOM      8  O   UNL A   1      33.683  23.953  22.178  1.00  0.00    -0.368 OA
BRANCH   8   9
ATOM      9  C   UNL A   1      33.401  25.221  22.743  1.00  0.00     0.182 C 
BRANCH   9  10
ATOM     10  C   UNL A   1      34.047  25.401  24.110  1.00  0.00     0.144 C 
BRANCH  10  11
ATOM     11  N   UNL A   1      33.114  25.385  25.210  1.00  0.00    -0.350 N 
ATOM     12  C   UNL A   1      32.281  26.233  25.871  1.00  0.00     0.251 C 
ATOM     13  O   UNL A   1      31.563  25.622  26.679  1.00  0.00    -0.269 OA
ATOM     14  H   UNL A   1      33.063  24.483  25.602  1.00  0.00     0.163 HD
BRANCH  12  15
ATOM     15  C   UNL A   1      32.100  27.737  25.773  1.00  0.00     0.044 A 
ATOM     16  C   UNL A   1      33.813  28.796  27.446  1.00  0.00     0.045 C 
ATOM     17  C   UNL A   1      32.727  28.830  26.418  1.00  0.00    -0.038 A 
ATOM     18  C   UNL A   1      32.320  30.157  26.100  1.00  0.00     0.005 A 
ATOM     19  C   UNL A   1      31.337  30.436  25.163  1.00  0.00     0.020 A 
ATOM     20  C   UNL A   1      31.087  28.066  24.824  1.00  0.00     0.034 A 
ATOM     21  C   UNL A   1      30.713  29.381  24.529  1.00  0.00     0.067 A 
BRANCH  21  22
ATOM     22  S   UNL A   1      29.464  29.715  23.313  1.00  0.00     0.175 S 
ATOM     23  C   UNL A   1      30.334  29.754  21.769  1.00  0.00     0.163 C 
ATOM     24  O   UNL A   1      28.586  28.556  23.310  1.00  0.00    -0.224 OA
ATOM     25  O   UNL A   1      28.931  31.039  23.568  1.00  0.00    -0.224 OA
ENDBRANCH  21  22
ENDBRANCH  12  15
ENDBRANCH  10  11
ENDBRANCH   9  10
ENDBRANCH   8   9
ENDBRANCH   7   8
ENDBRANCH   5   7
ENDBRANCH   4   5
ENDBRANCH   3   4
ENDBRANCH   2   3
ENDBRANCH   1   2
BRANCH   1  26
ATOM     26  C   UNL A   1      37.986  22.544  25.701  1.00  0.00     0.188 C 
BRANCH  26  27
ATOM     27  C   UNL A   1      39.012  22.996  26.731  1.00  0.00     0.188 C 
BRANCH  27  28
ATOM     28  O   UNL A   1      40.251  23.425  26.201  1.00  0.00    -0.376 OA
BRANCH  28  29
ATOM     29  C   UNL A   1      41.318  23.563  27.145  1.00  0.00     0.202 C 
BRANCH  29  30
ATOM     30  C   UNL A   1      41.992  24.888  26.819  1.00  0.00     0.261 C 
BRANCH  30  31
ATOM     31  O   UNL A   1      41.102  25.699  26.011  1.00  0.00    -0.460 OA
BRANCH  31  32
ATOM     32  C   UNL A   1      41.562  26.950  25.715  1.00  0.00     0.338 C 
ATOM     33  O   UNL A   1      42.454  27.202  24.919  1.00  0.00    -0.246 OA
BRANCH  32  34
ATOM     34  C   UNL A   1      40.939  27.954  26.642  1.00  0.00     0.060 A 
ATOM     35  C   UNL A   1      41.721  28.999  27.147  1.00  0.00     0.016 A 
ATOM     36  C   UNL A   1      39.669  27.741  27.192  1.00  0.00     0.016 A 
ATOM     37  C   UNL A   1      41.311  29.690  28.300  1.00  0.00     0.010 A 
ATOM     38  C   UNL A   1      39.306  28.381  28.384  1.00  0.00     0.010 A 
ATOM     39  C   UNL A   1      40.190  29.262  29.028  1.00  0.00    -0.014 A 
BRANCH  39  40
ATOM     40  C   UNL A   1      39.810  29.771  30.382  1.00  0.00     0.031 A 
ATOM     41  C   UNL A   1      39.152  31.087  30.342  1.00  0.00     0.074 A 
ATOM     42  C   UNL A   1      40.017  29.256  31.642  1.00  0.00     0.049 A 
ATOM     43  N   UNL A   1      39.282  31.998  31.249  1.00  0.00    -0.248 NA
ATOM     44  C   UNL A   1      38.435  31.538  29.145  1.00  0.00     0.031 C 
ATOM     45  C   UNL A   1      39.042  29.294  32.730  1.00  0.00     0.029 A 
ATOM     46  N   UNL A   1      41.053  28.520  32.239  1.00  0.00    -0.354 N 
ATOM     47  C   UNL A   1      38.295  32.905  30.953  1.00  0.00     0.074 A 
ATOM     48  C   UNL A   1      38.047  32.749  29.539  1.00  0.00     0.031 C 
ATOM     49  C   UNL A   1      39.528  28.656  33.817  1.00  0.00     0.029 A 
ATOM     50  C   UNL A   1      40.910  28.235  33.586  1.00  0.00     0.049 A 
ATOM     51  H   UNL A   1      41.838  28.223  31.727  1.00  0.00     0.167 HD
ATOM     52  C   UNL A   1      37.491  33.374  31.948  1.00  0.00     0.034 A 
ATOM     53  C   UNL A   1      41.932  28.145  34.498  1.00  0.00     0.034 A 
ATOM     54  C   UNL A   1      37.881  32.861  33.264  1.00  0.00     0.049 A 
ATOM     55  C   UNL A   1      41.903  29.417  35.326  1.00  0.00     0.074 A 
ATOM     56  C   UNL A   1      37.312  31.912  34.104  1.00  0.00     0.029 A 
ATOM     57  N   UNL A   1      39.151  33.107  33.778  1.00  0.00    -0.354 N 
ATOM     58  N   UNL A   1      41.060  30.373  35.079  1.00  0.00    -0.248 NA
ATOM     59  C   UNL A   1      42.833  29.770  36.397  1.00  0.00     0.031 C 
ATOM     60  C   UNL A   1      38.218  31.634  35.150  1.00  0.00     0.029 A 
ATOM     61  C   UNL A   1      39.350  32.399  34.947  1.00  0.00     0.049 A 
ATOM     62  H   UNL A   1      39.816  33.704  33.363  1.00  0.00     0.167 HD
ATOM     63  C   UNL A   1      41.314  31.448  35.876  1.00  0.00     0.074 A 
ATOM     64  C   UNL A   1      42.439  31.024  36.691  1.00  0.00     0.031 C 
ATOM     65  C   UNL A   1      40.556  32.574  35.745  1.00  0.00     0.034 A 
BRANCH  52  66
ATOM     66  C   UNL A   1      36.098  33.870  31.619  1.00  0.00     0.023 A 
ATOM     67  C   UNL A   1      35.557  33.626  30.346  1.00  0.00     0.031 A 
ATOM     68  C   UNL A   1      35.294  34.645  32.476  1.00  0.00     0.131 A 
ATOM     69  C   UNL A   1      34.379  34.252  29.915  1.00  0.00     0.055 A 
ATOM     70  C   UNL A   1      34.153  35.325  32.033  1.00  0.00     0.041 A 
ATOM     71  F   UNL A   1      35.572  34.752  33.784  1.00  0.00    -0.206 F 
ATOM     72  C   UNL A   1      33.698  35.145  30.735  1.00  0.00     0.022 A 
BRANCH  69  73
ATOM     73  S   UNL A   1      33.733  33.835  28.276  1.00  0.00     0.124 S 
ATOM     74  O   UNL A   1      33.634  32.381  28.347  1.00  0.00    -0.237 OA
ATOM     75  O   UNL A   1      32.471  34.567  28.246  1.00  0.00    -0.237 OA
ATOM     76  O   UNL A   1      34.762  34.345  27.371  1.00  0.00    -0.744 OA
ENDBRANCH  69  73
ENDBRANCH  52  66
BRANCH  53  77
ATOM     77  C   UNL A   1      43.226  27.404  34.229  1.00  0.00     0.023 A 
ATOM     78  C   UNL A   1      43.360  26.022  34.536  1.00  0.00     0.031 A 
ATOM     79  C   UNL A   1      44.331  28.005  33.602  1.00  0.00     0.131 A 
ATOM     80  C   UNL A   1      44.492  25.278  34.107  1.00  0.00     0.055 A 
ATOM     81  C   UNL A   1      45.470  27.278  33.216  1.00  0.00     0.041 A 
ATOM     82  F   UNL A   1      44.302  29.309  33.290  1.00  0.00    -0.206 F 
ATOM     83  C   UNL A   1      45.535  25.903  33.427  1.00  0.00     0.022 A 
BRANCH  80  84
ATOM     84  S   UNL A   1      44.571  23.453  34.284  1.00  0.00     0.124 S 
ATOM     85  O   UNL A   1      45.895  23.258  34.866  1.00  0.00    -0.237 OA
ATOM     86  O   UNL A   1      43.444  23.146  35.157  1.00  0.00    -0.237 OA
ATOM     87  O   UNL A   1      44.451  22.968  32.909  1.00  0.00    -0.744 OA
ENDBRANCH  80  84
ENDBRANCH  53  77
BRANCH  65  88
ATOM     88  C   UNL A   1      40.772  33.888  36.442  1.00  0.00     0.023 A 
ATOM     89  C   UNL A   1      41.961  34.618  36.363  1.00  0.00     0.031 A 
ATOM     90  C   UNL A   1      39.728  34.479  37.200  1.00  0.00     0.131 A 
ATOM     91  C   UNL A   1      42.113  35.817  37.081  1.00  0.00     0.055 A 
ATOM     92  C   UNL A   1      39.851  35.711  37.837  1.00  0.00     0.041 A 
ATOM     93  F   UNL A   1      38.536  33.885  37.359  1.00  0.00    -0.206 F 
ATOM     94  C   UNL A   1      41.060  36.381  37.798  1.00  0.00     0.022 A 
BRANCH  91  95
ATOM     95  S   UNL A   1      43.755  36.573  37.135  1.00  0.00     0.124 S 
ATOM     96  O   UNL A   1      43.566  37.755  36.299  1.00  0.00    -0.237 OA
ATOM     97  O   UNL A   1      43.934  36.825  38.561  1.00  0.00    -0.237 OA
ATOM     98  O   UNL A   1      44.625  35.544  36.569  1.00  0.00    -0.744 OA
ENDBRANCH  91  95
ENDBRANCH  65  88
ENDBRANCH  39  40
ENDBRANCH  32  34
ENDBRANCH  31  32
ENDBRANCH  30  31
ENDBRANCH  29  30
ENDBRANCH  28  29
ENDBRANCH  27  28
ENDBRANCH  26  27
ENDBRANCH   1  26
TORSDOF 26
ENDMDL
MODEL 3
REMARK VINA RESULT:      -9.2      5.067      9.652
REMARK SMILES Cc1ccc(S(C)(=O)=O)cc1C(=O)NCCOCC(=O)OCCOCCOCCOC(=O)c1ccc(-c2c3nc(c(-c4cc(S(=O)(=O)[O-])ccc4F)c4ccc([nH]4)c(-c4cc(S(=O)(=O)[O-])ccc4F)c4nc(c(-c5cc(S(=O)(=O)[O-])ccc5F)c5ccc2[nH]5)C=C4)C=C3)cc1
REMARK SMILES IDX 24 1 23 2 22 3 21 4 19 5 20 6 18 7 17 8 16 9 15 10 14 11
REMARK SMILES IDX 12 12 13 13 11 15 1 16 2 17 3 18 4 19 10 20 5 21 6 22 7 23
REMARK SMILES IDX 8 24 9 25 25 26 26 27 27 28 28 29 29 30 30 31 31 32 32 33
REMARK SMILES IDX 33 34 34 35 95 36 35 37 94 38 36 39 37 40 38 41 88 42 39 43
REMARK SMILES IDX 93 44 87 45 89 46 40 47 92 48 86 49 85 50 41 52 73 53 53 54
REMARK SMILES IDX 72 55 54 56 57 57 71 58 90 59 55 60 56 61 70 63 91 64 58 65
REMARK SMILES IDX 42 66 43 67 51 68 44 69 50 70 52 71 49 72 45 73 46 74 47 75
REMARK SMILES IDX 48 76 74 77 75 78 83 79 76 80 82 81 84 82 81 83 77 84 78 85
REMARK SMILES IDX 79 86 80 87 59 88 60 89 68 90 61 91 67 92 69 93 66 94 62 95
REMARK SMILES IDX 63 96 64 97 65 98
REMARK H PARENT 14 14 89 51 57 62
REMARK Flexibility Score: inf
ROOT
ATOM      1  O   UNL A   1      33.494  29.731  26.083  1.00  0.00    -0.376 OA
ENDROOT
BRANCH   1   2
ATOM      2  C   UNL A   1      33.470  28.397  26.571  1.00  0.00     0.202 C 
BRANCH   2   3
ATOM      3  C   UNL A   1      32.121  27.940  27.067  1.00  0.00     0.261 C 
BRANCH   3   4
ATOM      4  O   UNL A   1      31.590  26.545  26.941  1.00  0.00    -0.462 OA
BRANCH   4   5
ATOM      5  C   UNL A   1      30.814  25.754  26.176  1.00  0.00     0.332 C 
ATOM      6  O   UNL A   1      29.632  25.494  26.355  1.00  0.00    -0.250 OA
BRANCH   5   7
ATOM      7  C   UNL A   1      31.641  25.103  25.003  1.00  0.00     0.282 C 
BRANCH   7   8
ATOM      8  O   UNL A   1      32.223  23.808  25.040  1.00  0.00    -0.368 OA
BRANCH   8   9
ATOM      9  C   UNL A   1      33.430  23.730  25.780  1.00  0.00     0.182 C 
BRANCH   9  10
ATOM     10  C   UNL A   1      34.657  23.959  24.909  1.00  0.00     0.144 C 
BRANCH  10  11
ATOM     11  N   UNL A   1      35.878  24.154  25.650  1.00  0.00    -0.350 N 
ATOM     12  C   UNL A   1      37.036  23.495  25.927  1.00  0.00     0.251 C 
ATOM     13  O   UNL A   1      37.843  24.230  26.518  1.00  0.00    -0.269 OA
ATOM     14  H   UNL A   1      35.874  25.036  26.090  1.00  0.00     0.163 HD
BRANCH  12  15
ATOM     15  C   UNL A   1      37.471  22.071  25.634  1.00  0.00     0.044 A 
ATOM     16  C   UNL A   1      35.358  20.829  24.714  1.00  0.00     0.045 C 
ATOM     17  C   UNL A   1      36.792  20.938  25.126  1.00  0.00    -0.038 A 
ATOM     18  C   UNL A   1      37.499  19.712  24.964  1.00  0.00     0.005 A 
ATOM     19  C   UNL A   1      38.845  19.577  25.269  1.00  0.00     0.020 A 
ATOM     20  C   UNL A   1      38.851  21.887  25.945  1.00  0.00     0.034 A 
ATOM     21  C   UNL A   1      39.519  20.671  25.770  1.00  0.00     0.067 A 
BRANCH  21  22
ATOM     22  S   UNL A   1      41.247  20.526  26.150  1.00  0.00     0.175 S 
ATOM     23  C   UNL A   1      41.360  20.867  27.886  1.00  0.00     0.163 C 
ATOM     24  O   UNL A   1      41.589  19.129  25.939  1.00  0.00    -0.224 OA
ATOM     25  O   UNL A   1      41.954  21.571  25.435  1.00  0.00    -0.224 OA
ENDBRANCH  21  22
ENDBRANCH  12  15
ENDBRANCH  10  11
ENDBRANCH   9  10
ENDBRANCH   8   9
ENDBRANCH   7   8
ENDBRANCH   5   7
ENDBRANCH   4   5
ENDBRANCH   3   4
ENDBRANCH   2   3
ENDBRANCH   1   2
BRANCH   1  26
ATOM     26  C   UNL A   1      32.930  30.639  27.009  1.00  0.00     0.188 C 
BRANCH  26  27
ATOM     27  C   UNL A   1      33.997  31.412  27.771  1.00  0.00     0.188 C 
BRANCH  27  28
ATOM     28  O   UNL A   1      33.904  32.821  27.678  1.00  0.00    -0.376 OA
BRANCH  28  29
ATOM     29  C   UNL A   1      34.031  33.536  28.911  1.00  0.00     0.202 C 
BRANCH  29  30
ATOM     30  C   UNL A   1      34.610  32.543  29.909  1.00  0.00     0.261 C 
BRANCH  30  31
ATOM     31  O   UNL A   1      36.044  32.443  29.718  1.00  0.00    -0.460 OA
BRANCH  31  32
ATOM     32  C   UNL A   1      36.679  31.546  30.529  1.00  0.00     0.338 C 
ATOM     33  O   UNL A   1      36.498  30.338  30.517  1.00  0.00    -0.246 OA
BRANCH  32  34
ATOM     34  C   UNL A   1      37.493  32.276  31.557  1.00  0.00     0.060 A 
ATOM     35  C   UNL A   1      37.419  33.672  31.626  1.00  0.00     0.016 A 
ATOM     36  C   UNL A   1      38.492  31.622  32.289  1.00  0.00     0.016 A 
ATOM     37  C   UNL A   1      38.439  34.399  32.265  1.00  0.00     0.010 A 
ATOM     38  C   UNL A   1      39.542  32.356  32.854  1.00  0.00     0.010 A 
ATOM     39  C   UNL A   1      39.597  33.753  32.723  1.00  0.00    -0.014 A 
BRANCH  39  40
ATOM     40  C   UNL A   1      40.831  34.453  33.196  1.00  0.00     0.031 A 
ATOM     41  C   UNL A   1      40.651  35.134  34.488  1.00  0.00     0.074 A 
ATOM     42  C   UNL A   1      42.068  34.615  32.613  1.00  0.00     0.049 A 
ATOM     43  N   UNL A   1      41.227  36.244  34.817  1.00  0.00    -0.248 NA
ATOM     44  C   UNL A   1      39.632  34.688  35.444  1.00  0.00     0.031 C 
ATOM     45  C   UNL A   1      43.341  34.549  33.328  1.00  0.00     0.029 A 
ATOM     46  N   UNL A   1      42.513  34.781  31.293  1.00  0.00    -0.354 N 
ATOM     47  C   UNL A   1      41.004  36.346  36.168  1.00  0.00     0.074 A 
ATOM     48  C   UNL A   1      39.804  35.582  36.415  1.00  0.00     0.031 C 
ATOM     49  C   UNL A   1      44.371  34.693  32.464  1.00  0.00     0.029 A 
ATOM     50  C   UNL A   1      43.872  34.978  31.119  1.00  0.00     0.049 A 
ATOM     51  H   UNL A   1      41.891  34.759  30.531  1.00  0.00     0.167 HD
ATOM     52  C   UNL A   1      42.037  36.669  36.997  1.00  0.00     0.034 A 
ATOM     53  C   UNL A   1      44.451  35.758  30.148  1.00  0.00     0.034 A 
ATOM     54  C   UNL A   1      43.274  36.945  36.262  1.00  0.00     0.049 A 
ATOM     55  C   UNL A   1      44.907  37.040  30.820  1.00  0.00     0.074 A 
ATOM     56  C   UNL A   1      44.449  36.223  36.104  1.00  0.00     0.029 A 
ATOM     57  N   UNL A   1      43.328  37.968  35.318  1.00  0.00    -0.354 N 
ATOM     58  N   UNL A   1      44.678  37.271  32.077  1.00  0.00    -0.248 NA
ATOM     59  C   UNL A   1      45.548  38.177  30.163  1.00  0.00     0.031 C 
ATOM     60  C   UNL A   1      45.232  36.845  35.107  1.00  0.00     0.029 A 
ATOM     61  C   UNL A   1      44.532  37.942  34.641  1.00  0.00     0.049 A 
ATOM     62  H   UNL A   1      42.608  38.619  35.157  1.00  0.00     0.167 HD
ATOM     63  C   UNL A   1      45.076  38.530  32.408  1.00  0.00     0.074 A 
ATOM     64  C   UNL A   1      45.618  39.066  31.173  1.00  0.00     0.031 C 
ATOM     65  C   UNL A   1      44.887  38.980  33.683  1.00  0.00     0.034 A 
BRANCH  52  66
ATOM     66  C   UNL A   1      42.002  36.232  38.448  1.00  0.00     0.023 A 
ATOM     67  C   UNL A   1      42.163  34.874  38.767  1.00  0.00     0.031 A 
ATOM     68  C   UNL A   1      41.739  37.081  39.540  1.00  0.00     0.131 A 
ATOM     69  C   UNL A   1      41.914  34.387  40.058  1.00  0.00     0.055 A 
ATOM     70  C   UNL A   1      41.426  36.595  40.816  1.00  0.00     0.041 A 
ATOM     71  F   UNL A   1      41.802  38.415  39.415  1.00  0.00    -0.206 F 
ATOM     72  C   UNL A   1      41.494  35.235  41.077  1.00  0.00     0.022 A 
BRANCH  69  73
ATOM     73  S   UNL A   1      42.198  32.629  40.386  1.00  0.00     0.124 S 
ATOM     74  O   UNL A   1      42.702  32.157  39.100  1.00  0.00    -0.237 OA
ATOM     75  O   UNL A   1      43.162  32.670  41.480  1.00  0.00    -0.237 OA
ATOM     76  O   UNL A   1      40.870  32.139  40.752  1.00  0.00    -0.744 OA
ENDBRANCH  69  73
ENDBRANCH  52  66
BRANCH  53  77
ATOM     77  C   UNL A   1      44.020  35.734  28.695  1.00  0.00     0.023 A 
ATOM     78  C   UNL A   1      44.639  34.861  27.759  1.00  0.00     0.031 A 
ATOM     79  C   UNL A   1      42.954  36.507  28.205  1.00  0.00     0.131 A 
ATOM     80  C   UNL A   1      44.112  34.690  26.451  1.00  0.00     0.055 A 
ATOM     81  C   UNL A   1      42.460  36.370  26.897  1.00  0.00     0.041 A 
ATOM     82  F   UNL A   1      42.321  37.372  29.011  1.00  0.00    -0.206 F 
ATOM     83  C   UNL A   1      43.008  35.429  26.029  1.00  0.00     0.022 A 
BRANCH  80  84
ATOM     84  S   UNL A   1      44.748  33.398  25.315  1.00  0.00     0.124 S 
ATOM     85  O   UNL A   1      46.099  33.180  25.821  1.00  0.00    -0.237 OA
ATOM     86  O   UNL A   1      43.816  32.291  25.501  1.00  0.00    -0.237 OA
ATOM     87  O   UNL A   1      44.704  34.041  24.001  1.00  0.00    -0.744 OA
ENDBRANCH  80  84
ENDBRANCH  53  77
BRANCH  65  88
ATOM     88  C   UNL A   1      45.143  40.371  34.192  1.00  0.00     0.023 A 
ATOM     89  C   UNL A   1      44.297  41.453  33.940  1.00  0.00     0.031 A 
ATOM     90  C   UNL A   1      46.271  40.639  35.010  1.00  0.00     0.131 A 
ATOM     91  C   UNL A   1      44.622  42.739  34.405  1.00  0.00     0.055 A 
ATOM     92  C   UNL A   1      46.543  41.896  35.544  1.00  0.00     0.041 A 
ATOM     93  F   UNL A   1      47.165  39.691  35.328  1.00  0.00    -0.206 F 
ATOM     94  C   UNL A   1      45.726  42.964  35.225  1.00  0.00     0.022 A 
BRANCH  91  95
ATOM     95  S   UNL A   1      43.620  44.130  33.831  1.00  0.00     0.124 S 
ATOM     96  O   UNL A   1      42.400  43.963  34.616  1.00  0.00    -0.237 OA
ATOM     97  O   UNL A   1      44.450  45.277  34.182  1.00  0.00    -0.237 OA
ATOM     98  O   UNL A   1      43.477  43.881  32.398  1.00  0.00    -0.744 OA
ENDBRANCH  91  95
ENDBRANCH  65  88
ENDBRANCH  39  40
ENDBRANCH  32  34
ENDBRANCH  31  32
ENDBRANCH  30  31
ENDBRANCH  29  30
ENDBRANCH  28  29
ENDBRANCH  27  28
ENDBRANCH  26  27
ENDBRANCH   1  26
TORSDOF 26
ENDMDL
