MODEL 1
REMARK VINA RESULT:     -12.1      0.000      0.000
REMARK SMILES O=C1C[C@H](c2cn[nH]c2C(=O)OCCOCCOCCOC(=O)c2ccc(-c3c4nc(c(-c5cc(S(=O)(=O)[O-])ccc5F)c5ccc([nH]5)c(-c5cc(S(=O)(=O)[O-])ccc5F)c5nc(c(-c6cc(S(=O)(=O)[O-])ccc6F)c6ccc3[nH]6)C=C5)C=C4)cc2)c2c(-c3cccs3)n[nH]c2N1
REMARK SMILES IDX 17 1 16 2 15 3 14 4 13 5 12 6 10 7 11 8 9 9 5 10 6 11 7 12
REMARK SMILES IDX 8 13 4 15 1 16 2 17 3 18 97 19 96 20 87 22 95 23 88 24 94 25
REMARK SMILES IDX 89 27 90 28 93 29 91 30 92 31 18 32 19 33 20 34 21 35 22 36
REMARK SMILES IDX 23 37 24 38 25 39 86 40 26 41 85 42 27 43 28 44 29 45 79 46
REMARK SMILES IDX 30 47 84 48 78 49 80 50 31 51 83 52 77 53 76 54 32 56 64 57
REMARK SMILES IDX 44 58 63 59 45 60 48 61 62 62 81 63 46 64 47 65 61 67 82 68
REMARK SMILES IDX 49 69 33 70 34 71 42 72 35 73 41 74 43 75 40 76 36 77 37 78
REMARK SMILES IDX 38 79 39 80 65 81 66 82 74 83 67 84 73 85 75 86 72 87 68 88
REMARK SMILES IDX 69 89 70 90 71 91 50 92 51 93 59 94 52 95 58 96 60 97 57 98
REMARK SMILES IDX 53 99 54 100 55 101 56 102
REMARK H PARENT 8 14 97 21 95 26 80 55 48 66
REMARK Flexibility Score: inf
ROOT
ATOM      1  C   UNL A   1      34.334  32.108  27.851  1.00  0.00     0.188 C 
ENDROOT
BRANCH   1   2
ATOM      2  C   UNL A   1      34.343  30.604  27.494  1.00  0.00     0.188 C 
BRANCH   2   3
ATOM      3  O   UNL A   1      33.291  30.059  26.704  1.00  0.00    -0.376 OA
BRANCH   3   4
ATOM      4  C   UNL A   1      32.996  28.670  26.813  1.00  0.00     0.202 C 
BRANCH   4   5
ATOM      5  C   UNL A   1      34.065  27.670  26.346  1.00  0.00     0.261 C 
BRANCH   5   6
ATOM      6  O   UNL A   1      33.967  27.316  24.951  1.00  0.00    -0.459 OA
BRANCH   6   7
ATOM      7  C   UNL A   1      34.000  25.989  24.669  1.00  0.00     0.356 C 
ATOM      8  O   UNL A   1      34.347  25.121  25.461  1.00  0.00    -0.244 OA
BRANCH   7   9
ATOM      9  C   UNL A   1      33.397  25.674  23.392  1.00  0.00     0.147 A 
ATOM     10  C   UNL A   1      32.396  24.849  22.864  1.00  0.00     0.013 A 
ATOM     11  C   UNL A   1      32.414  25.175  21.471  1.00  0.00     0.140 A 
ATOM     12  N   UNL A   1      33.321  26.086  21.147  1.00  0.00    -0.183 NA
ATOM     13  N   UNL A   1      33.889  26.377  22.317  1.00  0.00    -0.271 N 
ATOM     14  H   UNL A   1      34.607  27.046  22.406  1.00  0.00     0.190 HD
BRANCH  10  15
ATOM     15  C   UNL A   1      31.349  23.891  23.428  1.00  0.00     0.069 C 
ATOM     16  O   UNL A   1      32.597  20.622  24.821  1.00  0.00    -0.275 OA
ATOM     17  C   UNL A   1      32.015  21.706  24.756  1.00  0.00     0.226 C 
ATOM     18  C   UNL A   1      31.817  22.410  23.421  1.00  0.00     0.114 C 
ATOM     19  N   UNL A   1      31.444  22.233  25.882  1.00  0.00    -0.311 N 
ATOM     20  C   UNL A   1      30.852  23.459  25.831  1.00  0.00     0.132 A 
ATOM     21  H   UNL A   1      31.461  21.727  26.727  1.00  0.00     0.171 HD
ATOM     22  C   UNL A   1      30.741  24.255  24.728  1.00  0.00     0.031 A 
ATOM     23  N   UNL A   1      30.329  24.152  26.876  1.00  0.00    -0.262 N 
ATOM     24  C   UNL A   1      29.999  25.376  25.177  1.00  0.00     0.108 A 
ATOM     25  N   UNL A   1      29.804  25.338  26.507  1.00  0.00    -0.173 NA
ATOM     26  H   UNL A   1      30.331  23.823  27.805  1.00  0.00     0.192 HD
BRANCH  24  27
ATOM     27  C   UNL A   1      29.572  26.537  24.337  1.00  0.00     0.055 A 
ATOM     28  C   UNL A   1      28.303  26.676  23.817  1.00  0.00     0.022 A 
ATOM     29  S   UNL A   1      30.562  27.878  23.966  1.00  0.00    -0.142 S 
ATOM     30  C   UNL A   1      28.117  27.952  23.207  1.00  0.00     0.012 A 
ATOM     31  C   UNL A   1      29.280  28.688  23.185  1.00  0.00     0.065 A 
ENDBRANCH  24  27
ENDBRANCH  10  15
ENDBRANCH   7   9
ENDBRANCH   6   7
ENDBRANCH   5   6
ENDBRANCH   4   5
ENDBRANCH   3   4
ENDBRANCH   2   3
ENDBRANCH   1   2
BRANCH   1  32
ATOM     32  O   UNL A   1      34.234  32.383  29.243  1.00  0.00    -0.376 OA
BRANCH  32  33
ATOM     33  C   UNL A   1      35.346  33.037  29.837  1.00  0.00     0.202 C 
BRANCH  33  34
ATOM     34  C   UNL A   1      36.240  32.160  30.699  1.00  0.00     0.261 C 
BRANCH  34  35
ATOM     35  O   UNL A   1      36.923  31.157  29.973  1.00  0.00    -0.460 OA
BRANCH  35  36
ATOM     36  C   UNL A   1      36.744  29.896  30.418  1.00  0.00     0.338 C 
ATOM     37  O   UNL A   1      35.955  29.526  31.266  1.00  0.00    -0.246 OA
BRANCH  36  38
ATOM     38  C   UNL A   1      37.725  29.047  29.735  1.00  0.00     0.060 A 
ATOM     39  C   UNL A   1      38.404  28.102  30.503  1.00  0.00     0.016 A 
ATOM     40  C   UNL A   1      38.117  29.367  28.424  1.00  0.00     0.016 A 
ATOM     41  C   UNL A   1      39.604  27.624  30.026  1.00  0.00     0.010 A 
ATOM     42  C   UNL A   1      39.324  28.907  27.959  1.00  0.00     0.010 A 
ATOM     43  C   UNL A   1      40.086  28.108  28.805  1.00  0.00    -0.014 A 
BRANCH  43  44
ATOM     44  C   UNL A   1      41.451  27.799  28.458  1.00  0.00     0.031 A 
ATOM     45  C   UNL A   1      41.654  26.513  27.778  1.00  0.00     0.074 A 
ATOM     46  C   UNL A   1      42.460  28.654  28.696  1.00  0.00     0.049 A 
ATOM     47  N   UNL A   1      42.250  25.471  28.245  1.00  0.00    -0.248 NA
ATOM     48  C   UNL A   1      41.026  26.322  26.466  1.00  0.00     0.031 C 
ATOM     49  C   UNL A   1      42.374  30.061  29.092  1.00  0.00     0.029 A 
ATOM     50  N   UNL A   1      43.793  28.450  28.526  1.00  0.00    -0.354 N 
ATOM     51  C   UNL A   1      42.264  24.552  27.207  1.00  0.00     0.074 A 
ATOM     52  C   UNL A   1      41.360  25.059  26.206  1.00  0.00     0.031 C 
ATOM     53  C   UNL A   1      43.586  30.636  28.928  1.00  0.00     0.029 A 
ATOM     54  C   UNL A   1      44.545  29.614  28.542  1.00  0.00     0.049 A 
ATOM     55  H   UNL A   1      44.188  27.557  28.402  1.00  0.00     0.167 HD
ATOM     56  C   UNL A   1      43.184  23.554  27.164  1.00  0.00     0.034 A 
ATOM     57  C   UNL A   1      45.846  29.735  28.183  1.00  0.00     0.034 A 
ATOM     58  C   UNL A   1      43.799  23.341  28.452  1.00  0.00     0.049 A 
ATOM     59  C   UNL A   1      46.475  28.396  28.321  1.00  0.00     0.074 A 
ATOM     60  C   UNL A   1      43.318  23.029  29.710  1.00  0.00     0.029 A 
ATOM     61  N   UNL A   1      45.081  23.800  28.652  1.00  0.00    -0.354 N 
ATOM     62  N   UNL A   1      46.642  27.790  29.464  1.00  0.00    -0.248 NA
ATOM     63  C   UNL A   1      46.535  27.528  27.154  1.00  0.00     0.031 C 
ATOM     64  C   UNL A   1      44.138  23.759  30.618  1.00  0.00     0.029 A 
ATOM     65  C   UNL A   1      45.103  24.438  29.870  1.00  0.00     0.049 A 
ATOM     66  H   UNL A   1      45.842  23.692  28.036  1.00  0.00     0.167 HD
ATOM     67  C   UNL A   1      46.399  26.450  29.205  1.00  0.00     0.074 A 
ATOM     68  C   UNL A   1      46.463  26.334  27.752  1.00  0.00     0.031 C 
ATOM     69  C   UNL A   1      45.894  25.620  30.166  1.00  0.00     0.034 A 
BRANCH  56  70
ATOM     70  C   UNL A   1      43.737  22.975  25.890  1.00  0.00     0.023 A 
ATOM     71  C   UNL A   1      43.738  21.577  25.751  1.00  0.00     0.031 A 
ATOM     72  C   UNL A   1      44.493  23.694  24.935  1.00  0.00     0.131 A 
ATOM     73  C   UNL A   1      44.502  20.955  24.751  1.00  0.00     0.055 A 
ATOM     74  C   UNL A   1      45.186  23.075  23.893  1.00  0.00     0.041 A 
ATOM     75  F   UNL A   1      44.687  25.016  25.018  1.00  0.00    -0.206 F 
ATOM     76  C   UNL A   1      45.215  21.695  23.810  1.00  0.00     0.022 A 
BRANCH  73  77
ATOM     77  S   UNL A   1      44.699  19.157  24.817  1.00  0.00     0.124 S 
ATOM     78  O   UNL A   1      45.845  19.014  25.707  1.00  0.00    -0.237 OA
ATOM     79  O   UNL A   1      43.409  18.734  25.354  1.00  0.00    -0.237 OA
ATOM     80  O   UNL A   1      44.944  18.792  23.423  1.00  0.00    -0.744 OA
ENDBRANCH  73  77
ENDBRANCH  56  70
BRANCH  57  81
ATOM     81  C   UNL A   1      46.455  30.878  27.459  1.00  0.00     0.023 A 
ATOM     82  C   UNL A   1      45.675  31.878  26.851  1.00  0.00     0.031 A 
ATOM     83  C   UNL A   1      47.846  31.119  27.548  1.00  0.00     0.131 A 
ATOM     84  C   UNL A   1      46.288  33.050  26.358  1.00  0.00     0.055 A 
ATOM     85  C   UNL A   1      48.449  32.269  27.040  1.00  0.00     0.041 A 
ATOM     86  F   UNL A   1      48.659  30.282  28.212  1.00  0.00    -0.206 F 
ATOM     87  C   UNL A   1      47.669  33.247  26.448  1.00  0.00     0.022 A 
BRANCH  84  88
ATOM     88  S   UNL A   1      45.265  34.401  25.699  1.00  0.00     0.124 S 
ATOM     89  O   UNL A   1      43.980  34.159  26.346  1.00  0.00    -0.237 OA
ATOM     90  O   UNL A   1      45.996  35.588  26.129  1.00  0.00    -0.237 OA
ATOM     91  O   UNL A   1      45.281  34.166  24.254  1.00  0.00    -0.744 OA
ENDBRANCH  84  88
ENDBRANCH  57  81
BRANCH  69  92
ATOM     92  C   UNL A   1      45.931  26.079  31.611  1.00  0.00     0.023 A 
ATOM     93  C   UNL A   1      44.836  26.643  32.302  1.00  0.00     0.031 A 
ATOM     94  C   UNL A   1      47.102  25.823  32.349  1.00  0.00     0.131 A 
ATOM     95  C   UNL A   1      44.944  26.945  33.673  1.00  0.00     0.055 A 
ATOM     96  C   UNL A   1      47.199  26.103  33.712  1.00  0.00     0.041 A 
ATOM     97  F   UNL A   1      48.170  25.258  31.759  1.00  0.00    -0.206 F 
ATOM     98  C   UNL A   1      46.121  26.673  34.379  1.00  0.00     0.022 A 
BRANCH  95  99
ATOM     99  S   UNL A   1      43.552  27.713  34.563  1.00  0.00     0.124 S 
ATOM    100  O   UNL A   1      43.769  27.314  35.949  1.00  0.00    -0.237 OA
ATOM    101  O   UNL A   1      43.736  29.131  34.267  1.00  0.00    -0.237 OA
ATOM    102  O   UNL A   1      42.375  27.109  33.935  1.00  0.00    -0.744 OA
ENDBRANCH  95  99
ENDBRANCH  69  92
ENDBRANCH  43  44
ENDBRANCH  36  38
ENDBRANCH  35  36
ENDBRANCH  34  35
ENDBRANCH  33  34
ENDBRANCH  32  33
ENDBRANCH   1  32
TORSDOF 22
ENDMDL
MODEL 2
REMARK VINA RESULT:     -11.6      2.805      7.341
REMARK SMILES O=C1C[C@H](c2cn[nH]c2C(=O)OCCOCCOCCOC(=O)c2ccc(-c3c4nc(c(-c5cc(S(=O)(=O)[O-])ccc5F)c5ccc([nH]5)c(-c5cc(S(=O)(=O)[O-])ccc5F)c5nc(c(-c6cc(S(=O)(=O)[O-])ccc6F)c6ccc3[nH]6)C=C5)C=C4)cc2)c2c(-c3cccs3)n[nH]c2N1
REMARK SMILES IDX 17 1 16 2 15 3 14 4 13 5 12 6 10 7 11 8 9 9 5 10 6 11 7 12
REMARK SMILES IDX 8 13 4 15 1 16 2 17 3 18 97 19 96 20 87 22 95 23 88 24 94 25
REMARK SMILES IDX 89 27 90 28 93 29 91 30 92 31 18 32 19 33 20 34 21 35 22 36
REMARK SMILES IDX 23 37 24 38 25 39 86 40 26 41 85 42 27 43 28 44 29 45 79 46
REMARK SMILES IDX 30 47 84 48 78 49 80 50 31 51 83 52 77 53 76 54 32 56 64 57
REMARK SMILES IDX 44 58 63 59 45 60 48 61 62 62 81 63 46 64 47 65 61 67 82 68
REMARK SMILES IDX 49 69 33 70 34 71 42 72 35 73 41 74 43 75 40 76 36 77 37 78
REMARK SMILES IDX 38 79 39 80 65 81 66 82 74 83 67 84 73 85 75 86 72 87 68 88
REMARK SMILES IDX 69 89 70 90 71 91 50 92 51 93 59 94 52 95 58 96 60 97 57 98
REMARK SMILES IDX 53 99 54 100 55 101 56 102
REMARK H PARENT 8 14 97 21 95 26 80 55 48 66
REMARK Flexibility Score: inf
ROOT
ATOM      1  C   UNL A   1      32.852  29.632  24.884  1.00  0.00     0.188 C 
ENDROOT
BRANCH   1   2
ATOM      2  C   UNL A   1      31.405  29.092  24.942  1.00  0.00     0.188 C 
BRANCH   2   3
ATOM      3  O   UNL A   1      30.415  29.629  24.070  1.00  0.00    -0.376 OA
BRANCH   3   4
ATOM      4  C   UNL A   1      30.019  28.873  22.929  1.00  0.00     0.202 C 
BRANCH   4   5
ATOM      5  C   UNL A   1      29.625  27.404  23.144  1.00  0.00     0.261 C 
BRANCH   5   6
ATOM      6  O   UNL A   1      30.473  26.462  22.454  1.00  0.00    -0.459 OA
BRANCH   6   7
ATOM      7  C   UNL A   1      30.872  25.382  23.172  1.00  0.00     0.356 C 
ATOM      8  O   UNL A   1      30.290  24.304  23.184  1.00  0.00    -0.244 OA
BRANCH   7   9
ATOM      9  C   UNL A   1      32.172  25.564  23.781  1.00  0.00     0.147 A 
ATOM     10  C   UNL A   1      32.901  25.109  24.886  1.00  0.00     0.013 A 
ATOM     11  C   UNL A   1      34.156  25.779  24.740  1.00  0.00     0.140 A 
ATOM     12  N   UNL A   1      34.218  26.573  23.679  1.00  0.00    -0.183 NA
ATOM     13  N   UNL A   1      33.021  26.418  23.115  1.00  0.00    -0.271 N 
ATOM     14  H   UNL A   1      32.763  26.880  22.284  1.00  0.00     0.190 HD
BRANCH  10  15
ATOM     15  C   UNL A   1      32.689  24.082  25.997  1.00  0.00     0.069 C 
ATOM     16  O   UNL A   1      29.202  23.755  27.380  1.00  0.00    -0.275 OA
ATOM     17  C   UNL A   1      30.282  23.442  26.877  1.00  0.00     0.226 C 
ATOM     18  C   UNL A   1      31.462  24.403  26.892  1.00  0.00     0.114 C 
ATOM     19  N   UNL A   1      30.457  22.174  26.393  1.00  0.00    -0.311 N 
ATOM     20  C   UNL A   1      31.627  21.838  25.781  1.00  0.00     0.132 A 
ATOM     21  H   UNL A   1      29.740  21.506  26.488  1.00  0.00     0.171 HD
ATOM     22  C   UNL A   1      32.706  22.656  25.600  1.00  0.00     0.031 A 
ATOM     23  N   UNL A   1      31.915  20.659  25.171  1.00  0.00    -0.262 N 
ATOM     24  C   UNL A   1      33.673  21.828  24.980  1.00  0.00     0.108 A 
ATOM     25  N   UNL A   1      33.163  20.624  24.662  1.00  0.00    -0.173 NA
ATOM     26  H   UNL A   1      31.281  19.908  25.109  1.00  0.00     0.192 HD
BRANCH  24  27
ATOM     27  C   UNL A   1      35.060  22.237  24.596  1.00  0.00     0.055 A 
ATOM     28  C   UNL A   1      35.417  22.616  23.319  1.00  0.00     0.022 A 
ATOM     29  S   UNL A   1      36.368  22.361  25.686  1.00  0.00    -0.142 S 
ATOM     30  C   UNL A   1      36.750  23.121  23.270  1.00  0.00     0.012 A 
ATOM     31  C   UNL A   1      37.392  23.002  24.481  1.00  0.00     0.065 A 
ENDBRANCH  24  27
ENDBRANCH  10  15
ENDBRANCH   7   9
ENDBRANCH   6   7
ENDBRANCH   5   6
ENDBRANCH   4   5
ENDBRANCH   3   4
ENDBRANCH   2   3
ENDBRANCH   1   2
BRANCH   1  32
ATOM     32  O   UNL A   1      33.610  29.417  26.068  1.00  0.00    -0.376 OA
BRANCH  32  33
ATOM     33  C   UNL A   1      33.073  29.959  27.266  1.00  0.00     0.202 C 
BRANCH  33  34
ATOM     34  C   UNL A   1      33.283  31.451  27.464  1.00  0.00     0.261 C 
BRANCH  34  35
ATOM     35  O   UNL A   1      34.641  31.819  27.610  1.00  0.00    -0.460 OA
BRANCH  35  36
ATOM     36  C   UNL A   1      35.158  31.653  28.845  1.00  0.00     0.338 C 
ATOM     37  O   UNL A   1      34.921  32.323  29.831  1.00  0.00    -0.246 OA
BRANCH  36  38
ATOM     38  C   UNL A   1      36.117  30.546  28.773  1.00  0.00     0.060 A 
ATOM     39  C   UNL A   1      36.273  29.756  29.911  1.00  0.00     0.016 A 
ATOM     40  C   UNL A   1      36.998  30.469  27.682  1.00  0.00     0.016 A 
ATOM     41  C   UNL A   1      37.438  29.032  30.039  1.00  0.00     0.010 A 
ATOM     42  C   UNL A   1      38.168  29.764  27.819  1.00  0.00     0.010 A 
ATOM     43  C   UNL A   1      38.404  29.124  29.031  1.00  0.00    -0.014 A 
BRANCH  43  44
ATOM     44  C   UNL A   1      39.708  28.575  29.308  1.00  0.00     0.031 A 
ATOM     45  C   UNL A   1      40.074  28.502  30.728  1.00  0.00     0.074 A 
ATOM     46  C   UNL A   1      40.511  28.114  28.333  1.00  0.00     0.049 A 
ATOM     47  N   UNL A   1      40.981  29.187  31.335  1.00  0.00    -0.248 NA
ATOM     48  C   UNL A   1      39.265  27.648  31.605  1.00  0.00     0.031 C 
ATOM     49  C   UNL A   1      40.171  27.858  26.932  1.00  0.00     0.029 A 
ATOM     50  N   UNL A   1      41.794  27.678  28.437  1.00  0.00    -0.354 N 
ATOM     51  C   UNL A   1      41.010  28.703  32.633  1.00  0.00     0.074 A 
ATOM     52  C   UNL A   1      39.833  27.885  32.786  1.00  0.00     0.031 C 
ATOM     53  C   UNL A   1      41.155  27.120  26.372  1.00  0.00     0.029 A 
ATOM     54  C   UNL A   1      42.236  26.966  27.333  1.00  0.00     0.049 A 
ATOM     55  H   UNL A   1      42.358  27.852  29.224  1.00  0.00     0.167 HD
ATOM     56  C   UNL A   1      42.114  28.842  33.412  1.00  0.00     0.034 A 
ATOM     57  C   UNL A   1      43.374  26.236  27.250  1.00  0.00     0.034 A 
ATOM     58  C   UNL A   1      43.003  29.857  32.899  1.00  0.00     0.049 A 
ATOM     59  C   UNL A   1      44.317  26.761  28.270  1.00  0.00     0.074 A 
ATOM     60  C   UNL A   1      42.866  31.203  32.614  1.00  0.00     0.029 A 
ATOM     61  N   UNL A   1      44.152  29.460  32.254  1.00  0.00    -0.354 N 
ATOM     62  N   UNL A   1      44.845  27.954  28.220  1.00  0.00    -0.248 NA
ATOM     63  C   UNL A   1      44.353  26.132  29.582  1.00  0.00     0.031 C 
ATOM     64  C   UNL A   1      43.650  31.421  31.444  1.00  0.00     0.029 A 
ATOM     65  C   UNL A   1      44.260  30.210  31.107  1.00  0.00     0.049 A 
ATOM     66  H   UNL A   1      44.781  28.765  32.557  1.00  0.00     0.167 HD
ATOM     67  C   UNL A   1      44.883  28.390  29.535  1.00  0.00     0.074 A 
ATOM     68  C   UNL A   1      44.686  27.186  30.334  1.00  0.00     0.031 C 
ATOM     69  C   UNL A   1      44.788  29.718  29.847  1.00  0.00     0.034 A 
BRANCH  56  70
ATOM     70  C   UNL A   1      42.529  27.852  34.467  1.00  0.00     0.023 A 
ATOM     71  C   UNL A   1      43.308  26.754  34.066  1.00  0.00     0.031 A 
ATOM     72  C   UNL A   1      41.988  27.787  35.772  1.00  0.00     0.131 A 
ATOM     73  C   UNL A   1      43.474  25.645  34.910  1.00  0.00     0.055 A 
ATOM     74  C   UNL A   1      42.223  26.717  36.638  1.00  0.00     0.041 A 
ATOM     75  F   UNL A   1      41.125  28.697  36.241  1.00  0.00    -0.206 F 
ATOM     76  C   UNL A   1      42.949  25.624  36.200  1.00  0.00     0.022 A 
BRANCH  73  77
ATOM     77  S   UNL A   1      44.228  24.150  34.223  1.00  0.00     0.124 S 
ATOM     78  O   UNL A   1      43.354  23.107  34.747  1.00  0.00    -0.237 OA
ATOM     79  O   UNL A   1      44.142  24.404  32.788  1.00  0.00    -0.237 OA
ATOM     80  O   UNL A   1      45.580  24.168  34.778  1.00  0.00    -0.744 OA
ENDBRANCH  73  77
ENDBRANCH  56  70
BRANCH  57  81
ATOM     81  C   UNL A   1      43.538  24.943  26.541  1.00  0.00     0.023 A 
ATOM     82  C   UNL A   1      42.776  23.808  26.870  1.00  0.00     0.031 A 
ATOM     83  C   UNL A   1      44.311  24.873  25.358  1.00  0.00     0.131 A 
ATOM     84  C   UNL A   1      42.812  22.668  26.039  1.00  0.00     0.055 A 
ATOM     85  C   UNL A   1      44.360  23.735  24.553  1.00  0.00     0.041 A 
ATOM     86  F   UNL A   1      44.980  25.941  24.896  1.00  0.00    -0.206 F 
ATOM     87  C   UNL A   1      43.601  22.627  24.886  1.00  0.00     0.022 A 
BRANCH  84  88
ATOM     88  S   UNL A   1      41.722  21.255  26.389  1.00  0.00     0.124 S 
ATOM     89  O   UNL A   1      40.423  21.750  25.945  1.00  0.00    -0.237 OA
ATOM     90  O   UNL A   1      42.320  20.192  25.589  1.00  0.00    -0.237 OA
ATOM     91  O   UNL A   1      41.851  21.076  27.836  1.00  0.00    -0.744 OA
ENDBRANCH  84  88
ENDBRANCH  57  81
BRANCH  69  92
ATOM     92  C   UNL A   1      44.997  30.737  28.743  1.00  0.00     0.023 A 
ATOM     93  C   UNL A   1      46.242  31.314  28.409  1.00  0.00     0.031 A 
ATOM     94  C   UNL A   1      43.898  31.043  27.919  1.00  0.00     0.131 A 
ATOM     95  C   UNL A   1      46.348  32.177  27.300  1.00  0.00     0.055 A 
ATOM     96  C   UNL A   1      44.010  31.881  26.809  1.00  0.00     0.041 A 
ATOM     97  F   UNL A   1      42.691  30.502  28.162  1.00  0.00    -0.206 F 
ATOM     98  C   UNL A   1      45.236  32.457  26.499  1.00  0.00     0.022 A 
BRANCH  95  99
ATOM     99  S   UNL A   1      47.939  32.961  26.888  1.00  0.00     0.124 S 
ATOM    100  O   UNL A   1      47.621  33.797  25.736  1.00  0.00    -0.237 OA
ATOM    101  O   UNL A   1      48.268  33.669  28.122  1.00  0.00    -0.237 OA
ATOM    102  O   UNL A   1      48.811  31.823  26.590  1.00  0.00    -0.744 OA
ENDBRANCH  95  99
ENDBRANCH  69  92
ENDBRANCH  43  44
ENDBRANCH  36  38
ENDBRANCH  35  36
ENDBRANCH  34  35
ENDBRANCH  33  34
ENDBRANCH  32  33
ENDBRANCH   1  32
TORSDOF 22
ENDMDL
MODEL 3
REMARK VINA RESULT:     -11.6      2.076      3.250
REMARK SMILES O=C1C[C@H](c2cn[nH]c2C(=O)OCCOCCOCCOC(=O)c2ccc(-c3c4nc(c(-c5cc(S(=O)(=O)[O-])ccc5F)c5ccc([nH]5)c(-c5cc(S(=O)(=O)[O-])ccc5F)c5nc(c(-c6cc(S(=O)(=O)[O-])ccc6F)c6ccc3[nH]6)C=C5)C=C4)cc2)c2c(-c3cccs3)n[nH]c2N1
REMARK SMILES IDX 17 1 16 2 15 3 14 4 13 5 12 6 10 7 11 8 9 9 5 10 6 11 7 12
REMARK SMILES IDX 8 13 4 15 1 16 2 17 3 18 97 19 96 20 87 22 95 23 88 24 94 25
REMARK SMILES IDX 89 27 90 28 93 29 91 30 92 31 18 32 19 33 20 34 21 35 22 36
REMARK SMILES IDX 23 37 24 38 25 39 86 40 26 41 85 42 27 43 28 44 29 45 79 46
REMARK SMILES IDX 30 47 84 48 78 49 80 50 31 51 83 52 77 53 76 54 32 56 64 57
REMARK SMILES IDX 44 58 63 59 45 60 48 61 62 62 81 63 46 64 47 65 61 67 82 68
REMARK SMILES IDX 49 69 33 70 34 71 42 72 35 73 41 74 43 75 40 76 36 77 37 78
REMARK SMILES IDX 38 79 39 80 65 81 66 82 74 83 67 84 73 85 75 86 72 87 68 88
REMARK SMILES IDX 69 89 70 90 71 91 50 92 51 93 59 94 52 95 58 96 60 97 57 98
REMARK SMILES IDX 53 99 54 100 55 101 56 102
REMARK H PARENT 8 14 97 21 95 26 80 55 48 66
REMARK Flexibility Score: inf
ROOT
ATOM      1  C   UNL A   1      33.431  29.308  25.059  1.00  0.00     0.188 C 
ENDROOT
BRANCH   1   2
ATOM      2  C   UNL A   1      31.912  29.022  25.034  1.00  0.00     0.188 C 
BRANCH   2   3
ATOM      3  O   UNL A   1      31.078  29.716  24.111  1.00  0.00    -0.376 OA
BRANCH   3   4
ATOM      4  C   UNL A   1      29.979  29.026  23.523  1.00  0.00     0.202 C 
BRANCH   4   5
ATOM      5  C   UNL A   1      29.774  27.550  23.899  1.00  0.00     0.261 C 
BRANCH   5   6
ATOM      6  O   UNL A   1      30.144  26.622  22.859  1.00  0.00    -0.459 OA
BRANCH   6   7
ATOM      7  C   UNL A   1      30.656  25.435  23.272  1.00  0.00     0.356 C 
ATOM      8  O   UNL A   1      30.108  24.352  23.115  1.00  0.00    -0.244 OA
BRANCH   7   9
ATOM      9  C   UNL A   1      32.016  25.551  23.753  1.00  0.00     0.147 A 
ATOM     10  C   UNL A   1      32.812  25.093  24.810  1.00  0.00     0.013 A 
ATOM     11  C   UNL A   1      34.091  25.664  24.519  1.00  0.00     0.140 A 
ATOM     12  N   UNL A   1      34.108  26.406  23.419  1.00  0.00    -0.183 NA
ATOM     13  N   UNL A   1      32.855  26.313  22.973  1.00  0.00    -0.271 N 
ATOM     14  H   UNL A   1      32.554  26.755  22.146  1.00  0.00     0.190 HD
BRANCH  10  15
ATOM     15  C   UNL A   1      32.636  24.133  25.984  1.00  0.00     0.069 C 
ATOM     16  O   UNL A   1      29.148  23.715  27.341  1.00  0.00    -0.275 OA
ATOM     17  C   UNL A   1      30.250  23.426  26.874  1.00  0.00     0.226 C 
ATOM     18  C   UNL A   1      31.379  24.448  26.840  1.00  0.00     0.114 C 
ATOM     19  N   UNL A   1      30.499  22.140  26.479  1.00  0.00    -0.311 N 
ATOM     20  C   UNL A   1      31.694  21.826  25.906  1.00  0.00     0.132 A 
ATOM     21  H   UNL A   1      29.816  21.443  26.610  1.00  0.00     0.171 HD
ATOM     22  C   UNL A   1      32.732  22.686  25.685  1.00  0.00     0.031 A 
ATOM     23  N   UNL A   1      32.053  20.626  25.381  1.00  0.00    -0.262 N 
ATOM     24  C   UNL A   1      33.751  21.870  25.134  1.00  0.00     0.108 A 
ATOM     25  N   UNL A   1      33.309  20.623  24.891  1.00  0.00    -0.173 NA
ATOM     26  H   UNL A   1      31.459  19.840  25.361  1.00  0.00     0.192 HD
BRANCH  24  27
ATOM     27  C   UNL A   1      35.121  22.325  24.741  1.00  0.00     0.055 A 
ATOM     28  C   UNL A   1      35.499  22.566  23.438  1.00  0.00     0.022 A 
ATOM     29  S   UNL A   1      36.376  22.676  25.844  1.00  0.00    -0.142 S 
ATOM     30  C   UNL A   1      36.797  23.154  23.363  1.00  0.00     0.012 A 
ATOM     31  C   UNL A   1      37.400  23.233  24.598  1.00  0.00     0.065 A 
ENDBRANCH  24  27
ENDBRANCH  10  15
ENDBRANCH   7   9
ENDBRANCH   6   7
ENDBRANCH   5   6
ENDBRANCH   4   5
ENDBRANCH   3   4
ENDBRANCH   2   3
ENDBRANCH   1   2
BRANCH   1  32
ATOM     32  O   UNL A   1      34.115  28.766  26.181  1.00  0.00    -0.376 OA
BRANCH  32  33
ATOM     33  C   UNL A   1      33.874  29.396  27.430  1.00  0.00     0.202 C 
BRANCH  33  34
ATOM     34  C   UNL A   1      34.686  30.653  27.700  1.00  0.00     0.261 C 
BRANCH  34  35
ATOM     35  O   UNL A   1      36.083  30.462  27.588  1.00  0.00    -0.460 OA
BRANCH  35  36
ATOM     36  C   UNL A   1      36.706  30.058  28.714  1.00  0.00     0.338 C 
ATOM     37  O   UNL A   1      36.467  30.420  29.850  1.00  0.00    -0.246 OA
BRANCH  36  38
ATOM     38  C   UNL A   1      37.778  29.140  28.318  1.00  0.00     0.060 A 
ATOM     39  C   UNL A   1      38.204  28.203  29.258  1.00  0.00     0.016 A 
ATOM     40  C   UNL A   1      38.488  29.385  27.130  1.00  0.00     0.016 A 
ATOM     41  C   UNL A   1      39.458  27.656  29.102  1.00  0.00     0.010 A 
ATOM     42  C   UNL A   1      39.747  28.855  26.986  1.00  0.00     0.010 A 
ATOM     43  C   UNL A   1      40.242  28.065  28.017  1.00  0.00    -0.014 A 
BRANCH  43  44
ATOM     44  C   UNL A   1      41.633  27.685  28.022  1.00  0.00     0.031 A 
ATOM     45  C   UNL A   1      41.946  26.426  27.333  1.00  0.00     0.074 A 
ATOM     46  C   UNL A   1      42.584  28.457  28.574  1.00  0.00     0.049 A 
ATOM     47  N   UNL A   1      42.343  25.323  27.868  1.00  0.00    -0.248 NA
ATOM     48  C   UNL A   1      41.681  26.346  25.891  1.00  0.00     0.031 C 
ATOM     49  C   UNL A   1      42.465  29.844  29.029  1.00  0.00     0.029 A 
ATOM     50  N   UNL A   1      43.902  28.175  28.747  1.00  0.00    -0.354 N 
ATOM     51  C   UNL A   1      42.587  24.461  26.810  1.00  0.00     0.074 A 
ATOM     52  C   UNL A   1      42.009  25.078  25.643  1.00  0.00     0.031 C 
ATOM     53  C   UNL A   1      43.704  30.346  29.229  1.00  0.00     0.029 A 
ATOM     54  C   UNL A   1      44.680  29.284  29.040  1.00  0.00     0.049 A 
ATOM     55  H   UNL A   1      44.271  27.266  28.671  1.00  0.00     0.167 HD
ATOM     56  C   UNL A   1      43.434  23.408  26.942  1.00  0.00     0.034 A 
ATOM     57  C   UNL A   1      46.033  29.338  29.044  1.00  0.00     0.034 A 
ATOM     58  C   UNL A   1      43.673  23.087  28.329  1.00  0.00     0.049 A 
ATOM     59  C   UNL A   1      46.535  27.955  29.251  1.00  0.00     0.074 A 
ATOM     60  C   UNL A   1      42.859  22.742  29.392  1.00  0.00     0.029 A 
ATOM     61  N   UNL A   1      44.876  23.449  28.890  1.00  0.00    -0.354 N 
ATOM     62  N   UNL A   1      46.362  27.280  30.354  1.00  0.00    -0.248 NA
ATOM     63  C   UNL A   1      46.861  27.147  28.085  1.00  0.00     0.031 C 
ATOM     64  C   UNL A   1      43.443  23.368  30.531  1.00  0.00     0.029 A 
ATOM     65  C   UNL A   1      44.605  24.020  30.111  1.00  0.00     0.049 A 
ATOM     66  H   UNL A   1      45.768  23.324  28.490  1.00  0.00     0.167 HD
ATOM     67  C   UNL A   1      46.130  25.974  29.949  1.00  0.00     0.074 A 
ATOM     68  C   UNL A   1      46.572  25.930  28.560  1.00  0.00     0.031 C 
ATOM     69  C   UNL A   1      45.346  25.130  30.684  1.00  0.00     0.034 A 
BRANCH  56  70
ATOM     70  C   UNL A   1      44.278  22.861  25.822  1.00  0.00     0.023 A 
ATOM     71  C   UNL A   1      44.160  21.494  25.520  1.00  0.00     0.031 A 
ATOM     72  C   UNL A   1      45.365  23.539  25.222  1.00  0.00     0.131 A 
ATOM     73  C   UNL A   1      45.114  20.852  24.715  1.00  0.00     0.055 A 
ATOM     74  C   UNL A   1      46.265  22.913  24.358  1.00  0.00     0.041 A 
ATOM     75  F   UNL A   1      45.675  24.807  25.519  1.00  0.00    -0.206 F 
ATOM     76  C   UNL A   1      46.159  21.555  24.119  1.00  0.00     0.022 A 
BRANCH  73  77
ATOM     77  S   UNL A   1      45.074  19.045  24.614  1.00  0.00     0.124 S 
ATOM     78  O   UNL A   1      44.743  18.832  23.210  1.00  0.00    -0.237 OA
ATOM     79  O   UNL A   1      46.431  18.692  25.018  1.00  0.00    -0.237 OA
ATOM     80  O   UNL A   1      44.025  18.678  25.564  1.00  0.00    -0.744 OA
ENDBRANCH  73  77
ENDBRANCH  56  70
BRANCH  57  81
ATOM     81  C   UNL A   1      46.869  30.474  28.585  1.00  0.00     0.023 A 
ATOM     82  C   UNL A   1      46.407  31.408  27.640  1.00  0.00     0.031 A 
ATOM     83  C   UNL A   1      48.078  30.785  29.251  1.00  0.00     0.131 A 
ATOM     84  C   UNL A   1      47.145  32.584  27.390  1.00  0.00     0.055 A 
ATOM     85  C   UNL A   1      48.815  31.938  28.983  1.00  0.00     0.041 A 
ATOM     86  F   UNL A   1      48.542  30.018  30.250  1.00  0.00    -0.206 F 
ATOM     87  C   UNL A   1      48.346  32.850  28.054  1.00  0.00     0.022 A 
BRANCH  84  88
ATOM     88  S   UNL A   1      46.478  33.855  26.272  1.00  0.00     0.124 S 
ATOM     89  O   UNL A   1      47.689  34.414  25.683  1.00  0.00    -0.237 OA
ATOM     90  O   UNL A   1      45.624  33.074  25.384  1.00  0.00    -0.237 OA
ATOM     91  O   UNL A   1      45.759  34.756  27.174  1.00  0.00    -0.744 OA
ENDBRANCH  84  88
ENDBRANCH  57  81
BRANCH  69  92
ATOM     92  C   UNL A   1      45.020  25.509  32.116  1.00  0.00     0.023 A 
ATOM     93  C   UNL A   1      45.750  25.080  33.247  1.00  0.00     0.031 A 
ATOM     94  C   UNL A   1      43.988  26.444  32.326  1.00  0.00     0.131 A 
ATOM     95  C   UNL A   1      45.425  25.570  34.527  1.00  0.00     0.055 A 
ATOM     96  C   UNL A   1      43.683  26.944  33.592  1.00  0.00     0.041 A 
ATOM     97  F   UNL A   1      43.276  26.917  31.289  1.00  0.00    -0.206 F 
ATOM     98  C   UNL A   1      44.397  26.502  34.700  1.00  0.00     0.022 A 
BRANCH  95  99
ATOM     99  S   UNL A   1      46.332  24.989  35.995  1.00  0.00     0.124 S 
ATOM    100  O   UNL A   1      46.715  23.626  35.645  1.00  0.00    -0.237 OA
ATOM    101  O   UNL A   1      47.420  25.956  36.094  1.00  0.00    -0.237 OA
ATOM    102  O   UNL A   1      45.337  25.083  37.066  1.00  0.00    -0.744 OA
ENDBRANCH  95  99
ENDBRANCH  69  92
ENDBRANCH  43  44
ENDBRANCH  36  38
ENDBRANCH  35  36
ENDBRANCH  34  35
ENDBRANCH  33  34
ENDBRANCH  32  33
ENDBRANCH   1  32
TORSDOF 22
ENDMDL
