MODEL 1
REMARK VINA RESULT:     -10.4      0.000      0.000
REMARK SMILES Cc1cccc(C)c1Nc1ccccc1CC(=O)OCCOCCOCCOC(=O)c1ccc(-c2c3nc(c(-c4cc(S(=O)(=O)[O-])ccc4F)c4ccc([nH]4)c(-c4cc(S(=O)(=O)[O-])ccc4F)c4nc(c(-c5cc(S(=O)(=O)[O-])ccc5F)c5ccc2[nH]5)C=C4)C=C3)cc1
REMARK SMILES IDX 23 1 22 2 21 3 20 4 19 5 17 6 18 7 16 8 15 9 10 10 11 11
REMARK SMILES IDX 12 12 14 13 13 14 9 15 8 17 1 18 2 19 3 20 4 21 6 22 5 23
REMARK SMILES IDX 7 24 24 25 25 26 26 27 27 28 28 29 29 30 30 31 31 32 32 33
REMARK SMILES IDX 93 34 33 35 92 36 34 37 35 38 36 39 86 40 37 41 91 42 85 43
REMARK SMILES IDX 87 44 38 45 90 46 84 47 83 48 39 50 71 51 51 52 70 53 52 54
REMARK SMILES IDX 55 55 69 56 88 57 53 58 54 59 68 61 89 62 56 63 40 64 41 65
REMARK SMILES IDX 49 66 42 67 48 68 50 69 47 70 43 71 44 72 45 73 46 74 72 75
REMARK SMILES IDX 73 76 81 77 74 78 80 79 82 80 79 81 75 82 76 83 77 84 78 85
REMARK SMILES IDX 57 86 58 87 66 88 59 89 65 90 67 91 64 92 60 93 61 94 62 95
REMARK SMILES IDX 63 96
REMARK H PARENT 9 16 87 49 55 60
REMARK Flexibility Score: inf
ROOT
ATOM      1  C   UNL A   1      31.279  29.462  25.197  1.00  0.00     0.188 C 
ENDROOT
BRANCH   1   2
ATOM      2  O   UNL A   1      31.456  29.060  23.840  1.00  0.00    -0.376 OA
BRANCH   2   3
ATOM      3  C   UNL A   1      32.247  27.911  23.568  1.00  0.00     0.202 C 
BRANCH   3   4
ATOM      4  C   UNL A   1      31.495  26.577  23.575  1.00  0.00     0.261 C 
BRANCH   4   5
ATOM      5  O   UNL A   1      32.305  25.495  24.080  1.00  0.00    -0.463 OA
BRANCH   5   6
ATOM      6  C   UNL A   1      31.832  24.843  25.174  1.00  0.00     0.310 C 
ATOM      7  O   UNL A   1      30.674  24.447  25.272  1.00  0.00    -0.252 OA
BRANCH   6   8
ATOM      8  C   UNL A   1      32.915  24.442  26.156  1.00  0.00     0.160 C 
BRANCH   8   9
ATOM      9  C   UNL A   1      34.113  23.619  25.700  1.00  0.00    -0.013 A 
ATOM     10  C   UNL A   1      34.073  22.243  25.411  1.00  0.00     0.042 A 
ATOM     11  C   UNL A   1      35.267  21.563  25.082  1.00  0.00     0.026 A 
ATOM     12  C   UNL A   1      36.466  22.248  24.902  1.00  0.00     0.002 A 
ATOM     13  C   UNL A   1      35.318  24.294  25.430  1.00  0.00     0.006 A 
ATOM     14  C   UNL A   1      36.480  23.627  25.034  1.00  0.00     0.000 A 
BRANCH  10  15
ATOM     15  N   UNL A   1      32.877  21.533  25.209  1.00  0.00    -0.355 N 
ATOM     16  H   UNL A   1      32.124  21.830  25.769  1.00  0.00     0.167 HD
BRANCH  15  17
ATOM     17  C   UNL A   1      32.572  20.461  24.336  1.00  0.00     0.044 A 
ATOM     18  C   UNL A   1      32.101  22.227  22.561  1.00  0.00     0.046 C 
ATOM     19  C   UNL A   1      32.258  20.793  22.994  1.00  0.00    -0.027 A 
ATOM     20  C   UNL A   1      32.150  19.782  22.027  1.00  0.00     0.005 A 
ATOM     21  C   UNL A   1      32.338  18.451  22.371  1.00  0.00     0.001 A 
ATOM     22  C   UNL A   1      32.667  19.090  24.697  1.00  0.00    -0.027 A 
ATOM     23  C   UNL A   1      32.585  18.107  23.694  1.00  0.00     0.005 A 
ATOM     24  C   UNL A   1      32.906  18.580  26.097  1.00  0.00     0.046 C 
ENDBRANCH  15  17
ENDBRANCH  10  15
ENDBRANCH   8   9
ENDBRANCH   6   8
ENDBRANCH   5   6
ENDBRANCH   4   5
ENDBRANCH   3   4
ENDBRANCH   2   3
ENDBRANCH   1   2
BRANCH   1  25
ATOM     25  C   UNL A   1      32.504  29.676  26.094  1.00  0.00     0.188 C 
BRANCH  25  26
ATOM     26  O   UNL A   1      32.325  30.754  26.998  1.00  0.00    -0.376 OA
BRANCH  26  27
ATOM     27  C   UNL A   1      31.409  31.729  26.524  1.00  0.00     0.202 C 
BRANCH  27  28
ATOM     28  C   UNL A   1      32.064  33.106  26.643  1.00  0.00     0.261 C 
BRANCH  28  29
ATOM     29  O   UNL A   1      32.334  33.526  27.999  1.00  0.00    -0.460 OA
BRANCH  29  30
ATOM     30  C   UNL A   1      33.435  34.281  28.192  1.00  0.00     0.338 C 
ATOM     31  O   UNL A   1      33.472  35.510  28.234  1.00  0.00    -0.246 OA
BRANCH  30  32
ATOM     32  C   UNL A   1      34.576  33.407  28.541  1.00  0.00     0.060 A 
ATOM     33  C   UNL A   1      34.317  32.127  29.048  1.00  0.00     0.016 A 
ATOM     34  C   UNL A   1      35.894  33.850  28.415  1.00  0.00     0.016 A 
ATOM     35  C   UNL A   1      35.365  31.291  29.441  1.00  0.00     0.010 A 
ATOM     36  C   UNL A   1      36.943  33.024  28.838  1.00  0.00     0.010 A 
ATOM     37  C   UNL A   1      36.687  31.748  29.377  1.00  0.00    -0.014 A 
BRANCH  37  38
ATOM     38  C   UNL A   1      37.780  30.986  30.041  1.00  0.00     0.031 A 
ATOM     39  C   UNL A   1      38.083  31.282  31.486  1.00  0.00     0.074 A 
ATOM     40  C   UNL A   1      38.475  30.030  29.395  1.00  0.00     0.049 A 
ATOM     41  N   UNL A   1      39.067  30.859  32.238  1.00  0.00    -0.248 NA
ATOM     42  C   UNL A   1      37.144  32.183  32.173  1.00  0.00     0.031 C 
ATOM     43  C   UNL A   1      38.224  29.578  28.028  1.00  0.00     0.029 A 
ATOM     44  N   UNL A   1      39.546  29.272  29.807  1.00  0.00    -0.354 N 
ATOM     45  C   UNL A   1      38.873  31.449  33.483  1.00  0.00     0.074 A 
ATOM     46  C   UNL A   1      37.696  32.285  33.372  1.00  0.00     0.031 C 
ATOM     47  C   UNL A   1      39.123  28.629  27.712  1.00  0.00     0.029 A 
ATOM     48  C   UNL A   1      40.050  28.447  28.828  1.00  0.00     0.049 A 
ATOM     49  H   UNL A   1      39.917  29.316  30.717  1.00  0.00     0.167 HD
ATOM     50  C   UNL A   1      39.604  31.302  34.616  1.00  0.00     0.034 A 
ATOM     51  C   UNL A   1      41.152  27.667  28.822  1.00  0.00     0.034 A 
ATOM     52  C   UNL A   1      40.781  30.473  34.713  1.00  0.00     0.049 A 
ATOM     53  C   UNL A   1      42.031  27.625  30.055  1.00  0.00     0.074 A 
ATOM     54  C   UNL A   1      41.611  30.277  35.803  1.00  0.00     0.029 A 
ATOM     55  N   UNL A   1      41.298  29.704  33.679  1.00  0.00    -0.354 N 
ATOM     56  N   UNL A   1      41.866  28.224  31.213  1.00  0.00    -0.248 NA
ATOM     57  C   UNL A   1      43.247  26.802  29.976  1.00  0.00     0.031 C 
ATOM     58  C   UNL A   1      42.664  29.445  35.411  1.00  0.00     0.029 A 
ATOM     59  C   UNL A   1      42.448  29.053  34.099  1.00  0.00     0.049 A 
ATOM     60  H   UNL A   1      40.905  29.630  32.780  1.00  0.00     0.167 HD
ATOM     61  C   UNL A   1      42.933  27.812  32.009  1.00  0.00     0.074 A 
ATOM     62  C   UNL A   1      43.728  26.908  31.206  1.00  0.00     0.031 C 
ATOM     63  C   UNL A   1      43.231  28.148  33.291  1.00  0.00     0.034 A 
BRANCH  50  64
ATOM     64  C   UNL A   1      39.175  32.098  35.825  1.00  0.00     0.023 A 
ATOM     65  C   UNL A   1      39.673  33.389  36.074  1.00  0.00     0.031 A 
ATOM     66  C   UNL A   1      38.274  31.550  36.754  1.00  0.00     0.131 A 
ATOM     67  C   UNL A   1      39.318  34.061  37.253  1.00  0.00     0.055 A 
ATOM     68  C   UNL A   1      37.862  32.255  37.886  1.00  0.00     0.041 A 
ATOM     69  F   UNL A   1      37.786  30.311  36.582  1.00  0.00    -0.206 F 
ATOM     70  C   UNL A   1      38.395  33.513  38.148  1.00  0.00     0.022 A 
BRANCH  67  71
ATOM     71  S   UNL A   1      40.186  35.597  37.672  1.00  0.00     0.124 S 
ATOM     72  O   UNL A   1      39.654  36.519  36.670  1.00  0.00    -0.237 OA
ATOM     73  O   UNL A   1      39.761  35.835  39.047  1.00  0.00    -0.237 OA
ATOM     74  O   UNL A   1      41.596  35.251  37.505  1.00  0.00    -0.744 OA
ENDBRANCH  67  71
ENDBRANCH  50  64
BRANCH  51  75
ATOM     75  C   UNL A   1      41.547  26.900  27.601  1.00  0.00     0.023 A 
ATOM     76  C   UNL A   1      41.394  25.504  27.541  1.00  0.00     0.031 A 
ATOM     77  C   UNL A   1      42.180  27.536  26.517  1.00  0.00     0.131 A 
ATOM     78  C   UNL A   1      41.924  24.786  26.457  1.00  0.00     0.055 A 
ATOM     79  C   UNL A   1      42.644  26.824  25.409  1.00  0.00     0.041 A 
ATOM     80  F   UNL A   1      42.367  28.866  26.524  1.00  0.00    -0.206 F 
ATOM     81  C   UNL A   1      42.533  25.437  25.383  1.00  0.00     0.022 A 
BRANCH  78  82
ATOM     82  S   UNL A   1      41.920  22.973  26.533  1.00  0.00     0.124 S 
ATOM     83  O   UNL A   1      42.891  22.720  27.591  1.00  0.00    -0.237 OA
ATOM     84  O   UNL A   1      40.527  22.687  26.858  1.00  0.00    -0.237 OA
ATOM     85  O   UNL A   1      42.340  22.575  25.191  1.00  0.00    -0.744 OA
ENDBRANCH  78  82
ENDBRANCH  51  75
BRANCH  63  86
ATOM     86  C   UNL A   1      44.427  27.478  33.924  1.00  0.00     0.023 A 
ATOM     87  C   UNL A   1      44.386  26.146  34.372  1.00  0.00     0.031 A 
ATOM     88  C   UNL A   1      45.629  28.191  34.089  1.00  0.00     0.131 A 
ATOM     89  C   UNL A   1      45.503  25.587  35.014  1.00  0.00     0.055 A 
ATOM     90  C   UNL A   1      46.757  27.611  34.671  1.00  0.00     0.041 A 
ATOM     91  F   UNL A   1      45.728  29.467  33.682  1.00  0.00    -0.206 F 
ATOM     92  C   UNL A   1      46.694  26.305  35.150  1.00  0.00     0.022 A 
BRANCH  89  93
ATOM     93  S   UNL A   1      45.351  23.938  35.754  1.00  0.00     0.124 S 
ATOM     94  O   UNL A   1      43.942  23.903  36.131  1.00  0.00    -0.237 OA
ATOM     95  O   UNL A   1      45.737  23.064  34.651  1.00  0.00    -0.237 OA
ATOM     96  O   UNL A   1      46.292  23.975  36.872  1.00  0.00    -0.744 OA
ENDBRANCH  89  93
ENDBRANCH  63  86
ENDBRANCH  37  38
ENDBRANCH  30  32
ENDBRANCH  29  30
ENDBRANCH  28  29
ENDBRANCH  27  28
ENDBRANCH  26  27
ENDBRANCH  25  26
ENDBRANCH   1  25
TORSDOF 23
ENDMDL
MODEL 2
REMARK VINA RESULT:     -10.3      2.945      9.092
REMARK SMILES Cc1cccc(C)c1Nc1ccccc1CC(=O)OCCOCCOCCOC(=O)c1ccc(-c2c3nc(c(-c4cc(S(=O)(=O)[O-])ccc4F)c4ccc([nH]4)c(-c4cc(S(=O)(=O)[O-])ccc4F)c4nc(c(-c5cc(S(=O)(=O)[O-])ccc5F)c5ccc2[nH]5)C=C4)C=C3)cc1
REMARK SMILES IDX 23 1 22 2 21 3 20 4 19 5 17 6 18 7 16 8 15 9 10 10 11 11
REMARK SMILES IDX 12 12 14 13 13 14 9 15 8 17 1 18 2 19 3 20 4 21 6 22 5 23
REMARK SMILES IDX 7 24 24 25 25 26 26 27 27 28 28 29 29 30 30 31 31 32 32 33
REMARK SMILES IDX 93 34 33 35 92 36 34 37 35 38 36 39 86 40 37 41 91 42 85 43
REMARK SMILES IDX 87 44 38 45 90 46 84 47 83 48 39 50 71 51 51 52 70 53 52 54
REMARK SMILES IDX 55 55 69 56 88 57 53 58 54 59 68 61 89 62 56 63 40 64 41 65
REMARK SMILES IDX 49 66 42 67 48 68 50 69 47 70 43 71 44 72 45 73 46 74 72 75
REMARK SMILES IDX 73 76 81 77 74 78 80 79 82 80 79 81 75 82 76 83 77 84 78 85
REMARK SMILES IDX 57 86 58 87 66 88 59 89 65 90 67 91 64 92 60 93 61 94 62 95
REMARK SMILES IDX 63 96
REMARK H PARENT 9 16 87 49 55 60
REMARK Flexibility Score: inf
ROOT
ATOM      1  C   UNL A   1      39.939  21.755  26.570  1.00  0.00     0.188 C 
ENDROOT
BRANCH   1   2
ATOM      2  O   UNL A   1      38.582  21.761  26.131  1.00  0.00    -0.376 OA
BRANCH   2   3
ATOM      3  C   UNL A   1      37.983  23.003  25.786  1.00  0.00     0.202 C 
BRANCH   3   4
ATOM      4  C   UNL A   1      36.451  23.024  25.803  1.00  0.00     0.261 C 
BRANCH   4   5
ATOM      5  O   UNL A   1      35.881  22.271  24.713  1.00  0.00    -0.463 OA
BRANCH   5   6
ATOM      6  C   UNL A   1      35.862  22.879  23.499  1.00  0.00     0.310 C 
ATOM      7  O   UNL A   1      36.764  22.762  22.674  1.00  0.00    -0.252 OA
BRANCH   6   8
ATOM      8  C   UNL A   1      34.531  23.521  23.163  1.00  0.00     0.160 C 
BRANCH   8   9
ATOM      9  C   UNL A   1      33.370  23.465  24.148  1.00  0.00    -0.013 A 
ATOM     10  C   UNL A   1      32.809  24.587  24.784  1.00  0.00     0.042 A 
ATOM     11  C   UNL A   1      31.792  24.408  25.749  1.00  0.00     0.026 A 
ATOM     12  C   UNL A   1      31.232  23.156  25.988  1.00  0.00     0.002 A 
ATOM     13  C   UNL A   1      32.728  22.229  24.350  1.00  0.00     0.006 A 
ATOM     14  C   UNL A   1      31.674  22.069  25.252  1.00  0.00     0.000 A 
BRANCH  10  15
ATOM     15  N   UNL A   1      33.039  25.908  24.362  1.00  0.00    -0.355 N 
ATOM     16  H   UNL A   1      33.990  26.157  24.297  1.00  0.00     0.167 HD
BRANCH  15  17
ATOM     17  C   UNL A   1      32.136  26.942  24.016  1.00  0.00     0.044 A 
ATOM     18  C   UNL A   1      32.161  25.978  21.657  1.00  0.00     0.046 C 
ATOM     19  C   UNL A   1      31.634  26.939  22.690  1.00  0.00    -0.027 A 
ATOM     20  C   UNL A   1      30.584  27.799  22.335  1.00  0.00     0.005 A 
ATOM     21  C   UNL A   1      30.032  28.666  23.269  1.00  0.00     0.001 A 
ATOM     22  C   UNL A   1      31.632  27.898  24.936  1.00  0.00    -0.027 A 
ATOM     23  C   UNL A   1      30.557  28.722  24.554  1.00  0.00     0.005 A 
ATOM     24  C   UNL A   1      32.127  28.082  26.350  1.00  0.00     0.046 C 
ENDBRANCH  15  17
ENDBRANCH  10  15
ENDBRANCH   8   9
ENDBRANCH   6   8
ENDBRANCH   5   6
ENDBRANCH   4   5
ENDBRANCH   3   4
ENDBRANCH   2   3
ENDBRANCH   1   2
BRANCH   1  25
ATOM     25  C   UNL A   1      40.785  20.487  26.404  1.00  0.00     0.188 C 
BRANCH  25  26
ATOM     26  O   UNL A   1      42.145  20.702  26.747  1.00  0.00    -0.376 OA
BRANCH  26  27
ATOM     27  C   UNL A   1      43.042  20.341  25.707  1.00  0.00     0.202 C 
BRANCH  27  28
ATOM     28  C   UNL A   1      43.884  21.568  25.349  1.00  0.00     0.261 C 
BRANCH  28  29
ATOM     29  O   UNL A   1      43.116  22.735  24.983  1.00  0.00    -0.460 OA
BRANCH  29  30
ATOM     30  C   UNL A   1      43.754  23.923  25.040  1.00  0.00     0.338 C 
ATOM     31  O   UNL A   1      44.692  24.276  24.326  1.00  0.00    -0.246 OA
BRANCH  30  32
ATOM     32  C   UNL A   1      43.034  24.824  25.965  1.00  0.00     0.060 A 
ATOM     33  C   UNL A   1      43.202  26.209  25.827  1.00  0.00     0.016 A 
ATOM     34  C   UNL A   1      42.233  24.322  26.992  1.00  0.00     0.016 A 
ATOM     35  C   UNL A   1      42.585  27.094  26.715  1.00  0.00     0.010 A 
ATOM     36  C   UNL A   1      41.639  25.208  27.900  1.00  0.00     0.010 A 
ATOM     37  C   UNL A   1      41.830  26.598  27.784  1.00  0.00    -0.014 A 
BRANCH  37  38
ATOM     38  C   UNL A   1      41.400  27.504  28.884  1.00  0.00     0.031 A 
ATOM     39  C   UNL A   1      42.211  27.523  30.154  1.00  0.00     0.074 A 
ATOM     40  C   UNL A   1      40.333  28.317  28.761  1.00  0.00     0.049 A 
ATOM     41  N   UNL A   1      41.963  28.114  31.295  1.00  0.00    -0.248 NA
ATOM     42  C   UNL A   1      43.473  26.768  30.127  1.00  0.00     0.031 C 
ATOM     43  C   UNL A   1      39.518  28.468  27.558  1.00  0.00     0.029 A 
ATOM     44  N   UNL A   1      39.747  29.166  29.671  1.00  0.00    -0.354 N 
ATOM     45  C   UNL A   1      43.033  27.795  32.126  1.00  0.00     0.074 A 
ATOM     46  C   UNL A   1      43.911  26.931  31.365  1.00  0.00     0.031 C 
ATOM     47  C   UNL A   1      38.531  29.347  27.807  1.00  0.00     0.029 A 
ATOM     48  C   UNL A   1      38.606  29.778  29.203  1.00  0.00     0.049 A 
ATOM     49  H   UNL A   1      40.109  29.321  30.572  1.00  0.00     0.167 HD
ATOM     50  C   UNL A   1      43.264  28.190  33.403  1.00  0.00     0.034 A 
ATOM     51  C   UNL A   1      37.709  30.560  29.838  1.00  0.00     0.034 A 
ATOM     52  C   UNL A   1      42.377  29.044  34.154  1.00  0.00     0.049 A 
ATOM     53  C   UNL A   1      37.917  30.877  31.305  1.00  0.00     0.074 A 
ATOM     54  C   UNL A   1      42.502  29.480  35.462  1.00  0.00     0.029 A 
ATOM     55  N   UNL A   1      41.197  29.590  33.667  1.00  0.00    -0.354 N 
ATOM     56  N   UNL A   1      38.907  30.531  32.097  1.00  0.00    -0.248 NA
ATOM     57  C   UNL A   1      36.882  31.689  31.963  1.00  0.00     0.031 C 
ATOM     58  C   UNL A   1      41.368  30.233  35.785  1.00  0.00     0.029 A 
ATOM     59  C   UNL A   1      40.574  30.337  34.655  1.00  0.00     0.049 A 
ATOM     60  H   UNL A   1      40.854  29.466  32.752  1.00  0.00     0.167 HD
ATOM     61  C   UNL A   1      38.632  31.122  33.330  1.00  0.00     0.074 A 
ATOM     62  C   UNL A   1      37.393  31.853  33.174  1.00  0.00     0.031 C 
ATOM     63  C   UNL A   1      39.340  31.067  34.487  1.00  0.00     0.034 A 
BRANCH  50  64
ATOM     64  C   UNL A   1      44.504  27.657  34.078  1.00  0.00     0.023 A 
ATOM     65  C   UNL A   1      45.728  28.346  34.028  1.00  0.00     0.031 A 
ATOM     66  C   UNL A   1      44.467  26.429  34.763  1.00  0.00     0.131 A 
ATOM     67  C   UNL A   1      46.877  27.773  34.594  1.00  0.00     0.055 A 
ATOM     68  C   UNL A   1      45.596  25.902  35.391  1.00  0.00     0.041 A 
ATOM     69  F   UNL A   1      43.333  25.714  34.821  1.00  0.00    -0.206 F 
ATOM     70  C   UNL A   1      46.814  26.568  35.298  1.00  0.00     0.022 A 
BRANCH  67  71
ATOM     71  S   UNL A   1      48.482  28.554  34.275  1.00  0.00     0.124 S 
ATOM     72  O   UNL A   1      48.395  29.756  35.101  1.00  0.00    -0.237 OA
ATOM     73  O   UNL A   1      49.424  27.536  34.727  1.00  0.00    -0.237 OA
ATOM     74  O   UNL A   1      48.467  28.795  32.833  1.00  0.00    -0.744 OA
ENDBRANCH  67  71
ENDBRANCH  50  64
BRANCH  51  75
ATOM     75  C   UNL A   1      36.488  31.062  29.136  1.00  0.00     0.023 A 
ATOM     76  C   UNL A   1      36.092  32.406  29.242  1.00  0.00     0.031 A 
ATOM     77  C   UNL A   1      35.643  30.184  28.433  1.00  0.00     0.131 A 
ATOM     78  C   UNL A   1      34.858  32.818  28.715  1.00  0.00     0.055 A 
ATOM     79  C   UNL A   1      34.449  30.614  27.851  1.00  0.00     0.041 A 
ATOM     80  F   UNL A   1      35.962  28.886  28.310  1.00  0.00    -0.206 F 
ATOM     81  C   UNL A   1      34.040  31.935  28.006  1.00  0.00     0.022 A 
BRANCH  78  82
ATOM     82  S   UNL A   1      34.275  34.497  29.083  1.00  0.00     0.124 S 
ATOM     83  O   UNL A   1      34.828  35.252  27.965  1.00  0.00    -0.237 OA
ATOM     84  O   UNL A   1      32.827  34.321  29.085  1.00  0.00    -0.237 OA
ATOM     85  O   UNL A   1      34.868  34.785  30.387  1.00  0.00    -0.744 OA
ENDBRANCH  78  82
ENDBRANCH  51  75
BRANCH  63  86
ATOM     86  C   UNL A   1      38.827  31.879  35.653  1.00  0.00     0.023 A 
ATOM     87  C   UNL A   1      38.197  31.281  36.759  1.00  0.00     0.031 A 
ATOM     88  C   UNL A   1      38.964  33.280  35.652  1.00  0.00     0.131 A 
ATOM     89  C   UNL A   1      37.678  32.082  37.789  1.00  0.00     0.055 A 
ATOM     90  C   UNL A   1      38.503  34.067  36.708  1.00  0.00     0.041 A 
ATOM     91  F   UNL A   1      39.555  33.907  34.622  1.00  0.00    -0.206 F 
ATOM     92  C   UNL A   1      37.843  33.470  37.779  1.00  0.00     0.022 A 
BRANCH  89  93
ATOM     93  S   UNL A   1      36.702  31.296  39.099  1.00  0.00     0.124 S 
ATOM     94  O   UNL A   1      37.625  31.330  40.228  1.00  0.00    -0.237 OA
ATOM     95  O   UNL A   1      35.543  32.178  39.198  1.00  0.00    -0.237 OA
ATOM     96  O   UNL A   1      36.421  29.964  38.566  1.00  0.00    -0.744 OA
ENDBRANCH  89  93
ENDBRANCH  63  86
ENDBRANCH  37  38
ENDBRANCH  30  32
ENDBRANCH  29  30
ENDBRANCH  28  29
ENDBRANCH  27  28
ENDBRANCH  26  27
ENDBRANCH  25  26
ENDBRANCH   1  25
TORSDOF 23
ENDMDL
MODEL 3
REMARK VINA RESULT:     -10.2      2.205      7.938
REMARK SMILES Cc1cccc(C)c1Nc1ccccc1CC(=O)OCCOCCOCCOC(=O)c1ccc(-c2c3nc(c(-c4cc(S(=O)(=O)[O-])ccc4F)c4ccc([nH]4)c(-c4cc(S(=O)(=O)[O-])ccc4F)c4nc(c(-c5cc(S(=O)(=O)[O-])ccc5F)c5ccc2[nH]5)C=C4)C=C3)cc1
REMARK SMILES IDX 23 1 22 2 21 3 20 4 19 5 17 6 18 7 16 8 15 9 10 10 11 11
REMARK SMILES IDX 12 12 14 13 13 14 9 15 8 17 1 18 2 19 3 20 4 21 6 22 5 23
REMARK SMILES IDX 7 24 24 25 25 26 26 27 27 28 28 29 29 30 30 31 31 32 32 33
REMARK SMILES IDX 93 34 33 35 92 36 34 37 35 38 36 39 86 40 37 41 91 42 85 43
REMARK SMILES IDX 87 44 38 45 90 46 84 47 83 48 39 50 71 51 51 52 70 53 52 54
REMARK SMILES IDX 55 55 69 56 88 57 53 58 54 59 68 61 89 62 56 63 40 64 41 65
REMARK SMILES IDX 49 66 42 67 48 68 50 69 47 70 43 71 44 72 45 73 46 74 72 75
REMARK SMILES IDX 73 76 81 77 74 78 80 79 82 80 79 81 75 82 76 83 77 84 78 85
REMARK SMILES IDX 57 86 58 87 66 88 59 89 65 90 67 91 64 92 60 93 61 94 62 95
REMARK SMILES IDX 63 96
REMARK H PARENT 9 16 87 49 55 60
REMARK Flexibility Score: inf
ROOT
ATOM      1  C   UNL A   1      29.108  31.100  22.118  1.00  0.00     0.188 C 
ENDROOT
BRANCH   1   2
ATOM      2  O   UNL A   1      28.485  29.914  21.626  1.00  0.00    -0.376 OA
BRANCH   2   3
ATOM      3  C   UNL A   1      27.270  29.485  22.224  1.00  0.00     0.202 C 
BRANCH   3   4
ATOM      4  C   UNL A   1      27.388  28.289  23.173  1.00  0.00     0.261 C 
BRANCH   4   5
ATOM      5  O   UNL A   1      28.759  27.902  23.398  1.00  0.00    -0.463 OA
BRANCH   5   6
ATOM      6  C   UNL A   1      28.973  26.613  23.772  1.00  0.00     0.310 C 
ATOM      7  O   UNL A   1      28.144  25.944  24.383  1.00  0.00    -0.252 OA
BRANCH   6   8
ATOM      8  C   UNL A   1      30.222  26.005  23.166  1.00  0.00     0.160 C 
BRANCH   8   9
ATOM      9  C   UNL A   1      31.587  26.644  23.393  1.00  0.00    -0.013 A 
ATOM     10  C   UNL A   1      32.638  26.046  24.110  1.00  0.00     0.042 A 
ATOM     11  C   UNL A   1      33.831  26.769  24.333  1.00  0.00     0.026 A 
ATOM     12  C   UNL A   1      34.048  28.011  23.743  1.00  0.00     0.002 A 
ATOM     13  C   UNL A   1      31.867  27.860  22.742  1.00  0.00     0.006 A 
ATOM     14  C   UNL A   1      33.077  28.538  22.908  1.00  0.00     0.000 A 
BRANCH  10  15
ATOM     15  N   UNL A   1      32.669  24.679  24.437  1.00  0.00    -0.355 N 
ATOM     16  H   UNL A   1      32.311  24.084  23.739  1.00  0.00     0.167 HD
BRANCH  15  17
ATOM     17  C   UNL A   1      33.127  24.014  25.600  1.00  0.00     0.044 A 
ATOM     18  C   UNL A   1      30.713  24.078  26.413  1.00  0.00     0.046 C 
ATOM     19  C   UNL A   1      32.148  23.642  26.556  1.00  0.00    -0.027 A 
ATOM     20  C   UNL A   1      32.493  22.802  27.624  1.00  0.00     0.005 A 
ATOM     21  C   UNL A   1      33.793  22.334  27.765  1.00  0.00     0.001 A 
ATOM     22  C   UNL A   1      34.472  23.609  25.806  1.00  0.00    -0.027 A 
ATOM     23  C   UNL A   1      34.774  22.741  26.871  1.00  0.00     0.005 A 
ATOM     24  C   UNL A   1      35.637  23.999  24.928  1.00  0.00     0.046 C 
ENDBRANCH  15  17
ENDBRANCH  10  15
ENDBRANCH   8   9
ENDBRANCH   6   8
ENDBRANCH   5   6
ENDBRANCH   4   5
ENDBRANCH   3   4
ENDBRANCH   2   3
ENDBRANCH   1   2
BRANCH   1  25
ATOM     25  C   UNL A   1      29.196  31.342  23.629  1.00  0.00     0.188 C 
BRANCH  25  26
ATOM     26  O   UNL A   1      30.216  30.565  24.238  1.00  0.00    -0.376 OA
BRANCH  26  27
ATOM     27  C   UNL A   1      30.772  31.186  25.387  1.00  0.00     0.202 C 
BRANCH  27  28
ATOM     28  C   UNL A   1      31.995  30.378  25.827  1.00  0.00     0.261 C 
BRANCH  28  29
ATOM     29  O   UNL A   1      32.459  30.673  27.162  1.00  0.00    -0.460 OA
BRANCH  29  30
ATOM     30  C   UNL A   1      33.201  31.790  27.313  1.00  0.00     0.338 C 
ATOM     31  O   UNL A   1      32.791  32.948  27.235  1.00  0.00    -0.246 OA
BRANCH  30  32
ATOM     32  C   UNL A   1      34.555  31.423  27.780  1.00  0.00     0.060 A 
ATOM     33  C   UNL A   1      34.810  30.092  28.135  1.00  0.00     0.016 A 
ATOM     34  C   UNL A   1      35.562  32.381  27.913  1.00  0.00     0.016 A 
ATOM     35  C   UNL A   1      36.059  29.714  28.634  1.00  0.00     0.010 A 
ATOM     36  C   UNL A   1      36.804  32.008  28.442  1.00  0.00     0.010 A 
ATOM     37  C   UNL A   1      37.056  30.678  28.829  1.00  0.00    -0.014 A 
BRANCH  37  38
ATOM     38  C   UNL A   1      38.281  30.346  29.606  1.00  0.00     0.031 A 
ATOM     39  C   UNL A   1      39.256  29.359  29.018  1.00  0.00     0.074 A 
ATOM     40  C   UNL A   1      38.548  30.921  30.794  1.00  0.00     0.049 A 
ATOM     41  N   UNL A   1      40.313  28.806  29.556  1.00  0.00    -0.248 NA
ATOM     42  C   UNL A   1      38.996  28.941  27.632  1.00  0.00     0.031 C 
ATOM     43  C   UNL A   1      37.741  31.958  31.433  1.00  0.00     0.029 A 
ATOM     44  N   UNL A   1      39.576  30.703  31.681  1.00  0.00    -0.354 N 
ATOM     45  C   UNL A   1      40.839  27.967  28.579  1.00  0.00     0.074 A 
ATOM     46  C   UNL A   1      39.964  28.061  27.429  1.00  0.00     0.031 C 
ATOM     47  C   UNL A   1      38.299  32.278  32.614  1.00  0.00     0.029 A 
ATOM     48  C   UNL A   1      39.468  31.429  32.845  1.00  0.00     0.049 A 
ATOM     49  H   UNL A   1      40.320  30.085  31.500  1.00  0.00     0.167 HD
ATOM     50  C   UNL A   1      41.953  27.194  28.633  1.00  0.00     0.034 A 
ATOM     51  C   UNL A   1      40.202  31.386  33.976  1.00  0.00     0.034 A 
ATOM     52  C   UNL A   1      42.813  27.101  29.788  1.00  0.00     0.049 A 
ATOM     53  C   UNL A   1      41.361  30.414  34.064  1.00  0.00     0.074 A 
ATOM     54  C   UNL A   1      43.948  26.327  29.958  1.00  0.00     0.029 A 
ATOM     55  N   UNL A   1      42.631  27.802  30.972  1.00  0.00    -0.354 N 
ATOM     56  N   UNL A   1      41.823  29.589  33.152  1.00  0.00    -0.248 NA
ATOM     57  C   UNL A   1      42.094  30.368  35.338  1.00  0.00     0.031 C 
ATOM     58  C   UNL A   1      44.413  26.510  31.264  1.00  0.00     0.029 A 
ATOM     59  C   UNL A   1      43.618  27.460  31.884  1.00  0.00     0.049 A 
ATOM     60  H   UNL A   1      41.909  28.450  31.139  1.00  0.00     0.167 HD
ATOM     61  C   UNL A   1      42.926  28.962  33.731  1.00  0.00     0.074 A 
ATOM     62  C   UNL A   1      43.066  29.511  35.062  1.00  0.00     0.031 C 
ATOM     63  C   UNL A   1      43.752  28.019  33.209  1.00  0.00     0.034 A 
BRANCH  50  64
ATOM     64  C   UNL A   1      42.270  26.351  27.422  1.00  0.00     0.023 A 
ATOM     65  C   UNL A   1      41.889  25.000  27.341  1.00  0.00     0.031 A 
ATOM     66  C   UNL A   1      42.983  26.899  26.341  1.00  0.00     0.131 A 
ATOM     67  C   UNL A   1      42.279  24.228  26.237  1.00  0.00     0.055 A 
ATOM     68  C   UNL A   1      43.300  26.146  25.210  1.00  0.00     0.041 A 
ATOM     69  F   UNL A   1      43.396  28.176  26.373  1.00  0.00    -0.206 F 
ATOM     70  C   UNL A   1      42.960  24.798  25.158  1.00  0.00     0.022 A 
BRANCH  67  71
ATOM     71  S   UNL A   1      42.010  22.435  26.294  1.00  0.00     0.124 S 
ATOM     72  O   UNL A   1      42.465  22.111  27.644  1.00  0.00    -0.237 OA
ATOM     73  O   UNL A   1      40.574  22.325  26.061  1.00  0.00    -0.237 OA
ATOM     74  O   UNL A   1      42.857  21.926  25.219  1.00  0.00    -0.744 OA
ENDBRANCH  67  71
ENDBRANCH  50  64
BRANCH  51  75
ATOM     75  C   UNL A   1      39.850  32.231  35.158  1.00  0.00     0.023 A 
ATOM     76  C   UNL A   1      39.074  31.717  36.211  1.00  0.00     0.031 A 
ATOM     77  C   UNL A   1      40.195  33.594  35.205  1.00  0.00     0.131 A 
ATOM     78  C   UNL A   1      38.615  32.571  37.227  1.00  0.00     0.055 A 
ATOM     79  C   UNL A   1      39.794  34.424  36.253  1.00  0.00     0.041 A 
ATOM     80  F   UNL A   1      40.923  34.145  34.220  1.00  0.00    -0.206 F 
ATOM     81  C   UNL A   1      38.982  33.917  37.264  1.00  0.00     0.022 A 
BRANCH  78  82
ATOM     82  S   UNL A   1      37.421  31.923  38.430  1.00  0.00     0.124 S 
ATOM     83  O   UNL A   1      38.190  31.979  39.668  1.00  0.00    -0.237 OA
ATOM     84  O   UNL A   1      36.324  32.877  38.312  1.00  0.00    -0.237 OA
ATOM     85  O   UNL A   1      37.133  30.579  37.934  1.00  0.00    -0.744 OA
ENDBRANCH  78  82
ENDBRANCH  51  75
BRANCH  63  86
ATOM     86  C   UNL A   1      44.922  27.575  34.056  1.00  0.00     0.023 A 
ATOM     87  C   UNL A   1      44.852  26.449  34.894  1.00  0.00     0.031 A 
ATOM     88  C   UNL A   1      46.127  28.301  34.028  1.00  0.00     0.131 A 
ATOM     89  C   UNL A   1      45.943  26.114  35.711  1.00  0.00     0.055 A 
ATOM     90  C   UNL A   1      47.231  27.928  34.795  1.00  0.00     0.041 A 
ATOM     91  F   UNL A   1      46.253  29.387  33.247  1.00  0.00    -0.206 F 
ATOM     92  C   UNL A   1      47.139  26.836  35.653  1.00  0.00     0.022 A 
BRANCH  89  93
ATOM     93  S   UNL A   1      45.751  24.777  36.921  1.00  0.00     0.124 S 
ATOM     94  O   UNL A   1      47.132  24.360  37.136  1.00  0.00    -0.237 OA
ATOM     95  O   UNL A   1      45.110  25.459  38.041  1.00  0.00    -0.237 OA
ATOM     96  O   UNL A   1      44.909  23.804  36.227  1.00  0.00    -0.744 OA
ENDBRANCH  89  93
ENDBRANCH  63  86
ENDBRANCH  37  38
ENDBRANCH  30  32
ENDBRANCH  29  30
ENDBRANCH  28  29
ENDBRANCH  27  28
ENDBRANCH  26  27
ENDBRANCH  25  26
ENDBRANCH   1  25
TORSDOF 23
ENDMDL
