MODEL 1
REMARK VINA RESULT:     -10.3      0.000      0.000
REMARK SMILES O=C(OCCOCCOCCOC(=O)c1ccc(-c2c3nc(c(-c4cc(S(=O)(=O)[O-])ccc4F)c4ccc([nH]4)c(-c4cc(S(=O)(=O)[O-])ccc4F)c4nc(c(-c5cc(S(=O)(=O)[O-])ccc5F)c5ccc2[nH]5)C=C4)C=C3)cc1)C(=O)N1CC[N@@H+]2CCC[C@H]2C1
REMARK SMILES IDX 8 1 7 2 6 3 5 4 4 5 3 6 2 7 1 8 78 9 79 10 80 11 81 12 88 13
REMARK SMILES IDX 82 14 87 15 83 16 86 17 84 18 85 20 9 21 10 22 11 23 12 24
REMARK SMILES IDX 13 25 14 26 15 27 16 28 77 29 17 30 76 31 18 32 19 33 20 34
REMARK SMILES IDX 70 35 21 36 75 37 69 38 71 39 22 40 74 41 68 42 67 43 23 45
REMARK SMILES IDX 55 46 35 47 54 48 36 49 39 50 53 51 72 52 37 53 38 54 52 56
REMARK SMILES IDX 73 57 40 58 24 59 25 60 33 61 26 62 32 63 34 64 31 65 27 66
REMARK SMILES IDX 28 67 29 68 30 69 56 70 57 71 65 72 58 73 64 74 66 75 63 76
REMARK SMILES IDX 59 77 60 78 61 79 62 80 41 81 42 82 50 83 43 84 49 85 51 86
REMARK SMILES IDX 48 87 44 88 45 89 46 90 47 91
REMARK H PARENT 83 19 71 44 39 55
REMARK Flexibility Score: inf
ROOT
ATOM      1  C   UNL A   1      31.957  28.982  24.224  1.00  0.00     0.188 C 
ENDROOT
BRANCH   1   2
ATOM      2  C   UNL A   1      30.923  28.225  23.388  1.00  0.00     0.188 C 
BRANCH   2   3
ATOM      3  O   UNL A   1      30.255  27.128  24.029  1.00  0.00    -0.376 OA
BRANCH   3   4
ATOM      4  C   UNL A   1      31.012  25.942  24.274  1.00  0.00     0.202 C 
BRANCH   4   5
ATOM      5  C   UNL A   1      31.064  25.474  25.738  1.00  0.00     0.262 C 
BRANCH   5   6
ATOM      6  O   UNL A   1      30.239  24.318  25.928  1.00  0.00    -0.456 OA
BRANCH   6   7
ATOM      7  C   UNL A   1      30.497  23.377  26.857  1.00  0.00     0.397 C 
ATOM      8  O   UNL A   1      29.623  22.977  27.616  1.00  0.00    -0.240 OA
BRANCH   7   9
ATOM      9  C   UNL A   1      31.857  22.662  26.849  1.00  0.00     0.332 C 
ATOM     10  O   UNL A   1      32.612  22.916  27.787  1.00  0.00    -0.261 OA
BRANCH   9  11
ATOM     11  N   UNL A   1      32.234  21.849  25.771  1.00  0.00    -0.321 N 
ATOM     12  C   UNL A   1      32.935  20.560  25.856  1.00  0.00     0.181 C 
ATOM     13  C   UNL A   1      32.462  22.512  24.489  1.00  0.00     0.185 C 
ATOM     14  C   UNL A   1      34.476  20.737  25.605  1.00  0.00     0.284 C 
ATOM     15  C   UNL A   1      33.954  22.818  24.425  1.00  0.00     0.204 C 
ATOM     16  N   UNL A   1      34.754  21.576  24.433  1.00  0.00    -0.330 N 
ATOM     17  C   UNL A   1      34.472  23.475  23.166  1.00  0.00     0.073 C 
ATOM     18  C   UNL A   1      36.122  22.056  24.283  1.00  0.00     0.262 C 
ATOM     19  H   UNL A   1      34.529  20.924  23.682  1.00  0.00     0.348 HD
ATOM     20  C   UNL A   1      35.962  23.105  23.175  1.00  0.00     0.068 C 
ENDBRANCH   9  11
ENDBRANCH   7   9
ENDBRANCH   6   7
ENDBRANCH   5   6
ENDBRANCH   4   5
ENDBRANCH   3   4
ENDBRANCH   2   3
ENDBRANCH   1   2
BRANCH   1  21
ATOM     21  O   UNL A   1      31.464  29.585  25.418  1.00  0.00    -0.376 OA
BRANCH  21  22
ATOM     22  C   UNL A   1      30.962  30.907  25.297  1.00  0.00     0.202 C 
BRANCH  22  23
ATOM     23  C   UNL A   1      31.293  31.798  26.509  1.00  0.00     0.261 C 
BRANCH  23  24
ATOM     24  O   UNL A   1      32.442  31.378  27.265  1.00  0.00    -0.460 OA
BRANCH  24  25
ATOM     25  C   UNL A   1      33.300  32.386  27.560  1.00  0.00     0.338 C 
ATOM     26  O   UNL A   1      33.020  33.574  27.675  1.00  0.00    -0.246 OA
BRANCH  25  27
ATOM     27  C   UNL A   1      34.665  31.872  27.792  1.00  0.00     0.060 A 
ATOM     28  C   UNL A   1      34.833  30.490  27.937  1.00  0.00     0.016 A 
ATOM     29  C   UNL A   1      35.723  32.745  28.060  1.00  0.00     0.016 A 
ATOM     30  C   UNL A   1      36.025  29.985  28.460  1.00  0.00     0.010 A 
ATOM     31  C   UNL A   1      36.918  32.235  28.586  1.00  0.00     0.010 A 
ATOM     32  C   UNL A   1      37.045  30.860  28.860  1.00  0.00    -0.014 A 
BRANCH  32  33
ATOM     33  C   UNL A   1      38.083  30.363  29.807  1.00  0.00     0.031 A 
ATOM     34  C   UNL A   1      39.074  29.337  29.306  1.00  0.00     0.074 A 
ATOM     35  C   UNL A   1      38.208  30.859  31.052  1.00  0.00     0.049 A 
ATOM     36  N   UNL A   1      40.098  28.795  29.915  1.00  0.00    -0.248 NA
ATOM     37  C   UNL A   1      38.876  28.858  27.928  1.00  0.00     0.031 C 
ATOM     38  C   UNL A   1      37.347  31.880  31.645  1.00  0.00     0.029 A 
ATOM     39  N   UNL A   1      39.121  30.575  32.039  1.00  0.00    -0.354 N 
ATOM     40  C   UNL A   1      40.666  27.916  28.996  1.00  0.00     0.074 A 
ATOM     41  C   UNL A   1      39.840  27.960  27.809  1.00  0.00     0.031 C 
ATOM     42  C   UNL A   1      37.780  32.144  32.890  1.00  0.00     0.029 A 
ATOM     43  C   UNL A   1      38.933  31.296  33.194  1.00  0.00     0.049 A 
ATOM     44  H   UNL A   1      39.844  29.915  31.928  1.00  0.00     0.167 HD
ATOM     45  C   UNL A   1      41.781  27.153  29.117  1.00  0.00     0.034 A 
ATOM     46  C   UNL A   1      39.611  31.274  34.360  1.00  0.00     0.034 A 
ATOM     47  C   UNL A   1      42.601  27.111  30.304  1.00  0.00     0.049 A 
ATOM     48  C   UNL A   1      40.814  30.368  34.499  1.00  0.00     0.074 A 
ATOM     49  C   UNL A   1      43.755  26.381  30.530  1.00  0.00     0.029 A 
ATOM     50  N   UNL A   1      42.349  27.823  31.470  1.00  0.00    -0.354 N 
ATOM     51  N   UNL A   1      41.347  29.554  33.616  1.00  0.00    -0.248 NA
ATOM     52  C   UNL A   1      41.516  30.394  35.789  1.00  0.00     0.031 C 
ATOM     53  C   UNL A   1      44.161  26.598  31.852  1.00  0.00     0.029 A 
ATOM     54  C   UNL A   1      43.307  27.526  32.428  1.00  0.00     0.049 A 
ATOM     55  H   UNL A   1      41.598  28.447  31.598  1.00  0.00     0.167 HD
ATOM     56  C   UNL A   1      42.471  29.006  34.234  1.00  0.00     0.074 A 
ATOM     57  C   UNL A   1      42.543  29.589  35.556  1.00  0.00     0.031 C 
ATOM     58  C   UNL A   1      43.368  28.110  33.747  1.00  0.00     0.034 A 
BRANCH  45  59
ATOM     59  C   UNL A   1      42.140  26.264  27.950  1.00  0.00     0.023 A 
ATOM     60  C   UNL A   1      41.603  24.972  27.803  1.00  0.00     0.031 A 
ATOM     61  C   UNL A   1      43.070  26.701  26.990  1.00  0.00     0.131 A 
ATOM     62  C   UNL A   1      42.054  24.138  26.769  1.00  0.00     0.055 A 
ATOM     63  C   UNL A   1      43.455  25.895  25.915  1.00  0.00     0.041 A 
ATOM     64  F   UNL A   1      43.635  27.914  27.087  1.00  0.00    -0.206 F 
ATOM     65  C   UNL A   1      42.958  24.600  25.809  1.00  0.00     0.022 A 
BRANCH  62  66
ATOM     66  S   UNL A   1      41.559  22.392  26.778  1.00  0.00     0.124 S 
ATOM     67  O   UNL A   1      41.979  21.960  25.448  1.00  0.00    -0.237 OA
ATOM     68  O   UNL A   1      42.321  21.854  27.899  1.00  0.00    -0.237 OA
ATOM     69  O   UNL A   1      40.111  22.447  26.977  1.00  0.00    -0.744 OA
ENDBRANCH  62  66
ENDBRANCH  45  59
BRANCH  46  70
ATOM     70  C   UNL A   1      39.172  32.118  35.511  1.00  0.00     0.023 A 
ATOM     71  C   UNL A   1      39.622  33.440  35.662  1.00  0.00     0.031 A 
ATOM     72  C   UNL A   1      38.349  31.584  36.519  1.00  0.00     0.131 A 
ATOM     73  C   UNL A   1      39.289  34.166  36.818  1.00  0.00     0.055 A 
ATOM     74  C   UNL A   1      37.978  32.327  37.640  1.00  0.00     0.041 A 
ATOM     75  F   UNL A   1      37.895  30.324  36.427  1.00  0.00    -0.206 F 
ATOM     76  C   UNL A   1      38.460  33.622  37.801  1.00  0.00     0.022 A 
BRANCH  73  77
ATOM     77  S   UNL A   1      40.034  35.802  37.065  1.00  0.00     0.124 S 
ATOM     78  O   UNL A   1      39.657  36.490  35.836  1.00  0.00    -0.237 OA
ATOM     79  O   UNL A   1      39.373  36.255  38.284  1.00  0.00    -0.237 OA
ATOM     80  O   UNL A   1      41.459  35.509  37.204  1.00  0.00    -0.744 OA
ENDBRANCH  73  77
ENDBRANCH  46  70
BRANCH  58  81
ATOM     81  C   UNL A   1      44.539  27.754  34.634  1.00  0.00     0.023 A 
ATOM     82  C   UNL A   1      44.560  26.578  35.406  1.00  0.00     0.031 A 
ATOM     83  C   UNL A   1      45.644  28.620  34.723  1.00  0.00     0.131 A 
ATOM     84  C   UNL A   1      45.631  26.334  36.281  1.00  0.00     0.055 A 
ATOM     85  C   UNL A   1      46.735  28.341  35.547  1.00  0.00     0.041 A 
ATOM     86  F   UNL A   1      45.680  29.757  34.009  1.00  0.00    -0.206 F 
ATOM     87  C   UNL A   1      46.725  27.201  36.345  1.00  0.00     0.022 A 
BRANCH  84  88
ATOM     88  S   UNL A   1      45.527  24.923  37.416  1.00  0.00     0.124 S 
ATOM     89  O   UNL A   1      44.263  25.173  38.100  1.00  0.00    -0.237 OA
ATOM     90  O   UNL A   1      45.543  23.785  36.502  1.00  0.00    -0.237 OA
ATOM     91  O   UNL A   1      46.720  25.064  38.250  1.00  0.00    -0.744 OA
ENDBRANCH  84  88
ENDBRANCH  58  81
ENDBRANCH  32  33
ENDBRANCH  25  27
ENDBRANCH  24  25
ENDBRANCH  23  24
ENDBRANCH  22  23
ENDBRANCH  21  22
ENDBRANCH   1  21
TORSDOF 21
ENDMDL
MODEL 2
REMARK VINA RESULT:     -10.2      1.592      8.090
REMARK SMILES O=C(OCCOCCOCCOC(=O)c1ccc(-c2c3nc(c(-c4cc(S(=O)(=O)[O-])ccc4F)c4ccc([nH]4)c(-c4cc(S(=O)(=O)[O-])ccc4F)c4nc(c(-c5cc(S(=O)(=O)[O-])ccc5F)c5ccc2[nH]5)C=C4)C=C3)cc1)C(=O)N1CC[N@@H+]2CCC[C@H]2C1
REMARK SMILES IDX 8 1 7 2 6 3 5 4 4 5 3 6 2 7 1 8 78 9 79 10 80 11 81 12 88 13
REMARK SMILES IDX 82 14 87 15 83 16 86 17 84 18 85 20 9 21 10 22 11 23 12 24
REMARK SMILES IDX 13 25 14 26 15 27 16 28 77 29 17 30 76 31 18 32 19 33 20 34
REMARK SMILES IDX 70 35 21 36 75 37 69 38 71 39 22 40 74 41 68 42 67 43 23 45
REMARK SMILES IDX 55 46 35 47 54 48 36 49 39 50 53 51 72 52 37 53 38 54 52 56
REMARK SMILES IDX 73 57 40 58 24 59 25 60 33 61 26 62 32 63 34 64 31 65 27 66
REMARK SMILES IDX 28 67 29 68 30 69 56 70 57 71 65 72 58 73 64 74 66 75 63 76
REMARK SMILES IDX 59 77 60 78 61 79 62 80 41 81 42 82 50 83 43 84 49 85 51 86
REMARK SMILES IDX 48 87 44 88 45 89 46 90 47 91
REMARK H PARENT 83 19 71 44 39 55
REMARK Flexibility Score: inf
ROOT
ATOM      1  C   UNL A   1      33.186  30.564  26.779  1.00  0.00     0.188 C 
ENDROOT
BRANCH   1   2
ATOM      2  C   UNL A   1      33.617  29.128  27.083  1.00  0.00     0.188 C 
BRANCH   2   3
ATOM      3  O   UNL A   1      33.268  28.131  26.110  1.00  0.00    -0.376 OA
BRANCH   3   4
ATOM      4  C   UNL A   1      33.663  28.359  24.757  1.00  0.00     0.202 C 
BRANCH   4   5
ATOM      5  C   UNL A   1      32.529  28.701  23.778  1.00  0.00     0.262 C 
BRANCH   5   6
ATOM      6  O   UNL A   1      31.311  28.056  24.171  1.00  0.00    -0.456 OA
BRANCH   6   7
ATOM      7  C   UNL A   1      30.505  27.417  23.300  1.00  0.00     0.397 C 
ATOM      8  O   UNL A   1      30.624  27.574  22.091  1.00  0.00    -0.240 OA
BRANCH   7   9
ATOM      9  C   UNL A   1      29.541  26.338  23.816  1.00  0.00     0.332 C 
ATOM     10  O   UNL A   1      28.344  26.623  23.800  1.00  0.00    -0.261 OA
BRANCH   9  11
ATOM     11  N   UNL A   1      30.029  25.144  24.366  1.00  0.00    -0.321 N 
ATOM     12  C   UNL A   1      30.495  24.948  25.747  1.00  0.00     0.181 C 
ATOM     13  C   UNL A   1      30.634  24.187  23.444  1.00  0.00     0.185 C 
ATOM     14  C   UNL A   1      32.061  25.033  25.831  1.00  0.00     0.284 C 
ATOM     15  C   UNL A   1      32.130  24.478  23.446  1.00  0.00     0.204 C 
ATOM     16  N   UNL A   1      32.717  24.242  24.782  1.00  0.00    -0.330 N 
ATOM     17  C   UNL A   1      33.009  23.590  22.595  1.00  0.00     0.073 C 
ATOM     18  C   UNL A   1      34.139  24.484  24.572  1.00  0.00     0.262 C 
ATOM     19  H   UNL A   1      32.573  23.300  25.145  1.00  0.00     0.348 HD
ATOM     20  C   UNL A   1      34.388  23.742  23.253  1.00  0.00     0.068 C 
ENDBRANCH   9  11
ENDBRANCH   7   9
ENDBRANCH   6   7
ENDBRANCH   5   6
ENDBRANCH   4   5
ENDBRANCH   3   4
ENDBRANCH   2   3
ENDBRANCH   1   2
BRANCH   1  21
ATOM     21  O   UNL A   1      31.786  30.766  26.604  1.00  0.00    -0.376 OA
BRANCH  21  22
ATOM     22  C   UNL A   1      31.310  32.088  26.802  1.00  0.00     0.202 C 
BRANCH  22  23
ATOM     23  C   UNL A   1      32.437  33.117  27.007  1.00  0.00     0.261 C 
BRANCH  23  24
ATOM     24  O   UNL A   1      32.290  33.942  28.176  1.00  0.00    -0.460 OA
BRANCH  24  25
ATOM     25  C   UNL A   1      33.460  34.444  28.641  1.00  0.00     0.338 C 
ATOM     26  O   UNL A   1      33.651  35.579  29.064  1.00  0.00    -0.246 OA
BRANCH  25  27
ATOM     27  C   UNL A   1      34.520  33.417  28.636  1.00  0.00     0.060 A 
ATOM     28  C   UNL A   1      34.356  32.296  29.459  1.00  0.00     0.016 A 
ATOM     29  C   UNL A   1      35.738  33.646  27.991  1.00  0.00     0.016 A 
ATOM     30  C   UNL A   1      35.445  31.464  29.728  1.00  0.00     0.010 A 
ATOM     31  C   UNL A   1      36.830  32.811  28.263  1.00  0.00     0.010 A 
ATOM     32  C   UNL A   1      36.706  31.762  29.193  1.00  0.00    -0.014 A 
BRANCH  32  33
ATOM     33  C   UNL A   1      37.913  31.161  29.831  1.00  0.00     0.031 A 
ATOM     34  C   UNL A   1      38.230  31.545  31.259  1.00  0.00     0.074 A 
ATOM     35  C   UNL A   1      38.667  30.240  29.204  1.00  0.00     0.049 A 
ATOM     36  N   UNL A   1      39.185  31.119  32.048  1.00  0.00    -0.248 NA
ATOM     37  C   UNL A   1      37.348  32.548  31.876  1.00  0.00     0.031 C 
ATOM     38  C   UNL A   1      38.446  29.751  27.845  1.00  0.00     0.029 A 
ATOM     39  N   UNL A   1      39.767  29.540  29.639  1.00  0.00    -0.354 N 
ATOM     40  C   UNL A   1      39.016  31.800  33.251  1.00  0.00     0.074 A 
ATOM     41  C   UNL A   1      37.900  32.703  33.068  1.00  0.00     0.031 C 
ATOM     42  C   UNL A   1      39.377  28.822  27.560  1.00  0.00     0.029 A 
ATOM     43  C   UNL A   1      40.274  28.666  28.706  1.00  0.00     0.049 A 
ATOM     44  H   UNL A   1      40.156  29.655  30.536  1.00  0.00     0.167 HD
ATOM     45  C   UNL A   1      39.711  31.675  34.409  1.00  0.00     0.034 A 
ATOM     46  C   UNL A   1      41.337  27.839  28.768  1.00  0.00     0.034 A 
ATOM     47  C   UNL A   1      40.824  30.774  34.586  1.00  0.00     0.049 A 
ATOM     48  C   UNL A   1      42.140  27.763  30.048  1.00  0.00     0.074 A 
ATOM     49  C   UNL A   1      41.592  30.563  35.718  1.00  0.00     0.029 A 
ATOM     50  N   UNL A   1      41.335  29.940  33.601  1.00  0.00    -0.354 N 
ATOM     51  N   UNL A   1      41.959  28.401  31.182  1.00  0.00    -0.248 NA
ATOM     52  C   UNL A   1      43.282  26.838  30.058  1.00  0.00     0.031 C 
ATOM     53  C   UNL A   1      42.607  29.654  35.398  1.00  0.00     0.029 A 
ATOM     54  C   UNL A   1      42.426  29.235  34.089  1.00  0.00     0.049 A 
ATOM     55  H   UNL A   1      40.976  29.860  32.688  1.00  0.00     0.167 HD
ATOM     56  C   UNL A   1      42.939  27.920  32.050  1.00  0.00     0.074 A 
ATOM     57  C   UNL A   1      43.699  26.934  31.312  1.00  0.00     0.031 C 
ATOM     58  C   UNL A   1      43.181  28.256  33.344  1.00  0.00     0.034 A 
BRANCH  45  59
ATOM     59  C   UNL A   1      39.314  32.579  35.553  1.00  0.00     0.023 A 
ATOM     60  C   UNL A   1      39.830  33.881  35.688  1.00  0.00     0.031 A 
ATOM     61  C   UNL A   1      38.438  32.113  36.550  1.00  0.00     0.131 A 
ATOM     62  C   UNL A   1      39.525  34.641  36.828  1.00  0.00     0.055 A 
ATOM     63  C   UNL A   1      38.074  32.905  37.641  1.00  0.00     0.041 A 
ATOM     64  F   UNL A   1      37.931  30.872  36.488  1.00  0.00    -0.206 F 
ATOM     65  C   UNL A   1      38.631  34.171  37.794  1.00  0.00     0.022 A 
BRANCH  62  66
ATOM     66  S   UNL A   1      40.427  36.191  37.109  1.00  0.00     0.124 S 
ATOM     67  O   UNL A   1      41.626  35.714  37.792  1.00  0.00    -0.237 OA
ATOM     68  O   UNL A   1      40.617  36.695  35.754  1.00  0.00    -0.237 OA
ATOM     69  O   UNL A   1      39.514  36.972  37.943  1.00  0.00    -0.744 OA
ENDBRANCH  62  66
ENDBRANCH  45  59
BRANCH  46  70
ATOM     70  C   UNL A   1      41.734  27.020  27.585  1.00  0.00     0.023 A 
ATOM     71  C   UNL A   1      41.451  25.646  27.518  1.00  0.00     0.031 A 
ATOM     72  C   UNL A   1      42.470  27.592  26.531  1.00  0.00     0.131 A 
ATOM     73  C   UNL A   1      41.945  24.880  26.450  1.00  0.00     0.055 A 
ATOM     74  C   UNL A   1      42.912  26.836  25.444  1.00  0.00     0.041 A 
ATOM     75  F   UNL A   1      42.771  28.900  26.547  1.00  0.00    -0.206 F 
ATOM     76  C   UNL A   1      42.662  25.469  25.407  1.00  0.00     0.022 A 
BRANCH  73  77
ATOM     77  S   UNL A   1      41.717  23.080  26.488  1.00  0.00     0.124 S 
ATOM     78  O   UNL A   1      42.368  22.671  25.248  1.00  0.00    -0.237 OA
ATOM     79  O   UNL A   1      42.401  22.713  27.724  1.00  0.00    -0.237 OA
ATOM     80  O   UNL A   1      40.265  22.921  26.512  1.00  0.00    -0.744 OA
ENDBRANCH  73  77
ENDBRANCH  46  70
BRANCH  58  81
ATOM     81  C   UNL A   1      44.279  27.503  34.059  1.00  0.00     0.023 A 
ATOM     82  C   UNL A   1      44.011  26.387  34.872  1.00  0.00     0.031 A 
ATOM     83  C   UNL A   1      45.616  27.924  33.938  1.00  0.00     0.131 A 
ATOM     84  C   UNL A   1      45.055  25.774  35.585  1.00  0.00     0.055 A 
ATOM     85  C   UNL A   1      46.658  27.271  34.599  1.00  0.00     0.041 A 
ATOM     86  F   UNL A   1      45.933  28.983  33.175  1.00  0.00    -0.206 F 
ATOM     87  C   UNL A   1      46.378  26.200  35.441  1.00  0.00     0.022 A 
BRANCH  84  88
ATOM     88  S   UNL A   1      44.646  24.478  36.787  1.00  0.00     0.124 S 
ATOM     89  O   UNL A   1      43.314  24.879  37.228  1.00  0.00    -0.237 OA
ATOM     90  O   UNL A   1      44.712  23.267  35.975  1.00  0.00    -0.237 OA
ATOM     91  O   UNL A   1      45.696  24.603  37.798  1.00  0.00    -0.744 OA
ENDBRANCH  84  88
ENDBRANCH  58  81
ENDBRANCH  32  33
ENDBRANCH  25  27
ENDBRANCH  24  25
ENDBRANCH  23  24
ENDBRANCH  22  23
ENDBRANCH  21  22
ENDBRANCH   1  21
TORSDOF 21
ENDMDL
MODEL 3
REMARK VINA RESULT:     -10.0      1.748      2.217
REMARK SMILES O=C(OCCOCCOCCOC(=O)c1ccc(-c2c3nc(c(-c4cc(S(=O)(=O)[O-])ccc4F)c4ccc([nH]4)c(-c4cc(S(=O)(=O)[O-])ccc4F)c4nc(c(-c5cc(S(=O)(=O)[O-])ccc5F)c5ccc2[nH]5)C=C4)C=C3)cc1)C(=O)N1CC[N@@H+]2CCC[C@H]2C1
REMARK SMILES IDX 8 1 7 2 6 3 5 4 4 5 3 6 2 7 1 8 78 9 79 10 80 11 81 12 88 13
REMARK SMILES IDX 82 14 87 15 83 16 86 17 84 18 85 20 9 21 10 22 11 23 12 24
REMARK SMILES IDX 13 25 14 26 15 27 16 28 77 29 17 30 76 31 18 32 19 33 20 34
REMARK SMILES IDX 70 35 21 36 75 37 69 38 71 39 22 40 74 41 68 42 67 43 23 45
REMARK SMILES IDX 55 46 35 47 54 48 36 49 39 50 53 51 72 52 37 53 38 54 52 56
REMARK SMILES IDX 73 57 40 58 24 59 25 60 33 61 26 62 32 63 34 64 31 65 27 66
REMARK SMILES IDX 28 67 29 68 30 69 56 70 57 71 65 72 58 73 64 74 66 75 63 76
REMARK SMILES IDX 59 77 60 78 61 79 62 80 41 81 42 82 50 83 43 84 49 85 51 86
REMARK SMILES IDX 48 87 44 88 45 89 46 90 47 91
REMARK H PARENT 83 19 71 44 39 55
REMARK Flexibility Score: inf
ROOT
ATOM      1  C   UNL A   1      30.936  29.304  23.655  1.00  0.00     0.188 C 
ENDROOT
BRANCH   1   2
ATOM      2  C   UNL A   1      29.726  28.407  23.384  1.00  0.00     0.188 C 
BRANCH   2   3
ATOM      3  O   UNL A   1      29.984  26.999  23.263  1.00  0.00    -0.376 OA
BRANCH   3   4
ATOM      4  C   UNL A   1      31.344  26.582  23.138  1.00  0.00     0.202 C 
BRANCH   4   5
ATOM      5  C   UNL A   1      31.600  25.077  23.318  1.00  0.00     0.262 C 
BRANCH   5   6
ATOM      6  O   UNL A   1      32.832  24.696  22.693  1.00  0.00    -0.456 OA
BRANCH   6   7
ATOM      7  C   UNL A   1      33.892  24.232  23.382  1.00  0.00     0.397 C 
ATOM      8  O   UNL A   1      34.815  23.656  22.818  1.00  0.00    -0.240 OA
BRANCH   7   9
ATOM      9  C   UNL A   1      34.039  24.587  24.870  1.00  0.00     0.332 C 
ATOM     10  O   UNL A   1      34.275  25.767  25.128  1.00  0.00    -0.261 OA
BRANCH   9  11
ATOM     11  N   UNL A   1      34.005  23.588  25.853  1.00  0.00    -0.321 N 
ATOM     12  C   UNL A   1      35.166  22.992  26.528  1.00  0.00     0.181 C 
ATOM     13  C   UNL A   1      32.856  22.686  25.843  1.00  0.00     0.185 C 
ATOM     14  C   UNL A   1      35.560  21.621  25.870  1.00  0.00     0.284 C 
ATOM     15  C   UNL A   1      33.270  21.475  25.016  1.00  0.00     0.204 C 
ATOM     16  N   UNL A   1      34.395  20.756  25.649  1.00  0.00    -0.330 N 
ATOM     17  C   UNL A   1      32.265  20.354  24.880  1.00  0.00     0.073 C 
ATOM     18  C   UNL A   1      34.591  19.604  24.779  1.00  0.00     0.262 C 
ATOM     19  H   UNL A   1      34.213  20.445  26.603  1.00  0.00     0.348 HD
ATOM     20  C   UNL A   1      33.146  19.142  24.546  1.00  0.00     0.068 C 
ENDBRANCH   9  11
ENDBRANCH   7   9
ENDBRANCH   6   7
ENDBRANCH   5   6
ENDBRANCH   4   5
ENDBRANCH   3   4
ENDBRANCH   2   3
ENDBRANCH   1   2
BRANCH   1  21
ATOM     21  O   UNL A   1      31.130  29.687  25.014  1.00  0.00    -0.376 OA
BRANCH  21  22
ATOM     22  C   UNL A   1      30.907  31.054  25.322  1.00  0.00     0.202 C 
BRANCH  22  23
ATOM     23  C   UNL A   1      31.461  31.466  26.699  1.00  0.00     0.261 C 
BRANCH  23  24
ATOM     24  O   UNL A   1      32.821  31.066  26.942  1.00  0.00    -0.460 OA
BRANCH  24  25
ATOM     25  C   UNL A   1      33.575  32.023  27.535  1.00  0.00     0.338 C 
ATOM     26  O   UNL A   1      33.198  33.133  27.893  1.00  0.00    -0.246 OA
BRANCH  25  27
ATOM     27  C   UNL A   1      34.955  31.549  27.763  1.00  0.00     0.060 A 
ATOM     28  C   UNL A   1      35.165  30.171  27.893  1.00  0.00     0.016 A 
ATOM     29  C   UNL A   1      35.986  32.449  28.041  1.00  0.00     0.016 A 
ATOM     30  C   UNL A   1      36.371  29.696  28.412  1.00  0.00     0.010 A 
ATOM     31  C   UNL A   1      37.196  31.971  28.562  1.00  0.00     0.010 A 
ATOM     32  C   UNL A   1      37.364  30.598  28.822  1.00  0.00    -0.014 A 
BRANCH  32  33
ATOM     33  C   UNL A   1      38.416  30.122  29.765  1.00  0.00     0.031 A 
ATOM     34  C   UNL A   1      39.389  29.073  29.278  1.00  0.00     0.074 A 
ATOM     35  C   UNL A   1      38.567  30.655  30.991  1.00  0.00     0.049 A 
ATOM     36  N   UNL A   1      40.421  28.542  29.885  1.00  0.00    -0.248 NA
ATOM     37  C   UNL A   1      39.162  28.553  27.920  1.00  0.00     0.031 C 
ATOM     38  C   UNL A   1      37.726  31.701  31.567  1.00  0.00     0.029 A 
ATOM     39  N   UNL A   1      39.497  30.395  31.969  1.00  0.00    -0.354 N 
ATOM     40  C   UNL A   1      40.964  27.630  28.984  1.00  0.00     0.074 A 
ATOM     41  C   UNL A   1      40.117  27.644  27.811  1.00  0.00     0.031 C 
ATOM     42  C   UNL A   1      38.184  32.001  32.796  1.00  0.00     0.029 A 
ATOM     43  C   UNL A   1      39.336  31.154  33.105  1.00  0.00     0.049 A 
ATOM     44  H   UNL A   1      40.212  29.727  31.866  1.00  0.00     0.167 HD
ATOM     45  C   UNL A   1      42.076  26.863  29.108  1.00  0.00     0.034 A 
ATOM     46  C   UNL A   1      40.035  31.163  34.258  1.00  0.00     0.034 A 
ATOM     47  C   UNL A   1      42.918  26.851  30.280  1.00  0.00     0.049 A 
ATOM     48  C   UNL A   1      41.234  30.252  34.403  1.00  0.00     0.074 A 
ATOM     49  C   UNL A   1      44.070  26.119  30.508  1.00  0.00     0.029 A 
ATOM     50  N   UNL A   1      42.693  27.601  31.428  1.00  0.00    -0.354 N 
ATOM     51  N   UNL A   1      41.745  29.406  33.537  1.00  0.00    -0.248 NA
ATOM     52  C   UNL A   1      41.961  30.313  35.679  1.00  0.00     0.031 C 
ATOM     53  C   UNL A   1      44.503  26.374  31.815  1.00  0.00     0.029 A 
ATOM     54  C   UNL A   1      43.667  27.327  32.376  1.00  0.00     0.049 A 
ATOM     55  H   UNL A   1      41.950  28.235  31.550  1.00  0.00     0.167 HD
ATOM     56  C   UNL A   1      42.876  28.869  34.150  1.00  0.00     0.074 A 
ATOM     57  C   UNL A   1      42.977  29.493  35.452  1.00  0.00     0.031 C 
ATOM     58  C   UNL A   1      43.757  27.951  33.675  1.00  0.00     0.034 A 
BRANCH  45  59
ATOM     59  C   UNL A   1      42.407  25.934  27.963  1.00  0.00     0.023 A 
ATOM     60  C   UNL A   1      41.858  24.642  27.868  1.00  0.00     0.031 A 
ATOM     61  C   UNL A   1      43.321  26.334  26.972  1.00  0.00     0.131 A 
ATOM     62  C   UNL A   1      42.284  23.773  26.852  1.00  0.00     0.055 A 
ATOM     63  C   UNL A   1      43.679  25.492  25.916  1.00  0.00     0.041 A 
ATOM     64  F   UNL A   1      43.895  27.546  27.020  1.00  0.00    -0.206 F 
ATOM     65  C   UNL A   1      43.172  24.197  25.861  1.00  0.00     0.022 A 
BRANCH  62  66
ATOM     66  S   UNL A   1      41.777  22.031  26.926  1.00  0.00     0.124 S 
ATOM     67  O   UNL A   1      41.965  21.611  25.540  1.00  0.00    -0.237 OA
ATOM     68  O   UNL A   1      42.711  21.473  27.898  1.00  0.00    -0.237 OA
ATOM     69  O   UNL A   1      40.385  22.097  27.366  1.00  0.00    -0.744 OA
ENDBRANCH  62  66
ENDBRANCH  45  59
BRANCH  46  70
ATOM     70  C   UNL A   1      39.625  32.046  35.390  1.00  0.00     0.023 A 
ATOM     71  C   UNL A   1      38.841  31.561  36.449  1.00  0.00     0.031 A 
ATOM     72  C   UNL A   1      39.952  33.414  35.386  1.00  0.00     0.131 A 
ATOM     73  C   UNL A   1      38.369  32.445  37.434  1.00  0.00     0.055 A 
ATOM     74  C   UNL A   1      39.525  34.278  36.396  1.00  0.00     0.041 A 
ATOM     75  F   UNL A   1      40.695  33.932  34.394  1.00  0.00    -0.206 F 
ATOM     76  C   UNL A   1      38.717  33.797  37.420  1.00  0.00     0.022 A 
BRANCH  73  77
ATOM     77  S   UNL A   1      37.213  31.820  38.685  1.00  0.00     0.124 S 
ATOM     78  O   UNL A   1      37.957  32.048  39.918  1.00  0.00    -0.237 OA
ATOM     79  O   UNL A   1      36.047  32.670  38.472  1.00  0.00    -0.237 OA
ATOM     80  O   UNL A   1      37.035  30.418  38.315  1.00  0.00    -0.744 OA
ENDBRANCH  73  77
ENDBRANCH  46  70
BRANCH  58  81
ATOM     81  C   UNL A   1      44.942  27.614  34.552  1.00  0.00     0.023 A 
ATOM     82  C   UNL A   1      44.897  26.576  35.501  1.00  0.00     0.031 A 
ATOM     83  C   UNL A   1      46.130  28.360  34.447  1.00  0.00     0.131 A 
ATOM     84  C   UNL A   1      45.993  26.358  36.351  1.00  0.00     0.055 A 
ATOM     85  C   UNL A   1      47.239  28.097  35.252  1.00  0.00     0.041 A 
ATOM     86  F   UNL A   1      46.232  29.362  33.559  1.00  0.00    -0.206 F 
ATOM     87  C   UNL A   1      47.168  27.102  36.223  1.00  0.00     0.022 A 
BRANCH  84  88
ATOM     88  S   UNL A   1      45.823  25.159  37.702  1.00  0.00     0.124 S 
ATOM     89  O   UNL A   1      46.421  23.959  37.124  1.00  0.00    -0.237 OA
ATOM     90  O   UNL A   1      46.580  25.792  38.778  1.00  0.00    -0.237 OA
ATOM     91  O   UNL A   1      44.379  25.087  37.920  1.00  0.00    -0.744 OA
ENDBRANCH  84  88
ENDBRANCH  58  81
ENDBRANCH  32  33
ENDBRANCH  25  27
ENDBRANCH  24  25
ENDBRANCH  23  24
ENDBRANCH  22  23
ENDBRANCH  21  22
ENDBRANCH   1  21
TORSDOF 21
ENDMDL
