MODEL 1
REMARK VINA RESULT:      -9.4      0.000      0.000
REMARK SMILES NC(=O)C[C@H](NC(=O)[C@@H]1CC(=O)N(CC2CC2)C1)C(=O)OCCOCCOCCOC(=O)c1ccc(-c2c3nc(c(-c4cc(S(=O)(=O)[O-])ccc4F)c4ccc([nH]4)c(-c4cc(S(=O)(=O)[O-])ccc4F)c4nc(c(-c5cc(S(=O)(=O)[O-])ccc5F)c5ccc2[nH]5)C=C4)C=C3)cc1
REMARK SMILES IDX 25 1 24 2 23 3 22 4 21 5 19 6 20 7 5 8 4 9 2 10 1 11 3 14
REMARK SMILES IDX 6 15 7 16 8 18 9 19 10 20 18 21 11 22 13 23 12 24 14 25
REMARK SMILES IDX 15 26 16 27 17 28 26 29 27 30 28 31 29 32 30 33 31 34 32 35
REMARK SMILES IDX 33 36 34 37 95 38 35 39 94 40 36 41 37 42 38 43 88 44 39 45
REMARK SMILES IDX 93 46 87 47 89 48 40 49 92 50 86 51 85 52 41 54 73 55 53 56
REMARK SMILES IDX 72 57 54 58 57 59 71 60 90 61 55 62 56 63 70 65 91 66 58 67
REMARK SMILES IDX 42 68 43 69 51 70 44 71 50 72 52 73 49 74 45 75 46 76 47 77
REMARK SMILES IDX 48 78 74 79 75 80 83 81 76 82 82 83 84 84 81 85 77 86 78 87
REMARK SMILES IDX 79 88 80 89 59 90 60 91 68 92 61 93 67 94 69 95 66 96 62 97
REMARK SMILES IDX 63 98 64 99 65 100
REMARK H PARENT 1 12 1 13 6 17 89 53 57 64
REMARK Flexibility Score: inf
ROOT
ATOM      1  C   UNL A   1      36.778  23.285  24.596  1.00  0.00     0.188 C 
ENDROOT
BRANCH   1   2
ATOM      2  O   UNL A   1      35.884  24.096  25.353  1.00  0.00    -0.376 OA
BRANCH   2   3
ATOM      3  C   UNL A   1      34.699  24.592  24.746  1.00  0.00     0.202 C 
BRANCH   3   4
ATOM      4  C   UNL A   1      34.512  24.389  23.233  1.00  0.00     0.261 C 
BRANCH   4   5
ATOM      5  O   UNL A   1      33.221  24.776  22.708  1.00  0.00    -0.462 OA
BRANCH   5   6
ATOM      6  C   UNL A   1      33.108  26.070  22.318  1.00  0.00     0.329 C 
ATOM      7  O   UNL A   1      33.587  26.514  21.278  1.00  0.00    -0.250 OA
BRANCH   6   8
ATOM      8  C   UNL A   1      32.236  26.952  23.250  1.00  0.00     0.201 C 
BRANCH   8   9
ATOM      9  C   UNL A   1      32.288  28.381  22.721  1.00  0.00     0.136 C 
BRANCH   9  10
ATOM     10  C   UNL A   1      30.973  29.109  22.637  1.00  0.00     0.220 C 
ATOM     11  N   UNL A   1      30.781  30.001  21.635  1.00  0.00    -0.370 N 
ATOM     12  H   UNL A   1      29.927  30.487  21.565  1.00  0.00     0.159 HD
ATOM     13  H   UNL A   1      31.495  30.164  20.977  1.00  0.00     0.159 HD
ATOM     14  O   UNL A   1      30.107  28.955  23.494  1.00  0.00    -0.275 OA
ENDBRANCH   9  10
ENDBRANCH   8   9
BRANCH   8  15
ATOM     15  N   UNL A   1      32.276  26.793  24.720  1.00  0.00    -0.342 N 
ATOM     16  C   UNL A   1      31.469  26.257  25.674  1.00  0.00     0.226 C 
ATOM     17  H   UNL A   1      33.098  27.172  25.107  1.00  0.00     0.164 HD
ATOM     18  O   UNL A   1      31.776  26.464  26.848  1.00  0.00    -0.275 OA
BRANCH  16  19
ATOM     19  C   UNL A   1      30.316  25.367  25.294  1.00  0.00     0.107 C 
ATOM     20  C   UNL A   1      29.429  24.969  26.480  1.00  0.00     0.115 C 
ATOM     21  C   UNL A   1      30.904  24.060  24.790  1.00  0.00     0.133 C 
ATOM     22  C   UNL A   1      29.820  23.549  26.807  1.00  0.00     0.223 C 
ATOM     23  N   UNL A   1      30.625  23.074  25.795  1.00  0.00    -0.342 N 
ATOM     24  O   UNL A   1      29.433  22.929  27.786  1.00  0.00    -0.275 OA
BRANCH  23  25
ATOM     25  C   UNL A   1      31.282  21.778  25.810  1.00  0.00     0.123 C 
BRANCH  25  26
ATOM     26  C   UNL A   1      32.172  21.490  24.634  1.00  0.00     0.008 C 
ATOM     27  C   UNL A   1      33.526  20.821  24.705  1.00  0.00     0.006 C 
ATOM     28  C   UNL A   1      32.352  20.079  24.127  1.00  0.00     0.006 C 
ENDBRANCH  25  26
ENDBRANCH  23  25
ENDBRANCH  16  19
ENDBRANCH   8  15
ENDBRANCH   6   8
ENDBRANCH   5   6
ENDBRANCH   4   5
ENDBRANCH   3   4
ENDBRANCH   2   3
ENDBRANCH   1   2
BRANCH   1  29
ATOM     29  C   UNL A   1      36.421  21.818  24.292  1.00  0.00     0.188 C 
BRANCH  29  30
ATOM     30  O   UNL A   1      37.533  20.960  24.177  1.00  0.00    -0.376 OA
BRANCH  30  31
ATOM     31  C   UNL A   1      37.510  19.781  24.957  1.00  0.00     0.202 C 
BRANCH  31  32
ATOM     32  C   UNL A   1      38.858  19.267  25.488  1.00  0.00     0.261 C 
BRANCH  32  33
ATOM     33  O   UNL A   1      39.803  20.259  25.926  1.00  0.00    -0.460 OA
BRANCH  33  34
ATOM     34  C   UNL A   1      41.082  19.857  26.113  1.00  0.00     0.338 C 
ATOM     35  O   UNL A   1      41.541  18.754  25.861  1.00  0.00    -0.246 OA
BRANCH  34  36
ATOM     36  C   UNL A   1      41.884  21.049  26.477  1.00  0.00     0.060 A 
ATOM     37  C   UNL A   1      42.244  21.263  27.817  1.00  0.00     0.016 A 
ATOM     38  C   UNL A   1      42.278  21.956  25.491  1.00  0.00     0.016 A 
ATOM     39  C   UNL A   1      42.982  22.397  28.175  1.00  0.00     0.010 A 
ATOM     40  C   UNL A   1      42.992  23.101  25.855  1.00  0.00     0.010 A 
ATOM     41  C   UNL A   1      43.323  23.344  27.201  1.00  0.00    -0.014 A 
BRANCH  41  42
ATOM     42  C   UNL A   1      43.813  24.695  27.587  1.00  0.00     0.031 A 
ATOM     43  C   UNL A   1      42.814  25.665  28.159  1.00  0.00     0.074 A 
ATOM     44  C   UNL A   1      45.092  25.073  27.409  1.00  0.00     0.049 A 
ATOM     45  N   UNL A   1      42.938  26.941  28.413  1.00  0.00    -0.248 NA
ATOM     46  C   UNL A   1      41.488  25.111  28.473  1.00  0.00     0.031 C 
ATOM     47  C   UNL A   1      46.170  24.214  26.925  1.00  0.00     0.029 A 
ATOM     48  N   UNL A   1      45.692  26.295  27.596  1.00  0.00    -0.354 N 
ATOM     49  C   UNL A   1      41.701  27.349  28.899  1.00  0.00     0.074 A 
ATOM     50  C   UNL A   1      40.834  26.190  28.870  1.00  0.00     0.031 C 
ATOM     51  C   UNL A   1      47.297  24.942  26.835  1.00  0.00     0.029 A 
ATOM     52  C   UNL A   1      47.010  26.329  27.201  1.00  0.00     0.049 A 
ATOM     53  H   UNL A   1      45.224  27.072  27.978  1.00  0.00     0.167 HD
ATOM     54  C   UNL A   1      41.321  28.578  29.331  1.00  0.00     0.034 A 
ATOM     55  C   UNL A   1      47.867  27.369  27.106  1.00  0.00     0.034 A 
ATOM     56  C   UNL A   1      42.190  29.728  29.334  1.00  0.00     0.049 A 
ATOM     57  C   UNL A   1      47.393  28.755  27.484  1.00  0.00     0.074 A 
ATOM     58  C   UNL A   1      41.910  31.019  29.747  1.00  0.00     0.029 A 
ATOM     59  N   UNL A   1      43.506  29.731  28.888  1.00  0.00    -0.354 N 
ATOM     60  N   UNL A   1      46.217  29.137  27.926  1.00  0.00    -0.248 NA
ATOM     61  C   UNL A   1      48.365  29.850  27.350  1.00  0.00     0.031 C 
ATOM     62  C   UNL A   1      43.025  31.818  29.476  1.00  0.00     0.029 A 
ATOM     63  C   UNL A   1      44.038  31.008  28.986  1.00  0.00     0.049 A 
ATOM     64  H   UNL A   1      43.990  28.943  28.552  1.00  0.00     0.167 HD
ATOM     65  C   UNL A   1      46.326  30.506  28.166  1.00  0.00     0.074 A 
ATOM     66  C   UNL A   1      47.680  30.882  27.821  1.00  0.00     0.031 C 
ATOM     67  C   UNL A   1      45.394  31.373  28.643  1.00  0.00     0.034 A 
BRANCH  54  68
ATOM     68  C   UNL A   1      39.888  28.740  29.776  1.00  0.00     0.023 A 
ATOM     69  C   UNL A   1      38.873  29.119  28.879  1.00  0.00     0.031 A 
ATOM     70  C   UNL A   1      39.537  28.563  31.126  1.00  0.00     0.131 A 
ATOM     71  C   UNL A   1      37.582  29.391  29.357  1.00  0.00     0.055 A 
ATOM     72  C   UNL A   1      38.229  28.745  31.579  1.00  0.00     0.041 A 
ATOM     73  F   UNL A   1      40.467  28.228  32.035  1.00  0.00    -0.206 F 
ATOM     74  C   UNL A   1      37.246  29.179  30.695  1.00  0.00     0.022 A 
BRANCH  71  75
ATOM     75  S   UNL A   1      36.399  30.188  28.237  1.00  0.00     0.124 S 
ATOM     76  O   UNL A   1      35.255  29.284  28.329  1.00  0.00    -0.237 OA
ATOM     77  O   UNL A   1      36.226  31.502  28.846  1.00  0.00    -0.237 OA
ATOM     78  O   UNL A   1      37.088  30.181  26.949  1.00  0.00    -0.744 OA
ENDBRANCH  71  75
ENDBRANCH  54  68
BRANCH  55  79
ATOM     79  C   UNL A   1      49.255  27.164  26.592  1.00  0.00     0.023 A 
ATOM     80  C   UNL A   1      50.330  26.968  27.472  1.00  0.00     0.031 A 
ATOM     81  C   UNL A   1      49.537  27.225  25.215  1.00  0.00     0.131 A 
ATOM     82  C   UNL A   1      51.640  26.889  26.973  1.00  0.00     0.055 A 
ATOM     83  C   UNL A   1      50.834  27.087  24.719  1.00  0.00     0.041 A 
ATOM     84  F   UNL A   1      48.547  27.417  24.327  1.00  0.00    -0.206 F 
ATOM     85  C   UNL A   1      51.897  26.932  25.601  1.00  0.00     0.022 A 
BRANCH  82  86
ATOM     86  S   UNL A   1      53.016  26.821  28.153  1.00  0.00     0.124 S 
ATOM     87  O   UNL A   1      53.853  25.780  27.569  1.00  0.00    -0.237 OA
ATOM     88  O   UNL A   1      53.540  28.180  28.085  1.00  0.00    -0.237 OA
ATOM     89  O   UNL A   1      52.366  26.467  29.414  1.00  0.00    -0.744 OA
ENDBRANCH  82  86
ENDBRANCH  55  79
BRANCH  67  90
ATOM     90  C   UNL A   1      45.826  32.799  28.896  1.00  0.00     0.023 A 
ATOM     91  C   UNL A   1      45.738  33.798  27.912  1.00  0.00     0.031 A 
ATOM     92  C   UNL A   1      46.321  33.163  30.163  1.00  0.00     0.131 A 
ATOM     93  C   UNL A   1      46.184  35.100  28.196  1.00  0.00     0.055 A 
ATOM     94  C   UNL A   1      46.702  34.472  30.458  1.00  0.00     0.041 A 
ATOM     95  F   UNL A   1      46.432  32.250  31.142  1.00  0.00    -0.206 F 
ATOM     96  C   UNL A   1      46.645  35.447  29.468  1.00  0.00     0.022 A 
BRANCH  93  97
ATOM     97  S   UNL A   1      46.235  36.319  26.853  1.00  0.00     0.124 S 
ATOM     98  O   UNL A   1      47.577  36.875  27.000  1.00  0.00    -0.237 OA
ATOM     99  O   UNL A   1      46.015  35.493  25.671  1.00  0.00    -0.237 OA
ATOM    100  O   UNL A   1      45.144  37.236  27.180  1.00  0.00    -0.744 OA
ENDBRANCH  93  97
ENDBRANCH  67  90
ENDBRANCH  41  42
ENDBRANCH  34  36
ENDBRANCH  33  34
ENDBRANCH  32  33
ENDBRANCH  31  32
ENDBRANCH  30  31
ENDBRANCH  29  30
ENDBRANCH   1  29
TORSDOF 26
ENDMDL
MODEL 2
REMARK VINA RESULT:      -9.3      2.355      4.290
REMARK SMILES NC(=O)C[C@H](NC(=O)[C@@H]1CC(=O)N(CC2CC2)C1)C(=O)OCCOCCOCCOC(=O)c1ccc(-c2c3nc(c(-c4cc(S(=O)(=O)[O-])ccc4F)c4ccc([nH]4)c(-c4cc(S(=O)(=O)[O-])ccc4F)c4nc(c(-c5cc(S(=O)(=O)[O-])ccc5F)c5ccc2[nH]5)C=C4)C=C3)cc1
REMARK SMILES IDX 25 1 24 2 23 3 22 4 21 5 19 6 20 7 5 8 4 9 2 10 1 11 3 14
REMARK SMILES IDX 6 15 7 16 8 18 9 19 10 20 18 21 11 22 13 23 12 24 14 25
REMARK SMILES IDX 15 26 16 27 17 28 26 29 27 30 28 31 29 32 30 33 31 34 32 35
REMARK SMILES IDX 33 36 34 37 95 38 35 39 94 40 36 41 37 42 38 43 88 44 39 45
REMARK SMILES IDX 93 46 87 47 89 48 40 49 92 50 86 51 85 52 41 54 73 55 53 56
REMARK SMILES IDX 72 57 54 58 57 59 71 60 90 61 55 62 56 63 70 65 91 66 58 67
REMARK SMILES IDX 42 68 43 69 51 70 44 71 50 72 52 73 49 74 45 75 46 76 47 77
REMARK SMILES IDX 48 78 74 79 75 80 83 81 76 82 82 83 84 84 81 85 77 86 78 87
REMARK SMILES IDX 79 88 80 89 59 90 60 91 68 92 61 93 67 94 69 95 66 96 62 97
REMARK SMILES IDX 63 98 64 99 65 100
REMARK H PARENT 1 12 1 13 6 17 89 53 57 64
REMARK Flexibility Score: inf
ROOT
ATOM      1  C   UNL A   1      40.493  21.292  26.473  1.00  0.00     0.188 C 
ENDROOT
BRANCH   1   2
ATOM      2  O   UNL A   1      39.384  22.185  26.528  1.00  0.00    -0.376 OA
BRANCH   2   3
ATOM      3  C   UNL A   1      38.245  21.944  25.715  1.00  0.00     0.202 C 
BRANCH   3   4
ATOM      4  C   UNL A   1      37.124  22.997  25.695  1.00  0.00     0.261 C 
BRANCH   4   5
ATOM      5  O   UNL A   1      35.920  22.610  24.994  1.00  0.00    -0.462 OA
BRANCH   5   6
ATOM      6  C   UNL A   1      34.794  22.549  25.747  1.00  0.00     0.329 C 
ATOM      7  O   UNL A   1      34.794  22.376  26.963  1.00  0.00    -0.250 OA
BRANCH   6   8
ATOM      8  C   UNL A   1      33.479  22.811  24.965  1.00  0.00     0.201 C 
BRANCH   8   9
ATOM      9  C   UNL A   1      32.786  21.469  24.758  1.00  0.00     0.136 C 
BRANCH   9  10
ATOM     10  C   UNL A   1      33.505  20.258  25.289  1.00  0.00     0.220 C 
ATOM     11  N   UNL A   1      33.213  19.817  26.537  1.00  0.00    -0.370 N 
ATOM     12  H   UNL A   1      33.675  19.027  26.900  1.00  0.00     0.159 HD
ATOM     13  H   UNL A   1      32.541  20.288  27.081  1.00  0.00     0.159 HD
ATOM     14  O   UNL A   1      34.390  19.709  24.638  1.00  0.00    -0.275 OA
ENDBRANCH   9  10
ENDBRANCH   8   9
BRANCH   8  15
ATOM     15  N   UNL A   1      33.435  23.757  23.829  1.00  0.00    -0.342 N 
ATOM     16  C   UNL A   1      33.433  25.107  23.672  1.00  0.00     0.226 C 
ATOM     17  H   UNL A   1      33.396  23.288  22.964  1.00  0.00     0.164 HD
ATOM     18  O   UNL A   1      33.217  25.539  22.540  1.00  0.00    -0.275 OA
BRANCH  16  19
ATOM     19  C   UNL A   1      33.783  26.014  24.821  1.00  0.00     0.107 C 
ATOM     20  C   UNL A   1      32.968  25.741  26.091  1.00  0.00     0.115 C 
ATOM     21  C   UNL A   1      33.404  27.427  24.410  1.00  0.00     0.133 C 
ATOM     22  C   UNL A   1      31.932  26.837  26.140  1.00  0.00     0.223 C 
ATOM     23  N   UNL A   1      32.253  27.783  25.189  1.00  0.00    -0.342 N 
ATOM     24  O   UNL A   1      31.003  26.883  26.931  1.00  0.00    -0.275 OA
BRANCH  23  25
ATOM     25  C   UNL A   1      31.428  28.936  24.869  1.00  0.00     0.123 C 
BRANCH  25  26
ATOM     26  C   UNL A   1      30.383  28.710  23.814  1.00  0.00     0.008 C 
ATOM     27  C   UNL A   1      29.639  29.798  23.073  1.00  0.00     0.006 C 
ATOM     28  C   UNL A   1      30.680  28.981  22.359  1.00  0.00     0.006 C 
ENDBRANCH  25  26
ENDBRANCH  23  25
ENDBRANCH  16  19
ENDBRANCH   8  15
ENDBRANCH   6   8
ENDBRANCH   5   6
ENDBRANCH   4   5
ENDBRANCH   3   4
ENDBRANCH   2   3
ENDBRANCH   1   2
BRANCH   1  29
ATOM     29  C   UNL A   1      40.278  19.815  26.093  1.00  0.00     0.188 C 
BRANCH  29  30
ATOM     30  O   UNL A   1      41.367  19.222  25.423  1.00  0.00    -0.376 OA
BRANCH  30  31
ATOM     31  C   UNL A   1      42.588  19.154  26.132  1.00  0.00     0.202 C 
BRANCH  31  32
ATOM     32  C   UNL A   1      43.751  18.413  25.453  1.00  0.00     0.261 C 
BRANCH  32  33
ATOM     33  O   UNL A   1      44.918  19.192  25.135  1.00  0.00    -0.460 OA
BRANCH  33  34
ATOM     34  C   UNL A   1      44.798  20.118  24.154  1.00  0.00     0.338 C 
ATOM     35  O   UNL A   1      44.526  19.904  22.984  1.00  0.00    -0.246 OA
BRANCH  34  36
ATOM     36  C   UNL A   1      44.843  21.457  24.787  1.00  0.00     0.060 A 
ATOM     37  C   UNL A   1      44.513  22.594  24.033  1.00  0.00     0.016 A 
ATOM     38  C   UNL A   1      45.212  21.586  26.127  1.00  0.00     0.016 A 
ATOM     39  C   UNL A   1      44.574  23.866  24.614  1.00  0.00     0.010 A 
ATOM     40  C   UNL A   1      45.298  22.859  26.698  1.00  0.00     0.010 A 
ATOM     41  C   UNL A   1      45.008  24.009  25.938  1.00  0.00    -0.014 A 
BRANCH  41  42
ATOM     42  C   UNL A   1      45.391  25.341  26.477  1.00  0.00     0.031 A 
ATOM     43  C   UNL A   1      44.291  26.229  26.997  1.00  0.00     0.074 A 
ATOM     44  C   UNL A   1      46.664  25.776  26.482  1.00  0.00     0.049 A 
ATOM     45  N   UNL A   1      44.330  27.485  27.357  1.00  0.00    -0.248 NA
ATOM     46  C   UNL A   1      42.963  25.607  27.109  1.00  0.00     0.031 C 
ATOM     47  C   UNL A   1      47.827  24.995  26.068  1.00  0.00     0.029 A 
ATOM     48  N   UNL A   1      47.185  26.999  26.828  1.00  0.00    -0.354 N 
ATOM     49  C   UNL A   1      43.028  27.811  27.721  1.00  0.00     0.074 A 
ATOM     50  C   UNL A   1      42.222  26.629  27.504  1.00  0.00     0.031 C 
ATOM     51  C   UNL A   1      48.925  25.766  26.166  1.00  0.00     0.029 A 
ATOM     52  C   UNL A   1      48.537  27.109  26.596  1.00  0.00     0.049 A 
ATOM     53  H   UNL A   1      46.643  27.728  27.207  1.00  0.00     0.167 HD
ATOM     54  C   UNL A   1      42.548  28.989  28.194  1.00  0.00     0.034 A 
ATOM     55  C   UNL A   1      49.354  28.181  26.680  1.00  0.00     0.034 A 
ATOM     56  C   UNL A   1      43.361  30.164  28.384  1.00  0.00     0.049 A 
ATOM     57  C   UNL A   1      48.780  29.517  27.100  1.00  0.00     0.074 A 
ATOM     58  C   UNL A   1      42.979  31.409  28.854  1.00  0.00     0.029 A 
ATOM     59  N   UNL A   1      44.718  30.247  28.100  1.00  0.00    -0.354 N 
ATOM     60  N   UNL A   1      47.545  29.823  27.426  1.00  0.00    -0.248 NA
ATOM     61  C   UNL A   1      49.713  30.652  27.164  1.00  0.00     0.031 C 
ATOM     62  C   UNL A   1      44.082  32.263  28.778  1.00  0.00     0.029 A 
ATOM     63  C   UNL A   1      45.179  31.530  28.354  1.00  0.00     0.049 A 
ATOM     64  H   UNL A   1      45.271  29.504  27.766  1.00  0.00     0.167 HD
ATOM     65  C   UNL A   1      47.566  31.172  27.777  1.00  0.00     0.074 A 
ATOM     66  C   UNL A   1      48.934  31.620  27.624  1.00  0.00     0.031 C 
ATOM     67  C   UNL A   1      46.549  31.966  28.202  1.00  0.00     0.034 A 
BRANCH  54  68
ATOM     68  C   UNL A   1      41.067  29.067  28.476  1.00  0.00     0.023 A 
ATOM     69  C   UNL A   1      40.559  28.999  29.785  1.00  0.00     0.031 A 
ATOM     70  C   UNL A   1      40.145  29.161  27.418  1.00  0.00     0.131 A 
ATOM     71  C   UNL A   1      39.173  28.938  29.996  1.00  0.00     0.055 A 
ATOM     72  C   UNL A   1      38.767  29.194  27.641  1.00  0.00     0.041 A 
ATOM     73  F   UNL A   1      40.569  29.201  26.145  1.00  0.00    -0.206 F 
ATOM     74  C   UNL A   1      38.273  29.064  28.935  1.00  0.00     0.022 A 
BRANCH  71  75
ATOM     75  S   UNL A   1      38.570  28.521  31.655  1.00  0.00     0.124 S 
ATOM     76  O   UNL A   1      39.516  29.246  32.500  1.00  0.00    -0.237 OA
ATOM     77  O   UNL A   1      37.206  29.038  31.632  1.00  0.00    -0.237 OA
ATOM     78  O   UNL A   1      38.688  27.067  31.706  1.00  0.00    -0.744 OA
ENDBRANCH  71  75
ENDBRANCH  54  68
BRANCH  55  79
ATOM     79  C   UNL A   1      50.799  28.065  26.321  1.00  0.00     0.023 A 
ATOM     80  C   UNL A   1      51.210  28.014  24.980  1.00  0.00     0.031 A 
ATOM     81  C   UNL A   1      51.787  27.938  27.314  1.00  0.00     0.131 A 
ATOM     82  C   UNL A   1      52.560  27.793  24.666  1.00  0.00     0.055 A 
ATOM     83  C   UNL A   1      53.138  27.777  26.998  1.00  0.00     0.041 A 
ATOM     84  F   UNL A   1      51.452  27.972  28.615  1.00  0.00    -0.206 F 
ATOM     85  C   UNL A   1      53.529  27.690  25.667  1.00  0.00     0.022 A 
BRANCH  82  86
ATOM     86  S   UNL A   1      53.020  27.552  22.928  1.00  0.00     0.124 S 
ATOM     87  O   UNL A   1      53.411  28.901  22.537  1.00  0.00    -0.237 OA
ATOM     88  O   UNL A   1      54.098  26.575  23.034  1.00  0.00    -0.237 OA
ATOM     89  O   UNL A   1      51.789  27.055  22.316  1.00  0.00    -0.744 OA
ENDBRANCH  82  86
ENDBRANCH  55  79
BRANCH  67  90
ATOM     90  C   UNL A   1      46.886  33.383  28.609  1.00  0.00     0.023 A 
ATOM     91  C   UNL A   1      46.935  34.440  27.685  1.00  0.00     0.031 A 
ATOM     92  C   UNL A   1      47.148  33.676  29.961  1.00  0.00     0.131 A 
ATOM     93  C   UNL A   1      47.285  35.730  28.117  1.00  0.00     0.055 A 
ATOM     94  C   UNL A   1      47.432  34.972  30.394  1.00  0.00     0.041 A 
ATOM     95  F   UNL A   1      47.120  32.705  30.889  1.00  0.00    -0.206 F 
ATOM     96  C   UNL A   1      47.513  36.006  29.467  1.00  0.00     0.022 A 
BRANCH  93  97
ATOM     97  S   UNL A   1      47.525  37.033  26.876  1.00  0.00     0.124 S 
ATOM     98  O   UNL A   1      46.559  36.654  25.850  1.00  0.00    -0.237 OA
ATOM     99  O   UNL A   1      47.212  38.243  27.629  1.00  0.00    -0.237 OA
ATOM    100  O   UNL A   1      48.928  36.887  26.492  1.00  0.00    -0.744 OA
ENDBRANCH  93  97
ENDBRANCH  67  90
ENDBRANCH  41  42
ENDBRANCH  34  36
ENDBRANCH  33  34
ENDBRANCH  32  33
ENDBRANCH  31  32
ENDBRANCH  30  31
ENDBRANCH  29  30
ENDBRANCH   1  29
TORSDOF 26
ENDMDL
MODEL 3
REMARK VINA RESULT:      -9.2      4.935      9.463
REMARK SMILES NC(=O)C[C@H](NC(=O)[C@@H]1CC(=O)N(CC2CC2)C1)C(=O)OCCOCCOCCOC(=O)c1ccc(-c2c3nc(c(-c4cc(S(=O)(=O)[O-])ccc4F)c4ccc([nH]4)c(-c4cc(S(=O)(=O)[O-])ccc4F)c4nc(c(-c5cc(S(=O)(=O)[O-])ccc5F)c5ccc2[nH]5)C=C4)C=C3)cc1
REMARK SMILES IDX 25 1 24 2 23 3 22 4 21 5 19 6 20 7 5 8 4 9 2 10 1 11 3 14
REMARK SMILES IDX 6 15 7 16 8 18 9 19 10 20 18 21 11 22 13 23 12 24 14 25
REMARK SMILES IDX 15 26 16 27 17 28 26 29 27 30 28 31 29 32 30 33 31 34 32 35
REMARK SMILES IDX 33 36 34 37 95 38 35 39 94 40 36 41 37 42 38 43 88 44 39 45
REMARK SMILES IDX 93 46 87 47 89 48 40 49 92 50 86 51 85 52 41 54 73 55 53 56
REMARK SMILES IDX 72 57 54 58 57 59 71 60 90 61 55 62 56 63 70 65 91 66 58 67
REMARK SMILES IDX 42 68 43 69 51 70 44 71 50 72 52 73 49 74 45 75 46 76 47 77
REMARK SMILES IDX 48 78 74 79 75 80 83 81 76 82 82 83 84 84 81 85 77 86 78 87
REMARK SMILES IDX 79 88 80 89 59 90 60 91 68 92 61 93 67 94 69 95 66 96 62 97
REMARK SMILES IDX 63 98 64 99 65 100
REMARK H PARENT 1 12 1 13 6 17 89 53 57 64
REMARK Flexibility Score: inf
ROOT
ATOM      1  C   UNL A   1      39.786  21.396  26.301  1.00  0.00     0.188 C 
ENDROOT
BRANCH   1   2
ATOM      2  O   UNL A   1      38.602  21.872  25.669  1.00  0.00    -0.376 OA
BRANCH   2   3
ATOM      3  C   UNL A   1      37.766  20.965  24.966  1.00  0.00     0.202 C 
BRANCH   3   4
ATOM      4  C   UNL A   1      36.257  21.257  24.906  1.00  0.00     0.261 C 
BRANCH   4   5
ATOM      5  O   UNL A   1      35.819  22.425  25.637  1.00  0.00    -0.462 OA
BRANCH   5   6
ATOM      6  C   UNL A   1      34.823  23.142  25.061  1.00  0.00     0.329 C 
ATOM      7  O   UNL A   1      34.857  23.550  23.903  1.00  0.00    -0.250 OA
BRANCH   6   8
ATOM      8  C   UNL A   1      33.569  23.339  25.953  1.00  0.00     0.201 C 
BRANCH   8   9
ATOM      9  C   UNL A   1      32.438  22.509  25.356  1.00  0.00     0.136 C 
BRANCH   9  10
ATOM     10  C   UNL A   1      32.501  21.024  25.597  1.00  0.00     0.220 C 
ATOM     11  N   UNL A   1      33.146  20.566  26.696  1.00  0.00    -0.370 N 
ATOM     12  H   UNL A   1      33.198  19.597  26.869  1.00  0.00     0.159 HD
ATOM     13  H   UNL A   1      33.566  21.200  27.322  1.00  0.00     0.159 HD
ATOM     14  O   UNL A   1      32.036  20.230  24.784  1.00  0.00    -0.275 OA
ENDBRANCH   9  10
ENDBRANCH   8   9
BRANCH   8  15
ATOM     15  N   UNL A   1      33.201  24.671  26.480  1.00  0.00    -0.342 N 
ATOM     16  C   UNL A   1      32.791  25.857  25.957  1.00  0.00     0.226 C 
ATOM     17  H   UNL A   1      33.270  24.708  27.461  1.00  0.00     0.164 HD
ATOM     18  O   UNL A   1      32.735  26.817  26.725  1.00  0.00    -0.275 OA
BRANCH  16  19
ATOM     19  C   UNL A   1      32.331  25.948  24.526  1.00  0.00     0.107 C 
ATOM     20  C   UNL A   1      33.329  26.661  23.605  1.00  0.00     0.115 C 
ATOM     21  C   UNL A   1      31.089  26.821  24.508  1.00  0.00     0.133 C 
ATOM     22  C   UNL A   1      32.756  28.041  23.395  1.00  0.00     0.223 C 
ATOM     23  N   UNL A   1      31.471  28.061  23.894  1.00  0.00    -0.342 N 
ATOM     24  O   UNL A   1      33.335  28.957  22.830  1.00  0.00    -0.275 OA
BRANCH  23  25
ATOM     25  C   UNL A   1      30.638  29.249  23.965  1.00  0.00     0.123 C 
BRANCH  25  26
ATOM     26  C   UNL A   1      29.491  29.295  22.994  1.00  0.00     0.008 C 
ATOM     27  C   UNL A   1      28.505  30.432  22.859  1.00  0.00     0.006 C 
ATOM     28  C   UNL A   1      29.535  30.200  21.787  1.00  0.00     0.006 C 
ENDBRANCH  25  26
ENDBRANCH  23  25
ENDBRANCH  16  19
ENDBRANCH   8  15
ENDBRANCH   6   8
ENDBRANCH   5   6
ENDBRANCH   4   5
ENDBRANCH   3   4
ENDBRANCH   2   3
ENDBRANCH   1   2
BRANCH   1  29
ATOM     29  C   UNL A   1      40.217  19.927  26.130  1.00  0.00     0.188 C 
BRANCH  29  30
ATOM     30  O   UNL A   1      41.439  19.754  25.450  1.00  0.00    -0.376 OA
BRANCH  30  31
ATOM     31  C   UNL A   1      42.615  20.084  26.163  1.00  0.00     0.202 C 
BRANCH  31  32
ATOM     32  C   UNL A   1      43.509  21.183  25.567  1.00  0.00     0.261 C 
BRANCH  32  33
ATOM     33  O   UNL A   1      42.900  22.469  25.353  1.00  0.00    -0.460 OA
BRANCH  33  34
ATOM     34  C   UNL A   1      43.728  23.530  25.206  1.00  0.00     0.338 C 
ATOM     35  O   UNL A   1      44.395  23.799  24.220  1.00  0.00    -0.246 OA
BRANCH  34  36
ATOM     36  C   UNL A   1      43.525  24.428  26.367  1.00  0.00     0.060 A 
ATOM     37  C   UNL A   1      42.808  23.970  27.483  1.00  0.00     0.016 A 
ATOM     38  C   UNL A   1      44.044  25.724  26.349  1.00  0.00     0.016 A 
ATOM     39  C   UNL A   1      42.590  24.817  28.576  1.00  0.00     0.010 A 
ATOM     40  C   UNL A   1      43.803  26.577  27.430  1.00  0.00     0.010 A 
ATOM     41  C   UNL A   1      43.051  26.140  28.536  1.00  0.00    -0.014 A 
BRANCH  41  42
ATOM     42  C   UNL A   1      42.567  27.147  29.518  1.00  0.00     0.031 A 
ATOM     43  C   UNL A   1      43.294  27.250  30.832  1.00  0.00     0.074 A 
ATOM     44  C   UNL A   1      41.498  27.928  29.279  1.00  0.00     0.049 A 
ATOM     45  N   UNL A   1      42.978  27.914  31.913  1.00  0.00    -0.248 NA
ATOM     46  C   UNL A   1      44.545  26.483  30.936  1.00  0.00     0.031 C 
ATOM     47  C   UNL A   1      40.745  27.973  28.027  1.00  0.00     0.029 A 
ATOM     48  N   UNL A   1      40.846  28.819  30.097  1.00  0.00    -0.354 N 
ATOM     49  C   UNL A   1      43.981  27.630  32.835  1.00  0.00     0.074 A 
ATOM     50  C   UNL A   1      44.893  26.708  32.192  1.00  0.00     0.031 C 
ATOM     51  C   UNL A   1      39.721  28.834  28.168  1.00  0.00     0.029 A 
ATOM     52  C   UNL A   1      39.712  29.359  29.533  1.00  0.00     0.049 A 
ATOM     53  H   UNL A   1      41.161  29.052  31.000  1.00  0.00     0.167 HD
ATOM     54  C   UNL A   1      44.128  28.096  34.100  1.00  0.00     0.034 A 
ATOM     55  C   UNL A   1      38.758  30.148  30.073  1.00  0.00     0.034 A 
ATOM     56  C   UNL A   1      43.198  28.997  34.734  1.00  0.00     0.049 A 
ATOM     57  C   UNL A   1      38.878  30.567  31.522  1.00  0.00     0.074 A 
ATOM     58  C   UNL A   1      43.249  29.530  36.010  1.00  0.00     0.029 A 
ATOM     59  N   UNL A   1      42.041  29.489  34.144  1.00  0.00    -0.354 N 
ATOM     60  N   UNL A   1      39.819  30.280  32.393  1.00  0.00    -0.248 NA
ATOM     61  C   UNL A   1      37.805  31.416  32.061  1.00  0.00     0.031 C 
ATOM     62  C   UNL A   1      42.085  30.276  36.219  1.00  0.00     0.029 A 
ATOM     63  C   UNL A   1      41.354  30.292  35.042  1.00  0.00     0.049 A 
ATOM     64  H   UNL A   1      41.751  29.295  33.223  1.00  0.00     0.167 HD
ATOM     65  C   UNL A   1      39.474  30.954  33.564  1.00  0.00     0.074 A 
ATOM     66  C   UNL A   1      38.240  31.659  33.289  1.00  0.00     0.031 C 
ATOM     67  C   UNL A   1      40.124  30.996  34.756  1.00  0.00     0.034 A 
BRANCH  54  68
ATOM     68  C   UNL A   1      45.308  27.583  34.891  1.00  0.00     0.023 A 
ATOM     69  C   UNL A   1      45.223  26.420  35.677  1.00  0.00     0.031 A 
ATOM     70  C   UNL A   1      46.521  28.293  34.899  1.00  0.00     0.131 A 
ATOM     71  C   UNL A   1      46.296  26.053  36.502  1.00  0.00     0.055 A 
ATOM     72  C   UNL A   1      47.619  27.870  35.651  1.00  0.00     0.041 A 
ATOM     73  F   UNL A   1      46.655  29.426  34.191  1.00  0.00    -0.206 F 
ATOM     74  C   UNL A   1      47.504  26.753  36.473  1.00  0.00     0.022 A 
BRANCH  71  75
ATOM     75  S   UNL A   1      46.029  24.751  37.736  1.00  0.00     0.124 S 
ATOM     76  O   UNL A   1      45.077  25.394  38.639  1.00  0.00    -0.237 OA
ATOM     77  O   UNL A   1      45.505  23.655  36.929  1.00  0.00    -0.237 OA
ATOM     78  O   UNL A   1      47.360  24.533  38.297  1.00  0.00    -0.744 OA
ENDBRANCH  71  75
ENDBRANCH  54  68
BRANCH  55  79
ATOM     79  C   UNL A   1      37.574  30.569  29.266  1.00  0.00     0.023 A 
ATOM     80  C   UNL A   1      37.167  31.911  29.225  1.00  0.00     0.031 A 
ATOM     81  C   UNL A   1      36.792  29.625  28.576  1.00  0.00     0.131 A 
ATOM     82  C   UNL A   1      35.988  32.268  28.551  1.00  0.00     0.055 A 
ATOM     83  C   UNL A   1      35.652  29.992  27.858  1.00  0.00     0.041 A 
ATOM     84  F   UNL A   1      37.130  28.325  28.586  1.00  0.00    -0.206 F 
ATOM     85  C   UNL A   1      35.237  31.319  27.854  1.00  0.00     0.022 A 
BRANCH  82  86
ATOM     86  S   UNL A   1      35.400  33.979  28.675  1.00  0.00     0.124 S 
ATOM     87  O   UNL A   1      35.040  34.267  27.292  1.00  0.00    -0.237 OA
ATOM     88  O   UNL A   1      34.292  33.850  29.614  1.00  0.00    -0.237 OA
ATOM     89  O   UNL A   1      36.564  34.703  29.182  1.00  0.00    -0.744 OA
ENDBRANCH  82  86
ENDBRANCH  55  79
BRANCH  67  90
ATOM     90  C   UNL A   1      39.562  31.896  35.832  1.00  0.00     0.023 A 
ATOM     91  C   UNL A   1      40.108  33.158  36.119  1.00  0.00     0.031 A 
ATOM     92  C   UNL A   1      38.439  31.479  36.574  1.00  0.00     0.131 A 
ATOM     93  C   UNL A   1      39.562  33.938  37.152  1.00  0.00     0.055 A 
ATOM     94  C   UNL A   1      37.862  32.286  37.555  1.00  0.00     0.041 A 
ATOM     95  F   UNL A   1      37.877  30.280  36.347  1.00  0.00    -0.206 F 
ATOM     96  C   UNL A   1      38.430  33.519  37.856  1.00  0.00     0.022 A 
BRANCH  93  97
ATOM     97  S   UNL A   1      40.401  35.475  37.625  1.00  0.00     0.124 S 
ATOM     98  O   UNL A   1      39.343  36.465  37.449  1.00  0.00    -0.237 OA
ATOM     99  O   UNL A   1      40.797  35.205  39.003  1.00  0.00    -0.237 OA
ATOM    100  O   UNL A   1      41.505  35.571  36.671  1.00  0.00    -0.744 OA
ENDBRANCH  93  97
ENDBRANCH  67  90
ENDBRANCH  41  42
ENDBRANCH  34  36
ENDBRANCH  33  34
ENDBRANCH  32  33
ENDBRANCH  31  32
ENDBRANCH  30  31
ENDBRANCH  29  30
ENDBRANCH   1  29
TORSDOF 26
ENDMDL
