MODEL 1
REMARK VINA RESULT:     -10.3      0.000      0.000
REMARK SMILES C[C@@H]1CCC[C@H](C)N1C(=O)Cn1cccc1C(=O)OCCOCCOCCOC(=O)c1ccc(-c2c3nc(c(-c4cc(S(=O)(=O)[O-])ccc4F)c4ccc([nH]4)c(-c4cc(S(=O)(=O)[O-])ccc4F)c4nc(c(-c5cc(S(=O)(=O)[O-])ccc5F)c5ccc2[nH]5)C=C4)C=C3)cc1
REMARK SMILES IDX 23 1 22 2 21 3 20 4 19 5 17 6 18 7 16 8 12 9 13 10 14 11
REMARK SMILES IDX 15 12 11 13 9 14 10 15 8 16 1 17 2 18 3 19 4 20 6 21 5 22
REMARK SMILES IDX 7 23 24 24 25 25 26 26 27 27 28 28 29 29 30 30 31 31 32 32
REMARK SMILES IDX 93 33 33 34 92 35 34 36 35 37 36 38 86 39 37 40 91 41 85 42
REMARK SMILES IDX 87 43 38 44 90 45 84 46 83 47 39 49 71 50 51 51 70 52 52 53
REMARK SMILES IDX 55 54 69 55 88 56 53 57 54 58 68 60 89 61 56 62 40 63 41 64
REMARK SMILES IDX 49 65 42 66 48 67 50 68 47 69 43 70 44 71 45 72 46 73 72 74
REMARK SMILES IDX 73 75 81 76 74 77 80 78 82 79 79 80 75 81 76 82 77 83 78 84
REMARK SMILES IDX 57 85 58 86 66 87 59 88 65 89 67 90 64 91 60 92 61 93 62 94
REMARK SMILES IDX 63 95
REMARK H PARENT 87 48 55 59
REMARK Flexibility Score: inf
ROOT
ATOM      1  C   UNL A   1      32.673  30.974  26.877  1.00  0.00     0.188 C 
ENDROOT
BRANCH   1   2
ATOM      2  O   UNL A   1      32.124  29.622  26.768  1.00  0.00    -0.376 OA
BRANCH   2   3
ATOM      3  C   UNL A   1      32.814  28.770  25.837  1.00  0.00     0.202 C 
BRANCH   3   4
ATOM      4  C   UNL A   1      32.017  28.012  24.669  1.00  0.00     0.261 C 
BRANCH   4   5
ATOM      5  O   UNL A   1      32.296  26.605  24.365  1.00  0.00    -0.459 OA
BRANCH   5   6
ATOM      6  C   UNL A   1      31.292  25.765  23.915  1.00  0.00     0.355 C 
ATOM      7  O   UNL A   1      30.767  25.911  22.836  1.00  0.00    -0.244 OA
BRANCH   6   8
ATOM      8  C   UNL A   1      31.142  24.516  24.734  1.00  0.00     0.128 A 
ATOM      9  N   UNL A   1      31.418  23.151  24.545  1.00  0.00    -0.333 N 
ATOM     10  C   UNL A   1      31.061  22.434  25.678  1.00  0.00     0.087 A 
ATOM     11  C   UNL A   1      30.514  23.288  26.591  1.00  0.00     0.020 A 
ATOM     12  C   UNL A   1      30.593  24.575  26.024  1.00  0.00     0.035 A 
BRANCH   9  13
ATOM     13  C   UNL A   1      32.075  22.413  23.472  1.00  0.00     0.222 C 
BRANCH  13  14
ATOM     14  C   UNL A   1      33.479  22.817  23.180  1.00  0.00     0.242 C 
ATOM     15  O   UNL A   1      33.742  23.254  22.055  1.00  0.00    -0.273 OA
BRANCH  14  16
ATOM     16  N   UNL A   1      34.457  22.519  24.115  1.00  0.00    -0.336 N 
ATOM     17  C   UNL A   1      34.207  21.175  26.183  1.00  0.00     0.031 C 
ATOM     18  C   UNL A   1      34.793  21.226  24.769  1.00  0.00     0.082 C 
ATOM     19  C   UNL A   1      36.299  20.865  24.924  1.00  0.00     0.025 C 
ATOM     20  C   UNL A   1      37.326  21.888  24.527  1.00  0.00     0.004 C 
ATOM     21  C   UNL A   1      35.304  23.646  24.380  1.00  0.00     0.082 C 
ATOM     22  C   UNL A   1      36.726  23.155  24.016  1.00  0.00     0.025 C 
ATOM     23  C   UNL A   1      34.738  24.485  25.536  1.00  0.00     0.031 C 
ENDBRANCH  14  16
ENDBRANCH  13  14
ENDBRANCH   9  13
ENDBRANCH   6   8
ENDBRANCH   5   6
ENDBRANCH   4   5
ENDBRANCH   3   4
ENDBRANCH   2   3
ENDBRANCH   1   2
BRANCH   1  24
ATOM     24  C   UNL A   1      34.027  31.020  27.629  1.00  0.00     0.188 C 
BRANCH  24  25
ATOM     25  O   UNL A   1      34.275  32.070  28.549  1.00  0.00    -0.376 OA
BRANCH  25  26
ATOM     26  C   UNL A   1      35.096  33.147  28.118  1.00  0.00     0.202 C 
BRANCH  26  27
ATOM     27  C   UNL A   1      36.471  33.292  28.763  1.00  0.00     0.261 C 
BRANCH  27  28
ATOM     28  O   UNL A   1      37.280  32.138  28.552  1.00  0.00    -0.460 OA
BRANCH  28  29
ATOM     29  C   UNL A   1      37.381  31.350  29.653  1.00  0.00     0.338 C 
ATOM     30  O   UNL A   1      37.586  31.707  30.801  1.00  0.00    -0.246 OA
BRANCH  29  31
ATOM     31  C   UNL A   1      37.229  29.930  29.246  1.00  0.00     0.060 A 
ATOM     32  C   UNL A   1      37.627  29.065  30.276  1.00  0.00     0.016 A 
ATOM     33  C   UNL A   1      37.710  29.777  27.947  1.00  0.00     0.016 A 
ATOM     34  C   UNL A   1      38.852  28.454  30.147  1.00  0.00     0.010 A 
ATOM     35  C   UNL A   1      38.989  29.292  27.847  1.00  0.00     0.010 A 
ATOM     36  C   UNL A   1      39.571  28.686  28.975  1.00  0.00    -0.014 A 
BRANCH  36  37
ATOM     37  C   UNL A   1      40.928  28.160  28.858  1.00  0.00     0.031 A 
ATOM     38  C   UNL A   1      41.944  29.282  29.135  1.00  0.00     0.074 A 
ATOM     39  C   UNL A   1      41.012  26.821  28.579  1.00  0.00     0.049 A 
ATOM     40  N   UNL A   1      43.233  29.289  29.041  1.00  0.00    -0.248 NA
ATOM     41  C   UNL A   1      41.445  30.626  29.574  1.00  0.00     0.031 C 
ATOM     42  C   UNL A   1      39.865  25.906  28.309  1.00  0.00     0.029 A 
ATOM     43  N   UNL A   1      42.069  25.949  28.461  1.00  0.00    -0.354 N 
ATOM     44  C   UNL A   1      43.690  30.471  29.663  1.00  0.00     0.074 A 
ATOM     45  C   UNL A   1      42.551  31.301  29.878  1.00  0.00     0.031 C 
ATOM     46  C   UNL A   1      40.295  24.665  27.977  1.00  0.00     0.029 A 
ATOM     47  C   UNL A   1      41.741  24.621  28.058  1.00  0.00     0.049 A 
ATOM     48  H   UNL A   1      42.996  26.224  28.644  1.00  0.00     0.167 HD
ATOM     49  C   UNL A   1      44.971  30.644  30.081  1.00  0.00     0.034 A 
ATOM     50  C   UNL A   1      42.591  23.578  27.796  1.00  0.00     0.034 A 
ATOM     51  C   UNL A   1      45.777  29.554  29.652  1.00  0.00     0.049 A 
ATOM     52  C   UNL A   1      43.897  24.073  28.259  1.00  0.00     0.074 A 
ATOM     53  C   UNL A   1      46.263  29.212  28.420  1.00  0.00     0.029 A 
ATOM     54  N   UNL A   1      45.904  28.481  30.499  1.00  0.00    -0.354 N 
ATOM     55  N   UNL A   1      44.230  24.216  29.506  1.00  0.00    -0.248 NA
ATOM     56  C   UNL A   1      44.875  24.531  27.266  1.00  0.00     0.031 C 
ATOM     57  C   UNL A   1      46.253  27.804  28.436  1.00  0.00     0.029 A 
ATOM     58  C   UNL A   1      45.906  27.349  29.716  1.00  0.00     0.049 A 
ATOM     59  H   UNL A   1      45.978  28.513  31.480  1.00  0.00     0.167 HD
ATOM     60  C   UNL A   1      45.311  25.056  29.442  1.00  0.00     0.074 A 
ATOM     61  C   UNL A   1      45.829  24.947  28.095  1.00  0.00     0.031 C 
ATOM     62  C   UNL A   1      45.400  26.116  30.286  1.00  0.00     0.034 A 
BRANCH  49  63
ATOM     63  C   UNL A   1      45.596  31.666  30.982  1.00  0.00     0.023 A 
ATOM     64  C   UNL A   1      44.899  31.949  32.177  1.00  0.00     0.031 A 
ATOM     65  C   UNL A   1      46.618  32.555  30.623  1.00  0.00     0.131 A 
ATOM     66  C   UNL A   1      45.134  33.121  32.901  1.00  0.00     0.055 A 
ATOM     67  C   UNL A   1      46.898  33.698  31.386  1.00  0.00     0.041 A 
ATOM     68  F   UNL A   1      47.317  32.401  29.489  1.00  0.00    -0.206 F 
ATOM     69  C   UNL A   1      46.134  34.005  32.511  1.00  0.00     0.022 A 
BRANCH  66  70
ATOM     70  S   UNL A   1      43.987  33.533  34.245  1.00  0.00     0.124 S 
ATOM     71  O   UNL A   1      44.674  34.631  34.916  1.00  0.00    -0.237 OA
ATOM     72  O   UNL A   1      42.779  33.893  33.509  1.00  0.00    -0.237 OA
ATOM     73  O   UNL A   1      43.904  32.292  35.009  1.00  0.00    -0.744 OA
ENDBRANCH  66  70
ENDBRANCH  49  63
BRANCH  50  74
ATOM     74  C   UNL A   1      42.590  22.183  27.185  1.00  0.00     0.023 A 
ATOM     75  C   UNL A   1      43.509  21.664  26.254  1.00  0.00     0.031 A 
ATOM     76  C   UNL A   1      41.619  21.234  27.647  1.00  0.00     0.131 A 
ATOM     77  C   UNL A   1      43.472  20.282  25.902  1.00  0.00     0.055 A 
ATOM     78  C   UNL A   1      41.641  19.869  27.363  1.00  0.00     0.041 A 
ATOM     79  F   UNL A   1      40.588  21.586  28.426  1.00  0.00    -0.206 F 
ATOM     80  C   UNL A   1      42.584  19.379  26.494  1.00  0.00     0.022 A 
BRANCH  77  81
ATOM     81  S   UNL A   1      44.606  19.575  24.665  1.00  0.00     0.124 S 
ATOM     82  O   UNL A   1      45.825  19.392  25.443  1.00  0.00    -0.237 OA
ATOM     83  O   UNL A   1      43.921  18.358  24.246  1.00  0.00    -0.237 OA
ATOM     84  O   UNL A   1      44.675  20.622  23.643  1.00  0.00    -0.744 OA
ENDBRANCH  77  81
ENDBRANCH  50  74
BRANCH  62  85
ATOM     85  C   UNL A   1      44.570  25.978  31.565  1.00  0.00     0.023 A 
ATOM     86  C   UNL A   1      43.669  26.994  31.939  1.00  0.00     0.031 A 
ATOM     87  C   UNL A   1      44.722  24.926  32.488  1.00  0.00     0.131 A 
ATOM     88  C   UNL A   1      42.997  26.948  33.177  1.00  0.00     0.055 A 
ATOM     89  C   UNL A   1      44.053  24.874  33.717  1.00  0.00     0.041 A 
ATOM     90  F   UNL A   1      45.528  23.897  32.234  1.00  0.00    -0.206 F 
ATOM     91  C   UNL A   1      43.187  25.894  34.071  1.00  0.00     0.022 A 
BRANCH  88  92
ATOM     92  S   UNL A   1      41.829  28.268  33.608  1.00  0.00     0.124 S 
ATOM     93  O   UNL A   1      41.248  28.615  32.315  1.00  0.00    -0.237 OA
ATOM     94  O   UNL A   1      40.936  27.601  34.552  1.00  0.00    -0.237 OA
ATOM     95  O   UNL A   1      42.681  29.299  34.198  1.00  0.00    -0.744 OA
ENDBRANCH  88  92
ENDBRANCH  62  85
ENDBRANCH  36  37
ENDBRANCH  29  31
ENDBRANCH  28  29
ENDBRANCH  27  28
ENDBRANCH  26  27
ENDBRANCH  25  26
ENDBRANCH  24  25
ENDBRANCH   1  24
TORSDOF 23
ENDMDL
MODEL 2
REMARK VINA RESULT:     -10.0      2.979      4.318
REMARK SMILES C[C@@H]1CCC[C@H](C)N1C(=O)Cn1cccc1C(=O)OCCOCCOCCOC(=O)c1ccc(-c2c3nc(c(-c4cc(S(=O)(=O)[O-])ccc4F)c4ccc([nH]4)c(-c4cc(S(=O)(=O)[O-])ccc4F)c4nc(c(-c5cc(S(=O)(=O)[O-])ccc5F)c5ccc2[nH]5)C=C4)C=C3)cc1
REMARK SMILES IDX 23 1 22 2 21 3 20 4 19 5 17 6 18 7 16 8 12 9 13 10 14 11
REMARK SMILES IDX 15 12 11 13 9 14 10 15 8 16 1 17 2 18 3 19 4 20 6 21 5 22
REMARK SMILES IDX 7 23 24 24 25 25 26 26 27 27 28 28 29 29 30 30 31 31 32 32
REMARK SMILES IDX 93 33 33 34 92 35 34 36 35 37 36 38 86 39 37 40 91 41 85 42
REMARK SMILES IDX 87 43 38 44 90 45 84 46 83 47 39 49 71 50 51 51 70 52 52 53
REMARK SMILES IDX 55 54 69 55 88 56 53 57 54 58 68 60 89 61 56 62 40 63 41 64
REMARK SMILES IDX 49 65 42 66 48 67 50 68 47 69 43 70 44 71 45 72 46 73 72 74
REMARK SMILES IDX 73 75 81 76 74 77 80 78 82 79 79 80 75 81 76 82 77 83 78 84
REMARK SMILES IDX 57 85 58 86 66 87 59 88 65 89 67 90 64 91 60 92 61 93 62 94
REMARK SMILES IDX 63 95
REMARK H PARENT 87 48 55 59
REMARK Flexibility Score: inf
ROOT
ATOM      1  C   UNL A   1      33.327  32.148  27.954  1.00  0.00     0.188 C 
ENDROOT
BRANCH   1   2
ATOM      2  O   UNL A   1      34.391  31.571  27.132  1.00  0.00    -0.376 OA
BRANCH   2   3
ATOM      3  C   UNL A   1      34.571  30.153  27.296  1.00  0.00     0.202 C 
BRANCH   3   4
ATOM      4  C   UNL A   1      33.755  29.110  26.389  1.00  0.00     0.261 C 
BRANCH   4   5
ATOM      5  O   UNL A   1      32.290  29.115  26.378  1.00  0.00    -0.459 OA
BRANCH   5   6
ATOM      6  C   UNL A   1      31.575  27.971  26.688  1.00  0.00     0.355 C 
ATOM      7  O   UNL A   1      31.303  27.672  27.828  1.00  0.00    -0.244 OA
BRANCH   6   8
ATOM      8  C   UNL A   1      30.926  27.327  25.498  1.00  0.00     0.128 A 
ATOM      9  N   UNL A   1      30.394  26.059  25.206  1.00  0.00    -0.333 N 
ATOM     10  C   UNL A   1      29.914  26.035  23.905  1.00  0.00     0.087 A 
ATOM     11  C   UNL A   1      30.157  27.242  23.319  1.00  0.00     0.020 A 
ATOM     12  C   UNL A   1      30.750  28.050  24.309  1.00  0.00     0.035 A 
BRANCH   9  13
ATOM     13  C   UNL A   1      30.175  24.866  26.017  1.00  0.00     0.222 C 
BRANCH  13  14
ATOM     14  C   UNL A   1      31.398  24.085  26.354  1.00  0.00     0.242 C 
ATOM     15  O   UNL A   1      31.596  23.786  27.536  1.00  0.00    -0.273 OA
BRANCH  14  16
ATOM     16  N   UNL A   1      32.345  23.886  25.363  1.00  0.00    -0.336 N 
ATOM     17  C   UNL A   1      32.754  21.815  24.064  1.00  0.00     0.031 C 
ATOM     18  C   UNL A   1      32.210  23.247  24.027  1.00  0.00     0.082 C 
ATOM     19  C   UNL A   1      32.916  23.935  22.822  1.00  0.00     0.025 C 
ATOM     20  C   UNL A   1      33.794  25.124  23.090  1.00  0.00     0.004 C 
ATOM     21  C   UNL A   1      33.600  24.497  25.692  1.00  0.00     0.082 C 
ATOM     22  C   UNL A   1      33.862  25.491  24.535  1.00  0.00     0.025 C 
ATOM     23  C   UNL A   1      34.493  23.512  26.463  1.00  0.00     0.031 C 
ENDBRANCH  14  16
ENDBRANCH  13  14
ENDBRANCH   9  13
ENDBRANCH   6   8
ENDBRANCH   5   6
ENDBRANCH   4   5
ENDBRANCH   3   4
ENDBRANCH   2   3
ENDBRANCH   1   2
BRANCH   1  24
ATOM     24  C   UNL A   1      33.368  33.696  27.999  1.00  0.00     0.188 C 
BRANCH  24  25
ATOM     25  O   UNL A   1      32.702  34.378  29.049  1.00  0.00    -0.376 OA
BRANCH  25  26
ATOM     26  C   UNL A   1      33.407  35.416  29.716  1.00  0.00     0.202 C 
BRANCH  26  27
ATOM     27  C   UNL A   1      33.745  35.211  31.189  1.00  0.00     0.261 C 
BRANCH  27  28
ATOM     28  O   UNL A   1      33.852  33.829  31.522  1.00  0.00    -0.460 OA
BRANCH  28  29
ATOM     29  C   UNL A   1      35.079  33.487  31.993  1.00  0.00     0.338 C 
ATOM     30  O   UNL A   1      35.896  34.220  32.526  1.00  0.00    -0.246 OA
BRANCH  29  31
ATOM     31  C   UNL A   1      35.310  32.043  31.735  1.00  0.00     0.060 A 
ATOM     32  C   UNL A   1      36.110  31.474  32.738  1.00  0.00     0.016 A 
ATOM     33  C   UNL A   1      35.607  31.866  30.385  1.00  0.00     0.016 A 
ATOM     34  C   UNL A   1      37.427  31.232  32.430  1.00  0.00     0.010 A 
ATOM     35  C   UNL A   1      36.941  31.762  30.086  1.00  0.00     0.010 A 
ATOM     36  C   UNL A   1      37.849  31.505  31.129  1.00  0.00    -0.014 A 
BRANCH  36  37
ATOM     37  C   UNL A   1      39.266  31.383  30.801  1.00  0.00     0.031 A 
ATOM     38  C   UNL A   1      40.008  32.663  31.224  1.00  0.00     0.074 A 
ATOM     39  C   UNL A   1      39.636  30.185  30.247  1.00  0.00     0.049 A 
ATOM     40  N   UNL A   1      41.235  33.025  31.033  1.00  0.00    -0.248 NA
ATOM     41  C   UNL A   1      39.259  33.729  31.967  1.00  0.00     0.031 C 
ATOM     42  C   UNL A   1      38.720  29.066  29.884  1.00  0.00     0.029 A 
ATOM     43  N   UNL A   1      40.848  29.657  29.870  1.00  0.00    -0.354 N 
ATOM     44  C   UNL A   1      41.467  34.153  31.849  1.00  0.00     0.074 A 
ATOM     45  C   UNL A   1      40.198  34.603  32.318  1.00  0.00     0.031 C 
ATOM     46  C   UNL A   1      39.390  28.061  29.271  1.00  0.00     0.029 A 
ATOM     47  C   UNL A   1      40.803  28.384  29.229  1.00  0.00     0.049 A 
ATOM     48  H   UNL A   1      41.697  30.128  30.033  1.00  0.00     0.167 HD
ATOM     49  C   UNL A   1      42.711  34.579  32.193  1.00  0.00     0.034 A 
ATOM     50  C   UNL A   1      41.839  27.665  28.692  1.00  0.00     0.034 A 
ATOM     51  C   UNL A   1      43.695  33.833  31.487  1.00  0.00     0.049 A 
ATOM     52  C   UNL A   1      43.035  28.393  29.145  1.00  0.00     0.074 A 
ATOM     53  C   UNL A   1      44.088  33.858  30.177  1.00  0.00     0.029 A 
ATOM     54  N   UNL A   1      44.185  32.697  32.082  1.00  0.00    -0.354 N 
ATOM     55  N   UNL A   1      43.479  28.392  30.364  1.00  0.00    -0.248 NA
ATOM     56  C   UNL A   1      43.737  29.262  28.195  1.00  0.00     0.031 C 
ATOM     57  C   UNL A   1      44.421  32.517  29.904  1.00  0.00     0.029 A 
ATOM     58  C   UNL A   1      44.361  31.765  31.085  1.00  0.00     0.049 A 
ATOM     59  H   UNL A   1      44.374  32.571  33.040  1.00  0.00     0.167 HD
ATOM     60  C   UNL A   1      44.308  29.484  30.392  1.00  0.00     0.074 A 
ATOM     61  C   UNL A   1      44.660  29.758  29.015  1.00  0.00     0.031 C 
ATOM     62  C   UNL A   1      44.245  30.361  31.427  1.00  0.00     0.034 A 
BRANCH  49  63
ATOM     63  C   UNL A   1      43.180  35.550  33.234  1.00  0.00     0.023 A 
ATOM     64  C   UNL A   1      42.977  35.165  34.578  1.00  0.00     0.031 A 
ATOM     65  C   UNL A   1      43.519  36.890  33.006  1.00  0.00     0.131 A 
ATOM     66  C   UNL A   1      42.993  36.100  35.616  1.00  0.00     0.055 A 
ATOM     67  C   UNL A   1      43.600  37.816  34.057  1.00  0.00     0.041 A 
ATOM     68  F   UNL A   1      43.698  37.369  31.766  1.00  0.00    -0.206 F 
ATOM     69  C   UNL A   1      43.303  37.432  35.365  1.00  0.00     0.022 A 
BRANCH  66  70
ATOM     70  S   UNL A   1      42.428  35.560  37.253  1.00  0.00     0.124 S 
ATOM     71  O   UNL A   1      41.227  34.797  36.933  1.00  0.00    -0.237 OA
ATOM     72  O   UNL A   1      43.570  34.781  37.723  1.00  0.00    -0.237 OA
ATOM     73  O   UNL A   1      42.196  36.816  37.962  1.00  0.00    -0.744 OA
ENDBRANCH  66  70
ENDBRANCH  49  63
BRANCH  50  74
ATOM     74  C   UNL A   1      42.098  26.451  27.809  1.00  0.00     0.023 A 
ATOM     75  C   UNL A   1      42.167  25.107  28.215  1.00  0.00     0.031 A 
ATOM     76  C   UNL A   1      42.198  26.645  26.391  1.00  0.00     0.131 A 
ATOM     77  C   UNL A   1      42.250  24.065  27.243  1.00  0.00     0.055 A 
ATOM     78  C   UNL A   1      42.195  25.622  25.444  1.00  0.00     0.041 A 
ATOM     79  F   UNL A   1      42.291  27.862  25.840  1.00  0.00    -0.206 F 
ATOM     80  C   UNL A   1      42.206  24.316  25.868  1.00  0.00     0.022 A 
BRANCH  77  81
ATOM     81  S   UNL A   1      42.394  22.314  27.720  1.00  0.00     0.124 S 
ATOM     82  O   UNL A   1      43.481  22.355  28.691  1.00  0.00    -0.237 OA
ATOM     83  O   UNL A   1      41.070  22.006  28.250  1.00  0.00    -0.237 OA
ATOM     84  O   UNL A   1      42.717  21.651  26.455  1.00  0.00    -0.744 OA
ENDBRANCH  77  81
ENDBRANCH  50  74
BRANCH  62  85
ATOM     85  C   UNL A   1      43.643  29.783  32.710  1.00  0.00     0.023 A 
ATOM     86  C   UNL A   1      42.341  30.144  33.108  1.00  0.00     0.031 A 
ATOM     87  C   UNL A   1      44.355  28.972  33.614  1.00  0.00     0.131 A 
ATOM     88  C   UNL A   1      41.821  29.730  34.351  1.00  0.00     0.055 A 
ATOM     89  C   UNL A   1      43.841  28.555  34.847  1.00  0.00     0.041 A 
ATOM     90  F   UNL A   1      45.586  28.547  33.336  1.00  0.00    -0.206 F 
ATOM     91  C   UNL A   1      42.566  28.939  35.226  1.00  0.00     0.022 A 
BRANCH  88  92
ATOM     92  S   UNL A   1      40.131  30.202  34.813  1.00  0.00     0.124 S 
ATOM     93  O   UNL A   1      39.316  29.388  33.918  1.00  0.00    -0.237 OA
ATOM     94  O   UNL A   1      40.080  29.844  36.228  1.00  0.00    -0.237 OA
ATOM     95  O   UNL A   1      40.093  31.639  34.546  1.00  0.00    -0.744 OA
ENDBRANCH  88  92
ENDBRANCH  62  85
ENDBRANCH  36  37
ENDBRANCH  29  31
ENDBRANCH  28  29
ENDBRANCH  27  28
ENDBRANCH  26  27
ENDBRANCH  25  26
ENDBRANCH  24  25
ENDBRANCH   1  24
TORSDOF 23
ENDMDL
MODEL 3
REMARK VINA RESULT:      -9.9      2.050      3.319
REMARK SMILES C[C@@H]1CCC[C@H](C)N1C(=O)Cn1cccc1C(=O)OCCOCCOCCOC(=O)c1ccc(-c2c3nc(c(-c4cc(S(=O)(=O)[O-])ccc4F)c4ccc([nH]4)c(-c4cc(S(=O)(=O)[O-])ccc4F)c4nc(c(-c5cc(S(=O)(=O)[O-])ccc5F)c5ccc2[nH]5)C=C4)C=C3)cc1
REMARK SMILES IDX 23 1 22 2 21 3 20 4 19 5 17 6 18 7 16 8 12 9 13 10 14 11
REMARK SMILES IDX 15 12 11 13 9 14 10 15 8 16 1 17 2 18 3 19 4 20 6 21 5 22
REMARK SMILES IDX 7 23 24 24 25 25 26 26 27 27 28 28 29 29 30 30 31 31 32 32
REMARK SMILES IDX 93 33 33 34 92 35 34 36 35 37 36 38 86 39 37 40 91 41 85 42
REMARK SMILES IDX 87 43 38 44 90 45 84 46 83 47 39 49 71 50 51 51 70 52 52 53
REMARK SMILES IDX 55 54 69 55 88 56 53 57 54 58 68 60 89 61 56 62 40 63 41 64
REMARK SMILES IDX 49 65 42 66 48 67 50 68 47 69 43 70 44 71 45 72 46 73 72 74
REMARK SMILES IDX 73 75 81 76 74 77 80 78 82 79 79 80 75 81 76 82 77 83 78 84
REMARK SMILES IDX 57 85 58 86 66 87 59 88 65 89 67 90 64 91 60 92 61 93 62 94
REMARK SMILES IDX 63 95
REMARK H PARENT 87 48 55 59
REMARK Flexibility Score: inf
ROOT
ATOM      1  C   UNL A   1      33.537  34.724  28.967  1.00  0.00     0.188 C 
ENDROOT
BRANCH   1   2
ATOM      2  O   UNL A   1      33.900  33.309  29.041  1.00  0.00    -0.376 OA
BRANCH   2   3
ATOM      3  C   UNL A   1      34.012  32.653  27.765  1.00  0.00     0.202 C 
BRANCH   3   4
ATOM      4  C   UNL A   1      34.157  31.058  27.670  1.00  0.00     0.261 C 
BRANCH   4   5
ATOM      5  O   UNL A   1      33.515  30.312  26.584  1.00  0.00    -0.459 OA
BRANCH   5   6
ATOM      6  C   UNL A   1      32.148  30.394  26.380  1.00  0.00     0.355 C 
ATOM      7  O   UNL A   1      31.518  31.391  26.646  1.00  0.00    -0.244 OA
BRANCH   6   8
ATOM      8  C   UNL A   1      31.598  29.281  25.537  1.00  0.00     0.128 A 
ATOM      9  N   UNL A   1      31.684  27.879  25.544  1.00  0.00    -0.333 N 
ATOM     10  C   UNL A   1      30.949  27.353  24.491  1.00  0.00     0.087 A 
ATOM     11  C   UNL A   1      30.417  28.379  23.765  1.00  0.00     0.020 A 
ATOM     12  C   UNL A   1      30.789  29.566  24.427  1.00  0.00     0.035 A 
BRANCH   9  13
ATOM     13  C   UNL A   1      32.287  26.927  26.471  1.00  0.00     0.222 C 
BRANCH  13  14
ATOM     14  C   UNL A   1      31.908  25.501  26.264  1.00  0.00     0.242 C 
ATOM     15  O   UNL A   1      31.223  24.945  27.128  1.00  0.00    -0.273 OA
BRANCH  14  16
ATOM     16  N   UNL A   1      32.486  24.814  25.209  1.00  0.00    -0.336 N 
ATOM     17  C   UNL A   1      32.092  22.458  24.548  1.00  0.00     0.031 C 
ATOM     18  C   UNL A   1      31.863  23.930  24.189  1.00  0.00     0.082 C 
ATOM     19  C   UNL A   1      32.338  24.082  22.714  1.00  0.00     0.025 C 
ATOM     20  C   UNL A   1      33.479  25.013  22.421  1.00  0.00     0.004 C 
ATOM     21  C   UNL A   1      33.881  25.119  25.073  1.00  0.00     0.082 C 
ATOM     22  C   UNL A   1      34.014  25.689  23.640  1.00  0.00     0.025 C 
ATOM     23  C   UNL A   1      34.729  24.147  25.907  1.00  0.00     0.031 C 
ENDBRANCH  14  16
ENDBRANCH  13  14
ENDBRANCH   9  13
ENDBRANCH   6   8
ENDBRANCH   5   6
ENDBRANCH   4   5
ENDBRANCH   3   4
ENDBRANCH   2   3
ENDBRANCH   1   2
BRANCH   1  24
ATOM     24  C   UNL A   1      33.460  35.403  30.358  1.00  0.00     0.188 C 
BRANCH  24  25
ATOM     25  O   UNL A   1      33.247  34.604  31.510  1.00  0.00    -0.376 OA
BRANCH  25  26
ATOM     26  C   UNL A   1      34.273  34.575  32.493  1.00  0.00     0.202 C 
BRANCH  26  27
ATOM     27  C   UNL A   1      34.604  33.229  33.132  1.00  0.00     0.261 C 
BRANCH  27  28
ATOM     28  O   UNL A   1      35.999  33.091  33.386  1.00  0.00    -0.460 OA
BRANCH  28  29
ATOM     29  C   UNL A   1      36.705  32.702  32.293  1.00  0.00     0.338 C 
ATOM     30  O   UNL A   1      37.407  33.399  31.580  1.00  0.00    -0.246 OA
BRANCH  29  31
ATOM     31  C   UNL A   1      36.471  31.254  32.058  1.00  0.00     0.060 A 
ATOM     32  C   UNL A   1      37.312  30.472  32.865  1.00  0.00     0.016 A 
ATOM     33  C   UNL A   1      36.368  31.027  30.688  1.00  0.00     0.016 A 
ATOM     34  C   UNL A   1      38.399  29.888  32.261  1.00  0.00     0.010 A 
ATOM     35  C   UNL A   1      37.510  30.571  30.080  1.00  0.00     0.010 A 
ATOM     36  C   UNL A   1      38.544  30.060  30.884  1.00  0.00    -0.014 A 
BRANCH  36  37
ATOM     37  C   UNL A   1      39.752  29.565  30.230  1.00  0.00     0.031 A 
ATOM     38  C   UNL A   1      40.852  30.639  30.290  1.00  0.00     0.074 A 
ATOM     39  C   UNL A   1      39.674  28.281  29.755  1.00  0.00     0.049 A 
ATOM     40  N   UNL A   1      42.028  30.667  29.755  1.00  0.00    -0.248 NA
ATOM     41  C   UNL A   1      40.597  31.902  31.058  1.00  0.00     0.031 C 
ATOM     42  C   UNL A   1      38.464  27.409  29.776  1.00  0.00     0.029 A 
ATOM     43  N   UNL A   1      40.584  27.442  29.156  1.00  0.00    -0.354 N 
ATOM     44  C   UNL A   1      42.725  31.748  30.338  1.00  0.00     0.074 A 
ATOM     45  C   UNL A   1      41.769  32.531  31.049  1.00  0.00     0.031 C 
ATOM     46  C   UNL A   1      38.695  26.232  29.146  1.00  0.00     0.029 A 
ATOM     47  C   UNL A   1      40.077  26.186  28.711  1.00  0.00     0.049 A 
ATOM     48  H   UNL A   1      41.529  27.693  29.041  1.00  0.00     0.167 HD
ATOM     49  C   UNL A   1      44.078  31.866  30.304  1.00  0.00     0.034 A 
ATOM     50  C   UNL A   1      40.736  25.198  28.027  1.00  0.00     0.034 A 
ATOM     51  C   UNL A   1      44.636  30.855  29.473  1.00  0.00     0.049 A 
ATOM     52  C   UNL A   1      42.143  25.627  28.071  1.00  0.00     0.074 A 
ATOM     53  C   UNL A   1      44.651  30.700  28.114  1.00  0.00     0.029 A 
ATOM     54  N   UNL A   1      44.998  29.670  30.064  1.00  0.00    -0.354 N 
ATOM     55  N   UNL A   1      42.891  25.587  29.130  1.00  0.00    -0.248 NA
ATOM     56  C   UNL A   1      42.737  26.231  26.874  1.00  0.00     0.031 C 
ATOM     57  C   UNL A   1      44.583  29.305  27.936  1.00  0.00     0.029 A 
ATOM     58  C   UNL A   1      44.678  28.665  29.179  1.00  0.00     0.049 A 
ATOM     59  H   UNL A   1      45.408  29.558  30.953  1.00  0.00     0.167 HD
ATOM     60  C   UNL A   1      43.921  26.434  28.813  1.00  0.00     0.074 A 
ATOM     61  C   UNL A   1      43.937  26.527  27.368  1.00  0.00     0.031 C 
ATOM     62  C   UNL A   1      44.344  27.359  29.712  1.00  0.00     0.034 A 
BRANCH  49  63
ATOM     63  C   UNL A   1      45.022  32.748  31.064  1.00  0.00     0.023 A 
ATOM     64  C   UNL A   1      45.036  32.578  32.466  1.00  0.00     0.031 A 
ATOM     65  C   UNL A   1      45.653  33.893  30.561  1.00  0.00     0.131 A 
ATOM     66  C   UNL A   1      45.546  33.563  33.317  1.00  0.00     0.055 A 
ATOM     67  C   UNL A   1      46.224  34.851  31.413  1.00  0.00     0.041 A 
ATOM     68  F   UNL A   1      45.665  34.170  29.249  1.00  0.00    -0.206 F 
ATOM     69  C   UNL A   1      46.143  34.706  32.798  1.00  0.00     0.022 A 
BRANCH  66  70
ATOM     70  S   UNL A   1      45.248  33.384  35.097  1.00  0.00     0.124 S 
ATOM     71  O   UNL A   1      43.848  32.974  35.140  1.00  0.00    -0.237 OA
ATOM     72  O   UNL A   1      46.222  32.360  35.463  1.00  0.00    -0.237 OA
ATOM     73  O   UNL A   1      45.521  34.719  35.621  1.00  0.00    -0.744 OA
ENDBRANCH  66  70
ENDBRANCH  49  63
BRANCH  50  74
ATOM     74  C   UNL A   1      40.461  23.907  27.266  1.00  0.00     0.023 A 
ATOM     75  C   UNL A   1      41.306  22.788  27.162  1.00  0.00     0.031 A 
ATOM     76  C   UNL A   1      39.177  23.737  26.649  1.00  0.00     0.131 A 
ATOM     77  C   UNL A   1      40.836  21.586  26.551  1.00  0.00     0.055 A 
ATOM     78  C   UNL A   1      38.696  22.536  26.129  1.00  0.00     0.041 A 
ATOM     79  F   UNL A   1      38.301  24.742  26.530  1.00  0.00    -0.206 F 
ATOM     80  C   UNL A   1      39.524  21.442  26.091  1.00  0.00     0.022 A 
BRANCH  77  81
ATOM     81  S   UNL A   1      41.909  20.129  26.347  1.00  0.00     0.124 S 
ATOM     82  O   UNL A   1      42.982  20.659  25.514  1.00  0.00    -0.237 OA
ATOM     83  O   UNL A   1      42.267  19.788  27.719  1.00  0.00    -0.237 OA
ATOM     84  O   UNL A   1      41.031  19.163  25.685  1.00  0.00    -0.744 OA
ENDBRANCH  77  81
ENDBRANCH  50  74
BRANCH  62  85
ATOM     85  C   UNL A   1      44.001  27.030  31.167  1.00  0.00     0.023 A 
ATOM     86  C   UNL A   1      42.938  27.692  31.812  1.00  0.00     0.031 A 
ATOM     87  C   UNL A   1      44.762  26.163  31.975  1.00  0.00     0.131 A 
ATOM     88  C   UNL A   1      42.693  27.501  33.187  1.00  0.00     0.055 A 
ATOM     89  C   UNL A   1      44.518  25.968  33.340  1.00  0.00     0.041 A 
ATOM     90  F   UNL A   1      45.777  25.464  31.471  1.00  0.00    -0.206 F 
ATOM     91  C   UNL A   1      43.480  26.644  33.957  1.00  0.00     0.022 A 
BRANCH  88  92
ATOM     92  S   UNL A   1      41.298  28.358  33.972  1.00  0.00     0.124 S 
ATOM     93  O   UNL A   1      41.451  27.996  35.377  1.00  0.00    -0.237 OA
ATOM     94  O   UNL A   1      41.560  29.755  33.638  1.00  0.00    -0.237 OA
ATOM     95  O   UNL A   1      40.128  27.782  33.310  1.00  0.00    -0.744 OA
ENDBRANCH  88  92
ENDBRANCH  62  85
ENDBRANCH  36  37
ENDBRANCH  29  31
ENDBRANCH  28  29
ENDBRANCH  27  28
ENDBRANCH  26  27
ENDBRANCH  25  26
ENDBRANCH  24  25
ENDBRANCH   1  24
TORSDOF 23
ENDMDL
