MODEL 1
REMARK VINA RESULT:      -8.3      0.000      0.000
REMARK SMILES COc1ccc(/C=C2\SC(=O)N(CC(=O)N[C@H](C)C(=O)OCCOCCOCCOC(=O)c3ccc(-c4c5nc(c(-c6cc(S(=O)(=O)[O-])ccc6F)c6ccc([nH]6)c(-c6cc(S(=O)(=O)[O-])ccc6F)c6nc(c(-c7cc(S(=O)(=O)[O-])ccc7F)c7ccc4[nH]7)C=C6)C=C5)cc3)C2=O)cc1OC
REMARK SMILES IDX 25 1 24 2 23 3 22 4 21 5 19 6 20 7 17 8 18 9 16 10 14 11
REMARK SMILES IDX 15 12 13 14 12 15 7 16 8 17 9 18 96 19 10 20 97 21 11 22
REMARK SMILES IDX 6 23 3 24 4 25 99 26 5 27 98 28 2 29 1 30 100 31 101 32
REMARK SMILES IDX 26 33 27 34 28 35 29 36 30 37 31 38 32 39 33 40 34 41 95 42
REMARK SMILES IDX 35 43 94 44 36 45 37 46 38 47 88 48 39 49 93 50 87 51 89 52
REMARK SMILES IDX 40 53 92 54 86 55 85 56 41 58 73 59 53 60 72 61 54 62 57 63
REMARK SMILES IDX 71 64 90 65 55 66 56 67 70 69 91 70 58 71 42 72 43 73 51 74
REMARK SMILES IDX 44 75 50 76 52 77 49 78 45 79 46 80 47 81 48 82 74 83 75 84
REMARK SMILES IDX 83 85 76 86 82 87 84 88 81 89 77 90 78 91 79 92 80 93 59 94
REMARK SMILES IDX 60 95 68 96 61 97 67 98 69 99 66 100 62 101 63 102 64 103
REMARK SMILES IDX 65 104
REMARK H PARENT 16 13 89 57 57 68
REMARK Flexibility Score: inf
ROOT
ATOM      1  C   UNL A   1      42.592  19.909  26.177  1.00  0.00     0.188 C 
ENDROOT
BRANCH   1   2
ATOM      2  O   UNL A   1      43.369  19.797  24.990  1.00  0.00    -0.376 OA
BRANCH   2   3
ATOM      3  C   UNL A   1      44.691  19.270  25.069  1.00  0.00     0.202 C 
BRANCH   3   4
ATOM      4  C   UNL A   1      45.878  20.157  24.654  1.00  0.00     0.261 C 
BRANCH   4   5
ATOM      5  O   UNL A   1      46.384  21.004  25.707  1.00  0.00    -0.462 OA
BRANCH   5   6
ATOM      6  C   UNL A   1      45.771  22.205  25.868  1.00  0.00     0.328 C 
ATOM      7  O   UNL A   1      45.365  22.625  26.948  1.00  0.00    -0.250 OA
BRANCH   6   8
ATOM      8  C   UNL A   1      45.768  23.077  24.591  1.00  0.00     0.189 C 
ATOM      9  C   UNL A   1      44.574  22.993  23.640  1.00  0.00     0.043 C 
BRANCH   8  10
ATOM     10  N   UNL A   1      45.945  24.464  25.013  1.00  0.00    -0.341 N 
ATOM     11  C   UNL A   1      46.901  25.384  24.733  1.00  0.00     0.240 C 
ATOM     12  O   UNL A   1      46.659  26.541  25.093  1.00  0.00    -0.273 OA
ATOM     13  H   UNL A   1      45.238  24.794  25.614  1.00  0.00     0.164 HD
BRANCH  11  14
ATOM     14  C   UNL A   1      48.114  25.082  23.847  1.00  0.00     0.229 C 
BRANCH  14  15
ATOM     15  N   UNL A   1      49.014  26.198  23.597  1.00  0.00    -0.259 N 
ATOM     16  C   UNL A   1      50.313  28.696  21.308  1.00  0.00     0.029 C 
ATOM     17  C   UNL A   1      50.097  27.909  22.375  1.00  0.00     0.083 C 
ATOM     18  S   UNL A   1      50.863  27.943  23.905  1.00  0.00    -0.022 SA
ATOM     19  C   UNL A   1      49.039  26.845  22.382  1.00  0.00     0.268 C 
ATOM     20  C   UNL A   1      49.968  26.566  24.507  1.00  0.00     0.294 C 
ATOM     21  O   UNL A   1      48.300  26.605  21.437  1.00  0.00    -0.268 OA
ATOM     22  O   UNL A   1      50.158  26.085  25.606  1.00  0.00    -0.261 OA
BRANCH  16  23
ATOM     23  C   UNL A   1      51.257  29.819  21.073  1.00  0.00    -0.020 A 
ATOM     24  C   UNL A   1      52.866  32.154  20.828  1.00  0.00     0.160 A 
ATOM     25  C   UNL A   1      52.584  31.612  22.083  1.00  0.00     0.051 A 
ATOM     26  C   UNL A   1      52.428  31.487  19.686  1.00  0.00     0.161 A 
ATOM     27  C   UNL A   1      51.791  30.461  22.201  1.00  0.00     0.012 A 
ATOM     28  C   UNL A   1      51.607  30.343  19.820  1.00  0.00     0.058 A 
BRANCH  24  29
ATOM     29  O   UNL A   1      53.661  33.266  20.764  1.00  0.00    -0.493 OA
ATOM     30  C   UNL A   1      53.425  34.138  21.876  1.00  0.00     0.278 C 
ENDBRANCH  24  29
BRANCH  26  31
ATOM     31  O   UNL A   1      52.847  31.781  18.414  1.00  0.00    -0.493 OA
ATOM     32  C   UNL A   1      52.455  30.874  17.385  1.00  0.00     0.278 C 
ENDBRANCH  26  31
ENDBRANCH  16  23
ENDBRANCH  14  15
ENDBRANCH  11  14
ENDBRANCH   8  10
ENDBRANCH   6   8
ENDBRANCH   5   6
ENDBRANCH   4   5
ENDBRANCH   3   4
ENDBRANCH   2   3
ENDBRANCH   1   2
BRANCH   1  33
ATOM     33  C   UNL A   1      41.606  21.082  26.317  1.00  0.00     0.188 C 
BRANCH  33  34
ATOM     34  O   UNL A   1      42.197  22.356  26.210  1.00  0.00    -0.376 OA
BRANCH  34  35
ATOM     35  C   UNL A   1      41.458  23.478  26.663  1.00  0.00     0.202 C 
BRANCH  35  36
ATOM     36  C   UNL A   1      42.046  24.450  27.709  1.00  0.00     0.261 C 
BRANCH  36  37
ATOM     37  O   UNL A   1      42.013  25.857  27.412  1.00  0.00    -0.460 OA
BRANCH  37  38
ATOM     38  C   UNL A   1      43.024  26.345  26.648  1.00  0.00     0.338 C 
ATOM     39  O   UNL A   1      43.468  25.831  25.637  1.00  0.00    -0.246 OA
BRANCH  38  40
ATOM     40  C   UNL A   1      43.338  27.725  27.102  1.00  0.00     0.060 A 
ATOM     41  C   UNL A   1      44.193  27.902  28.198  1.00  0.00     0.016 A 
ATOM     42  C   UNL A   1      42.773  28.838  26.479  1.00  0.00     0.016 A 
ATOM     43  C   UNL A   1      44.446  29.184  28.702  1.00  0.00     0.010 A 
ATOM     44  C   UNL A   1      43.015  30.122  26.998  1.00  0.00     0.010 A 
ATOM     45  C   UNL A   1      43.826  30.307  28.138  1.00  0.00    -0.014 A 
BRANCH  45  46
ATOM     46  C   UNL A   1      43.815  31.612  28.880  1.00  0.00     0.031 A 
ATOM     47  C   UNL A   1      44.836  32.647  28.492  1.00  0.00     0.074 A 
ATOM     48  C   UNL A   1      42.839  31.985  29.737  1.00  0.00     0.049 A 
ATOM     49  N   UNL A   1      45.093  33.802  29.042  1.00  0.00    -0.248 NA
ATOM     50  C   UNL A   1      45.641  32.356  27.293  1.00  0.00     0.031 C 
ATOM     51  C   UNL A   1      41.635  31.212  29.984  1.00  0.00     0.029 A 
ATOM     52  N   UNL A   1      42.655  33.119  30.502  1.00  0.00    -0.354 N 
ATOM     53  C   UNL A   1      46.072  34.386  28.250  1.00  0.00     0.074 A 
ATOM     54  C   UNL A   1      46.402  33.436  27.210  1.00  0.00     0.031 C 
ATOM     55  C   UNL A   1      40.795  31.931  30.748  1.00  0.00     0.029 A 
ATOM     56  C   UNL A   1      41.484  33.121  31.245  1.00  0.00     0.049 A 
ATOM     57  H   UNL A   1      43.300  33.862  30.521  1.00  0.00     0.167 HD
ATOM     58  C   UNL A   1      46.624  35.617  28.368  1.00  0.00     0.034 A 
ATOM     59  C   UNL A   1      41.073  33.924  32.264  1.00  0.00     0.034 A 
ATOM     60  C   UNL A   1      46.273  36.560  29.399  1.00  0.00     0.049 A 
ATOM     61  C   UNL A   1      42.049  35.003  32.682  1.00  0.00     0.074 A 
ATOM     62  C   UNL A   1      46.766  37.837  29.602  1.00  0.00     0.029 A 
ATOM     63  N   UNL A   1      45.348  36.329  30.407  1.00  0.00    -0.354 N 
ATOM     64  N   UNL A   1      43.057  35.508  32.008  1.00  0.00    -0.248 NA
ATOM     65  C   UNL A   1      41.872  35.592  34.014  1.00  0.00     0.031 C 
ATOM     66  C   UNL A   1      46.209  38.339  30.783  1.00  0.00     0.029 A 
ATOM     67  C   UNL A   1      45.296  37.416  31.265  1.00  0.00     0.049 A 
ATOM     68  H   UNL A   1      44.806  35.511  30.498  1.00  0.00     0.167 HD
ATOM     69  C   UNL A   1      43.517  36.580  32.766  1.00  0.00     0.074 A 
ATOM     70  C   UNL A   1      42.739  36.592  33.985  1.00  0.00     0.031 C 
ATOM     71  C   UNL A   1      44.459  37.500  32.438  1.00  0.00     0.034 A 
BRANCH  58  72
ATOM     72  C   UNL A   1      47.709  35.987  27.395  1.00  0.00     0.023 A 
ATOM     73  C   UNL A   1      49.038  35.564  27.560  1.00  0.00     0.031 A 
ATOM     74  C   UNL A   1      47.397  36.777  26.275  1.00  0.00     0.131 A 
ATOM     75  C   UNL A   1      50.016  35.969  26.640  1.00  0.00     0.055 A 
ATOM     76  C   UNL A   1      48.358  37.114  25.324  1.00  0.00     0.041 A 
ATOM     77  F   UNL A   1      46.148  37.234  26.090  1.00  0.00    -0.206 F 
ATOM     78  C   UNL A   1      49.678  36.716  25.508  1.00  0.00     0.022 A 
BRANCH  75  79
ATOM     79  S   UNL A   1      51.755  35.602  26.998  1.00  0.00     0.124 S 
ATOM     80  O   UNL A   1      52.443  36.550  26.126  1.00  0.00    -0.237 OA
ATOM     81  O   UNL A   1      51.846  35.868  28.429  1.00  0.00    -0.237 OA
ATOM     82  O   UNL A   1      51.894  34.198  26.615  1.00  0.00    -0.744 OA
ENDBRANCH  75  79
ENDBRANCH  58  72
BRANCH  59  83
ATOM     83  C   UNL A   1      39.827  33.683  33.106  1.00  0.00     0.023 A 
ATOM     84  C   UNL A   1      39.782  32.893  34.272  1.00  0.00     0.031 A 
ATOM     85  C   UNL A   1      38.579  34.094  32.620  1.00  0.00     0.131 A 
ATOM     86  C   UNL A   1      38.538  32.516  34.838  1.00  0.00     0.055 A 
ATOM     87  C   UNL A   1      37.353  33.800  33.218  1.00  0.00     0.041 A 
ATOM     88  F   UNL A   1      38.526  34.759  31.472  1.00  0.00    -0.206 F 
ATOM     89  C   UNL A   1      37.326  32.980  34.324  1.00  0.00     0.022 A 
BRANCH  86  90
ATOM     90  S   UNL A   1      38.458  31.239  36.130  1.00  0.00     0.124 S 
ATOM     91  O   UNL A   1      38.273  30.022  35.352  1.00  0.00    -0.237 OA
ATOM     92  O   UNL A   1      39.752  31.403  36.783  1.00  0.00    -0.237 OA
ATOM     93  O   UNL A   1      37.300  31.649  36.925  1.00  0.00    -0.744 OA
ENDBRANCH  86  90
ENDBRANCH  59  83
BRANCH  71  94
ATOM     94  C   UNL A   1      44.502  38.757  33.271  1.00  0.00     0.023 A 
ATOM     95  C   UNL A   1      43.609  39.826  33.105  1.00  0.00     0.031 A 
ATOM     96  C   UNL A   1      45.533  38.898  34.222  1.00  0.00     0.131 A 
ATOM     97  C   UNL A   1      43.812  41.017  33.821  1.00  0.00     0.055 A 
ATOM     98  C   UNL A   1      45.680  40.053  34.988  1.00  0.00     0.041 A 
ATOM     99  F   UNL A   1      46.424  37.911  34.417  1.00  0.00    -0.206 F 
ATOM    100  C   UNL A   1      44.828  41.130  34.774  1.00  0.00     0.022 A 
BRANCH  97 101
ATOM    101  S   UNL A   1      42.809  42.469  33.397  1.00  0.00     0.124 S 
ATOM    102  O   UNL A   1      42.068  41.995  32.233  1.00  0.00    -0.237 OA
ATOM    103  O   UNL A   1      42.024  42.670  34.611  1.00  0.00    -0.237 OA
ATOM    104  O   UNL A   1      43.803  43.505  33.124  1.00  0.00    -0.744 OA
ENDBRANCH  97 101
ENDBRANCH  71  94
ENDBRANCH  45  46
ENDBRANCH  38  40
ENDBRANCH  37  38
ENDBRANCH  36  37
ENDBRANCH  35  36
ENDBRANCH  34  35
ENDBRANCH  33  34
ENDBRANCH   1  33
TORSDOF 26
ENDMDL
MODEL 2
REMARK VINA RESULT:      -8.3      5.787     10.569
REMARK SMILES COc1ccc(/C=C2\SC(=O)N(CC(=O)N[C@H](C)C(=O)OCCOCCOCCOC(=O)c3ccc(-c4c5nc(c(-c6cc(S(=O)(=O)[O-])ccc6F)c6ccc([nH]6)c(-c6cc(S(=O)(=O)[O-])ccc6F)c6nc(c(-c7cc(S(=O)(=O)[O-])ccc7F)c7ccc4[nH]7)C=C6)C=C5)cc3)C2=O)cc1OC
REMARK SMILES IDX 25 1 24 2 23 3 22 4 21 5 19 6 20 7 17 8 18 9 16 10 14 11
REMARK SMILES IDX 15 12 13 14 12 15 7 16 8 17 9 18 96 19 10 20 97 21 11 22
REMARK SMILES IDX 6 23 3 24 4 25 99 26 5 27 98 28 2 29 1 30 100 31 101 32
REMARK SMILES IDX 26 33 27 34 28 35 29 36 30 37 31 38 32 39 33 40 34 41 95 42
REMARK SMILES IDX 35 43 94 44 36 45 37 46 38 47 88 48 39 49 93 50 87 51 89 52
REMARK SMILES IDX 40 53 92 54 86 55 85 56 41 58 73 59 53 60 72 61 54 62 57 63
REMARK SMILES IDX 71 64 90 65 55 66 56 67 70 69 91 70 58 71 42 72 43 73 51 74
REMARK SMILES IDX 44 75 50 76 52 77 49 78 45 79 46 80 47 81 48 82 74 83 75 84
REMARK SMILES IDX 83 85 76 86 82 87 84 88 81 89 77 90 78 91 79 92 80 93 59 94
REMARK SMILES IDX 60 95 68 96 61 97 67 98 69 99 66 100 62 101 63 102 64 103
REMARK SMILES IDX 65 104
REMARK H PARENT 16 13 89 57 57 68
REMARK Flexibility Score: inf
ROOT
ATOM      1  C   UNL A   1      41.727  25.630  25.584  1.00  0.00     0.188 C 
ENDROOT
BRANCH   1   2
ATOM      2  O   UNL A   1      40.876  26.407  26.419  1.00  0.00    -0.376 OA
BRANCH   2   3
ATOM      3  C   UNL A   1      40.962  26.260  27.834  1.00  0.00     0.202 C 
BRANCH   3   4
ATOM      4  C   UNL A   1      41.295  27.489  28.698  1.00  0.00     0.261 C 
BRANCH   4   5
ATOM      5  O   UNL A   1      40.211  28.433  28.831  1.00  0.00    -0.462 OA
BRANCH   5   6
ATOM      6  C   UNL A   1      39.609  28.500  30.045  1.00  0.00     0.328 C 
ATOM      7  O   UNL A   1      39.029  27.555  30.574  1.00  0.00    -0.250 OA
BRANCH   6   8
ATOM      8  C   UNL A   1      39.851  29.835  30.786  1.00  0.00     0.189 C 
ATOM      9  C   UNL A   1      40.394  31.030  30.001  1.00  0.00     0.043 C 
BRANCH   8  10
ATOM     10  N   UNL A   1      38.591  30.214  31.421  1.00  0.00    -0.341 N 
ATOM     11  C   UNL A   1      37.501  30.873  30.954  1.00  0.00     0.240 C 
ATOM     12  O   UNL A   1      36.510  30.865  31.692  1.00  0.00    -0.273 OA
ATOM     13  H   UNL A   1      38.519  29.941  32.363  1.00  0.00     0.164 HD
BRANCH  11  14
ATOM     14  C   UNL A   1      37.405  31.421  29.526  1.00  0.00     0.229 C 
BRANCH  14  15
ATOM     15  N   UNL A   1      36.218  31.040  28.776  1.00  0.00    -0.259 N 
ATOM     16  C   UNL A   1      34.515  28.638  26.655  1.00  0.00     0.029 C 
ATOM     17  C   UNL A   1      34.841  29.726  27.371  1.00  0.00     0.083 C 
ATOM     18  S   UNL A   1      33.916  31.138  27.659  1.00  0.00    -0.022 SA
ATOM     19  C   UNL A   1      36.142  29.836  28.112  1.00  0.00     0.268 C 
ATOM     20  C   UNL A   1      35.182  31.913  28.584  1.00  0.00     0.294 C 
ATOM     21  O   UNL A   1      37.000  28.965  28.124  1.00  0.00    -0.268 OA
ATOM     22  O   UNL A   1      35.081  33.040  29.026  1.00  0.00    -0.261 OA
BRANCH  16  23
ATOM     23  C   UNL A   1      33.298  28.283  25.879  1.00  0.00    -0.020 A 
ATOM     24  C   UNL A   1      30.841  27.900  24.497  1.00  0.00     0.160 A 
ATOM     25  C   UNL A   1      31.616  29.038  24.269  1.00  0.00     0.051 A 
ATOM     26  C   UNL A   1      31.327  26.906  25.342  1.00  0.00     0.161 A 
ATOM     27  C   UNL A   1      32.828  29.225  24.951  1.00  0.00     0.012 A 
ATOM     28  C   UNL A   1      32.536  27.117  26.044  1.00  0.00     0.058 A 
BRANCH  24  29
ATOM     29  O   UNL A   1      29.677  27.755  23.792  1.00  0.00    -0.493 OA
ATOM     30  C   UNL A   1      29.431  28.892  22.955  1.00  0.00     0.278 C 
ENDBRANCH  24  29
BRANCH  26  31
ATOM     31  O   UNL A   1      30.781  25.652  25.449  1.00  0.00    -0.493 OA
ATOM     32  C   UNL A   1      30.908  24.798  24.313  1.00  0.00     0.278 C 
ENDBRANCH  26  31
ENDBRANCH  16  23
ENDBRANCH  14  15
ENDBRANCH  11  14
ENDBRANCH   8  10
ENDBRANCH   6   8
ENDBRANCH   5   6
ENDBRANCH   4   5
ENDBRANCH   3   4
ENDBRANCH   2   3
ENDBRANCH   1   2
BRANCH   1  33
ATOM     33  C   UNL A   1      42.589  24.525  26.216  1.00  0.00     0.188 C 
BRANCH  33  34
ATOM     34  O   UNL A   1      43.169  23.636  25.290  1.00  0.00    -0.376 OA
BRANCH  34  35
ATOM     35  C   UNL A   1      44.561  23.740  25.042  1.00  0.00     0.202 C 
BRANCH  35  36
ATOM     36  C   UNL A   1      45.556  24.012  26.192  1.00  0.00     0.261 C 
BRANCH  36  37
ATOM     37  O   UNL A   1      46.840  24.565  25.853  1.00  0.00    -0.460 OA
BRANCH  37  38
ATOM     38  C   UNL A   1      46.840  25.769  25.225  1.00  0.00     0.338 C 
ATOM     39  O   UNL A   1      47.020  25.955  24.035  1.00  0.00    -0.246 OA
BRANCH  38  40
ATOM     40  C   UNL A   1      46.344  26.799  26.176  1.00  0.00     0.060 A 
ATOM     41  C   UNL A   1      47.188  27.235  27.206  1.00  0.00     0.016 A 
ATOM     42  C   UNL A   1      45.049  27.309  26.079  1.00  0.00     0.016 A 
ATOM     43  C   UNL A   1      46.726  28.145  28.166  1.00  0.00     0.010 A 
ATOM     44  C   UNL A   1      44.582  28.208  27.054  1.00  0.00     0.010 A 
ATOM     45  C   UNL A   1      45.403  28.608  28.130  1.00  0.00    -0.014 A 
BRANCH  45  46
ATOM     46  C   UNL A   1      44.813  29.288  29.331  1.00  0.00     0.031 A 
ATOM     47  C   UNL A   1      44.483  30.751  29.216  1.00  0.00     0.074 A 
ATOM     48  C   UNL A   1      44.387  28.635  30.435  1.00  0.00     0.049 A 
ATOM     49  N   UNL A   1      44.061  31.579  30.133  1.00  0.00    -0.248 NA
ATOM     50  C   UNL A   1      44.603  31.347  27.874  1.00  0.00     0.031 C 
ATOM     51  C   UNL A   1      44.368  27.189  30.567  1.00  0.00     0.029 A 
ATOM     52  N   UNL A   1      43.830  29.073  31.619  1.00  0.00    -0.354 N 
ATOM     53  C   UNL A   1      43.846  32.785  29.480  1.00  0.00     0.074 A 
ATOM     54  C   UNL A   1      44.234  32.598  28.099  1.00  0.00     0.031 C 
ATOM     55  C   UNL A   1      43.736  26.856  31.705  1.00  0.00     0.029 A 
ATOM     56  C   UNL A   1      43.506  28.058  32.506  1.00  0.00     0.049 A 
ATOM     57  H   UNL A   1      43.677  30.025  31.819  1.00  0.00     0.167 HD
ATOM     58  C   UNL A   1      43.343  33.935  29.987  1.00  0.00     0.034 A 
ATOM     59  C   UNL A   1      43.167  28.095  33.824  1.00  0.00     0.034 A 
ATOM     60  C   UNL A   1      42.944  34.102  31.361  1.00  0.00     0.049 A 
ATOM     61  C   UNL A   1      43.140  29.472  34.454  1.00  0.00     0.074 A 
ATOM     62  C   UNL A   1      42.414  35.224  31.974  1.00  0.00     0.029 A 
ATOM     63  N   UNL A   1      43.038  33.124  32.341  1.00  0.00    -0.354 N 
ATOM     64  N   UNL A   1      43.048  30.644  33.868  1.00  0.00    -0.248 NA
ATOM     65  C   UNL A   1      43.221  29.544  35.917  1.00  0.00     0.031 C 
ATOM     66  C   UNL A   1      42.276  34.954  33.339  1.00  0.00     0.029 A 
ATOM     67  C   UNL A   1      42.629  33.634  33.563  1.00  0.00     0.049 A 
ATOM     68  H   UNL A   1      43.351  32.203  32.189  1.00  0.00     0.167 HD
ATOM     69  C   UNL A   1      42.891  31.567  34.897  1.00  0.00     0.074 A 
ATOM     70  C   UNL A   1      42.990  30.830  36.137  1.00  0.00     0.031 C 
ATOM     71  C   UNL A   1      42.625  32.894  34.803  1.00  0.00     0.034 A 
BRANCH  58  72
ATOM     72  C   UNL A   1      43.255  35.121  29.065  1.00  0.00     0.023 A 
ATOM     73  C   UNL A   1      44.388  35.860  28.688  1.00  0.00     0.031 A 
ATOM     74  C   UNL A   1      42.006  35.509  28.550  1.00  0.00     0.131 A 
ATOM     75  C   UNL A   1      44.243  36.977  27.853  1.00  0.00     0.055 A 
ATOM     76  C   UNL A   1      41.878  36.574  27.661  1.00  0.00     0.041 A 
ATOM     77  F   UNL A   1      40.889  34.854  28.906  1.00  0.00    -0.206 F 
ATOM     78  C   UNL A   1      43.000  37.320  27.314  1.00  0.00     0.022 A 
BRANCH  75  79
ATOM     79  S   UNL A   1      45.680  38.044  27.567  1.00  0.00     0.124 S 
ATOM     80  O   UNL A   1      46.706  37.068  27.205  1.00  0.00    -0.237 OA
ATOM     81  O   UNL A   1      45.220  38.915  26.491  1.00  0.00    -0.237 OA
ATOM     82  O   UNL A   1      45.881  38.700  28.857  1.00  0.00    -0.744 OA
ENDBRANCH  75  79
ENDBRANCH  58  72
BRANCH  59  83
ATOM     83  C   UNL A   1      43.016  26.869  34.713  1.00  0.00     0.023 A 
ATOM     84  C   UNL A   1      44.085  26.135  35.264  1.00  0.00     0.031 A 
ATOM     85  C   UNL A   1      41.754  26.279  34.861  1.00  0.00     0.131 A 
ATOM     86  C   UNL A   1      43.857  24.868  35.858  1.00  0.00     0.055 A 
ATOM     87  C   UNL A   1      41.508  25.073  35.520  1.00  0.00     0.041 A 
ATOM     88  F   UNL A   1      40.705  26.856  34.286  1.00  0.00    -0.206 F 
ATOM     89  C   UNL A   1      42.572  24.343  36.001  1.00  0.00     0.022 A 
BRANCH  86  90
ATOM     90  S   UNL A   1      45.252  23.775  36.268  1.00  0.00     0.124 S 
ATOM     91  O   UNL A   1      46.364  24.422  35.586  1.00  0.00    -0.237 OA
ATOM     92  O   UNL A   1      45.256  23.840  37.725  1.00  0.00    -0.237 OA
ATOM     93  O   UNL A   1      44.839  22.490  35.702  1.00  0.00    -0.744 OA
ENDBRANCH  86  90
ENDBRANCH  59  83
BRANCH  71  94
ATOM     94  C   UNL A   1      42.138  33.581  36.055  1.00  0.00     0.023 A 
ATOM     95  C   UNL A   1      42.984  34.260  36.945  1.00  0.00     0.031 A 
ATOM     96  C   UNL A   1      40.772  33.481  36.389  1.00  0.00     0.131 A 
ATOM     97  C   UNL A   1      42.471  34.744  38.159  1.00  0.00     0.055 A 
ATOM     98  C   UNL A   1      40.254  34.034  37.559  1.00  0.00     0.041 A 
ATOM     99  F   UNL A   1      39.916  32.834  35.581  1.00  0.00    -0.206 F 
ATOM    100  C   UNL A   1      41.110  34.652  38.462  1.00  0.00     0.022 A 
BRANCH  97 101
ATOM    101  S   UNL A   1      43.631  35.379  39.402  1.00  0.00     0.124 S 
ATOM    102  O   UNL A   1      42.733  35.767  40.484  1.00  0.00    -0.237 OA
ATOM    103  O   UNL A   1      44.475  34.218  39.662  1.00  0.00    -0.237 OA
ATOM    104  O   UNL A   1      44.296  36.486  38.717  1.00  0.00    -0.744 OA
ENDBRANCH  97 101
ENDBRANCH  71  94
ENDBRANCH  45  46
ENDBRANCH  38  40
ENDBRANCH  37  38
ENDBRANCH  36  37
ENDBRANCH  35  36
ENDBRANCH  34  35
ENDBRANCH  33  34
ENDBRANCH   1  33
TORSDOF 26
ENDMDL
MODEL 3
REMARK VINA RESULT:      -7.8      5.869     10.579
REMARK SMILES COc1ccc(/C=C2\SC(=O)N(CC(=O)N[C@H](C)C(=O)OCCOCCOCCOC(=O)c3ccc(-c4c5nc(c(-c6cc(S(=O)(=O)[O-])ccc6F)c6ccc([nH]6)c(-c6cc(S(=O)(=O)[O-])ccc6F)c6nc(c(-c7cc(S(=O)(=O)[O-])ccc7F)c7ccc4[nH]7)C=C6)C=C5)cc3)C2=O)cc1OC
REMARK SMILES IDX 25 1 24 2 23 3 22 4 21 5 19 6 20 7 17 8 18 9 16 10 14 11
REMARK SMILES IDX 15 12 13 14 12 15 7 16 8 17 9 18 96 19 10 20 97 21 11 22
REMARK SMILES IDX 6 23 3 24 4 25 99 26 5 27 98 28 2 29 1 30 100 31 101 32
REMARK SMILES IDX 26 33 27 34 28 35 29 36 30 37 31 38 32 39 33 40 34 41 95 42
REMARK SMILES IDX 35 43 94 44 36 45 37 46 38 47 88 48 39 49 93 50 87 51 89 52
REMARK SMILES IDX 40 53 92 54 86 55 85 56 41 58 73 59 53 60 72 61 54 62 57 63
REMARK SMILES IDX 71 64 90 65 55 66 56 67 70 69 91 70 58 71 42 72 43 73 51 74
REMARK SMILES IDX 44 75 50 76 52 77 49 78 45 79 46 80 47 81 48 82 74 83 75 84
REMARK SMILES IDX 83 85 76 86 82 87 84 88 81 89 77 90 78 91 79 92 80 93 59 94
REMARK SMILES IDX 60 95 68 96 61 97 67 98 69 99 66 100 62 101 63 102 64 103
REMARK SMILES IDX 65 104
REMARK H PARENT 16 13 89 57 57 68
REMARK Flexibility Score: inf
ROOT
ATOM      1  C   UNL A   1      40.083  25.146  26.695  1.00  0.00     0.188 C 
ENDROOT
BRANCH   1   2
ATOM      2  O   UNL A   1      39.199  25.950  27.468  1.00  0.00    -0.376 OA
BRANCH   2   3
ATOM      3  C   UNL A   1      39.514  26.221  28.831  1.00  0.00     0.202 C 
BRANCH   3   4
ATOM      4  C   UNL A   1      39.883  27.657  29.245  1.00  0.00     0.261 C 
BRANCH   4   5
ATOM      5  O   UNL A   1      38.758  28.554  29.346  1.00  0.00    -0.462 OA
BRANCH   5   6
ATOM      6  C   UNL A   1      38.434  28.988  30.591  1.00  0.00     0.328 C 
ATOM      7  O   UNL A   1      38.126  28.242  31.516  1.00  0.00    -0.250 OA
BRANCH   6   8
ATOM      8  C   UNL A   1      38.642  30.507  30.792  1.00  0.00     0.189 C 
ATOM      9  C   UNL A   1      39.203  31.337  29.639  1.00  0.00     0.043 C 
BRANCH   8  10
ATOM     10  N   UNL A   1      37.358  31.069  31.204  1.00  0.00    -0.341 N 
ATOM     11  C   UNL A   1      36.332  31.605  30.497  1.00  0.00     0.240 C 
ATOM     12  O   UNL A   1      35.292  31.815  31.131  1.00  0.00    -0.273 OA
ATOM     13  H   UNL A   1      37.209  31.057  32.177  1.00  0.00     0.164 HD
BRANCH  11  14
ATOM     14  C   UNL A   1      36.360  31.757  28.972  1.00  0.00     0.229 C 
BRANCH  14  15
ATOM     15  N   UNL A   1      35.303  31.070  28.245  1.00  0.00    -0.259 N 
ATOM     16  C   UNL A   1      34.198  28.173  26.360  1.00  0.00     0.029 C 
ATOM     17  C   UNL A   1      34.272  29.371  26.962  1.00  0.00     0.083 C 
ATOM     18  S   UNL A   1      33.074  30.588  27.080  1.00  0.00    -0.022 SA
ATOM     19  C   UNL A   1      35.494  29.815  27.711  1.00  0.00     0.268 C 
ATOM     20  C   UNL A   1      34.123  31.692  27.941  1.00  0.00     0.294 C 
ATOM     21  O   UNL A   1      36.508  29.141  27.832  1.00  0.00    -0.268 OA
ATOM     22  O   UNL A   1      33.781  32.814  28.259  1.00  0.00    -0.261 OA
BRANCH  16  23
ATOM     23  C   UNL A   1      33.108  27.503  25.603  1.00  0.00    -0.020 A 
ATOM     24  C   UNL A   1      31.217  25.943  24.159  1.00  0.00     0.160 A 
ATOM     25  C   UNL A   1      31.683  25.522  25.405  1.00  0.00     0.051 A 
ATOM     26  C   UNL A   1      31.617  27.183  23.668  1.00  0.00     0.161 A 
ATOM     27  C   UNL A   1      32.616  26.293  26.116  1.00  0.00     0.012 A 
ATOM     28  C   UNL A   1      32.577  27.938  24.381  1.00  0.00     0.058 A 
BRANCH  24  29
ATOM     29  O   UNL A   1      30.293  25.166  23.515  1.00  0.00    -0.493 OA
ATOM     30  C   UNL A   1      30.705  23.794  23.474  1.00  0.00     0.278 C 
ENDBRANCH  24  29
BRANCH  26  31
ATOM     31  O   UNL A   1      31.042  27.806  22.589  1.00  0.00    -0.493 OA
ATOM     32  C   UNL A   1      30.715  29.186  22.746  1.00  0.00     0.278 C 
ENDBRANCH  26  31
ENDBRANCH  16  23
ENDBRANCH  14  15
ENDBRANCH  11  14
ENDBRANCH   8  10
ENDBRANCH   6   8
ENDBRANCH   5   6
ENDBRANCH   4   5
ENDBRANCH   3   4
ENDBRANCH   2   3
ENDBRANCH   1   2
BRANCH   1  33
ATOM     33  C   UNL A   1      41.100  24.246  27.417  1.00  0.00     0.188 C 
BRANCH  33  34
ATOM     34  O   UNL A   1      41.631  23.212  26.622  1.00  0.00    -0.376 OA
BRANCH  34  35
ATOM     35  C   UNL A   1      43.009  23.261  26.290  1.00  0.00     0.202 C 
BRANCH  35  36
ATOM     36  C   UNL A   1      44.067  23.657  27.343  1.00  0.00     0.261 C 
BRANCH  36  37
ATOM     37  O   UNL A   1      45.303  24.224  26.873  1.00  0.00    -0.460 OA
BRANCH  37  38
ATOM     38  C   UNL A   1      45.210  25.344  26.111  1.00  0.00     0.338 C 
ATOM     39  O   UNL A   1      45.157  25.379  24.894  1.00  0.00    -0.246 OA
BRANCH  38  40
ATOM     40  C   UNL A   1      44.937  26.503  27.002  1.00  0.00     0.060 A 
ATOM     41  C   UNL A   1      46.001  27.088  27.700  1.00  0.00     0.016 A 
ATOM     42  C   UNL A   1      43.642  26.991  27.177  1.00  0.00     0.016 A 
ATOM     43  C   UNL A   1      45.768  28.129  28.608  1.00  0.00     0.010 A 
ATOM     44  C   UNL A   1      43.408  28.023  28.103  1.00  0.00     0.010 A 
ATOM     45  C   UNL A   1      44.463  28.580  28.856  1.00  0.00    -0.014 A 
BRANCH  45  46
ATOM     46  C   UNL A   1      44.179  29.429  30.061  1.00  0.00     0.031 A 
ATOM     47  C   UNL A   1      43.939  30.898  29.841  1.00  0.00     0.074 A 
ATOM     48  C   UNL A   1      43.939  28.932  31.295  1.00  0.00     0.049 A 
ATOM     49  N   UNL A   1      43.771  31.849  30.719  1.00  0.00    -0.248 NA
ATOM     50  C   UNL A   1      43.827  31.342  28.441  1.00  0.00     0.031 C 
ATOM     51  C   UNL A   1      43.843  27.515  31.596  1.00  0.00     0.029 A 
ATOM     52  N   UNL A   1      43.666  29.538  32.505  1.00  0.00    -0.354 N 
ATOM     53  C   UNL A   1      43.516  32.999  29.984  1.00  0.00     0.074 A 
ATOM     54  C   UNL A   1      43.602  32.638  28.585  1.00  0.00     0.031 C 
ATOM     55  C   UNL A   1      43.431  27.359  32.866  1.00  0.00     0.029 A 
ATOM     56  C   UNL A   1      43.455  28.651  33.550  1.00  0.00     0.049 A 
ATOM     57  H   UNL A   1      43.625  30.514  32.617  1.00  0.00     0.167 HD
ATOM     58  C   UNL A   1      43.210  34.236  30.440  1.00  0.00     0.034 A 
ATOM     59  C   UNL A   1      43.393  28.852  34.895  1.00  0.00     0.034 A 
ATOM     60  C   UNL A   1      43.110  34.576  31.837  1.00  0.00     0.049 A 
ATOM     61  C   UNL A   1      43.593  30.282  35.352  1.00  0.00     0.074 A 
ATOM     62  C   UNL A   1      42.797  35.799  32.404  1.00  0.00     0.029 A 
ATOM     63  N   UNL A   1      43.330  33.697  32.887  1.00  0.00    -0.354 N 
ATOM     64  N   UNL A   1      43.470  31.392  34.663  1.00  0.00    -0.248 NA
ATOM     65  C   UNL A   1      43.973  30.492  36.754  1.00  0.00     0.031 C 
ATOM     66  C   UNL A   1      42.919  35.681  33.793  1.00  0.00     0.029 A 
ATOM     67  C   UNL A   1      43.214  34.363  34.097  1.00  0.00     0.049 A 
ATOM     68  H   UNL A   1      43.538  32.740  32.786  1.00  0.00     0.167 HD
ATOM     69  C   UNL A   1      43.590  32.425  35.588  1.00  0.00     0.074 A 
ATOM     70  C   UNL A   1      43.885  31.809  36.863  1.00  0.00     0.031 C 
ATOM     71  C   UNL A   1      43.407  33.755  35.393  1.00  0.00     0.034 A 
BRANCH  58  72
ATOM     72  C   UNL A   1      43.024  35.325  29.420  1.00  0.00     0.023 A 
ATOM     73  C   UNL A   1      44.071  36.180  29.038  1.00  0.00     0.031 A 
ATOM     74  C   UNL A   1      41.767  35.503  28.816  1.00  0.00     0.131 A 
ATOM     75  C   UNL A   1      43.831  37.201  28.108  1.00  0.00     0.055 A 
ATOM     76  C   UNL A   1      41.554  36.471  27.837  1.00  0.00     0.041 A 
ATOM     77  F   UNL A   1      40.725  34.733  29.170  1.00  0.00    -0.206 F 
ATOM     78  C   UNL A   1      42.587  37.333  27.483  1.00  0.00     0.022 A 
BRANCH  75  79
ATOM     79  S   UNL A   1      45.132  38.426  27.804  1.00  0.00     0.124 S 
ATOM     80  O   UNL A   1      44.946  39.340  28.929  1.00  0.00    -0.237 OA
ATOM     81  O   UNL A   1      46.344  37.615  27.833  1.00  0.00    -0.237 OA
ATOM     82  O   UNL A   1      44.783  38.979  26.497  1.00  0.00    -0.744 OA
ENDBRANCH  75  79
ENDBRANCH  58  72
BRANCH  59  83
ATOM     83  C   UNL A   1      43.337  27.741  35.934  1.00  0.00     0.023 A 
ATOM     84  C   UNL A   1      44.441  26.973  36.355  1.00  0.00     0.031 A 
ATOM     85  C   UNL A   1      42.091  27.284  36.384  1.00  0.00     0.131 A 
ATOM     86  C   UNL A   1      44.249  25.799  37.125  1.00  0.00     0.055 A 
ATOM     87  C   UNL A   1      41.899  26.178  37.214  1.00  0.00     0.041 A 
ATOM     88  F   UNL A   1      40.992  27.892  35.954  1.00  0.00    -0.206 F 
ATOM     89  C   UNL A   1      42.984  25.408  37.568  1.00  0.00     0.022 A 
BRANCH  86  90
ATOM     90  S   UNL A   1      45.619  24.632  37.390  1.00  0.00     0.124 S 
ATOM     91  O   UNL A   1      46.758  25.525  37.556  1.00  0.00    -0.237 OA
ATOM     92  O   UNL A   1      45.171  23.921  38.581  1.00  0.00    -0.237 OA
ATOM     93  O   UNL A   1      45.623  23.846  36.157  1.00  0.00    -0.744 OA
ENDBRANCH  86  90
ENDBRANCH  59  83
BRANCH  71  94
ATOM     94  C   UNL A   1      43.234  34.606  36.626  1.00  0.00     0.023 A 
ATOM     95  C   UNL A   1      42.007  34.771  37.286  1.00  0.00     0.031 A 
ATOM     96  C   UNL A   1      44.345  35.330  37.105  1.00  0.00     0.131 A 
ATOM     97  C   UNL A   1      41.904  35.696  38.338  1.00  0.00     0.055 A 
ATOM     98  C   UNL A   1      44.254  36.187  38.200  1.00  0.00     0.041 A 
ATOM     99  F   UNL A   1      45.543  35.220  36.506  1.00  0.00    -0.206 F 
ATOM    100  C   UNL A   1      43.022  36.389  38.811  1.00  0.00     0.022 A 
BRANCH  97 101
ATOM    101  S   UNL A   1      40.258  36.084  38.997  1.00  0.00     0.124 S 
ATOM    102  O   UNL A   1      39.404  35.189  38.224  1.00  0.00    -0.237 OA
ATOM    103  O   UNL A   1      40.406  35.756  40.412  1.00  0.00    -0.237 OA
ATOM    104  O   UNL A   1      40.097  37.507  38.705  1.00  0.00    -0.744 OA
ENDBRANCH  97 101
ENDBRANCH  71  94
ENDBRANCH  45  46
ENDBRANCH  38  40
ENDBRANCH  37  38
ENDBRANCH  36  37
ENDBRANCH  35  36
ENDBRANCH  34  35
ENDBRANCH  33  34
ENDBRANCH   1  33
TORSDOF 26
ENDMDL
