MODEL 1
REMARK VINA RESULT:     -10.4      0.000      0.000
REMARK SMILES Cc1cc(C(=O)Nc2cccc(C(=O)NCC(=O)OCCOCCOCCOC(=O)c3ccc(-c4c5nc(c(-c6cc(S(=O)(=O)[O-])ccc6F)c6ccc([nH]6)c(-c6cc(S(=O)(=O)[O-])ccc6F)c6nc(c(-c7cc(S(=O)(=O)[O-])ccc7F)c7ccc4[nH]7)C=C6)C=C5)cc3)c2)no1
REMARK SMILES IDX 23 1 22 2 21 3 20 4 19 5 17 6 18 7 16 8 15 9 13 10 14 11
REMARK SMILES IDX 12 13 8 14 9 15 94 16 10 17 11 18 7 19 5 20 6 21 4 23 1 24
REMARK SMILES IDX 2 25 3 26 96 27 95 28 24 29 25 30 26 31 27 32 28 33 29 34
REMARK SMILES IDX 30 35 31 36 32 37 93 38 33 39 92 40 34 41 35 42 36 43 86 44
REMARK SMILES IDX 37 45 91 46 85 47 87 48 38 49 90 50 84 51 83 52 39 54 71 55
REMARK SMILES IDX 51 56 70 57 52 58 55 59 69 60 88 61 53 62 54 63 68 65 89 66
REMARK SMILES IDX 56 67 40 68 41 69 49 70 42 71 48 72 50 73 47 74 43 75 44 76
REMARK SMILES IDX 45 77 46 78 72 79 73 80 81 81 74 82 80 83 82 84 79 85 75 86
REMARK SMILES IDX 76 87 77 88 78 89 57 90 58 91 66 92 59 93 65 94 67 95 64 96
REMARK SMILES IDX 60 97 61 98 62 99 63 100
REMARK H PARENT 15 12 7 22 87 53 55 64
REMARK Flexibility Score: inf
ROOT
ATOM      1  C   UNL A   1      32.674  22.177  26.240  1.00  0.00     0.188 C 
ENDROOT
BRANCH   1   2
ATOM      2  O   UNL A   1      32.799  23.355  25.454  1.00  0.00    -0.376 OA
BRANCH   2   3
ATOM      3  C   UNL A   1      31.815  23.651  24.466  1.00  0.00     0.202 C 
BRANCH   3   4
ATOM      4  C   UNL A   1      32.239  23.836  22.998  1.00  0.00     0.261 C 
BRANCH   4   5
ATOM      5  O   UNL A   1      31.510  24.862  22.295  1.00  0.00    -0.462 OA
BRANCH   5   6
ATOM      6  C   UNL A   1      32.195  25.528  21.329  1.00  0.00     0.325 C 
ATOM      7  O   UNL A   1      31.729  25.826  20.236  1.00  0.00    -0.250 OA
BRANCH   6   8
ATOM      8  C   UNL A   1      33.582  26.012  21.793  1.00  0.00     0.239 C 
BRANCH   8   9
ATOM      9  N   UNL A   1      33.813  27.434  22.063  1.00  0.00    -0.341 N 
ATOM     10  C   UNL A   1      33.214  28.332  22.905  1.00  0.00     0.251 C 
ATOM     11  O   UNL A   1      33.723  29.449  23.002  1.00  0.00    -0.269 OA
ATOM     12  H   UNL A   1      34.545  27.821  21.530  1.00  0.00     0.164 HD
BRANCH  10  13
ATOM     13  C   UNL A   1      32.037  28.001  23.752  1.00  0.00     0.041 A 
ATOM     14  C   UNL A   1      29.653  27.702  24.061  1.00  0.00     0.042 A 
ATOM     15  C   UNL A   1      29.863  27.131  25.310  1.00  0.00     0.026 A 
ATOM     16  C   UNL A   1      30.725  28.257  23.375  1.00  0.00     0.040 A 
ATOM     17  C   UNL A   1      31.170  26.954  25.766  1.00  0.00     0.003 A 
ATOM     18  C   UNL A   1      32.253  27.343  24.969  1.00  0.00     0.014 A 
BRANCH  14  19
ATOM     19  N   UNL A   1      28.378  27.691  23.484  1.00  0.00    -0.321 N 
ATOM     20  C   UNL A   1      27.564  28.772  23.146  1.00  0.00     0.277 C 
ATOM     21  O   UNL A   1      26.365  28.537  22.985  1.00  0.00    -0.267 OA
ATOM     22  H   UNL A   1      28.006  26.801  23.291  1.00  0.00     0.170 HD
BRANCH  20  23
ATOM     23  C   UNL A   1      28.154  30.107  22.888  1.00  0.00     0.171 A 
ATOM     24  C   UNL A   1      29.042  33.681  23.164  1.00  0.00     0.091 C 
ATOM     25  C   UNL A   1      28.820  32.233  22.968  1.00  0.00     0.134 A 
ATOM     26  C   UNL A   1      28.401  31.201  23.776  1.00  0.00     0.082 A 
ATOM     27  O   UNL A   1      28.955  31.766  21.702  1.00  0.00    -0.361 OA
ATOM     28  N   UNL A   1      28.558  30.445  21.649  1.00  0.00    -0.074 NA
ENDBRANCH  20  23
ENDBRANCH  14  19
ENDBRANCH  10  13
ENDBRANCH   8   9
ENDBRANCH   6   8
ENDBRANCH   5   6
ENDBRANCH   4   5
ENDBRANCH   3   4
ENDBRANCH   2   3
ENDBRANCH   1   2
BRANCH   1  29
ATOM     29  C   UNL A   1      33.565  20.975  25.909  1.00  0.00     0.188 C 
BRANCH  29  30
ATOM     30  O   UNL A   1      34.188  21.015  24.653  1.00  0.00    -0.376 OA
BRANCH  30  31
ATOM     31  C   UNL A   1      35.517  21.488  24.572  1.00  0.00     0.202 C 
BRANCH  31  32
ATOM     32  C   UNL A   1      36.656  20.881  25.418  1.00  0.00     0.261 C 
BRANCH  32  33
ATOM     33  O   UNL A   1      38.015  21.116  25.009  1.00  0.00    -0.460 OA
BRANCH  33  34
ATOM     34  C   UNL A   1      39.000  20.755  25.867  1.00  0.00     0.338 C 
ATOM     35  O   UNL A   1      39.506  19.644  25.963  1.00  0.00    -0.246 OA
BRANCH  34  36
ATOM     36  C   UNL A   1      39.557  21.996  26.466  1.00  0.00     0.060 A 
ATOM     37  C   UNL A   1      39.081  23.247  26.036  1.00  0.00     0.016 A 
ATOM     38  C   UNL A   1      40.524  21.924  27.468  1.00  0.00     0.016 A 
ATOM     39  C   UNL A   1      39.591  24.428  26.588  1.00  0.00     0.010 A 
ATOM     40  C   UNL A   1      41.056  23.106  27.995  1.00  0.00     0.010 A 
ATOM     41  C   UNL A   1      40.617  24.363  27.538  1.00  0.00    -0.014 A 
BRANCH  41  42
ATOM     42  C   UNL A   1      41.414  25.572  27.884  1.00  0.00     0.031 A 
ATOM     43  C   UNL A   1      40.718  26.668  28.646  1.00  0.00     0.074 A 
ATOM     44  C   UNL A   1      42.699  25.719  27.516  1.00  0.00     0.049 A 
ATOM     45  N   UNL A   1      41.116  27.884  28.912  1.00  0.00    -0.248 NA
ATOM     46  C   UNL A   1      39.380  26.343  29.164  1.00  0.00     0.031 C 
ATOM     47  C   UNL A   1      43.509  24.709  26.841  1.00  0.00     0.029 A 
ATOM     48  N   UNL A   1      43.541  26.799  27.641  1.00  0.00    -0.354 N 
ATOM     49  C   UNL A   1      40.068  28.479  29.609  1.00  0.00     0.074 A 
ATOM     50  C   UNL A   1      39.009  27.496  29.696  1.00  0.00     0.031 C 
ATOM     51  C   UNL A   1      44.727  25.227  26.589  1.00  0.00     0.029 A 
ATOM     52  C   UNL A   1      44.763  26.620  27.032  1.00  0.00     0.049 A 
ATOM     53  H   UNL A   1      43.294  27.622  28.121  1.00  0.00     0.167 HD
ATOM     54  C   UNL A   1      39.997  29.729  30.127  1.00  0.00     0.034 A 
ATOM     55  C   UNL A   1      45.771  27.493  26.821  1.00  0.00     0.034 A 
ATOM     56  C   UNL A   1      41.055  30.702  30.019  1.00  0.00     0.049 A 
ATOM     57  C   UNL A   1      45.628  28.919  27.310  1.00  0.00     0.074 A 
ATOM     58  C   UNL A   1      41.090  31.995  30.510  1.00  0.00     0.029 A 
ATOM     59  N   UNL A   1      42.262  30.496  29.361  1.00  0.00    -0.354 N 
ATOM     60  N   UNL A   1      44.629  29.480  27.954  1.00  0.00    -0.248 NA
ATOM     61  C   UNL A   1      46.751  29.830  27.044  1.00  0.00     0.031 C 
ATOM     62  C   UNL A   1      42.276  32.596  30.079  1.00  0.00     0.029 A 
ATOM     63  C   UNL A   1      43.030  31.649  29.405  1.00  0.00     0.049 A 
ATOM     64  H   UNL A   1      42.531  29.655  28.927  1.00  0.00     0.167 HD
ATOM     65  C   UNL A   1      45.025  30.792  28.207  1.00  0.00     0.074 A 
ATOM     66  C   UNL A   1      46.354  30.939  27.652  1.00  0.00     0.031 C 
ATOM     67  C   UNL A   1      44.357  31.785  28.850  1.00  0.00     0.034 A 
BRANCH  54  68
ATOM     68  C   UNL A   1      38.704  30.128  30.799  1.00  0.00     0.023 A 
ATOM     69  C   UNL A   1      37.678  30.789  30.101  1.00  0.00     0.031 A 
ATOM     70  C   UNL A   1      38.511  29.875  32.169  1.00  0.00     0.131 A 
ATOM     71  C   UNL A   1      36.542  31.239  30.790  1.00  0.00     0.055 A 
ATOM     72  C   UNL A   1      37.338  30.245  32.829  1.00  0.00     0.041 A 
ATOM     73  F   UNL A   1      39.467  29.273  32.894  1.00  0.00    -0.206 F 
ATOM     74  C   UNL A   1      36.351  30.947  32.143  1.00  0.00     0.022 A 
BRANCH  71  75
ATOM     75  S   UNL A   1      35.392  32.347  29.930  1.00  0.00     0.124 S 
ATOM     76  O   UNL A   1      34.335  32.506  30.927  1.00  0.00    -0.237 OA
ATOM     77  O   UNL A   1      36.216  33.523  29.678  1.00  0.00    -0.237 OA
ATOM     78  O   UNL A   1      35.007  31.587  28.742  1.00  0.00    -0.744 OA
ENDBRANCH  71  75
ENDBRANCH  54  68
BRANCH  55  79
ATOM     79  C   UNL A   1      46.991  27.079  26.064  1.00  0.00     0.023 A 
ATOM     80  C   UNL A   1      48.090  26.500  26.719  1.00  0.00     0.031 A 
ATOM     81  C   UNL A   1      47.107  27.325  24.684  1.00  0.00     0.131 A 
ATOM     82  C   UNL A   1      49.273  26.236  26.009  1.00  0.00     0.055 A 
ATOM     83  C   UNL A   1      48.261  27.000  23.968  1.00  0.00     0.041 A 
ATOM     84  F   UNL A   1      46.094  27.890  24.007  1.00  0.00    -0.206 F 
ATOM     85  C   UNL A   1      49.359  26.465  24.634  1.00  0.00     0.022 A 
BRANCH  82  86
ATOM     86  S   UNL A   1      50.737  25.690  26.931  1.00  0.00     0.124 S 
ATOM     87  O   UNL A   1      51.750  25.655  25.881  1.00  0.00    -0.237 OA
ATOM     88  O   UNL A   1      50.881  26.745  27.927  1.00  0.00    -0.237 OA
ATOM     89  O   UNL A   1      50.341  24.385  27.459  1.00  0.00    -0.744 OA
ENDBRANCH  82  86
ENDBRANCH  55  79
BRANCH  67  90
ATOM     90  C   UNL A   1      45.080  33.097  29.057  1.00  0.00     0.023 A 
ATOM     91  C   UNL A   1      44.857  34.216  28.235  1.00  0.00     0.031 A 
ATOM     92  C   UNL A   1      46.006  33.227  30.108  1.00  0.00     0.131 A 
ATOM     93  C   UNL A   1      45.589  35.396  28.447  1.00  0.00     0.055 A 
ATOM     94  C   UNL A   1      46.681  34.423  30.355  1.00  0.00     0.041 A 
ATOM     95  F   UNL A   1      46.264  32.192  30.924  1.00  0.00    -0.206 F 
ATOM     96  C   UNL A   1      46.484  35.513  29.514  1.00  0.00     0.022 A 
BRANCH  93  97
ATOM     97  S   UNL A   1      45.430  36.750  27.250  1.00  0.00     0.124 S 
ATOM     98  O   UNL A   1      46.480  36.431  26.289  1.00  0.00    -0.237 OA
ATOM     99  O   UNL A   1      44.060  36.588  26.775  1.00  0.00    -0.237 OA
ATOM    100  O   UNL A   1      45.668  37.948  28.053  1.00  0.00    -0.744 OA
ENDBRANCH  93  97
ENDBRANCH  67  90
ENDBRANCH  41  42
ENDBRANCH  34  36
ENDBRANCH  33  34
ENDBRANCH  32  33
ENDBRANCH  31  32
ENDBRANCH  30  31
ENDBRANCH  29  30
ENDBRANCH   1  29
TORSDOF 24
ENDMDL
MODEL 2
REMARK VINA RESULT:     -10.0      2.359      3.550
REMARK SMILES Cc1cc(C(=O)Nc2cccc(C(=O)NCC(=O)OCCOCCOCCOC(=O)c3ccc(-c4c5nc(c(-c6cc(S(=O)(=O)[O-])ccc6F)c6ccc([nH]6)c(-c6cc(S(=O)(=O)[O-])ccc6F)c6nc(c(-c7cc(S(=O)(=O)[O-])ccc7F)c7ccc4[nH]7)C=C6)C=C5)cc3)c2)no1
REMARK SMILES IDX 23 1 22 2 21 3 20 4 19 5 17 6 18 7 16 8 15 9 13 10 14 11
REMARK SMILES IDX 12 13 8 14 9 15 94 16 10 17 11 18 7 19 5 20 6 21 4 23 1 24
REMARK SMILES IDX 2 25 3 26 96 27 95 28 24 29 25 30 26 31 27 32 28 33 29 34
REMARK SMILES IDX 30 35 31 36 32 37 93 38 33 39 92 40 34 41 35 42 36 43 86 44
REMARK SMILES IDX 37 45 91 46 85 47 87 48 38 49 90 50 84 51 83 52 39 54 71 55
REMARK SMILES IDX 51 56 70 57 52 58 55 59 69 60 88 61 53 62 54 63 68 65 89 66
REMARK SMILES IDX 56 67 40 68 41 69 49 70 42 71 48 72 50 73 47 74 43 75 44 76
REMARK SMILES IDX 45 77 46 78 72 79 73 80 81 81 74 82 80 83 82 84 79 85 75 86
REMARK SMILES IDX 76 87 77 88 78 89 57 90 58 91 66 92 59 93 65 94 67 95 64 96
REMARK SMILES IDX 60 97 61 98 62 99 63 100
REMARK H PARENT 15 12 7 22 87 53 55 64
REMARK Flexibility Score: inf
ROOT
ATOM      1  C   UNL A   1      35.391  20.635  24.831  1.00  0.00     0.188 C 
ENDROOT
BRANCH   1   2
ATOM      2  O   UNL A   1      34.272  21.442  25.175  1.00  0.00    -0.376 OA
BRANCH   2   3
ATOM      3  C   UNL A   1      34.478  22.686  25.839  1.00  0.00     0.202 C 
BRANCH   3   4
ATOM      4  C   UNL A   1      33.397  23.232  26.789  1.00  0.00     0.261 C 
BRANCH   4   5
ATOM      5  O   UNL A   1      32.112  22.592  26.655  1.00  0.00    -0.462 OA
BRANCH   5   6
ATOM      6  C   UNL A   1      31.057  23.411  26.407  1.00  0.00     0.325 C 
ATOM      7  O   UNL A   1      30.550  24.153  27.239  1.00  0.00    -0.250 OA
BRANCH   6   8
ATOM      8  C   UNL A   1      30.644  23.434  24.922  1.00  0.00     0.239 C 
BRANCH   8   9
ATOM      9  N   UNL A   1      31.414  22.675  23.932  1.00  0.00    -0.341 N 
ATOM     10  C   UNL A   1      32.292  23.046  22.951  1.00  0.00     0.251 C 
ATOM     11  O   UNL A   1      32.886  22.151  22.349  1.00  0.00    -0.269 OA
ATOM     12  H   UNL A   1      31.268  21.703  23.983  1.00  0.00     0.164 HD
BRANCH  10  13
ATOM     13  C   UNL A   1      32.612  24.463  22.631  1.00  0.00     0.041 A 
ATOM     14  C   UNL A   1      31.943  26.735  22.120  1.00  0.00     0.042 A 
ATOM     15  C   UNL A   1      33.249  27.179  22.277  1.00  0.00     0.026 A 
ATOM     16  C   UNL A   1      31.677  25.372  22.155  1.00  0.00     0.040 A 
ATOM     17  C   UNL A   1      34.237  26.269  22.654  1.00  0.00     0.003 A 
ATOM     18  C   UNL A   1      33.910  24.927  22.878  1.00  0.00     0.014 A 
BRANCH  14  19
ATOM     19  N   UNL A   1      30.898  27.652  21.961  1.00  0.00    -0.321 N 
ATOM     20  C   UNL A   1      30.155  28.308  22.942  1.00  0.00     0.277 C 
ATOM     21  O   UNL A   1      29.073  28.786  22.595  1.00  0.00    -0.267 OA
ATOM     22  H   UNL A   1      30.654  27.862  21.030  1.00  0.00     0.170 HD
BRANCH  20  23
ATOM     23  C   UNL A   1      30.712  28.505  24.301  1.00  0.00     0.171 A 
ATOM     24  C   UNL A   1      32.617  29.839  27.170  1.00  0.00     0.091 C 
ATOM     25  C   UNL A   1      31.756  29.241  26.129  1.00  0.00     0.134 A 
ATOM     26  C   UNL A   1      31.255  29.675  24.922  1.00  0.00     0.082 A 
ATOM     27  O   UNL A   1      31.421  27.937  26.295  1.00  0.00    -0.361 OA
ATOM     28  N   UNL A   1      30.761  27.480  25.172  1.00  0.00    -0.074 NA
ENDBRANCH  20  23
ENDBRANCH  14  19
ENDBRANCH  10  13
ENDBRANCH   8   9
ENDBRANCH   6   8
ENDBRANCH   5   6
ENDBRANCH   4   5
ENDBRANCH   3   4
ENDBRANCH   2   3
ENDBRANCH   1   2
BRANCH   1  29
ATOM     29  C   UNL A   1      36.768  21.298  24.712  1.00  0.00     0.188 C 
BRANCH  29  30
ATOM     30  O   UNL A   1      37.625  21.106  25.805  1.00  0.00    -0.376 OA
BRANCH  30  31
ATOM     31  C   UNL A   1      39.009  20.962  25.563  1.00  0.00     0.202 C 
BRANCH  31  32
ATOM     32  C   UNL A   1      39.731  19.607  25.714  1.00  0.00     0.261 C 
BRANCH  32  33
ATOM     33  O   UNL A   1      41.108  19.514  25.309  1.00  0.00    -0.460 OA
BRANCH  33  34
ATOM     34  C   UNL A   1      42.050  19.510  26.284  1.00  0.00     0.338 C 
ATOM     35  O   UNL A   1      42.716  18.548  26.643  1.00  0.00    -0.246 OA
BRANCH  34  36
ATOM     36  C   UNL A   1      42.339  20.924  26.639  1.00  0.00     0.060 A 
ATOM     37  C   UNL A   1      42.599  21.857  25.620  1.00  0.00     0.016 A 
ATOM     38  C   UNL A   1      42.325  21.333  27.972  1.00  0.00     0.016 A 
ATOM     39  C   UNL A   1      42.872  23.194  25.935  1.00  0.00     0.010 A 
ATOM     40  C   UNL A   1      42.630  22.662  28.287  1.00  0.00     0.010 A 
ATOM     41  C   UNL A   1      42.936  23.592  27.275  1.00  0.00    -0.014 A 
BRANCH  41  42
ATOM     42  C   UNL A   1      43.553  24.891  27.656  1.00  0.00     0.031 A 
ATOM     43  C   UNL A   1      42.635  25.984  28.134  1.00  0.00     0.074 A 
ATOM     44  C   UNL A   1      44.875  25.119  27.555  1.00  0.00     0.049 A 
ATOM     45  N   UNL A   1      42.882  27.249  28.351  1.00  0.00    -0.248 NA
ATOM     46  C   UNL A   1      41.240  25.588  28.387  1.00  0.00     0.031 C 
ATOM     47  C   UNL A   1      45.880  24.130  27.176  1.00  0.00     0.029 A 
ATOM     48  N   UNL A   1      45.595  26.275  27.744  1.00  0.00    -0.354 N 
ATOM     49  C   UNL A   1      41.669  27.807  28.744  1.00  0.00     0.074 A 
ATOM     50  C   UNL A   1      40.685  26.747  28.706  1.00  0.00     0.031 C 
ATOM     51  C   UNL A   1      47.085  24.729  27.137  1.00  0.00     0.029 A 
ATOM     52  C   UNL A   1      46.929  26.153  27.431  1.00  0.00     0.049 A 
ATOM     53  H   UNL A   1      45.193  27.112  28.073  1.00  0.00     0.167 HD
ATOM     54  C   UNL A   1      41.402  29.086  29.102  1.00  0.00     0.034 A 
ATOM     55  C   UNL A   1      47.899  27.090  27.349  1.00  0.00     0.034 A 
ATOM     56  C   UNL A   1      42.390  30.136  29.121  1.00  0.00     0.049 A 
ATOM     57  C   UNL A   1      47.556  28.534  27.647  1.00  0.00     0.074 A 
ATOM     58  C   UNL A   1      42.229  31.464  29.472  1.00  0.00     0.029 A 
ATOM     59  N   UNL A   1      43.723  29.981  28.760  1.00  0.00    -0.354 N 
ATOM     60  N   UNL A   1      46.404  29.059  28.001  1.00  0.00    -0.248 NA
ATOM     61  C   UNL A   1      48.647  29.514  27.532  1.00  0.00     0.031 C 
ATOM     62  C   UNL A   1      43.438  32.128  29.243  1.00  0.00     0.029 A 
ATOM     63  C   UNL A   1      44.384  31.196  28.847  1.00  0.00     0.049 A 
ATOM     64  H   UNL A   1      44.137  29.132  28.483  1.00  0.00     0.167 HD
ATOM     65  C   UNL A   1      46.647  30.418  28.195  1.00  0.00     0.074 A 
ATOM     66  C   UNL A   1      48.052  30.632  27.924  1.00  0.00     0.031 C 
ATOM     67  C   UNL A   1      45.788  31.399  28.575  1.00  0.00     0.034 A 
BRANCH  54  68
ATOM     68  C   UNL A   1      39.969  29.427  29.439  1.00  0.00     0.023 A 
ATOM     69  C   UNL A   1      39.528  29.555  30.768  1.00  0.00     0.031 A 
ATOM     70  C   UNL A   1      39.021  29.591  28.413  1.00  0.00     0.131 A 
ATOM     71  C   UNL A   1      38.167  29.763  31.036  1.00  0.00     0.055 A 
ATOM     72  C   UNL A   1      37.684  29.887  28.684  1.00  0.00     0.041 A 
ATOM     73  F   UNL A   1      39.376  29.451  27.126  1.00  0.00    -0.206 F 
ATOM     74  C   UNL A   1      37.247  29.958  30.004  1.00  0.00     0.022 A 
BRANCH  71  75
ATOM     75  S   UNL A   1      37.592  29.616  32.750  1.00  0.00     0.124 S 
ATOM     76  O   UNL A   1      38.652  30.310  33.478  1.00  0.00    -0.237 OA
ATOM     77  O   UNL A   1      36.300  30.289  32.708  1.00  0.00    -0.237 OA
ATOM     78  O   UNL A   1      37.538  28.172  32.971  1.00  0.00    -0.744 OA
ENDBRANCH  71  75
ENDBRANCH  54  68
BRANCH  55  79
ATOM     79  C   UNL A   1      49.281  26.720  26.917  1.00  0.00     0.023 A 
ATOM     80  C   UNL A   1      49.800  27.160  25.688  1.00  0.00     0.031 A 
ATOM     81  C   UNL A   1      50.076  25.857  27.692  1.00  0.00     0.131 A 
ATOM     82  C   UNL A   1      51.050  26.697  25.247  1.00  0.00     0.055 A 
ATOM     83  C   UNL A   1      51.347  25.451  27.280  1.00  0.00     0.041 A 
ATOM     84  F   UNL A   1      49.626  25.392  28.869  1.00  0.00    -0.206 F 
ATOM     85  C   UNL A   1      51.835  25.860  26.043  1.00  0.00     0.022 A 
BRANCH  82  86
ATOM     86  S   UNL A   1      51.589  27.117  23.566  1.00  0.00     0.124 S 
ATOM     87  O   UNL A   1      50.421  26.735  22.779  1.00  0.00    -0.237 OA
ATOM     88  O   UNL A   1      51.847  28.548  23.678  1.00  0.00    -0.237 OA
ATOM     89  O   UNL A   1      52.774  26.283  23.370  1.00  0.00    -0.744 OA
ENDBRANCH  82  86
ENDBRANCH  55  79
BRANCH  67  90
ATOM     90  C   UNL A   1      46.358  32.783  28.794  1.00  0.00     0.023 A 
ATOM     91  C   UNL A   1      46.239  33.806  27.835  1.00  0.00     0.031 A 
ATOM     92  C   UNL A   1      47.027  33.082  29.995  1.00  0.00     0.131 A 
ATOM     93  C   UNL A   1      46.826  35.060  28.074  1.00  0.00     0.055 A 
ATOM     94  C   UNL A   1      47.549  34.350  30.254  1.00  0.00     0.041 A 
ATOM     95  F   UNL A   1      47.175  32.146  30.946  1.00  0.00    -0.206 F 
ATOM     96  C   UNL A   1      47.462  35.344  29.285  1.00  0.00     0.022 A 
BRANCH  93  97
ATOM     97  S   UNL A   1      46.833  36.289  26.740  1.00  0.00     0.124 S 
ATOM     98  O   UNL A   1      45.411  36.569  26.577  1.00  0.00    -0.237 OA
ATOM     99  O   UNL A   1      47.634  37.366  27.313  1.00  0.00    -0.237 OA
ATOM    100  O   UNL A   1      47.457  35.581  25.624  1.00  0.00    -0.744 OA
ENDBRANCH  93  97
ENDBRANCH  67  90
ENDBRANCH  41  42
ENDBRANCH  34  36
ENDBRANCH  33  34
ENDBRANCH  32  33
ENDBRANCH  31  32
ENDBRANCH  30  31
ENDBRANCH  29  30
ENDBRANCH   1  29
TORSDOF 24
ENDMDL
MODEL 3
REMARK VINA RESULT:      -9.7      3.795      8.522
REMARK SMILES Cc1cc(C(=O)Nc2cccc(C(=O)NCC(=O)OCCOCCOCCOC(=O)c3ccc(-c4c5nc(c(-c6cc(S(=O)(=O)[O-])ccc6F)c6ccc([nH]6)c(-c6cc(S(=O)(=O)[O-])ccc6F)c6nc(c(-c7cc(S(=O)(=O)[O-])ccc7F)c7ccc4[nH]7)C=C6)C=C5)cc3)c2)no1
REMARK SMILES IDX 23 1 22 2 21 3 20 4 19 5 17 6 18 7 16 8 15 9 13 10 14 11
REMARK SMILES IDX 12 13 8 14 9 15 94 16 10 17 11 18 7 19 5 20 6 21 4 23 1 24
REMARK SMILES IDX 2 25 3 26 96 27 95 28 24 29 25 30 26 31 27 32 28 33 29 34
REMARK SMILES IDX 30 35 31 36 32 37 93 38 33 39 92 40 34 41 35 42 36 43 86 44
REMARK SMILES IDX 37 45 91 46 85 47 87 48 38 49 90 50 84 51 83 52 39 54 71 55
REMARK SMILES IDX 51 56 70 57 52 58 55 59 69 60 88 61 53 62 54 63 68 65 89 66
REMARK SMILES IDX 56 67 40 68 41 69 49 70 42 71 48 72 50 73 47 74 43 75 44 76
REMARK SMILES IDX 45 77 46 78 72 79 73 80 81 81 74 82 80 83 82 84 79 85 75 86
REMARK SMILES IDX 76 87 77 88 78 89 57 90 58 91 66 92 59 93 65 94 67 95 64 96
REMARK SMILES IDX 60 97 61 98 62 99 63 100
REMARK H PARENT 15 12 7 22 87 53 55 64
REMARK Flexibility Score: inf
ROOT
ATOM      1  C   UNL A   1      33.094  36.688  30.618  1.00  0.00     0.188 C 
ENDROOT
BRANCH   1   2
ATOM      2  O   UNL A   1      33.719  35.993  29.548  1.00  0.00    -0.376 OA
BRANCH   2   3
ATOM      3  C   UNL A   1      33.307  34.664  29.236  1.00  0.00     0.202 C 
BRANCH   3   4
ATOM      4  C   UNL A   1      34.134  33.821  28.247  1.00  0.00     0.261 C 
BRANCH   4   5
ATOM      5  O   UNL A   1      33.924  32.399  28.360  1.00  0.00    -0.462 OA
BRANCH   5   6
ATOM      6  C   UNL A   1      33.035  31.854  27.490  1.00  0.00     0.325 C 
ATOM      7  O   UNL A   1      32.099  32.464  26.989  1.00  0.00    -0.250 OA
BRANCH   6   8
ATOM      8  C   UNL A   1      33.402  30.418  27.069  1.00  0.00     0.239 C 
BRANCH   8   9
ATOM      9  N   UNL A   1      32.602  29.285  27.542  1.00  0.00    -0.341 N 
ATOM     10  C   UNL A   1      32.038  28.213  26.905  1.00  0.00     0.251 C 
ATOM     11  O   UNL A   1      31.519  27.342  27.605  1.00  0.00    -0.269 OA
ATOM     12  H   UNL A   1      32.436  29.298  28.512  1.00  0.00     0.164 HD
BRANCH  10  13
ATOM     13  C   UNL A   1      32.086  28.017  25.432  1.00  0.00     0.041 A 
ATOM     14  C   UNL A   1      32.886  26.853  23.464  1.00  0.00     0.042 A 
ATOM     15  C   UNL A   1      31.960  27.514  22.667  1.00  0.00     0.026 A 
ATOM     16  C   UNL A   1      33.030  27.222  24.794  1.00  0.00     0.040 A 
ATOM     17  C   UNL A   1      31.062  28.401  23.262  1.00  0.00     0.003 A 
ATOM     18  C   UNL A   1      31.093  28.614  24.645  1.00  0.00     0.014 A 
BRANCH  14  19
ATOM     19  N   UNL A   1      33.647  25.801  22.939  1.00  0.00    -0.321 N 
ATOM     20  C   UNL A   1      33.986  24.588  23.536  1.00  0.00     0.277 C 
ATOM     21  O   UNL A   1      34.937  23.974  23.048  1.00  0.00    -0.267 OA
ATOM     22  H   UNL A   1      33.988  25.937  22.025  1.00  0.00     0.170 HD
BRANCH  20  23
ATOM     23  C   UNL A   1      33.158  24.030  24.631  1.00  0.00     0.171 A 
ATOM     24  C   UNL A   1      30.273  22.991  26.690  1.00  0.00     0.091 C 
ATOM     25  C   UNL A   1      31.512  23.298  25.945  1.00  0.00     0.134 A 
ATOM     26  C   UNL A   1      31.808  23.554  24.626  1.00  0.00     0.082 A 
ATOM     27  O   UNL A   1      32.637  23.469  26.684  1.00  0.00    -0.361 OA
ATOM     28  N   UNL A   1      33.663  23.908  25.872  1.00  0.00    -0.074 NA
ENDBRANCH  20  23
ENDBRANCH  14  19
ENDBRANCH  10  13
ENDBRANCH   8   9
ENDBRANCH   6   8
ENDBRANCH   5   6
ENDBRANCH   4   5
ENDBRANCH   3   4
ENDBRANCH   2   3
ENDBRANCH   1   2
BRANCH   1  29
ATOM     29  C   UNL A   1      32.488  35.878  31.769  1.00  0.00     0.188 C 
BRANCH  29  30
ATOM     30  O   UNL A   1      33.154  35.989  32.999  1.00  0.00    -0.376 OA
BRANCH  30  31
ATOM     31  C   UNL A   1      34.564  36.073  33.000  1.00  0.00     0.202 C 
BRANCH  31  32
ATOM     32  C   UNL A   1      35.444  35.079  33.786  1.00  0.00     0.261 C 
BRANCH  32  33
ATOM     33  O   UNL A   1      34.919  33.769  34.066  1.00  0.00    -0.460 OA
BRANCH  33  34
ATOM     34  C   UNL A   1      34.769  32.917  33.023  1.00  0.00     0.338 C 
ATOM     35  O   UNL A   1      33.721  32.658  32.445  1.00  0.00    -0.246 OA
BRANCH  34  36
ATOM     36  C   UNL A   1      36.124  32.574  32.520  1.00  0.00     0.060 A 
ATOM     37  C   UNL A   1      37.001  31.836  33.334  1.00  0.00     0.016 A 
ATOM     38  C   UNL A   1      36.517  32.955  31.237  1.00  0.00     0.016 A 
ATOM     39  C   UNL A   1      38.282  31.502  32.877  1.00  0.00     0.010 A 
ATOM     40  C   UNL A   1      37.809  32.648  30.794  1.00  0.00     0.010 A 
ATOM     41  C   UNL A   1      38.709  31.949  31.622  1.00  0.00    -0.014 A 
BRANCH  41  42
ATOM     42  C   UNL A   1      40.149  31.918  31.250  1.00  0.00     0.031 A 
ATOM     43  C   UNL A   1      41.026  33.027  31.769  1.00  0.00     0.074 A 
ATOM     44  C   UNL A   1      40.669  30.965  30.457  1.00  0.00     0.049 A 
ATOM     45  N   UNL A   1      42.255  33.338  31.453  1.00  0.00    -0.248 NA
ATOM     46  C   UNL A   1      40.416  33.913  32.773  1.00  0.00     0.031 C 
ATOM     47  C   UNL A   1      39.951  29.800  29.947  1.00  0.00     0.029 A 
ATOM     48  N   UNL A   1      41.930  30.844  29.919  1.00  0.00    -0.354 N 
ATOM     49  C   UNL A   1      42.560  34.470  32.202  1.00  0.00     0.074 A 
ATOM     50  C   UNL A   1      41.376  34.804  32.963  1.00  0.00     0.031 C 
ATOM     51  C   UNL A   1      40.777  29.095  29.150  1.00  0.00     0.029 A 
ATOM     52  C   UNL A   1      42.061  29.788  29.048  1.00  0.00     0.049 A 
ATOM     53  H   UNL A   1      42.669  31.457  30.138  1.00  0.00     0.167 HD
ATOM     54  C   UNL A   1      43.721  35.167  32.250  1.00  0.00     0.034 A 
ATOM     55  C   UNL A   1      43.082  29.448  28.231  1.00  0.00     0.034 A 
ATOM     56  C   UNL A   1      44.889  34.832  31.474  1.00  0.00     0.049 A 
ATOM     57  C   UNL A   1      44.331  30.303  28.216  1.00  0.00     0.074 A 
ATOM     58  C   UNL A   1      46.118  35.466  31.448  1.00  0.00     0.029 A 
ATOM     59  N   UNL A   1      44.970  33.777  30.573  1.00  0.00    -0.354 N 
ATOM     60  N   UNL A   1      44.607  31.382  28.914  1.00  0.00    -0.248 NA
ATOM     61  C   UNL A   1      45.407  29.893  27.302  1.00  0.00     0.031 C 
ATOM     62  C   UNL A   1      46.910  34.850  30.475  1.00  0.00     0.029 A 
ATOM     63  C   UNL A   1      46.215  33.766  29.963  1.00  0.00     0.049 A 
ATOM     64  H   UNL A   1      44.248  33.131  30.394  1.00  0.00     0.167 HD
ATOM     65  C   UNL A   1      45.904  31.749  28.554  1.00  0.00     0.074 A 
ATOM     66  C   UNL A   1      46.356  30.775  27.583  1.00  0.00     0.031 C 
ATOM     67  C   UNL A   1      46.657  32.789  28.996  1.00  0.00     0.034 A 
BRANCH  54  68
ATOM     68  C   UNL A   1      43.756  36.398  33.124  1.00  0.00     0.023 A 
ATOM     69  C   UNL A   1      43.394  37.666  32.637  1.00  0.00     0.031 A 
ATOM     70  C   UNL A   1      44.192  36.307  34.458  1.00  0.00     0.131 A 
ATOM     71  C   UNL A   1      43.546  38.799  33.450  1.00  0.00     0.055 A 
ATOM     72  C   UNL A   1      44.256  37.425  35.292  1.00  0.00     0.041 A 
ATOM     73  F   UNL A   1      44.579  35.129  34.972  1.00  0.00    -0.206 F 
ATOM     74  C   UNL A   1      43.947  38.684  34.784  1.00  0.00     0.022 A 
BRANCH  71  75
ATOM     75  S   UNL A   1      43.365  40.438  32.695  1.00  0.00     0.124 S 
ATOM     76  O   UNL A   1      42.961  40.092  31.334  1.00  0.00    -0.237 OA
ATOM     77  O   UNL A   1      42.341  41.057  33.527  1.00  0.00    -0.237 OA
ATOM     78  O   UNL A   1      44.701  41.018  32.811  1.00  0.00    -0.744 OA
ENDBRANCH  71  75
ENDBRANCH  54  68
BRANCH  55  79
ATOM     79  C   UNL A   1      42.964  28.276  27.311  1.00  0.00     0.023 A 
ATOM     80  C   UNL A   1      43.468  27.016  27.671  1.00  0.00     0.031 A 
ATOM     81  C   UNL A   1      42.411  28.417  26.025  1.00  0.00     0.131 A 
ATOM     82  C   UNL A   1      43.459  25.964  26.741  1.00  0.00     0.055 A 
ATOM     83  C   UNL A   1      42.344  27.351  25.127  1.00  0.00     0.041 A 
ATOM     84  F   UNL A   1      41.926  29.602  25.620  1.00  0.00    -0.206 F 
ATOM     85  C   UNL A   1      42.884  26.117  25.478  1.00  0.00     0.022 A 
BRANCH  82  86
ATOM     86  S   UNL A   1      44.310  24.420  27.169  1.00  0.00     0.124 S 
ATOM     87  O   UNL A   1      45.222  24.264  26.040  1.00  0.00    -0.237 OA
ATOM     88  O   UNL A   1      44.925  24.754  28.448  1.00  0.00    -0.237 OA
ATOM     89  O   UNL A   1      43.227  23.440  27.235  1.00  0.00    -0.744 OA
ENDBRANCH  82  86
ENDBRANCH  55  79
BRANCH  67  90
ATOM     90  C   UNL A   1      48.079  32.888  28.489  1.00  0.00     0.023 A 
ATOM     91  C   UNL A   1      48.436  33.710  27.405  1.00  0.00     0.031 A 
ATOM     92  C   UNL A   1      49.098  32.147  29.116  1.00  0.00     0.131 A 
ATOM     93  C   UNL A   1      49.765  33.730  26.950  1.00  0.00     0.055 A 
ATOM     94  C   UNL A   1      50.429  32.223  28.701  1.00  0.00     0.041 A 
ATOM     95  F   UNL A   1      48.819  31.342  30.153  1.00  0.00    -0.206 F 
ATOM     96  C   UNL A   1      50.766  33.008  27.604  1.00  0.00     0.022 A 
BRANCH  93  97
ATOM     97  S   UNL A   1      50.153  34.638  25.428  1.00  0.00     0.124 S 
ATOM     98  O   UNL A   1      50.986  33.681  24.708  1.00  0.00    -0.237 OA
ATOM     99  O   UNL A   1      48.830  34.882  24.864  1.00  0.00    -0.237 OA
ATOM    100  O   UNL A   1      50.851  35.829  25.908  1.00  0.00    -0.744 OA
ENDBRANCH  93  97
ENDBRANCH  67  90
ENDBRANCH  41  42
ENDBRANCH  34  36
ENDBRANCH  33  34
ENDBRANCH  32  33
ENDBRANCH  31  32
ENDBRANCH  30  31
ENDBRANCH  29  30
ENDBRANCH   1  29
TORSDOF 24
ENDMDL
