MODEL 1
REMARK VINA RESULT:     -10.3      0.000      0.000
REMARK SMILES N#Cc1ccc(/C=C/C(=O)N[C@H]2C=C[C@H](C(=O)OCCOCCOCCOC(=O)c3ccc(-c4c5nc(c(-c6cc(S(=O)(=O)[O-])ccc6F)c6ccc([nH]6)c(-c6cc(S(=O)(=O)[O-])ccc6F)c6nc(c(-c7cc(S(=O)(=O)[O-])ccc7F)c7ccc4[nH]7)C=C6)C=C5)cc3)C2)cc1
REMARK SMILES IDX 22 1 21 2 20 3 19 4 18 5 16 6 17 7 15 8 12 9 13 10 93 11
REMARK SMILES IDX 14 12 11 13 9 14 10 15 8 17 7 18 6 19 3 20 4 21 95 22 5 23
REMARK SMILES IDX 94 24 2 25 1 26 23 27 24 28 25 29 26 30 27 31 28 32 29 33
REMARK SMILES IDX 30 34 31 35 92 36 32 37 91 38 33 39 34 40 35 41 85 42 36 43
REMARK SMILES IDX 90 44 84 45 86 46 37 47 89 48 83 49 82 50 38 52 70 53 50 54
REMARK SMILES IDX 69 55 51 56 54 57 68 58 87 59 52 60 53 61 67 63 88 64 55 65
REMARK SMILES IDX 39 66 40 67 48 68 41 69 47 70 49 71 46 72 42 73 43 74 44 75
REMARK SMILES IDX 45 76 71 77 72 78 80 79 73 80 79 81 81 82 78 83 74 84 75 85
REMARK SMILES IDX 76 86 77 87 56 88 57 89 65 90 58 91 64 92 66 93 63 94 59 95
REMARK SMILES IDX 60 96 61 97 62 98
REMARK H PARENT 11 16 86 51 54 62
REMARK Flexibility Score: inf
ROOT
ATOM      1  C   UNL A   1      35.749  22.636  25.396  1.00  0.00     0.188 C 
ENDROOT
BRANCH   1   2
ATOM      2  O   UNL A   1      34.894  23.039  26.443  1.00  0.00    -0.376 OA
BRANCH   2   3
ATOM      3  C   UNL A   1      33.605  23.541  26.130  1.00  0.00     0.202 C 
BRANCH   3   4
ATOM      4  C   UNL A   1      32.293  23.089  26.814  1.00  0.00     0.261 C 
BRANCH   4   5
ATOM      5  O   UNL A   1      31.064  23.620  26.290  1.00  0.00    -0.463 OA
BRANCH   5   6
ATOM      6  C   UNL A   1      30.938  24.982  26.257  1.00  0.00     0.312 C 
ATOM      7  O   UNL A   1      31.430  25.735  27.087  1.00  0.00    -0.252 OA
BRANCH   6   8
ATOM      8  C   UNL A   1      30.238  25.444  24.964  1.00  0.00     0.124 C 
ATOM      9  C   UNL A   1      32.066  25.506  23.401  1.00  0.00     0.106 C 
ATOM     10  C   UNL A   1      31.530  26.884  23.608  1.00  0.00    -0.006 C 
ATOM     11  C   UNL A   1      30.815  24.699  23.755  1.00  0.00     0.048 C 
ATOM     12  C   UNL A   1      30.566  26.855  24.546  1.00  0.00    -0.014 C 
BRANCH   9  13
ATOM     13  N   UNL A   1      32.529  25.217  22.083  1.00  0.00    -0.346 N 
ATOM     14  C   UNL A   1      32.964  24.032  21.570  1.00  0.00     0.244 C 
ATOM     15  O   UNL A   1      33.264  24.002  20.378  1.00  0.00    -0.270 OA
ATOM     16  H   UNL A   1      32.534  25.978  21.458  1.00  0.00     0.164 HD
BRANCH  14  17
ATOM     17  C   UNL A   1      33.109  22.765  22.368  1.00  0.00     0.072 C 
ATOM     18  C   UNL A   1      32.242  21.755  22.541  1.00  0.00     0.014 C 
BRANCH  18  19
ATOM     19  C   UNL A   1      32.391  20.443  23.199  1.00  0.00    -0.025 A 
ATOM     20  C   UNL A   1      33.030  17.854  24.136  1.00  0.00     0.052 A 
ATOM     21  C   UNL A   1      33.164  18.964  24.973  1.00  0.00     0.020 A 
ATOM     22  C   UNL A   1      32.536  18.029  22.845  1.00  0.00     0.020 A 
ATOM     23  C   UNL A   1      32.838  20.247  24.507  1.00  0.00     0.009 A 
ATOM     24  C   UNL A   1      32.217  19.309  22.387  1.00  0.00     0.009 A 
BRANCH  20  25
ATOM     25  C   UNL A   1      33.403  16.541  24.580  1.00  0.00     0.099 C 
ATOM     26  N   UNL A   1      33.662  15.470  24.936  1.00  0.00    -0.192 NA
ENDBRANCH  20  25
ENDBRANCH  18  19
ENDBRANCH  14  17
ENDBRANCH   9  13
ENDBRANCH   6   8
ENDBRANCH   5   6
ENDBRANCH   4   5
ENDBRANCH   3   4
ENDBRANCH   2   3
ENDBRANCH   1   2
BRANCH   1  27
ATOM     27  C   UNL A   1      37.267  22.645  25.665  1.00  0.00     0.188 C 
BRANCH  27  28
ATOM     28  O   UNL A   1      38.044  21.591  25.147  1.00  0.00    -0.376 OA
BRANCH  28  29
ATOM     29  C   UNL A   1      39.012  20.975  25.977  1.00  0.00     0.202 C 
BRANCH  29  30
ATOM     30  C   UNL A   1      39.770  19.664  25.661  1.00  0.00     0.261 C 
BRANCH  30  31
ATOM     31  O   UNL A   1      40.952  19.341  26.405  1.00  0.00    -0.460 OA
BRANCH  31  32
ATOM     32  C   UNL A   1      42.108  19.874  25.930  1.00  0.00     0.338 C 
ATOM     33  O   UNL A   1      42.873  19.356  25.135  1.00  0.00    -0.246 OA
BRANCH  32  34
ATOM     34  C   UNL A   1      42.214  21.283  26.370  1.00  0.00     0.060 A 
ATOM     35  C   UNL A   1      42.332  22.299  25.410  1.00  0.00     0.016 A 
ATOM     36  C   UNL A   1      42.259  21.593  27.728  1.00  0.00     0.016 A 
ATOM     37  C   UNL A   1      42.514  23.627  25.806  1.00  0.00     0.010 A 
ATOM     38  C   UNL A   1      42.469  22.920  28.123  1.00  0.00     0.010 A 
ATOM     39  C   UNL A   1      42.627  23.941  27.166  1.00  0.00    -0.014 A 
BRANCH  39  40
ATOM     40  C   UNL A   1      43.069  25.297  27.591  1.00  0.00     0.031 A 
ATOM     41  C   UNL A   1      42.071  26.225  28.214  1.00  0.00     0.074 A 
ATOM     42  C   UNL A   1      44.339  25.711  27.428  1.00  0.00     0.049 A 
ATOM     43  N   UNL A   1      42.216  27.472  28.575  1.00  0.00    -0.248 NA
ATOM     44  C   UNL A   1      40.728  25.677  28.443  1.00  0.00     0.031 C 
ATOM     45  C   UNL A   1      45.405  24.887  26.881  1.00  0.00     0.029 A 
ATOM     46  N   UNL A   1      44.950  26.912  27.700  1.00  0.00    -0.354 N 
ATOM     47  C   UNL A   1      40.978  27.870  29.060  1.00  0.00     0.074 A 
ATOM     48  C   UNL A   1      40.086  26.737  28.908  1.00  0.00     0.031 C 
ATOM     49  C   UNL A   1      46.541  25.602  26.869  1.00  0.00     0.029 A 
ATOM     50  C   UNL A   1      46.282  26.946  27.358  1.00  0.00     0.049 A 
ATOM     51  H   UNL A   1      44.477  27.676  28.101  1.00  0.00     0.167 HD
ATOM     52  C   UNL A   1      40.624  29.069  29.584  1.00  0.00     0.034 A 
ATOM     53  C   UNL A   1      47.197  27.936  27.406  1.00  0.00     0.034 A 
ATOM     54  C   UNL A   1      41.524  30.191  29.708  1.00  0.00     0.049 A 
ATOM     55  C   UNL A   1      46.757  29.286  27.907  1.00  0.00     0.074 A 
ATOM     56  C   UNL A   1      41.264  31.446  30.228  1.00  0.00     0.029 A 
ATOM     57  N   UNL A   1      42.852  30.204  29.295  1.00  0.00    -0.354 N 
ATOM     58  N   UNL A   1      45.577  29.651  28.353  1.00  0.00    -0.248 NA
ATOM     59  C   UNL A   1      47.760  30.358  27.905  1.00  0.00     0.031 C 
ATOM     60  C   UNL A   1      42.397  32.244  30.044  1.00  0.00     0.029 A 
ATOM     61  C   UNL A   1      43.406  31.459  29.509  1.00  0.00     0.049 A 
ATOM     62  H   UNL A   1      43.330  29.436  28.909  1.00  0.00     0.167 HD
ATOM     63  C   UNL A   1      45.709  30.987  28.718  1.00  0.00     0.074 A 
ATOM     64  C   UNL A   1      47.085  31.356  28.454  1.00  0.00     0.031 C 
ATOM     65  C   UNL A   1      44.774  31.828  29.227  1.00  0.00     0.034 A 
BRANCH  52  66
ATOM     66  C   UNL A   1      39.183  29.237  29.995  1.00  0.00     0.023 A 
ATOM     67  C   UNL A   1      38.236  29.841  29.148  1.00  0.00     0.031 A 
ATOM     68  C   UNL A   1      38.758  28.832  31.273  1.00  0.00     0.131 A 
ATOM     69  C   UNL A   1      36.942  30.103  29.622  1.00  0.00     0.055 A 
ATOM     70  C   UNL A   1      37.442  29.004  31.701  1.00  0.00     0.041 A 
ATOM     71  F   UNL A   1      39.623  28.277  32.137  1.00  0.00    -0.206 F 
ATOM     72  C   UNL A   1      36.529  29.660  30.881  1.00  0.00     0.022 A 
BRANCH  69  73
ATOM     73  S   UNL A   1      35.869  31.186  28.642  1.00  0.00     0.124 S 
ATOM     74  O   UNL A   1      35.056  30.214  27.913  1.00  0.00    -0.237 OA
ATOM     75  O   UNL A   1      35.175  31.957  29.667  1.00  0.00    -0.237 OA
ATOM     76  O   UNL A   1      36.808  31.944  27.818  1.00  0.00    -0.744 OA
ENDBRANCH  69  73
ENDBRANCH  52  66
BRANCH  53  77
ATOM     77  C   UNL A   1      48.604  27.716  26.942  1.00  0.00     0.023 A 
ATOM     78  C   UNL A   1      48.949  27.846  25.585  1.00  0.00     0.031 A 
ATOM     79  C   UNL A   1      49.615  27.316  27.835  1.00  0.00     0.131 A 
ATOM     80  C   UNL A   1      50.249  27.526  25.156  1.00  0.00     0.055 A 
ATOM     81  C   UNL A   1      50.924  27.070  27.414  1.00  0.00     0.041 A 
ATOM     82  F   UNL A   1      49.349  27.169  29.144  1.00  0.00    -0.206 F 
ATOM     83  C   UNL A   1      51.243  27.160  26.064  1.00  0.00     0.022 A 
BRANCH  80  84
ATOM     84  S   UNL A   1      50.592  27.473  23.373  1.00  0.00     0.124 S 
ATOM     85  O   UNL A   1      51.882  26.794  23.342  1.00  0.00    -0.237 OA
ATOM     86  O   UNL A   1      49.454  26.715  22.865  1.00  0.00    -0.237 OA
ATOM     87  O   UNL A   1      50.620  28.882  22.991  1.00  0.00    -0.744 OA
ENDBRANCH  80  84
ENDBRANCH  53  77
BRANCH  65  88
ATOM     88  C   UNL A   1      45.227  33.225  29.580  1.00  0.00     0.023 A 
ATOM     89  C   UNL A   1      45.398  34.222  28.604  1.00  0.00     0.031 A 
ATOM     90  C   UNL A   1      45.511  33.556  30.917  1.00  0.00     0.131 A 
ATOM     91  C   UNL A   1      45.901  35.479  28.969  1.00  0.00     0.055 A 
ATOM     92  C   UNL A   1      45.935  34.834  31.285  1.00  0.00     0.041 A 
ATOM     93  F   UNL A   1      45.376  32.643  31.892  1.00  0.00    -0.206 F 
ATOM     94  C   UNL A   1      46.147  35.799  30.306  1.00  0.00     0.022 A 
BRANCH  91  95
ATOM     95  S   UNL A   1      46.342  36.654  27.659  1.00  0.00     0.124 S 
ATOM     96  O   UNL A   1      45.645  36.096  26.505  1.00  0.00    -0.237 OA
ATOM     97  O   UNL A   1      45.814  37.913  28.176  1.00  0.00    -0.237 OA
ATOM     98  O   UNL A   1      47.801  36.572  27.602  1.00  0.00    -0.744 OA
ENDBRANCH  91  95
ENDBRANCH  65  88
ENDBRANCH  39  40
ENDBRANCH  32  34
ENDBRANCH  31  32
ENDBRANCH  30  31
ENDBRANCH  29  30
ENDBRANCH  28  29
ENDBRANCH  27  28
ENDBRANCH   1  27
TORSDOF 24
ENDMDL
MODEL 2
REMARK VINA RESULT:      -9.7      2.127      7.890
REMARK SMILES N#Cc1ccc(/C=C/C(=O)N[C@H]2C=C[C@H](C(=O)OCCOCCOCCOC(=O)c3ccc(-c4c5nc(c(-c6cc(S(=O)(=O)[O-])ccc6F)c6ccc([nH]6)c(-c6cc(S(=O)(=O)[O-])ccc6F)c6nc(c(-c7cc(S(=O)(=O)[O-])ccc7F)c7ccc4[nH]7)C=C6)C=C5)cc3)C2)cc1
REMARK SMILES IDX 22 1 21 2 20 3 19 4 18 5 16 6 17 7 15 8 12 9 13 10 93 11
REMARK SMILES IDX 14 12 11 13 9 14 10 15 8 17 7 18 6 19 3 20 4 21 95 22 5 23
REMARK SMILES IDX 94 24 2 25 1 26 23 27 24 28 25 29 26 30 27 31 28 32 29 33
REMARK SMILES IDX 30 34 31 35 92 36 32 37 91 38 33 39 34 40 35 41 85 42 36 43
REMARK SMILES IDX 90 44 84 45 86 46 37 47 89 48 83 49 82 50 38 52 70 53 50 54
REMARK SMILES IDX 69 55 51 56 54 57 68 58 87 59 52 60 53 61 67 63 88 64 55 65
REMARK SMILES IDX 39 66 40 67 48 68 41 69 47 70 49 71 46 72 42 73 43 74 44 75
REMARK SMILES IDX 45 76 71 77 72 78 80 79 73 80 79 81 81 82 78 83 74 84 75 85
REMARK SMILES IDX 76 86 77 87 56 88 57 89 65 90 58 91 64 92 66 93 63 94 59 95
REMARK SMILES IDX 60 96 61 97 62 98
REMARK H PARENT 11 16 86 51 54 62
REMARK Flexibility Score: inf
ROOT
ATOM      1  C   UNL A   1      40.054  20.433  26.031  1.00  0.00     0.188 C 
ENDROOT
BRANCH   1   2
ATOM      2  O   UNL A   1      38.907  21.241  26.181  1.00  0.00    -0.376 OA
BRANCH   2   3
ATOM      3  C   UNL A   1      38.998  22.630  25.905  1.00  0.00     0.202 C 
BRANCH   3   4
ATOM      4  C   UNL A   1      38.133  23.720  26.580  1.00  0.00     0.261 C 
BRANCH   4   5
ATOM      5  O   UNL A   1      36.992  24.198  25.848  1.00  0.00    -0.463 OA
BRANCH   5   6
ATOM      6  C   UNL A   1      35.809  23.540  26.039  1.00  0.00     0.312 C 
ATOM      7  O   UNL A   1      35.709  22.323  26.127  1.00  0.00    -0.252 OA
BRANCH   6   8
ATOM      8  C   UNL A   1      34.656  24.532  26.288  1.00  0.00     0.124 C 
ATOM      9  C   UNL A   1      33.393  24.353  24.247  1.00  0.00     0.106 C 
ATOM     10  C   UNL A   1      33.958  25.728  24.374  1.00  0.00    -0.006 C 
ATOM     11  C   UNL A   1      33.344  23.970  25.728  1.00  0.00     0.048 C 
ATOM     12  C   UNL A   1      34.733  25.798  25.471  1.00  0.00    -0.014 C 
BRANCH   9  13
ATOM     13  N   UNL A   1      32.107  24.269  23.635  1.00  0.00    -0.346 N 
ATOM     14  C   UNL A   1      31.422  23.162  23.233  1.00  0.00     0.244 C 
ATOM     15  O   UNL A   1      30.291  23.325  22.776  1.00  0.00    -0.270 OA
ATOM     16  H   UNL A   1      31.652  25.129  23.483  1.00  0.00     0.164 HD
BRANCH  14  17
ATOM     17  C   UNL A   1      31.961  21.759  23.301  1.00  0.00     0.072 C 
ATOM     18  C   UNL A   1      32.176  20.973  24.367  1.00  0.00     0.014 C 
BRANCH  18  19
ATOM     19  C   UNL A   1      32.573  19.555  24.471  1.00  0.00    -0.025 A 
ATOM     20  C   UNL A   1      32.928  16.790  24.930  1.00  0.00     0.052 A 
ATOM     21  C   UNL A   1      32.785  17.279  23.630  1.00  0.00     0.020 A 
ATOM     22  C   UNL A   1      32.938  17.684  25.999  1.00  0.00     0.020 A 
ATOM     23  C   UNL A   1      32.617  18.655  23.405  1.00  0.00     0.009 A 
ATOM     24  C   UNL A   1      32.766  19.050  25.767  1.00  0.00     0.009 A 
BRANCH  20  25
ATOM     25  C   UNL A   1      33.053  15.382  25.182  1.00  0.00     0.099 C 
ATOM     26  N   UNL A   1      33.122  14.239  25.356  1.00  0.00    -0.192 NA
ENDBRANCH  20  25
ENDBRANCH  18  19
ENDBRANCH  14  17
ENDBRANCH   9  13
ENDBRANCH   6   8
ENDBRANCH   5   6
ENDBRANCH   4   5
ENDBRANCH   3   4
ENDBRANCH   2   3
ENDBRANCH   1   2
BRANCH   1  27
ATOM     27  C   UNL A   1      41.084  20.429  27.178  1.00  0.00     0.188 C 
BRANCH  27  28
ATOM     28  O   UNL A   1      42.411  20.063  26.882  1.00  0.00    -0.376 OA
BRANCH  28  29
ATOM     29  C   UNL A   1      42.680  18.746  26.435  1.00  0.00     0.202 C 
BRANCH  29  30
ATOM     30  C   UNL A   1      43.705  18.355  25.344  1.00  0.00     0.261 C 
BRANCH  30  31
ATOM     31  O   UNL A   1      43.992  19.282  24.289  1.00  0.00    -0.460 OA
BRANCH  31  32
ATOM     32  C   UNL A   1      45.219  19.863  24.335  1.00  0.00     0.338 C 
ATOM     33  O   UNL A   1      46.254  19.411  23.877  1.00  0.00    -0.246 OA
BRANCH  32  34
ATOM     34  C   UNL A   1      45.086  21.242  24.857  1.00  0.00     0.060 A 
ATOM     35  C   UNL A   1      44.666  22.268  23.996  1.00  0.00     0.016 A 
ATOM     36  C   UNL A   1      45.436  21.531  26.174  1.00  0.00     0.016 A 
ATOM     37  C   UNL A   1      44.612  23.590  24.448  1.00  0.00     0.010 A 
ATOM     38  C   UNL A   1      45.407  22.860  26.617  1.00  0.00     0.010 A 
ATOM     39  C   UNL A   1      45.024  23.901  25.750  1.00  0.00    -0.014 A 
BRANCH  39  40
ATOM     40  C   UNL A   1      45.212  25.319  26.162  1.00  0.00     0.031 A 
ATOM     41  C   UNL A   1      46.564  25.946  26.009  1.00  0.00     0.074 A 
ATOM     42  C   UNL A   1      44.202  26.048  26.669  1.00  0.00     0.049 A 
ATOM     43  N   UNL A   1      46.971  27.130  26.383  1.00  0.00    -0.248 NA
ATOM     44  C   UNL A   1      47.595  25.121  25.367  1.00  0.00     0.031 C 
ATOM     45  C   UNL A   1      42.838  25.565  26.821  1.00  0.00     0.029 A 
ATOM     46  N   UNL A   1      44.157  27.335  27.149  1.00  0.00    -0.354 N 
ATOM     47  C   UNL A   1      48.314  27.192  26.038  1.00  0.00     0.074 A 
ATOM     48  C   UNL A   1      48.656  25.907  25.460  1.00  0.00     0.031 C 
ATOM     49  C   UNL A   1      42.088  26.547  27.345  1.00  0.00     0.029 A 
ATOM     50  C   UNL A   1      42.917  27.710  27.613  1.00  0.00     0.049 A 
ATOM     51  H   UNL A   1      44.939  27.933  27.159  1.00  0.00     0.167 HD
ATOM     52  C   UNL A   1      49.176  28.227  26.189  1.00  0.00     0.034 A 
ATOM     53  C   UNL A   1      42.484  28.842  28.206  1.00  0.00     0.034 A 
ATOM     54  C   UNL A   1      48.819  29.492  26.786  1.00  0.00     0.049 A 
ATOM     55  C   UNL A   1      43.482  29.944  28.446  1.00  0.00     0.074 A 
ATOM     56  C   UNL A   1      49.618  30.604  26.981  1.00  0.00     0.029 A 
ATOM     57  N   UNL A   1      47.566  29.812  27.299  1.00  0.00    -0.354 N 
ATOM     58  N   UNL A   1      44.754  29.985  28.123  1.00  0.00    -0.248 NA
ATOM     59  C   UNL A   1      42.995  31.146  29.134  1.00  0.00     0.031 C 
ATOM     60  C   UNL A   1      48.882  31.556  27.694  1.00  0.00     0.029 A 
ATOM     61  C   UNL A   1      47.587  31.086  27.848  1.00  0.00     0.049 A 
ATOM     62  H   UNL A   1      46.779  29.222  27.274  1.00  0.00     0.167 HD
ATOM     63  C   UNL A   1      45.209  31.231  28.539  1.00  0.00     0.074 A 
ATOM     64  C   UNL A   1      44.073  31.916  29.120  1.00  0.00     0.031 C 
ATOM     65  C   UNL A   1      46.455  31.759  28.444  1.00  0.00     0.034 A 
BRANCH  52  66
ATOM     66  C   UNL A   1      50.604  27.996  25.760  1.00  0.00     0.023 A 
ATOM     67  C   UNL A   1      50.990  28.047  24.409  1.00  0.00     0.031 A 
ATOM     68  C   UNL A   1      51.586  27.671  26.713  1.00  0.00     0.131 A 
ATOM     69  C   UNL A   1      52.296  27.690  24.042  1.00  0.00     0.055 A 
ATOM     70  C   UNL A   1      52.908  27.415  26.350  1.00  0.00     0.041 A 
ATOM     71  F   UNL A   1      51.271  27.577  28.015  1.00  0.00    -0.206 F 
ATOM     72  C   UNL A   1      53.266  27.405  25.005  1.00  0.00     0.022 A 
BRANCH  69  73
ATOM     73  S   UNL A   1      52.655  27.428  22.285  1.00  0.00     0.124 S 
ATOM     74  O   UNL A   1      53.456  28.609  21.969  1.00  0.00    -0.237 OA
ATOM     75  O   UNL A   1      53.369  26.156  22.294  1.00  0.00    -0.237 OA
ATOM     76  O   UNL A   1      51.332  27.399  21.665  1.00  0.00    -0.744 OA
ENDBRANCH  69  73
ENDBRANCH  52  66
BRANCH  53  77
ATOM     77  C   UNL A   1      41.061  28.992  28.648  1.00  0.00     0.023 A 
ATOM     78  C   UNL A   1      40.709  28.900  30.007  1.00  0.00     0.031 A 
ATOM     79  C   UNL A   1      40.021  29.170  27.717  1.00  0.00     0.131 A 
ATOM     80  C   UNL A   1      39.357  28.932  30.387  1.00  0.00     0.055 A 
ATOM     81  C   UNL A   1      38.684  29.274  28.108  1.00  0.00     0.041 A 
ATOM     82  F   UNL A   1      40.289  29.261  26.404  1.00  0.00    -0.206 F 
ATOM     83  C   UNL A   1      38.344  29.140  29.449  1.00  0.00     0.022 A 
BRANCH  80  84
ATOM     84  S   UNL A   1      38.926  28.571  32.114  1.00  0.00     0.124 S 
ATOM     85  O   UNL A   1      38.091  29.717  32.455  1.00  0.00    -0.237 OA
ATOM     86  O   UNL A   1      38.242  27.288  31.997  1.00  0.00    -0.237 OA
ATOM     87  O   UNL A   1      40.224  28.525  32.784  1.00  0.00    -0.744 OA
ENDBRANCH  80  84
ENDBRANCH  53  77
BRANCH  65  88
ATOM     88  C   UNL A   1      46.641  33.173  28.940  1.00  0.00     0.023 A 
ATOM     89  C   UNL A   1      46.510  34.284  28.088  1.00  0.00     0.031 A 
ATOM     90  C   UNL A   1      46.975  33.410  30.285  1.00  0.00     0.131 A 
ATOM     91  C   UNL A   1      46.774  35.573  28.575  1.00  0.00     0.055 A 
ATOM     92  C   UNL A   1      47.158  34.701  30.782  1.00  0.00     0.041 A 
ATOM     93  F   UNL A   1      47.124  32.389  31.143  1.00  0.00    -0.206 F 
ATOM     94  C   UNL A   1      47.073  35.791  29.921  1.00  0.00     0.022 A 
BRANCH  91  95
ATOM     95  S   UNL A   1      46.837  36.952  27.397  1.00  0.00     0.124 S 
ATOM     96  O   UNL A   1      47.639  36.389  26.316  1.00  0.00    -0.237 OA
ATOM     97  O   UNL A   1      45.426  37.172  27.097  1.00  0.00    -0.237 OA
ATOM     98  O   UNL A   1      47.482  38.022  28.157  1.00  0.00    -0.744 OA
ENDBRANCH  91  95
ENDBRANCH  65  88
ENDBRANCH  39  40
ENDBRANCH  32  34
ENDBRANCH  31  32
ENDBRANCH  30  31
ENDBRANCH  29  30
ENDBRANCH  28  29
ENDBRANCH  27  28
ENDBRANCH   1  27
TORSDOF 24
ENDMDL
MODEL 3
REMARK VINA RESULT:      -9.6      2.637      4.678
REMARK SMILES N#Cc1ccc(/C=C/C(=O)N[C@H]2C=C[C@H](C(=O)OCCOCCOCCOC(=O)c3ccc(-c4c5nc(c(-c6cc(S(=O)(=O)[O-])ccc6F)c6ccc([nH]6)c(-c6cc(S(=O)(=O)[O-])ccc6F)c6nc(c(-c7cc(S(=O)(=O)[O-])ccc7F)c7ccc4[nH]7)C=C6)C=C5)cc3)C2)cc1
REMARK SMILES IDX 22 1 21 2 20 3 19 4 18 5 16 6 17 7 15 8 12 9 13 10 93 11
REMARK SMILES IDX 14 12 11 13 9 14 10 15 8 17 7 18 6 19 3 20 4 21 95 22 5 23
REMARK SMILES IDX 94 24 2 25 1 26 23 27 24 28 25 29 26 30 27 31 28 32 29 33
REMARK SMILES IDX 30 34 31 35 92 36 32 37 91 38 33 39 34 40 35 41 85 42 36 43
REMARK SMILES IDX 90 44 84 45 86 46 37 47 89 48 83 49 82 50 38 52 70 53 50 54
REMARK SMILES IDX 69 55 51 56 54 57 68 58 87 59 52 60 53 61 67 63 88 64 55 65
REMARK SMILES IDX 39 66 40 67 48 68 41 69 47 70 49 71 46 72 42 73 43 74 44 75
REMARK SMILES IDX 45 76 71 77 72 78 80 79 73 80 79 81 81 82 78 83 74 84 75 85
REMARK SMILES IDX 76 86 77 87 56 88 57 89 65 90 58 91 64 92 66 93 63 94 59 95
REMARK SMILES IDX 60 96 61 97 62 98
REMARK H PARENT 11 16 86 51 54 62
REMARK Flexibility Score: inf
ROOT
ATOM      1  C   UNL A   1      36.286  22.205  25.945  1.00  0.00     0.188 C 
ENDROOT
BRANCH   1   2
ATOM      2  O   UNL A   1      35.636  21.895  24.732  1.00  0.00    -0.376 OA
BRANCH   2   3
ATOM      3  C   UNL A   1      35.843  22.728  23.602  1.00  0.00     0.202 C 
BRANCH   3   4
ATOM      4  C   UNL A   1      34.716  23.316  22.722  1.00  0.00     0.261 C 
BRANCH   4   5
ATOM      5  O   UNL A   1      34.577  24.747  22.704  1.00  0.00    -0.463 OA
BRANCH   5   6
ATOM      6  C   UNL A   1      33.564  25.265  21.945  1.00  0.00     0.312 C 
ATOM      7  O   UNL A   1      33.323  24.918  20.796  1.00  0.00    -0.252 OA
BRANCH   6   8
ATOM      8  C   UNL A   1      32.678  26.214  22.775  1.00  0.00     0.124 C 
ATOM      9  C   UNL A   1      31.140  24.683  23.815  1.00  0.00     0.106 C 
ATOM     10  C   UNL A   1      30.402  25.589  22.886  1.00  0.00    -0.006 C 
ATOM     11  C   UNL A   1      32.342  25.578  24.128  1.00  0.00     0.048 C 
ATOM     12  C   UNL A   1      31.276  26.385  22.244  1.00  0.00    -0.014 C 
BRANCH   9  13
ATOM     13  N   UNL A   1      30.436  24.307  24.997  1.00  0.00    -0.346 N 
ATOM     14  C   UNL A   1      30.482  24.873  26.236  1.00  0.00     0.244 C 
ATOM     15  O   UNL A   1      29.738  24.413  27.101  1.00  0.00    -0.270 OA
ATOM     16  H   UNL A   1      29.835  23.532  24.905  1.00  0.00     0.164 HD
BRANCH  14  17
ATOM     17  C   UNL A   1      31.387  26.014  26.615  1.00  0.00     0.072 C 
ATOM     18  C   UNL A   1      31.252  27.329  26.387  1.00  0.00     0.014 C 
BRANCH  18  19
ATOM     19  C   UNL A   1      32.040  28.487  26.853  1.00  0.00    -0.025 A 
ATOM     20  C   UNL A   1      33.830  30.613  27.361  1.00  0.00     0.052 A 
ATOM     21  C   UNL A   1      32.480  30.868  27.108  1.00  0.00     0.020 A 
ATOM     22  C   UNL A   1      34.279  29.295  27.403  1.00  0.00     0.020 A 
ATOM     23  C   UNL A   1      31.592  29.809  26.864  1.00  0.00     0.009 A 
ATOM     24  C   UNL A   1      33.390  28.247  27.156  1.00  0.00     0.009 A 
BRANCH  20  25
ATOM     25  C   UNL A   1      34.761  31.686  27.565  1.00  0.00     0.099 C 
ATOM     26  N   UNL A   1      35.501  32.552  27.773  1.00  0.00    -0.192 NA
ENDBRANCH  20  25
ENDBRANCH  18  19
ENDBRANCH  14  17
ENDBRANCH   9  13
ENDBRANCH   6   8
ENDBRANCH   5   6
ENDBRANCH   4   5
ENDBRANCH   3   4
ENDBRANCH   2   3
ENDBRANCH   1   2
BRANCH   1  27
ATOM     27  C   UNL A   1      37.821  22.352  25.919  1.00  0.00     0.188 C 
BRANCH  27  28
ATOM     28  O   UNL A   1      38.562  21.473  25.108  1.00  0.00    -0.376 OA
BRANCH  28  29
ATOM     29  C   UNL A   1      38.476  20.079  25.342  1.00  0.00     0.202 C 
BRANCH  29  30
ATOM     30  C   UNL A   1      39.670  19.132  25.611  1.00  0.00     0.261 C 
BRANCH  30  31
ATOM     31  O   UNL A   1      40.657  19.510  26.580  1.00  0.00    -0.460 OA
BRANCH  31  32
ATOM     32  C   UNL A   1      41.861  19.888  26.075  1.00  0.00     0.338 C 
ATOM     33  O   UNL A   1      42.557  19.252  25.303  1.00  0.00    -0.246 OA
BRANCH  32  34
ATOM     34  C   UNL A   1      42.124  21.297  26.446  1.00  0.00     0.060 A 
ATOM     35  C   UNL A   1      42.131  22.284  25.448  1.00  0.00     0.016 A 
ATOM     36  C   UNL A   1      42.426  21.631  27.765  1.00  0.00     0.016 A 
ATOM     37  C   UNL A   1      42.457  23.606  25.765  1.00  0.00     0.010 A 
ATOM     38  C   UNL A   1      42.780  22.951  28.075  1.00  0.00     0.010 A 
ATOM     39  C   UNL A   1      42.826  23.940  27.074  1.00  0.00    -0.014 A 
BRANCH  39  40
ATOM     40  C   UNL A   1      43.415  25.274  27.373  1.00  0.00     0.031 A 
ATOM     41  C   UNL A   1      42.548  26.327  27.994  1.00  0.00     0.074 A 
ATOM     42  C   UNL A   1      44.700  25.557  27.099  1.00  0.00     0.049 A 
ATOM     43  N   UNL A   1      42.828  27.577  28.256  1.00  0.00    -0.248 NA
ATOM     44  C   UNL A   1      41.182  25.921  28.348  1.00  0.00     0.031 C 
ATOM     45  C   UNL A   1      45.648  24.605  26.542  1.00  0.00     0.029 A 
ATOM     46  N   UNL A   1      45.432  26.712  27.245  1.00  0.00    -0.354 N 
ATOM     47  C   UNL A   1      41.667  28.117  28.792  1.00  0.00     0.074 A 
ATOM     48  C   UNL A   1      40.671  27.064  28.779  1.00  0.00     0.031 C 
ATOM     49  C   UNL A   1      46.838  25.210  26.405  1.00  0.00     0.029 A 
ATOM     50  C   UNL A   1      46.734  26.600  26.814  1.00  0.00     0.049 A 
ATOM     51  H   UNL A   1      45.058  27.541  27.622  1.00  0.00     0.167 HD
ATOM     52  C   UNL A   1      41.458  29.375  29.253  1.00  0.00     0.034 A 
ATOM     53  C   UNL A   1      47.733  27.503  26.733  1.00  0.00     0.034 A 
ATOM     54  C   UNL A   1      42.460  30.414  29.238  1.00  0.00     0.049 A 
ATOM     55  C   UNL A   1      47.450  28.918  27.165  1.00  0.00     0.074 A 
ATOM     56  C   UNL A   1      42.348  31.719  29.685  1.00  0.00     0.029 A 
ATOM     57  N   UNL A   1      43.750  30.279  28.739  1.00  0.00    -0.354 N 
ATOM     58  N   UNL A   1      46.342  29.418  27.662  1.00  0.00    -0.248 NA
ATOM     59  C   UNL A   1      48.540  29.890  27.022  1.00  0.00     0.031 C 
ATOM     60  C   UNL A   1      43.530  32.396  29.370  1.00  0.00     0.029 A 
ATOM     61  C   UNL A   1      44.426  31.488  28.827  1.00  0.00     0.049 A 
ATOM     62  H   UNL A   1      44.130  29.446  28.377  1.00  0.00     0.167 HD
ATOM     63  C   UNL A   1      46.616  30.756  27.922  1.00  0.00     0.074 A 
ATOM     64  C   UNL A   1      47.996  30.979  27.543  1.00  0.00     0.031 C 
ATOM     65  C   UNL A   1      45.798  31.711  28.431  1.00  0.00     0.034 A 
BRANCH  52  66
ATOM     66  C   UNL A   1      40.070  29.701  29.744  1.00  0.00     0.023 A 
ATOM     67  C   UNL A   1      39.765  29.767  31.115  1.00  0.00     0.031 A 
ATOM     68  C   UNL A   1      39.023  29.901  28.828  1.00  0.00     0.131 A 
ATOM     69  C   UNL A   1      38.435  29.935  31.528  1.00  0.00     0.055 A 
ATOM     70  C   UNL A   1      37.719  30.168  29.245  1.00  0.00     0.041 A 
ATOM     71  F   UNL A   1      39.246  29.820  27.505  1.00  0.00    -0.206 F 
ATOM     72  C   UNL A   1      37.415  30.168  30.604  1.00  0.00     0.022 A 
BRANCH  69  73
ATOM     73  S   UNL A   1      38.035  29.664  33.275  1.00  0.00     0.124 S 
ATOM     74  O   UNL A   1      39.363  29.653  33.884  1.00  0.00    -0.237 OA
ATOM     75  O   UNL A   1      37.198  30.816  33.590  1.00  0.00    -0.237 OA
ATOM     76  O   UNL A   1      37.349  28.373  33.273  1.00  0.00    -0.744 OA
ENDBRANCH  69  73
ENDBRANCH  52  66
BRANCH  53  77
ATOM     77  C   UNL A   1      49.078  27.126  26.194  1.00  0.00     0.023 A 
ATOM     78  C   UNL A   1      49.478  27.512  24.902  1.00  0.00     0.031 A 
ATOM     79  C   UNL A   1      49.965  26.323  26.936  1.00  0.00     0.131 A 
ATOM     80  C   UNL A   1      50.697  27.052  24.375  1.00  0.00     0.055 A 
ATOM     81  C   UNL A   1      51.208  25.930  26.435  1.00  0.00     0.041 A 
ATOM     82  F   UNL A   1      49.642  25.916  28.174  1.00  0.00    -0.206 F 
ATOM     83  C   UNL A   1      51.574  26.282  25.140  1.00  0.00     0.022 A 
BRANCH  80  84
ATOM     84  S   UNL A   1      51.068  27.370  22.626  1.00  0.00     0.124 S 
ATOM     85  O   UNL A   1      49.940  26.725  21.964  1.00  0.00    -0.237 OA
ATOM     86  O   UNL A   1      51.095  28.828  22.578  1.00  0.00    -0.237 OA
ATOM     87  O   UNL A   1      52.361  26.718  22.430  1.00  0.00    -0.744 OA
ENDBRANCH  80  84
ENDBRANCH  53  77
BRANCH  65  88
ATOM     88  C   UNL A   1      46.396  33.080  28.655  1.00  0.00     0.023 A 
ATOM     89  C   UNL A   1      47.132  33.390  29.811  1.00  0.00     0.031 A 
ATOM     90  C   UNL A   1      46.207  34.095  27.701  1.00  0.00     0.131 A 
ATOM     91  C   UNL A   1      47.596  34.698  30.014  1.00  0.00     0.055 A 
ATOM     92  C   UNL A   1      46.740  35.373  27.871  1.00  0.00     0.041 A 
ATOM     93  F   UNL A   1      45.504  33.861  26.581  1.00  0.00    -0.206 F 
ATOM     94  C   UNL A   1      47.427  35.685  29.040  1.00  0.00     0.022 A 
BRANCH  91  95
ATOM     95  S   UNL A   1      48.324  35.125  31.620  1.00  0.00     0.124 S 
ATOM     96  O   UNL A   1      47.142  35.461  32.407  1.00  0.00    -0.237 OA
ATOM     97  O   UNL A   1      49.008  33.890  31.992  1.00  0.00    -0.237 OA
ATOM     98  O   UNL A   1      49.204  36.250  31.309  1.00  0.00    -0.744 OA
ENDBRANCH  91  95
ENDBRANCH  65  88
ENDBRANCH  39  40
ENDBRANCH  32  34
ENDBRANCH  31  32
ENDBRANCH  30  31
ENDBRANCH  29  30
ENDBRANCH  28  29
ENDBRANCH  27  28
ENDBRANCH   1  27
TORSDOF 24
ENDMDL
