MODEL 1
REMARK VINA RESULT:     -13.0      0.000      0.000
REMARK SMILES O=C(OCCOCCOCCOC(=O)c1ccc(-c2c3nc(c(-c4cc(S(=O)(=O)[O-])ccc4F)c4ccc([nH]4)c(-c4cc(S(=O)(=O)[O-])ccc4F)c4nc(c(-c5cc(S(=O)(=O)[O-])ccc5F)c5ccc2[nH]5)C=C4)C=C3)cc1)C1=Cc2cc(Cl)c(Cl)c(Cl)c2O[C@@H]1C(F)(F)F
REMARK SMILES IDX 8 1 7 2 6 3 5 4 4 5 3 6 2 7 1 8 78 9 79 10 90 11 80 12 89 13
REMARK SMILES IDX 81 14 88 15 82 16 86 17 83 18 84 19 87 20 85 21 91 22 92 23
REMARK SMILES IDX 93 24 94 25 9 26 10 27 11 28 12 29 13 30 14 31 15 32 16 33
REMARK SMILES IDX 77 34 17 35 76 36 18 37 19 38 20 39 70 40 21 41 75 42 69 43
REMARK SMILES IDX 71 44 22 45 74 46 68 47 67 48 23 50 55 51 35 52 54 53 36 54
REMARK SMILES IDX 39 55 53 56 72 57 37 58 38 59 52 61 73 62 40 63 24 64 25 65
REMARK SMILES IDX 33 66 26 67 32 68 34 69 31 70 27 71 28 72 29 73 30 74 56 75
REMARK SMILES IDX 57 76 65 77 58 78 64 79 66 80 63 81 59 82 60 83 61 84 62 85
REMARK SMILES IDX 41 86 42 87 50 88 43 89 49 90 51 91 48 92 44 93 45 94 46 95
REMARK SMILES IDX 47 96
REMARK H PARENT 71 49 39 60
REMARK Flexibility Score: inf
ROOT
ATOM      1  C   UNL A   1      34.628  34.141  29.401  1.00  0.00     0.188 C 
ENDROOT
BRANCH   1   2
ATOM      2  C   UNL A   1      34.623  33.074  28.297  1.00  0.00     0.188 C 
BRANCH   2   3
ATOM      3  O   UNL A   1      34.638  31.606  28.569  1.00  0.00    -0.376 OA
BRANCH   3   4
ATOM      4  C   UNL A   1      35.396  30.353  27.664  1.00  0.00     0.202 C 
BRANCH   4   5
ATOM      5  C   UNL A   1      34.353  28.749  26.639  1.00  0.00     0.261 C 
BRANCH   5   6
ATOM      6  O   UNL A   1      33.529  28.868  25.372  1.00  0.00    -0.460 OA
BRANCH   6   7
ATOM      7  C   UNL A   1      32.288  28.390  25.540  1.00  0.00     0.338 C 
ATOM      8  O   UNL A   1      31.676  28.254  26.569  1.00  0.00    -0.246 OA
BRANCH   7   9
ATOM      9  C   UNL A   1      32.192  27.701  24.262  1.00  0.00     0.087 C 
ATOM     10  C   UNL A   1      33.382  26.970  23.839  1.00  0.00     0.027 C 
ATOM     11  C   UNL A   1      30.511  26.890  24.704  1.00  0.00     0.316 C 
ATOM     12  C   UNL A   1      33.568  25.187  23.963  1.00  0.00     0.020 A 
ATOM     13  O   UNL A   1      30.732  24.973  25.017  1.00  0.00    -0.474 OA
ATOM     14  C   UNL A   1      34.775  24.628  23.657  1.00  0.00     0.034 A 
ATOM     15  C   UNL A   1      32.330  24.168  24.607  1.00  0.00     0.148 A 
ATOM     16  C   UNL A   1      34.877  23.239  23.882  1.00  0.00     0.062 A 
ATOM     17  C   UNL A   1      32.514  22.823  24.821  1.00  0.00     0.103 A 
ATOM     18  Cl  UNL A   1      36.444  22.579  23.476  1.00  0.00    -0.083 Cl
ATOM     19  C   UNL A   1      33.813  22.375  24.429  1.00  0.00     0.082 A 
ATOM     20  Cl  UNL A   1      31.345  21.825  25.562  1.00  0.00    -0.079 Cl
ATOM     21  Cl  UNL A   1      34.197  20.673  24.622  1.00  0.00    -0.081 Cl
BRANCH  11  22
ATOM     22  C   UNL A   1      29.717  27.778  23.506  1.00  0.00     0.430 C 
ATOM     23  F   UNL A   1      30.141  27.795  22.246  1.00  0.00    -0.167 F 
ATOM     24  F   UNL A   1      28.430  27.343  23.460  1.00  0.00    -0.167 F 
ATOM     25  F   UNL A   1      29.618  29.104  23.834  1.00  0.00    -0.167 F 
ENDBRANCH  11  22
ENDBRANCH   7   9
ENDBRANCH   6   7
ENDBRANCH   5   6
ENDBRANCH   4   5
ENDBRANCH   3   4
ENDBRANCH   2   3
ENDBRANCH   1   2
BRANCH   1  26
ATOM     26  O   UNL A   1      33.664  34.081  30.418  1.00  0.00    -0.376 OA
BRANCH  26  27
ATOM     27  C   UNL A   1      34.045  34.659  31.657  1.00  0.00     0.202 C 
BRANCH  27  28
ATOM     28  C   UNL A   1      34.270  33.721  32.853  1.00  0.00     0.261 C 
BRANCH  28  29
ATOM     29  O   UNL A   1      34.952  32.490  32.525  1.00  0.00    -0.460 OA
BRANCH  29  30
ATOM     30  C   UNL A   1      36.080  32.206  33.228  1.00  0.00     0.338 C 
ATOM     31  O   UNL A   1      36.285  32.439  34.406  1.00  0.00    -0.246 OA
BRANCH  30  32
ATOM     32  C   UNL A   1      37.009  31.425  32.384  1.00  0.00     0.060 A 
ATOM     33  C   UNL A   1      37.938  30.562  32.986  1.00  0.00     0.016 A 
ATOM     34  C   UNL A   1      37.002  31.597  31.000  1.00  0.00     0.016 A 
ATOM     35  C   UNL A   1      38.842  29.843  32.198  1.00  0.00     0.010 A 
ATOM     36  C   UNL A   1      37.938  30.914  30.217  1.00  0.00     0.010 A 
ATOM     37  C   UNL A   1      38.872  30.045  30.812  1.00  0.00    -0.014 A 
BRANCH  37  38
ATOM     38  C   UNL A   1      40.019  29.541  30.016  1.00  0.00     0.031 A 
ATOM     39  C   UNL A   1      41.198  30.458  29.834  1.00  0.00     0.074 A 
ATOM     40  C   UNL A   1      40.023  28.309  29.475  1.00  0.00     0.049 A 
ATOM     41  N   UNL A   1      42.294  30.279  29.144  1.00  0.00    -0.248 NA
ATOM     42  C   UNL A   1      41.123  31.756  30.522  1.00  0.00     0.031 C 
ATOM     43  C   UNL A   1      38.959  27.318  29.624  1.00  0.00     0.029 A 
ATOM     44  N   UNL A   1      40.956  27.682  28.683  1.00  0.00    -0.354 N 
ATOM     45  C   UNL A   1      43.040  31.440  29.318  1.00  0.00     0.074 A 
ATOM     46  C   UNL A   1      42.253  32.330  30.143  1.00  0.00     0.031 C 
ATOM     47  C   UNL A   1      39.296  26.211  28.938  1.00  0.00     0.029 A 
ATOM     48  C   UNL A   1      40.579  26.425  28.267  1.00  0.00     0.049 A 
ATOM     49  H   UNL A   1      41.815  28.096  28.436  1.00  0.00     0.167 HD
ATOM     50  C   UNL A   1      44.272  31.732  28.838  1.00  0.00     0.034 A 
ATOM     51  C   UNL A   1      41.188  25.565  27.423  1.00  0.00     0.034 A 
ATOM     52  C   UNL A   1      45.029  30.846  27.991  1.00  0.00     0.049 A 
ATOM     53  C   UNL A   1      42.515  25.963  26.811  1.00  0.00     0.074 A 
ATOM     54  C   UNL A   1      46.286  31.041  27.448  1.00  0.00     0.029 A 
ATOM     55  N   UNL A   1      44.591  29.606  27.545  1.00  0.00    -0.354 N 
ATOM     56  N   UNL A   1      43.220  27.058  26.997  1.00  0.00    -0.248 NA
ATOM     57  C   UNL A   1      43.133  25.007  25.883  1.00  0.00     0.031 C 
ATOM     58  C   UNL A   1      46.567  29.965  26.601  1.00  0.00     0.029 A 
ATOM     59  C   UNL A   1      45.535  29.045  26.698  1.00  0.00     0.049 A 
ATOM     60  H   UNL A   1      43.735  29.187  27.791  1.00  0.00     0.167 HD
ATOM     61  C   UNL A   1      44.379  26.899  26.238  1.00  0.00     0.074 A 
ATOM     62  C   UNL A   1      44.287  25.596  25.612  1.00  0.00     0.031 C 
ATOM     63  C   UNL A   1      45.427  27.748  26.075  1.00  0.00     0.034 A 
BRANCH  50  64
ATOM     64  C   UNL A   1      44.848  33.085  29.176  1.00  0.00     0.023 A 
ATOM     65  C   UNL A   1      45.566  33.309  30.363  1.00  0.00     0.031 A 
ATOM     66  C   UNL A   1      44.662  34.172  28.303  1.00  0.00     0.131 A 
ATOM     67  C   UNL A   1      46.017  34.601  30.674  1.00  0.00     0.055 A 
ATOM     68  C   UNL A   1      45.189  35.435  28.577  1.00  0.00     0.041 A 
ATOM     69  F   UNL A   1      43.956  34.027  27.170  1.00  0.00    -0.206 F 
ATOM     70  C   UNL A   1      45.860  35.658  29.775  1.00  0.00     0.022 A 
BRANCH  67  71
ATOM     71  S   UNL A   1      46.680  34.910  32.334  1.00  0.00     0.124 S 
ATOM     72  O   UNL A   1      45.891  36.064  32.757  1.00  0.00    -0.237 OA
ATOM     73  O   UNL A   1      46.399  33.657  33.025  1.00  0.00    -0.237 OA
ATOM     74  O   UNL A   1      48.095  35.186  32.091  1.00  0.00    -0.744 OA
ENDBRANCH  67  71
ENDBRANCH  50  64
BRANCH  51  75
ATOM     75  C   UNL A   1      40.549  24.264  27.054  1.00  0.00     0.023 A 
ATOM     76  C   UNL A   1      41.276  23.062  27.071  1.00  0.00     0.031 A 
ATOM     77  C   UNL A   1      39.223  24.217  26.583  1.00  0.00     0.131 A 
ATOM     78  C   UNL A   1      40.699  21.883  26.567  1.00  0.00     0.055 A 
ATOM     79  C   UNL A   1      38.630  23.028  26.154  1.00  0.00     0.041 A 
ATOM     80  F   UNL A   1      38.483  25.335  26.524  1.00  0.00    -0.206 F 
ATOM     81  C   UNL A   1      39.375  21.855  26.127  1.00  0.00     0.022 A 
BRANCH  78  82
ATOM     82  S   UNL A   1      41.751  20.418  26.360  1.00  0.00     0.124 S 
ATOM     83  O   UNL A   1      42.800  20.930  25.484  1.00  0.00    -0.237 OA
ATOM     84  O   UNL A   1      42.147  20.131  27.734  1.00  0.00    -0.237 OA
ATOM     85  O   UNL A   1      40.854  19.438  25.753  1.00  0.00    -0.744 OA
ENDBRANCH  78  82
ENDBRANCH  51  75
BRANCH  63  86
ATOM     86  C   UNL A   1      46.584  27.268  25.227  1.00  0.00     0.023 A 
ATOM     87  C   UNL A   1      46.876  27.839  23.976  1.00  0.00     0.031 A 
ATOM     88  C   UNL A   1      47.400  26.214  25.676  1.00  0.00     0.131 A 
ATOM     89  C   UNL A   1      47.904  27.304  23.186  1.00  0.00     0.055 A 
ATOM     90  C   UNL A   1      48.475  25.741  24.922  1.00  0.00     0.041 A 
ATOM     91  F   UNL A   1      47.168  25.623  26.859  1.00  0.00    -0.206 F 
ATOM     92  C   UNL A   1      48.722  26.275  23.661  1.00  0.00     0.022 A 
BRANCH  89  93
ATOM     93  S   UNL A   1      48.073  27.878  21.475  1.00  0.00     0.124 S 
ATOM     94  O   UNL A   1      46.778  28.507  21.239  1.00  0.00    -0.237 OA
ATOM     95  O   UNL A   1      49.214  28.784  21.560  1.00  0.00    -0.237 OA
ATOM     96  O   UNL A   1      48.313  26.649  20.722  1.00  0.00    -0.744 OA
ENDBRANCH  89  93
ENDBRANCH  63  86
ENDBRANCH  37  38
ENDBRANCH  30  32
ENDBRANCH  29  30
ENDBRANCH  28  29
ENDBRANCH  27  28
ENDBRANCH  26  27
ENDBRANCH   1  26
TORSDOF 21
ENDMDL
MODEL 2
REMARK VINA RESULT:     -11.6      2.160      2.474
REMARK SMILES O=C(OCCOCCOCCOC(=O)c1ccc(-c2c3nc(c(-c4cc(S(=O)(=O)[O-])ccc4F)c4ccc([nH]4)c(-c4cc(S(=O)(=O)[O-])ccc4F)c4nc(c(-c5cc(S(=O)(=O)[O-])ccc5F)c5ccc2[nH]5)C=C4)C=C3)cc1)C1=Cc2cc(Cl)c(Cl)c(Cl)c2O[C@@H]1C(F)(F)F
REMARK SMILES IDX 8 1 7 2 6 3 5 4 4 5 3 6 2 7 1 8 78 9 79 10 90 11 80 12 89 13
REMARK SMILES IDX 81 14 88 15 82 16 86 17 83 18 84 19 87 20 85 21 91 22 92 23
REMARK SMILES IDX 93 24 94 25 9 26 10 27 11 28 12 29 13 30 14 31 15 32 16 33
REMARK SMILES IDX 77 34 17 35 76 36 18 37 19 38 20 39 70 40 21 41 75 42 69 43
REMARK SMILES IDX 71 44 22 45 74 46 68 47 67 48 23 50 55 51 35 52 54 53 36 54
REMARK SMILES IDX 39 55 53 56 72 57 37 58 38 59 52 61 73 62 40 63 24 64 25 65
REMARK SMILES IDX 33 66 26 67 32 68 34 69 31 70 27 71 28 72 29 73 30 74 56 75
REMARK SMILES IDX 57 76 65 77 58 78 64 79 66 80 63 81 59 82 60 83 61 84 62 85
REMARK SMILES IDX 41 86 42 87 50 88 43 89 49 90 51 91 48 92 44 93 45 94 46 95
REMARK SMILES IDX 47 96
REMARK H PARENT 71 49 39 60
REMARK Flexibility Score: inf
ROOT
ATOM      1  C   UNL A   1      34.302  34.151  29.370  1.00  0.00     0.188 C 
ENDROOT
BRANCH   1   2
ATOM      2  C   UNL A   1      34.197  32.784  28.679  1.00  0.00     0.188 C 
BRANCH   2   3
ATOM      3  O   UNL A   1      35.192  31.686  28.868  1.00  0.00    -0.376 OA
BRANCH   3   4
ATOM      4  C   UNL A   1      35.756  30.538  27.715  1.00  0.00     0.202 C 
BRANCH   4   5
ATOM      5  C   UNL A   1      34.628  28.822  27.010  1.00  0.00     0.261 C 
BRANCH   5   6
ATOM      6  O   UNL A   1      33.612  28.806  25.884  1.00  0.00    -0.460 OA
BRANCH   6   7
ATOM      7  C   UNL A   1      32.657  27.889  26.090  1.00  0.00     0.338 C 
ATOM      8  O   UNL A   1      32.249  27.462  27.141  1.00  0.00    -0.246 OA
BRANCH   7   9
ATOM      9  C   UNL A   1      32.686  27.305  24.758  1.00  0.00     0.087 C 
ATOM     10  C   UNL A   1      33.904  26.583  24.403  1.00  0.00     0.027 C 
ATOM     11  C   UNL A   1      30.958  26.497  24.958  1.00  0.00     0.316 C 
ATOM     12  C   UNL A   1      34.052  24.793  24.402  1.00  0.00     0.020 A 
ATOM     13  O   UNL A   1      31.120  24.557  25.138  1.00  0.00    -0.474 OA
ATOM     14  C   UNL A   1      35.277  24.234  24.178  1.00  0.00     0.034 A 
ATOM     15  C   UNL A   1      32.740  23.753  24.831  1.00  0.00     0.148 A 
ATOM     16  C   UNL A   1      35.337  22.830  24.299  1.00  0.00     0.062 A 
ATOM     17  C   UNL A   1      32.884  22.392  24.954  1.00  0.00     0.103 A 
ATOM     18  Cl  UNL A   1      36.929  22.170  24.005  1.00  0.00    -0.083 Cl
ATOM     19  C   UNL A   1      34.210  21.948  24.663  1.00  0.00     0.082 A 
ATOM     20  Cl  UNL A   1      31.631  21.364  25.487  1.00  0.00    -0.079 Cl
ATOM     21  Cl  UNL A   1      34.549  20.229  24.757  1.00  0.00    -0.081 Cl
BRANCH  11  22
ATOM     22  C   UNL A   1      30.304  27.493  23.760  1.00  0.00     0.430 C 
ATOM     23  F   UNL A   1      29.700  28.641  24.052  1.00  0.00    -0.167 F 
ATOM     24  F   UNL A   1      31.308  27.809  22.898  1.00  0.00    -0.167 F 
ATOM     25  F   UNL A   1      29.387  26.830  22.989  1.00  0.00    -0.167 F 
ENDBRANCH  11  22
ENDBRANCH   7   9
ENDBRANCH   6   7
ENDBRANCH   5   6
ENDBRANCH   4   5
ENDBRANCH   3   4
ENDBRANCH   2   3
ENDBRANCH   1   2
BRANCH   1  26
ATOM     26  O   UNL A   1      33.221  34.621  30.130  1.00  0.00    -0.376 OA
BRANCH  26  27
ATOM     27  C   UNL A   1      33.546  35.568  31.136  1.00  0.00     0.202 C 
BRANCH  27  28
ATOM     28  C   UNL A   1      34.504  35.134  32.256  1.00  0.00     0.261 C 
BRANCH  28  29
ATOM     29  O   UNL A   1      35.378  34.039  31.902  1.00  0.00    -0.460 OA
BRANCH  29  30
ATOM     30  C   UNL A   1      36.519  33.904  32.626  1.00  0.00     0.338 C 
ATOM     31  O   UNL A   1      36.745  34.373  33.728  1.00  0.00    -0.246 OA
BRANCH  30  32
ATOM     32  C   UNL A   1      37.436  32.968  31.942  1.00  0.00     0.060 A 
ATOM     33  C   UNL A   1      38.256  32.117  32.700  1.00  0.00     0.016 A 
ATOM     34  C   UNL A   1      37.527  32.976  30.550  1.00  0.00     0.016 A 
ATOM     35  C   UNL A   1      39.148  31.250  32.062  1.00  0.00     0.010 A 
ATOM     36  C   UNL A   1      38.454  32.144  29.916  1.00  0.00     0.010 A 
ATOM     37  C   UNL A   1      39.279  31.287  30.668  1.00  0.00    -0.014 A 
BRANCH  37  38
ATOM     38  C   UNL A   1      40.431  30.615  30.016  1.00  0.00     0.031 A 
ATOM     39  C   UNL A   1      41.700  31.407  29.851  1.00  0.00     0.074 A 
ATOM     40  C   UNL A   1      40.362  29.341  29.587  1.00  0.00     0.049 A 
ATOM     41  N   UNL A   1      42.823  31.073  29.272  1.00  0.00    -0.248 NA
ATOM     42  C   UNL A   1      41.693  32.767  30.416  1.00  0.00     0.031 C 
ATOM     43  C   UNL A   1      39.204  28.463  29.734  1.00  0.00     0.029 A 
ATOM     44  N   UNL A   1      41.290  28.567  28.932  1.00  0.00    -0.354 N 
ATOM     45  C   UNL A   1      43.657  32.177  29.405  1.00  0.00     0.074 A 
ATOM     46  C   UNL A   1      42.896  33.205  30.082  1.00  0.00     0.031 C 
ATOM     47  C   UNL A   1      39.488  27.271  29.177  1.00  0.00     0.029 A 
ATOM     48  C   UNL A   1      40.830  27.313  28.598  1.00  0.00     0.049 A 
ATOM     49  H   UNL A   1      42.199  28.881  28.720  1.00  0.00     0.167 HD
ATOM     50  C   UNL A   1      44.943  32.317  29.004  1.00  0.00     0.034 A 
ATOM     51  C   UNL A   1      41.419  26.329  27.884  1.00  0.00     0.034 A 
ATOM     52  C   UNL A   1      45.675  31.295  28.302  1.00  0.00     0.049 A 
ATOM     53  C   UNL A   1      42.819  26.553  27.350  1.00  0.00     0.074 A 
ATOM     54  C   UNL A   1      46.982  31.331  27.849  1.00  0.00     0.029 A 
ATOM     55  N   UNL A   1      45.160  30.060  27.931  1.00  0.00    -0.354 N 
ATOM     56  N   UNL A   1      43.605  27.597  27.497  1.00  0.00    -0.248 NA
ATOM     57  C   UNL A   1      43.413  25.465  26.563  1.00  0.00     0.031 C 
ATOM     58  C   UNL A   1      47.225  30.161  27.125  1.00  0.00     0.029 A 
ATOM     59  C   UNL A   1      46.109  29.344  27.217  1.00  0.00     0.049 A 
ATOM     60  H   UNL A   1      44.254  29.740  28.142  1.00  0.00     0.167 HD
ATOM     61  C   UNL A   1      44.798  27.269  26.852  1.00  0.00     0.074 A 
ATOM     62  C   UNL A   1      44.633  25.927  26.337  1.00  0.00     0.031 C 
ATOM     63  C   UNL A   1      45.928  28.007  26.702  1.00  0.00     0.034 A 
BRANCH  50  64
ATOM     64  C   UNL A   1      45.614  33.643  29.268  1.00  0.00     0.023 A 
ATOM     65  C   UNL A   1      45.534  34.708  28.354  1.00  0.00     0.031 A 
ATOM     66  C   UNL A   1      46.357  33.840  30.445  1.00  0.00     0.131 A 
ATOM     67  C   UNL A   1      46.238  35.896  28.603  1.00  0.00     0.055 A 
ATOM     68  C   UNL A   1      46.982  35.055  30.728  1.00  0.00     0.041 A 
ATOM     69  F   UNL A   1      46.496  32.848  31.340  1.00  0.00    -0.206 F 
ATOM     70  C   UNL A   1      46.935  36.088  29.797  1.00  0.00     0.022 A 
BRANCH  67  71
ATOM     71  S   UNL A   1      46.348  37.130  27.277  1.00  0.00     0.124 S 
ATOM     72  O   UNL A   1      46.832  36.321  26.161  1.00  0.00    -0.237 OA
ATOM     73  O   UNL A   1      44.974  37.606  27.172  1.00  0.00    -0.237 OA
ATOM     74  O   UNL A   1      47.309  38.103  27.795  1.00  0.00    -0.744 OA
ENDBRANCH  67  71
ENDBRANCH  50  64
BRANCH  51  75
ATOM     75  C   UNL A   1      40.692  25.057  27.579  1.00  0.00     0.023 A 
ATOM     76  C   UNL A   1      41.307  23.804  27.748  1.00  0.00     0.031 A 
ATOM     77  C   UNL A   1      39.401  25.078  27.019  1.00  0.00     0.131 A 
ATOM     78  C   UNL A   1      40.662  22.638  27.303  1.00  0.00     0.055 A 
ATOM     79  C   UNL A   1      38.733  23.909  26.648  1.00  0.00     0.041 A 
ATOM     80  F   UNL A   1      38.768  26.244  26.814  1.00  0.00    -0.206 F 
ATOM     81  C   UNL A   1      39.372  22.680  26.772  1.00  0.00     0.022 A 
BRANCH  78  82
ATOM     82  S   UNL A   1      41.591  21.078  27.295  1.00  0.00     0.124 S 
ATOM     83  O   UNL A   1      40.722  20.214  28.088  1.00  0.00    -0.237 OA
ATOM     84  O   UNL A   1      41.668  20.777  25.870  1.00  0.00    -0.237 OA
ATOM     85  O   UNL A   1      42.860  21.434  27.926  1.00  0.00    -0.744 OA
ENDBRANCH  78  82
ENDBRANCH  51  75
BRANCH  63  86
ATOM     86  C   UNL A   1      47.096  27.354  25.997  1.00  0.00     0.023 A 
ATOM     87  C   UNL A   1      48.092  26.655  26.699  1.00  0.00     0.031 A 
ATOM     88  C   UNL A   1      47.216  27.444  24.599  1.00  0.00     0.131 A 
ATOM     89  C   UNL A   1      49.202  26.141  26.012  1.00  0.00     0.055 A 
ATOM     90  C   UNL A   1      48.280  26.857  23.910  1.00  0.00     0.041 A 
ATOM     91  F   UNL A   1      46.300  28.104  23.872  1.00  0.00    -0.206 F 
ATOM     92  C   UNL A   1      49.290  26.216  24.620  1.00  0.00     0.022 A 
BRANCH  89  93
ATOM     93  S   UNL A   1      50.596  25.493  26.975  1.00  0.00     0.124 S 
ATOM     94  O   UNL A   1      50.836  26.575  27.923  1.00  0.00    -0.237 OA
ATOM     95  O   UNL A   1      50.043  24.265  27.536  1.00  0.00    -0.237 OA
ATOM     96  O   UNL A   1      51.644  25.301  25.974  1.00  0.00    -0.744 OA
ENDBRANCH  89  93
ENDBRANCH  63  86
ENDBRANCH  37  38
ENDBRANCH  30  32
ENDBRANCH  29  30
ENDBRANCH  28  29
ENDBRANCH  27  28
ENDBRANCH  26  27
ENDBRANCH   1  26
TORSDOF 21
ENDMDL
MODEL 3
REMARK VINA RESULT:     -11.4      5.309     11.838
REMARK SMILES O=C(OCCOCCOCCOC(=O)c1ccc(-c2c3nc(c(-c4cc(S(=O)(=O)[O-])ccc4F)c4ccc([nH]4)c(-c4cc(S(=O)(=O)[O-])ccc4F)c4nc(c(-c5cc(S(=O)(=O)[O-])ccc5F)c5ccc2[nH]5)C=C4)C=C3)cc1)C1=Cc2cc(Cl)c(Cl)c(Cl)c2O[C@@H]1C(F)(F)F
REMARK SMILES IDX 8 1 7 2 6 3 5 4 4 5 3 6 2 7 1 8 78 9 79 10 90 11 80 12 89 13
REMARK SMILES IDX 81 14 88 15 82 16 86 17 83 18 84 19 87 20 85 21 91 22 92 23
REMARK SMILES IDX 93 24 94 25 9 26 10 27 11 28 12 29 13 30 14 31 15 32 16 33
REMARK SMILES IDX 77 34 17 35 76 36 18 37 19 38 20 39 70 40 21 41 75 42 69 43
REMARK SMILES IDX 71 44 22 45 74 46 68 47 67 48 23 50 55 51 35 52 54 53 36 54
REMARK SMILES IDX 39 55 53 56 72 57 37 58 38 59 52 61 73 62 40 63 24 64 25 65
REMARK SMILES IDX 33 66 26 67 32 68 34 69 31 70 27 71 28 72 29 73 30 74 56 75
REMARK SMILES IDX 57 76 65 77 58 78 64 79 66 80 63 81 59 82 60 83 61 84 62 85
REMARK SMILES IDX 41 86 42 87 50 88 43 89 49 90 51 91 48 92 44 93 45 94 46 95
REMARK SMILES IDX 47 96
REMARK H PARENT 71 49 39 60
REMARK Flexibility Score: inf
ROOT
ATOM      1  C   UNL A   1      41.493  21.086  26.115  1.00  0.00     0.188 C 
ENDROOT
BRANCH   1   2
ATOM      2  C   UNL A   1      41.419  21.354  27.624  1.00  0.00     0.188 C 
BRANCH   2   3
ATOM      3  O   UNL A   1      42.106  22.498  28.294  1.00  0.00    -0.376 OA
BRANCH   3   4
ATOM      4  C   UNL A   1      41.622  24.149  28.365  1.00  0.00     0.202 C 
BRANCH   4   5
ATOM      5  C   UNL A   1      39.608  24.874  28.005  1.00  0.00     0.261 C 
BRANCH   5   6
ATOM      6  O   UNL A   1      39.203  26.296  27.668  1.00  0.00    -0.460 OA
BRANCH   6   7
ATOM      7  C   UNL A   1      39.400  27.127  28.701  1.00  0.00     0.338 C 
ATOM      8  O   UNL A   1      39.247  26.903  29.875  1.00  0.00    -0.246 OA
BRANCH   7   9
ATOM      9  C   UNL A   1      39.351  28.366  27.941  1.00  0.00     0.087 C 
ATOM     10  C   UNL A   1      38.094  29.106  28.005  1.00  0.00     0.027 C 
ATOM     11  C   UNL A   1      41.023  28.989  28.643  1.00  0.00     0.316 C 
ATOM     12  C   UNL A   1      37.835  30.566  29.019  1.00  0.00     0.020 A 
ATOM     13  O   UNL A   1      40.738  30.468  29.890  1.00  0.00    -0.474 OA
ATOM     14  C   UNL A   1      36.580  31.097  29.099  1.00  0.00     0.034 A 
ATOM     15  C   UNL A   1      39.074  31.230  30.024  1.00  0.00     0.148 A 
ATOM     16  C   UNL A   1      36.432  32.176  29.997  1.00  0.00     0.062 A 
ATOM     17  C   UNL A   1      38.845  32.268  30.894  1.00  0.00     0.103 A 
ATOM     18  Cl  UNL A   1      34.805  32.813  30.060  1.00  0.00    -0.083 Cl
ATOM     19  C   UNL A   1      37.497  32.739  30.849  1.00  0.00     0.082 A 
ATOM     20  Cl  UNL A   1      40.025  32.860  31.975  1.00  0.00    -0.079 Cl
ATOM     21  Cl  UNL A   1      37.050  34.078  31.892  1.00  0.00    -0.081 Cl
BRANCH  11  22
ATOM     22  C   UNL A   1      41.751  28.888  27.122  1.00  0.00     0.430 C 
ATOM     23  F   UNL A   1      42.735  29.705  26.757  1.00  0.00    -0.167 F 
ATOM     24  F   UNL A   1      42.243  27.628  26.987  1.00  0.00    -0.167 F 
ATOM     25  F   UNL A   1      40.836  29.008  26.109  1.00  0.00    -0.167 F 
ENDBRANCH  11  22
ENDBRANCH   7   9
ENDBRANCH   6   7
ENDBRANCH   5   6
ENDBRANCH   4   5
ENDBRANCH   3   4
ENDBRANCH   2   3
ENDBRANCH   1   2
BRANCH   1  26
ATOM     26  O   UNL A   1      41.767  19.787  25.660  1.00  0.00    -0.376 OA
BRANCH  26  27
ATOM     27  C   UNL A   1      43.053  19.284  25.985  1.00  0.00     0.202 C 
BRANCH  27  28
ATOM     28  C   UNL A   1      44.217  19.606  25.034  1.00  0.00     0.261 C 
BRANCH  28  29
ATOM     29  O   UNL A   1      44.953  20.802  25.377  1.00  0.00    -0.460 OA
BRANCH  29  30
ATOM     30  C   UNL A   1      44.841  21.857  24.529  1.00  0.00     0.338 C 
ATOM     31  O   UNL A   1      44.528  21.819  23.352  1.00  0.00    -0.246 OA
BRANCH  30  32
ATOM     32  C   UNL A   1      45.019  23.119  25.278  1.00  0.00     0.060 A 
ATOM     33  C   UNL A   1      46.225  23.365  25.952  1.00  0.00     0.016 A 
ATOM     34  C   UNL A   1      43.967  24.032  25.363  1.00  0.00     0.016 A 
ATOM     35  C   UNL A   1      46.391  24.542  26.688  1.00  0.00     0.010 A 
ATOM     36  C   UNL A   1      44.118  25.185  26.138  1.00  0.00     0.010 A 
ATOM     37  C   UNL A   1      45.324  25.440  26.816  1.00  0.00    -0.014 A 
BRANCH  37  38
ATOM     38  C   UNL A   1      45.380  26.513  27.840  1.00  0.00     0.031 A 
ATOM     39  C   UNL A   1      45.199  26.115  29.280  1.00  0.00     0.074 A 
ATOM     40  C   UNL A   1      45.590  27.801  27.510  1.00  0.00     0.049 A 
ATOM     41  N   UNL A   1      45.153  26.861  30.352  1.00  0.00    -0.248 NA
ATOM     42  C   UNL A   1      45.044  24.675  29.539  1.00  0.00     0.031 C 
ATOM     43  C   UNL A   1      45.824  28.298  26.156  1.00  0.00     0.029 A 
ATOM     44  N   UNL A   1      45.634  28.930  28.293  1.00  0.00    -0.354 N 
ATOM     45  C   UNL A   1      44.967  25.982  31.413  1.00  0.00     0.074 A 
ATOM     46  C   UNL A   1      44.868  24.654  30.850  1.00  0.00     0.031 C 
ATOM     47  C   UNL A   1      45.980  29.633  26.202  1.00  0.00     0.029 A 
ATOM     48  C   UNL A   1      45.815  30.094  27.581  1.00  0.00     0.049 A 
ATOM     49  H   UNL A   1      45.543  28.907  29.273  1.00  0.00     0.167 HD
ATOM     50  C   UNL A   1      44.894  26.260  32.737  1.00  0.00     0.034 A 
ATOM     51  C   UNL A   1      45.819  31.379  27.996  1.00  0.00     0.034 A 
ATOM     52  C   UNL A   1      44.962  27.594  33.277  1.00  0.00     0.049 A 
ATOM     53  C   UNL A   1      45.623  31.671  29.469  1.00  0.00     0.074 A 
ATOM     54  C   UNL A   1      44.899  27.989  34.601  1.00  0.00     0.029 A 
ATOM     55  N   UNL A   1      45.089  28.752  32.521  1.00  0.00    -0.354 N 
ATOM     56  N   UNL A   1      45.465  30.828  30.467  1.00  0.00    -0.248 NA
ATOM     57  C   UNL A   1      45.615  33.082  29.874  1.00  0.00     0.031 C 
ATOM     58  C   UNL A   1      44.891  29.386  34.639  1.00  0.00     0.029 A 
ATOM     59  C   UNL A   1      45.061  29.864  33.350  1.00  0.00     0.049 A 
ATOM     60  H   UNL A   1      45.184  28.780  31.543  1.00  0.00     0.167 HD
ATOM     61  C   UNL A   1      45.378  31.612  31.618  1.00  0.00     0.074 A 
ATOM     62  C   UNL A   1      45.523  32.988  31.191  1.00  0.00     0.031 C 
ATOM     63  C   UNL A   1      45.200  31.232  32.909  1.00  0.00     0.034 A 
BRANCH  50  64
ATOM     64  C   UNL A   1      44.674  25.102  33.679  1.00  0.00     0.023 A 
ATOM     65  C   UNL A   1      45.716  24.226  34.030  1.00  0.00     0.031 A 
ATOM     66  C   UNL A   1      43.400  24.863  34.223  1.00  0.00     0.131 A 
ATOM     67  C   UNL A   1      45.450  23.117  34.848  1.00  0.00     0.055 A 
ATOM     68  C   UNL A   1      43.163  23.808  35.107  1.00  0.00     0.041 A 
ATOM     69  F   UNL A   1      42.360  25.647  33.899  1.00  0.00    -0.206 F 
ATOM     70  C   UNL A   1      44.189  22.920  35.413  1.00  0.00     0.022 A 
BRANCH  67  71
ATOM     71  S   UNL A   1      46.740  21.856  35.042  1.00  0.00     0.124 S 
ATOM     72  O   UNL A   1      46.845  21.763  36.495  1.00  0.00    -0.237 OA
ATOM     73  O   UNL A   1      46.158  20.702  34.368  1.00  0.00    -0.237 OA
ATOM     74  O   UNL A   1      47.899  22.448  34.376  1.00  0.00    -0.744 OA
ENDBRANCH  67  71
ENDBRANCH  50  64
BRANCH  51  75
ATOM     75  C   UNL A   1      45.964  32.504  27.020  1.00  0.00     0.023 A 
ATOM     76  C   UNL A   1      47.193  33.161  26.839  1.00  0.00     0.031 A 
ATOM     77  C   UNL A   1      44.849  33.004  26.322  1.00  0.00     0.131 A 
ATOM     78  C   UNL A   1      47.263  34.314  26.038  1.00  0.00     0.055 A 
ATOM     79  C   UNL A   1      44.940  34.106  25.468  1.00  0.00     0.041 A 
ATOM     80  F   UNL A   1      43.643  32.433  26.468  1.00  0.00    -0.206 F 
ATOM     81  C   UNL A   1      46.149  34.779  25.336  1.00  0.00     0.022 A 
BRANCH  78  82
ATOM     82  S   UNL A   1      48.798  35.284  26.040  1.00  0.00     0.124 S 
ATOM     83  O   UNL A   1      49.250  35.116  27.417  1.00  0.00    -0.237 OA
ATOM     84  O   UNL A   1      49.588  34.605  25.019  1.00  0.00    -0.237 OA
ATOM     85  O   UNL A   1      48.351  36.630  25.689  1.00  0.00    -0.744 OA
ENDBRANCH  78  82
ENDBRANCH  51  75
BRANCH  63  86
ATOM     86  C   UNL A   1      45.206  32.319  33.961  1.00  0.00     0.023 A 
ATOM     87  C   UNL A   1      44.027  32.965  34.370  1.00  0.00     0.031 A 
ATOM     88  C   UNL A   1      46.417  32.722  34.553  1.00  0.00     0.131 A 
ATOM     89  C   UNL A   1      44.093  34.028  35.283  1.00  0.00     0.055 A 
ATOM     90  C   UNL A   1      46.465  33.723  35.525  1.00  0.00     0.041 A 
ATOM     91  F   UNL A   1      47.577  32.147  34.200  1.00  0.00    -0.206 F 
ATOM     92  C   UNL A   1      45.300  34.395  35.883  1.00  0.00     0.022 A 
BRANCH  89  93
ATOM     93  S   UNL A   1      42.600  35.014  35.576  1.00  0.00     0.124 S 
ATOM     94  O   UNL A   1      42.882  36.224  34.812  1.00  0.00    -0.237 OA
ATOM     95  O   UNL A   1      41.548  34.155  35.043  1.00  0.00    -0.237 OA
ATOM     96  O   UNL A   1      42.582  35.187  37.027  1.00  0.00    -0.744 OA
ENDBRANCH  89  93
ENDBRANCH  63  86
ENDBRANCH  37  38
ENDBRANCH  30  32
ENDBRANCH  29  30
ENDBRANCH  28  29
ENDBRANCH  27  28
ENDBRANCH  26  27
ENDBRANCH   1  26
TORSDOF 21
ENDMDL
