MODEL 1
REMARK VINA RESULT:      -9.7      0.000      0.000
REMARK SMILES Cc1ccccc1NC(=O)C[NH+]1CCC(CC(=O)OCCOCCOCCOC(=O)c2ccc(-c3c4nc(c(-c5cc(S(=O)(=O)[O-])ccc5F)c5ccc([nH]5)c(-c5cc(S(=O)(=O)[O-])ccc5F)c5nc(c(-c6cc(S(=O)(=O)[O-])ccc6F)c6ccc3[nH]6)C=C5)C=C4)cc2)CC1
REMARK SMILES IDX 23 1 22 2 21 3 20 4 19 5 17 6 18 7 16 8 15 9 12 10 13 11
REMARK SMILES IDX 95 12 14 14 94 15 11 16 9 17 8 18 10 20 7 21 1 22 2 23 3 24
REMARK SMILES IDX 4 25 6 26 5 27 24 28 25 29 26 30 27 31 28 32 29 33 30 34
REMARK SMILES IDX 31 35 32 36 93 37 33 38 92 39 34 40 35 41 36 42 86 43 37 44
REMARK SMILES IDX 91 45 85 46 87 47 38 48 90 49 84 50 83 51 39 53 71 54 51 55
REMARK SMILES IDX 70 56 52 57 55 58 69 59 88 60 53 61 54 62 68 64 89 65 56 66
REMARK SMILES IDX 40 67 41 68 49 69 42 70 48 71 50 72 47 73 43 74 44 75 45 76
REMARK SMILES IDX 46 77 72 78 73 79 81 80 74 81 80 82 82 83 79 84 75 85 76 86
REMARK SMILES IDX 77 87 78 88 57 89 58 90 66 91 59 92 65 93 67 94 64 95 60 96
REMARK SMILES IDX 61 97 62 98 63 99
REMARK H PARENT 12 13 8 19 87 52 55 63
REMARK Flexibility Score: inf
ROOT
ATOM      1  C   UNL A   1      42.317  23.054  27.234  1.00  0.00     0.188 C 
ENDROOT
BRANCH   1   2
ATOM      2  O   UNL A   1      42.030  22.483  25.973  1.00  0.00    -0.376 OA
BRANCH   2   3
ATOM      3  C   UNL A   1      41.055  21.463  26.070  1.00  0.00     0.202 C 
BRANCH   3   4
ATOM      4  C   UNL A   1      39.618  21.773  26.594  1.00  0.00     0.261 C 
BRANCH   4   5
ATOM      5  O   UNL A   1      38.244  21.818  25.941  1.00  0.00    -0.463 OA
BRANCH   5   6
ATOM      6  C   UNL A   1      37.316  21.046  25.229  1.00  0.00     0.306 C 
ATOM      7  O   UNL A   1      37.769  20.022  24.695  1.00  0.00    -0.252 OA
BRANCH   6   8
ATOM      8  C   UNL A   1      35.659  21.186  25.123  1.00  0.00     0.126 C 
BRANCH   8   9
ATOM      9  C   UNL A   1      35.090  22.579  24.557  1.00  0.00     0.011 C 
ATOM     10  N   UNL A   1      34.234  25.289  23.721  1.00  0.00    -0.327 N 
ATOM     11  C   UNL A   1      34.375  24.914  25.123  1.00  0.00     0.262 C 
ATOM     12  C   UNL A   1      34.425  24.187  22.763  1.00  0.00     0.262 C 
ATOM     13  H   UNL A   1      35.031  25.886  23.504  1.00  0.00     0.348 HD
ATOM     14  C   UNL A   1      35.501  23.892  25.295  1.00  0.00     0.066 C 
ATOM     15  C   UNL A   1      35.403  23.022  23.115  1.00  0.00     0.066 C 
BRANCH  10  16
ATOM     16  C   UNL A   1      33.029  26.138  23.496  1.00  0.00     0.363 C 
BRANCH  16  17
ATOM     17  C   UNL A   1      31.923  25.562  22.575  1.00  0.00     0.279 C 
ATOM     18  N   UNL A   1      31.034  24.588  22.956  1.00  0.00    -0.321 N 
ATOM     19  H   UNL A   1      30.374  24.334  22.271  1.00  0.00     0.170 HD
ATOM     20  O   UNL A   1      31.791  26.011  21.426  1.00  0.00    -0.268 OA
BRANCH  18  21
ATOM     21  C   UNL A   1      30.923  23.896  24.173  1.00  0.00     0.044 A 
ATOM     22  C   UNL A   1      29.764  25.907  25.308  1.00  0.00     0.046 C 
ATOM     23  C   UNL A   1      30.455  24.569  25.318  1.00  0.00    -0.027 A 
ATOM     24  C   UNL A   1      30.728  24.005  26.579  1.00  0.00     0.005 A 
ATOM     25  C   UNL A   1      31.372  22.773  26.695  1.00  0.00     0.000 A 
ATOM     26  C   UNL A   1      31.418  22.592  24.298  1.00  0.00     0.026 A 
ATOM     27  C   UNL A   1      31.669  22.043  25.554  1.00  0.00     0.002 A 
ENDBRANCH  18  21
ENDBRANCH  16  17
ENDBRANCH  10  16
ENDBRANCH   8   9
ENDBRANCH   6   8
ENDBRANCH   5   6
ENDBRANCH   4   5
ENDBRANCH   3   4
ENDBRANCH   2   3
ENDBRANCH   1   2
BRANCH   1  28
ATOM     28  C   UNL A   1      42.886  24.474  27.156  1.00  0.00     0.188 C 
BRANCH  28  29
ATOM     29  O   UNL A   1      42.287  25.301  26.155  1.00  0.00    -0.376 OA
BRANCH  29  30
ATOM     30  C   UNL A   1      43.216  25.884  25.237  1.00  0.00     0.202 C 
BRANCH  30  31
ATOM     31  C   UNL A   1      42.862  27.361  25.081  1.00  0.00     0.261 C 
BRANCH  31  32
ATOM     32  O   UNL A   1      42.551  27.917  26.380  1.00  0.00    -0.460 OA
BRANCH  32  33
ATOM     33  C   UNL A   1      43.331  28.979  26.703  1.00  0.00     0.338 C 
ATOM     34  O   UNL A   1      44.481  29.141  26.316  1.00  0.00    -0.246 OA
BRANCH  33  35
ATOM     35  C   UNL A   1      42.660  29.764  27.776  1.00  0.00     0.060 A 
ATOM     36  C   UNL A   1      43.364  30.836  28.254  1.00  0.00     0.016 A 
ATOM     37  C   UNL A   1      41.513  29.366  28.486  1.00  0.00     0.016 A 
ATOM     38  C   UNL A   1      42.968  31.377  29.477  1.00  0.00     0.010 A 
ATOM     39  C   UNL A   1      41.141  29.985  29.721  1.00  0.00     0.010 A 
ATOM     40  C   UNL A   1      41.907  31.004  30.288  1.00  0.00    -0.014 A 
BRANCH  40  41
ATOM     41  C   UNL A   1      41.638  31.653  31.647  1.00  0.00     0.031 A 
ATOM     42  C   UNL A   1      42.252  31.025  32.868  1.00  0.00     0.074 A 
ATOM     43  C   UNL A   1      40.653  32.489  32.132  1.00  0.00     0.049 A 
ATOM     44  N   UNL A   1      41.723  31.087  34.056  1.00  0.00    -0.248 NA
ATOM     45  C   UNL A   1      43.448  30.190  32.817  1.00  0.00     0.031 C 
ATOM     46  C   UNL A   1      40.937  33.559  33.099  1.00  0.00     0.029 A 
ATOM     47  N   UNL A   1      39.305  32.717  31.882  1.00  0.00    -0.354 N 
ATOM     48  C   UNL A   1      42.688  30.685  34.931  1.00  0.00     0.074 A 
ATOM     49  C   UNL A   1      43.644  29.957  34.118  1.00  0.00     0.031 C 
ATOM     50  C   UNL A   1      39.821  34.265  33.352  1.00  0.00     0.029 A 
ATOM     51  C   UNL A   1      38.692  33.687  32.638  1.00  0.00     0.049 A 
ATOM     52  H   UNL A   1      38.814  32.209  31.197  1.00  0.00     0.167 HD
ATOM     53  C   UNL A   1      42.769  31.213  36.185  1.00  0.00     0.034 A 
ATOM     54  C   UNL A   1      37.350  33.868  32.829  1.00  0.00     0.034 A 
ATOM     55  C   UNL A   1      41.808  32.283  36.465  1.00  0.00     0.049 A 
ATOM     56  C   UNL A   1      37.077  33.904  34.308  1.00  0.00     0.074 A 
ATOM     57  C   UNL A   1      41.943  33.665  36.439  1.00  0.00     0.029 A 
ATOM     58  N   UNL A   1      40.461  32.043  36.698  1.00  0.00    -0.354 N 
ATOM     59  N   UNL A   1      38.032  33.699  35.161  1.00  0.00    -0.248 NA
ATOM     60  C   UNL A   1      35.775  34.003  34.960  1.00  0.00     0.031 C 
ATOM     61  C   UNL A   1      40.711  34.250  36.800  1.00  0.00     0.029 A 
ATOM     62  C   UNL A   1      39.805  33.230  37.011  1.00  0.00     0.049 A 
ATOM     63  H   UNL A   1      40.030  31.158  36.649  1.00  0.00     0.167 HD
ATOM     64  C   UNL A   1      37.533  33.560  36.416  1.00  0.00     0.074 A 
ATOM     65  C   UNL A   1      36.104  33.759  36.245  1.00  0.00     0.031 C 
ATOM     66  C   UNL A   1      38.399  33.248  37.421  1.00  0.00     0.034 A 
BRANCH  53  67
ATOM     67  C   UNL A   1      44.058  31.068  36.956  1.00  0.00     0.023 A 
ATOM     68  C   UNL A   1      44.342  29.860  37.616  1.00  0.00     0.031 A 
ATOM     69  C   UNL A   1      44.980  32.111  37.151  1.00  0.00     0.131 A 
ATOM     70  C   UNL A   1      45.383  29.770  38.548  1.00  0.00     0.055 A 
ATOM     71  C   UNL A   1      45.986  32.044  38.121  1.00  0.00     0.041 A 
ATOM     72  F   UNL A   1      44.913  33.237  36.423  1.00  0.00    -0.206 F 
ATOM     73  C   UNL A   1      46.174  30.874  38.848  1.00  0.00     0.022 A 
BRANCH  70  74
ATOM     74  S   UNL A   1      45.668  28.179  39.366  1.00  0.00     0.124 S 
ATOM     75  O   UNL A   1      45.614  28.545  40.778  1.00  0.00    -0.237 OA
ATOM     76  O   UNL A   1      44.560  27.373  38.866  1.00  0.00    -0.237 OA
ATOM     77  O   UNL A   1      46.988  27.784  38.879  1.00  0.00    -0.744 OA
ENDBRANCH  70  74
ENDBRANCH  53  67
BRANCH  54  78
ATOM     78  C   UNL A   1      36.335  33.413  31.820  1.00  0.00     0.023 A 
ATOM     79  C   UNL A   1      35.529  34.351  31.126  1.00  0.00     0.031 A 
ATOM     80  C   UNL A   1      36.208  32.068  31.440  1.00  0.00     0.131 A 
ATOM     81  C   UNL A   1      34.701  33.943  30.055  1.00  0.00     0.055 A 
ATOM     82  C   UNL A   1      35.385  31.665  30.378  1.00  0.00     0.041 A 
ATOM     83  F   UNL A   1      36.932  31.121  32.054  1.00  0.00    -0.206 F 
ATOM     84  C   UNL A   1      34.648  32.605  29.664  1.00  0.00     0.022 A 
BRANCH  81  85
ATOM     85  S   UNL A   1      33.701  35.126  29.090  1.00  0.00     0.124 S 
ATOM     86  O   UNL A   1      34.649  35.578  28.077  1.00  0.00    -0.237 OA
ATOM     87  O   UNL A   1      32.595  34.314  28.600  1.00  0.00    -0.237 OA
ATOM     88  O   UNL A   1      33.339  36.135  30.086  1.00  0.00    -0.744 OA
ENDBRANCH  81  85
ENDBRANCH  54  78
BRANCH  66  89
ATOM     89  C   UNL A   1      38.051  32.996  38.862  1.00  0.00     0.023 A 
ATOM     90  C   UNL A   1      38.452  33.825  39.915  1.00  0.00     0.031 A 
ATOM     91  C   UNL A   1      37.309  31.846  39.230  1.00  0.00     0.131 A 
ATOM     92  C   UNL A   1      38.058  33.556  41.238  1.00  0.00     0.055 A 
ATOM     93  C   UNL A   1      36.966  31.550  40.548  1.00  0.00     0.041 A 
ATOM     94  F   UNL A   1      36.864  30.967  38.320  1.00  0.00    -0.206 F 
ATOM     95  C   UNL A   1      37.323  32.418  41.564  1.00  0.00     0.022 A 
BRANCH  92  96
ATOM     96  S   UNL A   1      38.483  34.760  42.521  1.00  0.00     0.124 S 
ATOM     97  O   UNL A   1      39.844  34.371  42.878  1.00  0.00    -0.237 OA
ATOM     98  O   UNL A   1      38.354  36.024  41.802  1.00  0.00    -0.237 OA
ATOM     99  O   UNL A   1      37.477  34.531  43.556  1.00  0.00    -0.744 OA
ENDBRANCH  92  96
ENDBRANCH  66  89
ENDBRANCH  40  41
ENDBRANCH  33  35
ENDBRANCH  32  33
ENDBRANCH  31  32
ENDBRANCH  30  31
ENDBRANCH  29  30
ENDBRANCH  28  29
ENDBRANCH   1  28
TORSDOF 24
ENDMDL
MODEL 2
REMARK VINA RESULT:      -9.6      6.668     12.208
REMARK SMILES Cc1ccccc1NC(=O)C[NH+]1CCC(CC(=O)OCCOCCOCCOC(=O)c2ccc(-c3c4nc(c(-c5cc(S(=O)(=O)[O-])ccc5F)c5ccc([nH]5)c(-c5cc(S(=O)(=O)[O-])ccc5F)c5nc(c(-c6cc(S(=O)(=O)[O-])ccc6F)c6ccc3[nH]6)C=C5)C=C4)cc2)CC1
REMARK SMILES IDX 23 1 22 2 21 3 20 4 19 5 17 6 18 7 16 8 15 9 12 10 13 11
REMARK SMILES IDX 95 12 14 14 94 15 11 16 9 17 8 18 10 20 7 21 1 22 2 23 3 24
REMARK SMILES IDX 4 25 6 26 5 27 24 28 25 29 26 30 27 31 28 32 29 33 30 34
REMARK SMILES IDX 31 35 32 36 93 37 33 38 92 39 34 40 35 41 36 42 86 43 37 44
REMARK SMILES IDX 91 45 85 46 87 47 38 48 90 49 84 50 83 51 39 53 71 54 51 55
REMARK SMILES IDX 70 56 52 57 55 58 69 59 88 60 53 61 54 62 68 64 89 65 56 66
REMARK SMILES IDX 40 67 41 68 49 69 42 70 48 71 50 72 47 73 43 74 44 75 45 76
REMARK SMILES IDX 46 77 72 78 73 79 81 80 74 81 80 82 82 83 79 84 75 85 76 86
REMARK SMILES IDX 77 87 78 88 57 89 58 90 66 91 59 92 65 93 67 94 64 95 60 96
REMARK SMILES IDX 61 97 62 98 63 99
REMARK H PARENT 12 13 8 19 87 52 55 63
REMARK Flexibility Score: inf
ROOT
ATOM      1  C   UNL A   1      34.420  33.633  31.847  1.00  0.00     0.188 C 
ENDROOT
BRANCH   1   2
ATOM      2  O   UNL A   1      33.936  34.175  30.634  1.00  0.00    -0.376 OA
BRANCH   2   3
ATOM      3  C   UNL A   1      34.974  34.352  29.689  1.00  0.00     0.202 C 
BRANCH   3   4
ATOM      4  C   UNL A   1      34.848  33.781  28.242  1.00  0.00     0.261 C 
BRANCH   4   5
ATOM      5  O   UNL A   1      35.043  32.399  27.633  1.00  0.00    -0.463 OA
BRANCH   5   6
ATOM      6  C   UNL A   1      34.510  31.104  27.600  1.00  0.00     0.306 C 
ATOM      7  O   UNL A   1      33.272  31.034  27.626  1.00  0.00    -0.252 OA
BRANCH   6   8
ATOM      8  C   UNL A   1      35.264  29.638  27.356  1.00  0.00     0.126 C 
BRANCH   8   9
ATOM      9  C   UNL A   1      36.568  29.343  28.250  1.00  0.00     0.011 C 
ATOM     10  N   UNL A   1      39.125  28.997  29.705  1.00  0.00    -0.327 N 
ATOM     11  C   UNL A   1      39.047  28.975  28.249  1.00  0.00     0.262 C 
ATOM     12  C   UNL A   1      37.825  29.076  30.394  1.00  0.00     0.262 C 
ATOM     13  H   UNL A   1      39.541  29.894  29.955  1.00  0.00     0.348 HD
ATOM     14  C   UNL A   1      37.937  29.907  27.757  1.00  0.00     0.066 C 
ATOM     15  C   UNL A   1      36.637  29.826  29.711  1.00  0.00     0.066 C 
BRANCH  10  16
ATOM     16  C   UNL A   1      40.067  27.964  30.223  1.00  0.00     0.363 C 
BRANCH  16  17
ATOM     17  C   UNL A   1      41.536  28.403  30.454  1.00  0.00     0.279 C 
ATOM     18  N   UNL A   1      42.528  28.299  29.512  1.00  0.00    -0.321 N 
ATOM     19  H   UNL A   1      43.409  28.637  29.794  1.00  0.00     0.170 HD
ATOM     20  O   UNL A   1      41.857  28.909  31.540  1.00  0.00    -0.268 OA
BRANCH  18  21
ATOM     21  C   UNL A   1      42.479  27.785  28.206  1.00  0.00     0.044 A 
ATOM     22  C   UNL A   1      42.843  30.128  27.178  1.00  0.00     0.046 C 
ATOM     23  C   UNL A   1      42.485  28.667  27.108  1.00  0.00    -0.027 A 
ATOM     24  C   UNL A   1      42.035  28.182  25.865  1.00  0.00     0.005 A 
ATOM     25  C   UNL A   1      41.671  26.847  25.698  1.00  0.00     0.000 A 
ATOM     26  C   UNL A   1      42.269  26.418  27.987  1.00  0.00     0.026 A 
ATOM     27  C   UNL A   1      41.838  25.953  26.746  1.00  0.00     0.002 A 
ENDBRANCH  18  21
ENDBRANCH  16  17
ENDBRANCH  10  16
ENDBRANCH   8   9
ENDBRANCH   6   8
ENDBRANCH   5   6
ENDBRANCH   4   5
ENDBRANCH   3   4
ENDBRANCH   2   3
ENDBRANCH   1   2
BRANCH   1  28
ATOM     28  C   UNL A   1      35.171  34.644  32.720  1.00  0.00     0.188 C 
BRANCH  28  29
ATOM     29  O   UNL A   1      34.888  34.547  34.118  1.00  0.00    -0.376 OA
BRANCH  29  30
ATOM     30  C   UNL A   1      35.874  33.834  34.871  1.00  0.00     0.202 C 
BRANCH  30  31
ATOM     31  C   UNL A   1      37.216  33.988  34.158  1.00  0.00     0.261 C 
BRANCH  31  32
ATOM     32  O   UNL A   1      38.065  32.866  34.493  1.00  0.00    -0.460 OA
BRANCH  32  33
ATOM     33  C   UNL A   1      38.336  32.071  33.427  1.00  0.00     0.338 C 
ATOM     34  O   UNL A   1      38.061  30.880  33.358  1.00  0.00    -0.246 OA
BRANCH  33  35
ATOM     35  C   UNL A   1      39.224  32.809  32.486  1.00  0.00     0.060 A 
ATOM     36  C   UNL A   1      39.166  32.408  31.179  1.00  0.00     0.016 A 
ATOM     37  C   UNL A   1      40.259  33.687  32.855  1.00  0.00     0.016 A 
ATOM     38  C   UNL A   1      40.209  32.795  30.337  1.00  0.00     0.010 A 
ATOM     39  C   UNL A   1      41.282  34.073  31.933  1.00  0.00     0.010 A 
ATOM     40  C   UNL A   1      41.309  33.586  30.626  1.00  0.00    -0.014 A 
BRANCH  40  41
ATOM     41  C   UNL A   1      42.415  33.869  29.606  1.00  0.00     0.031 A 
ATOM     42  C   UNL A   1      43.694  33.086  29.710  1.00  0.00     0.074 A 
ATOM     43  C   UNL A   1      42.718  34.942  28.794  1.00  0.00     0.049 A 
ATOM     44  N   UNL A   1      44.853  33.542  29.330  1.00  0.00    -0.248 NA
ATOM     45  C   UNL A   1      43.777  31.778  30.352  1.00  0.00     0.031 C 
ATOM     46  C   UNL A   1      43.257  34.772  27.437  1.00  0.00     0.029 A 
ATOM     47  N   UNL A   1      42.561  36.322  28.839  1.00  0.00    -0.354 N 
ATOM     48  C   UNL A   1      45.697  32.471  29.292  1.00  0.00     0.074 A 
ATOM     49  C   UNL A   1      45.054  31.465  30.115  1.00  0.00     0.031 C 
ATOM     50  C   UNL A   1      43.398  35.969  26.840  1.00  0.00     0.029 A 
ATOM     51  C   UNL A   1      43.034  37.034  27.763  1.00  0.00     0.049 A 
ATOM     52  H   UNL A   1      42.132  36.768  29.604  1.00  0.00     0.167 HD
ATOM     53  C   UNL A   1      46.702  32.396  28.374  1.00  0.00     0.034 A 
ATOM     54  C   UNL A   1      43.308  38.372  27.706  1.00  0.00     0.034 A 
ATOM     55  C   UNL A   1      46.735  33.497  27.406  1.00  0.00     0.049 A 
ATOM     56  C   UNL A   1      44.720  38.553  27.220  1.00  0.00     0.074 A 
ATOM     57  C   UNL A   1      46.258  33.586  26.106  1.00  0.00     0.029 A 
ATOM     58  N   UNL A   1      47.181  34.770  27.731  1.00  0.00    -0.354 N 
ATOM     59  N   UNL A   1      45.481  37.525  27.006  1.00  0.00    -0.248 NA
ATOM     60  C   UNL A   1      45.449  39.810  27.083  1.00  0.00     0.031 C 
ATOM     61  C   UNL A   1      46.551  34.871  25.600  1.00  0.00     0.029 A 
ATOM     62  C   UNL A   1      47.174  35.586  26.604  1.00  0.00     0.049 A 
ATOM     63  H   UNL A   1      47.463  35.056  28.631  1.00  0.00     0.167 HD
ATOM     64  C   UNL A   1      46.763  37.915  26.788  1.00  0.00     0.074 A 
ATOM     65  C   UNL A   1      46.700  39.365  26.844  1.00  0.00     0.031 C 
ATOM     66  C   UNL A   1      47.712  36.948  26.635  1.00  0.00     0.034 A 
BRANCH  53  67
ATOM     67  C   UNL A   1      47.329  31.054  28.086  1.00  0.00     0.023 A 
ATOM     68  C   UNL A   1      46.944  30.338  26.941  1.00  0.00     0.031 A 
ATOM     69  C   UNL A   1      48.225  30.403  28.951  1.00  0.00     0.131 A 
ATOM     70  C   UNL A   1      47.295  28.992  26.774  1.00  0.00     0.055 A 
ATOM     71  C   UNL A   1      48.534  29.044  28.818  1.00  0.00     0.041 A 
ATOM     72  F   UNL A   1      48.806  31.061  29.967  1.00  0.00    -0.206 F 
ATOM     73  C   UNL A   1      48.043  28.322  27.736  1.00  0.00     0.022 A 
BRANCH  70  74
ATOM     74  S   UNL A   1      46.741  28.139  25.276  1.00  0.00     0.124 S 
ATOM     75  O   UNL A   1      45.512  27.492  25.726  1.00  0.00    -0.237 OA
ATOM     76  O   UNL A   1      46.581  29.242  24.335  1.00  0.00    -0.237 OA
ATOM     77  O   UNL A   1      47.846  27.230  24.980  1.00  0.00    -0.744 OA
ENDBRANCH  70  74
ENDBRANCH  53  67
BRANCH  54  78
ATOM     78  C   UNL A   1      42.616  39.363  28.597  1.00  0.00     0.023 A 
ATOM     79  C   UNL A   1      43.145  39.687  29.872  1.00  0.00     0.031 A 
ATOM     80  C   UNL A   1      41.490  40.088  28.179  1.00  0.00     0.131 A 
ATOM     81  C   UNL A   1      42.599  40.744  30.637  1.00  0.00     0.055 A 
ATOM     82  C   UNL A   1      40.948  41.135  28.939  1.00  0.00     0.041 A 
ATOM     83  F   UNL A   1      40.927  39.836  26.988  1.00  0.00    -0.206 F 
ATOM     84  C   UNL A   1      41.517  41.484  30.160  1.00  0.00     0.022 A 
BRANCH  81  85
ATOM     85  S   UNL A   1      43.293  41.239  32.251  1.00  0.00     0.124 S 
ATOM     86  O   UNL A   1      44.423  40.327  32.394  1.00  0.00    -0.237 OA
ATOM     87  O   UNL A   1      43.637  42.642  32.055  1.00  0.00    -0.237 OA
ATOM     88  O   UNL A   1      42.184  40.993  33.172  1.00  0.00    -0.744 OA
ENDBRANCH  81  85
ENDBRANCH  54  78
BRANCH  66  89
ATOM     89  C   UNL A   1      49.188  37.160  26.442  1.00  0.00     0.023 A 
ATOM     90  C   UNL A   1      50.009  37.809  27.372  1.00  0.00     0.031 A 
ATOM     91  C   UNL A   1      49.824  36.732  25.250  1.00  0.00     0.131 A 
ATOM     92  C   UNL A   1      51.391  37.939  27.149  1.00  0.00     0.055 A 
ATOM     93  C   UNL A   1      51.185  36.911  25.005  1.00  0.00     0.041 A 
ATOM     94  F   UNL A   1      49.155  36.098  24.276  1.00  0.00    -0.206 F 
ATOM     95  C   UNL A   1      51.984  37.502  25.967  1.00  0.00     0.022 A 
BRANCH  92  96
ATOM     96  S   UNL A   1      52.408  38.648  28.467  1.00  0.00     0.124 S 
ATOM     97  O   UNL A   1      53.547  37.737  28.509  1.00  0.00    -0.237 OA
ATOM     98  O   UNL A   1      52.686  39.984  27.947  1.00  0.00    -0.237 OA
ATOM     99  O   UNL A   1      51.535  38.609  29.638  1.00  0.00    -0.744 OA
ENDBRANCH  92  96
ENDBRANCH  66  89
ENDBRANCH  40  41
ENDBRANCH  33  35
ENDBRANCH  32  33
ENDBRANCH  31  32
ENDBRANCH  30  31
ENDBRANCH  29  30
ENDBRANCH  28  29
ENDBRANCH   1  28
TORSDOF 24
ENDMDL
MODEL 3
REMARK VINA RESULT:      -9.6      2.336      7.714
REMARK SMILES Cc1ccccc1NC(=O)C[NH+]1CCC(CC(=O)OCCOCCOCCOC(=O)c2ccc(-c3c4nc(c(-c5cc(S(=O)(=O)[O-])ccc5F)c5ccc([nH]5)c(-c5cc(S(=O)(=O)[O-])ccc5F)c5nc(c(-c6cc(S(=O)(=O)[O-])ccc6F)c6ccc3[nH]6)C=C5)C=C4)cc2)CC1
REMARK SMILES IDX 23 1 22 2 21 3 20 4 19 5 17 6 18 7 16 8 15 9 12 10 13 11
REMARK SMILES IDX 95 12 14 14 94 15 11 16 9 17 8 18 10 20 7 21 1 22 2 23 3 24
REMARK SMILES IDX 4 25 6 26 5 27 24 28 25 29 26 30 27 31 28 32 29 33 30 34
REMARK SMILES IDX 31 35 32 36 93 37 33 38 92 39 34 40 35 41 36 42 86 43 37 44
REMARK SMILES IDX 91 45 85 46 87 47 38 48 90 49 84 50 83 51 39 53 71 54 51 55
REMARK SMILES IDX 70 56 52 57 55 58 69 59 88 60 53 61 54 62 68 64 89 65 56 66
REMARK SMILES IDX 40 67 41 68 49 69 42 70 48 71 50 72 47 73 43 74 44 75 45 76
REMARK SMILES IDX 46 77 72 78 73 79 81 80 74 81 80 82 82 83 79 84 75 85 76 86
REMARK SMILES IDX 77 87 78 88 57 89 58 90 66 91 59 92 65 93 67 94 64 95 60 96
REMARK SMILES IDX 61 97 62 98 63 99
REMARK H PARENT 12 13 8 19 87 52 55 63
REMARK Flexibility Score: inf
ROOT
ATOM      1  C   UNL A   1      43.069  22.063  26.563  1.00  0.00     0.188 C 
ENDROOT
BRANCH   1   2
ATOM      2  O   UNL A   1      42.720  21.247  25.463  1.00  0.00    -0.376 OA
BRANCH   2   3
ATOM      3  C   UNL A   1      42.407  19.928  25.868  1.00  0.00     0.202 C 
BRANCH   3   4
ATOM      4  C   UNL A   1      40.936  19.517  26.192  1.00  0.00     0.261 C 
BRANCH   4   5
ATOM      5  O   UNL A   1      39.634  19.551  25.405  1.00  0.00    -0.463 OA
BRANCH   5   6
ATOM      6  C   UNL A   1      38.443  20.271  25.240  1.00  0.00     0.306 C 
ATOM      7  O   UNL A   1      37.440  19.594  24.971  1.00  0.00    -0.252 OA
BRANCH   6   8
ATOM      8  C   UNL A   1      38.116  21.881  25.518  1.00  0.00     0.126 C 
BRANCH   8   9
ATOM      9  C   UNL A   1      36.602  22.362  25.261  1.00  0.00     0.011 C 
ATOM     10  N   UNL A   1      33.907  23.531  24.888  1.00  0.00    -0.327 N 
ATOM     11  C   UNL A   1      34.704  23.777  26.084  1.00  0.00     0.262 C 
ATOM     12  C   UNL A   1      34.487  22.560  23.944  1.00  0.00     0.262 C 
ATOM     13  H   UNL A   1      33.941  24.391  24.340  1.00  0.00     0.348 HD
ATOM     14  C   UNL A   1      36.196  23.790  25.740  1.00  0.00     0.066 C 
ATOM     15  C   UNL A   1      36.040  22.434  23.829  1.00  0.00     0.066 C 
BRANCH  10  16
ATOM     16  C   UNL A   1      32.467  23.328  25.217  1.00  0.00     0.363 C 
BRANCH  16  17
ATOM     17  C   UNL A   1      31.867  24.216  26.337  1.00  0.00     0.279 C 
ATOM     18  N   UNL A   1      31.710  25.576  26.240  1.00  0.00    -0.321 N 
ATOM     19  H   UNL A   1      31.296  26.006  27.024  1.00  0.00     0.170 HD
ATOM     20  O   UNL A   1      31.470  23.689  27.387  1.00  0.00    -0.268 OA
BRANCH  18  21
ATOM     21  C   UNL A   1      32.049  26.450  25.193  1.00  0.00     0.044 A 
ATOM     22  C   UNL A   1      29.771  26.078  24.031  1.00  0.00     0.046 C 
ATOM     23  C   UNL A   1      31.192  26.573  24.083  1.00  0.00    -0.027 A 
ATOM     24  C   UNL A   1      31.719  27.114  22.894  1.00  0.00     0.005 A 
ATOM     25  C   UNL A   1      33.028  27.592  22.836  1.00  0.00     0.000 A 
ATOM     26  C   UNL A   1      33.299  27.079  25.170  1.00  0.00     0.026 A 
ATOM     27  C   UNL A   1      33.800  27.623  23.988  1.00  0.00     0.002 A 
ENDBRANCH  18  21
ENDBRANCH  16  17
ENDBRANCH  10  16
ENDBRANCH   8   9
ENDBRANCH   6   8
ENDBRANCH   5   6
ENDBRANCH   4   5
ENDBRANCH   3   4
ENDBRANCH   2   3
ENDBRANCH   1   2
BRANCH   1  28
ATOM     28  C   UNL A   1      44.445  22.723  26.433  1.00  0.00     0.188 C 
BRANCH  28  29
ATOM     29  O   UNL A   1      44.786  23.130  25.105  1.00  0.00    -0.376 OA
BRANCH  29  30
ATOM     30  C   UNL A   1      45.123  24.515  24.981  1.00  0.00     0.202 C 
BRANCH  30  31
ATOM     31  C   UNL A   1      43.826  25.321  24.991  1.00  0.00     0.261 C 
BRANCH  31  32
ATOM     32  O   UNL A   1      44.119  26.692  25.347  1.00  0.00    -0.460 OA
BRANCH  32  33
ATOM     33  C   UNL A   1      43.006  27.460  25.460  1.00  0.00     0.338 C 
ATOM     34  O   UNL A   1      42.483  28.068  24.536  1.00  0.00    -0.246 OA
BRANCH  33  35
ATOM     35  C   UNL A   1      42.684  27.636  26.903  1.00  0.00     0.060 A 
ATOM     36  C   UNL A   1      41.382  27.399  27.253  1.00  0.00     0.016 A 
ATOM     37  C   UNL A   1      43.518  28.241  27.861  1.00  0.00     0.016 A 
ATOM     38  C   UNL A   1      40.943  27.888  28.483  1.00  0.00     0.010 A 
ATOM     39  C   UNL A   1      43.012  28.692  29.121  1.00  0.00     0.010 A 
ATOM     40  C   UNL A   1      41.664  28.566  29.454  1.00  0.00    -0.014 A 
BRANCH  40  41
ATOM     41  C   UNL A   1      41.021  29.105  30.735  1.00  0.00     0.031 A 
ATOM     42  C   UNL A   1      40.113  30.298  30.624  1.00  0.00     0.074 A 
ATOM     43  C   UNL A   1      41.335  29.016  32.075  1.00  0.00     0.049 A 
ATOM     44  N   UNL A   1      39.946  31.169  31.578  1.00  0.00    -0.248 NA
ATOM     45  C   UNL A   1      39.415  30.657  29.394  1.00  0.00     0.031 C 
ATOM     46  C   UNL A   1      40.304  28.899  33.117  1.00  0.00     0.029 A 
ATOM     47  N   UNL A   1      42.489  28.896  32.839  1.00  0.00    -0.354 N 
ATOM     48  C   UNL A   1      38.851  31.908  31.240  1.00  0.00     0.074 A 
ATOM     49  C   UNL A   1      38.689  31.697  29.814  1.00  0.00     0.031 C 
ATOM     50  C   UNL A   1      40.878  28.761  34.325  1.00  0.00     0.029 A 
ATOM     51  C   UNL A   1      42.326  28.843  34.203  1.00  0.00     0.049 A 
ATOM     52  H   UNL A   1      43.380  28.849  32.425  1.00  0.00     0.167 HD
ATOM     53  C   UNL A   1      38.011  32.403  32.193  1.00  0.00     0.034 A 
ATOM     54  C   UNL A   1      43.273  29.062  35.163  1.00  0.00     0.034 A 
ATOM     55  C   UNL A   1      38.333  32.004  33.565  1.00  0.00     0.049 A 
ATOM     56  C   UNL A   1      42.762  30.114  36.110  1.00  0.00     0.074 A 
ATOM     57  C   UNL A   1      37.815  31.000  34.372  1.00  0.00     0.029 A 
ATOM     58  N   UNL A   1      39.393  32.547  34.277  1.00  0.00    -0.354 N 
ATOM     59  N   UNL A   1      41.627  30.702  35.894  1.00  0.00    -0.248 NA
ATOM     60  C   UNL A   1      43.477  30.706  37.236  1.00  0.00     0.031 C 
ATOM     61  C   UNL A   1      38.467  31.038  35.623  1.00  0.00     0.029 A 
ATOM     62  C   UNL A   1      39.415  32.041  35.573  1.00  0.00     0.049 A 
ATOM     63  H   UNL A   1      40.039  33.198  33.916  1.00  0.00     0.167 HD
ATOM     64  C   UNL A   1      41.463  31.754  36.735  1.00  0.00     0.074 A 
ATOM     65  C   UNL A   1      42.653  31.722  37.567  1.00  0.00     0.031 C 
ATOM     66  C   UNL A   1      40.358  32.538  36.578  1.00  0.00     0.034 A 
BRANCH  53  67
ATOM     67  C   UNL A   1      36.624  32.838  31.787  1.00  0.00     0.023 A 
ATOM     68  C   UNL A   1      36.301  32.951  30.424  1.00  0.00     0.031 A 
ATOM     69  C   UNL A   1      35.629  33.243  32.693  1.00  0.00     0.131 A 
ATOM     70  C   UNL A   1      35.131  33.596  30.006  1.00  0.00     0.055 A 
ATOM     71  C   UNL A   1      34.485  33.937  32.283  1.00  0.00     0.041 A 
ATOM     72  F   UNL A   1      35.753  33.001  34.008  1.00  0.00    -0.206 F 
ATOM     73  C   UNL A   1      34.245  34.142  30.929  1.00  0.00     0.022 A 
BRANCH  70  74
ATOM     74  S   UNL A   1      34.802  33.713  28.229  1.00  0.00     0.124 S 
ATOM     75  O   UNL A   1      34.916  35.149  27.989  1.00  0.00    -0.237 OA
ATOM     76  O   UNL A   1      35.857  32.879  27.665  1.00  0.00    -0.237 OA
ATOM     77  O   UNL A   1      33.451  33.170  28.102  1.00  0.00    -0.744 OA
ENDBRANCH  70  74
ENDBRANCH  53  67
BRANCH  54  78
ATOM     78  C   UNL A   1      44.735  28.837  34.904  1.00  0.00     0.023 A 
ATOM     79  C   UNL A   1      45.327  27.570  35.138  1.00  0.00     0.031 A 
ATOM     80  C   UNL A   1      45.554  29.818  34.325  1.00  0.00     0.131 A 
ATOM     81  C   UNL A   1      46.655  27.304  34.731  1.00  0.00     0.055 A 
ATOM     82  C   UNL A   1      46.871  29.553  33.923  1.00  0.00     0.041 A 
ATOM     83  F   UNL A   1      45.068  31.044  34.078  1.00  0.00    -0.206 F 
ATOM     84  C   UNL A   1      47.419  28.286  34.101  1.00  0.00     0.022 A 
BRANCH  81  85
ATOM     85  S   UNL A   1      47.433  25.667  34.950  1.00  0.00     0.124 S 
ATOM     86  O   UNL A   1      48.367  25.913  36.044  1.00  0.00    -0.237 OA
ATOM     87  O   UNL A   1      46.307  24.798  35.268  1.00  0.00    -0.237 OA
ATOM     88  O   UNL A   1      48.059  25.426  33.650  1.00  0.00    -0.744 OA
ENDBRANCH  81  85
ENDBRANCH  54  78
BRANCH  66  89
ATOM     89  C   UNL A   1      40.015  33.775  37.360  1.00  0.00     0.023 A 
ATOM     90  C   UNL A   1      39.480  33.753  38.654  1.00  0.00     0.031 A 
ATOM     91  C   UNL A   1      40.187  35.058  36.785  1.00  0.00     0.131 A 
ATOM     92  C   UNL A   1      39.219  34.948  39.347  1.00  0.00     0.055 A 
ATOM     93  C   UNL A   1      39.876  36.241  37.453  1.00  0.00     0.041 A 
ATOM     94  F   UNL A   1      40.689  35.222  35.552  1.00  0.00    -0.206 F 
ATOM     95  C   UNL A   1      39.405  36.194  38.752  1.00  0.00     0.022 A 
BRANCH  92  96
ATOM     96  S   UNL A   1      38.678  34.837  41.071  1.00  0.00     0.124 S 
ATOM     97  O   UNL A   1      39.841  34.249  41.728  1.00  0.00    -0.237 OA
ATOM     98  O   UNL A   1      38.410  36.236  41.393  1.00  0.00    -0.237 OA
ATOM     99  O   UNL A   1      37.497  33.979  41.009  1.00  0.00    -0.744 OA
ENDBRANCH  92  96
ENDBRANCH  66  89
ENDBRANCH  40  41
ENDBRANCH  33  35
ENDBRANCH  32  33
ENDBRANCH  31  32
ENDBRANCH  30  31
ENDBRANCH  29  30
ENDBRANCH  28  29
ENDBRANCH   1  28
TORSDOF 24
ENDMDL
