MODEL 1
REMARK VINA RESULT:     -10.3      0.000      0.000
REMARK SMILES O=C(OCCOCCOCCOC(=O)[C@H]1CC[C@H]2CCCC[C@@H]2N1C(=O)c1ccn[nH]1)c1ccc(-c2c3nc(c(-c4cc(S(=O)(=O)[O-])ccc4F)c4ccc([nH]4)c(-c4cc(S(=O)(=O)[O-])ccc4F)c4nc(c(-c5cc(S(=O)(=O)[O-])ccc5F)c5ccc2[nH]5)C=C4)C=C3)cc1
REMARK SMILES IDX 7 1 6 2 5 3 4 4 3 5 2 6 1 7 32 8 33 9 94 10 34 11 93 12
REMARK SMILES IDX 35 13 36 14 37 15 87 16 38 17 92 18 86 19 88 20 39 21 91 22
REMARK SMILES IDX 85 23 84 24 40 26 72 27 52 28 71 29 53 30 56 31 70 32 89 33
REMARK SMILES IDX 54 34 55 35 69 37 90 38 57 39 41 40 42 41 50 42 43 43 49 44
REMARK SMILES IDX 51 45 48 46 44 47 45 48 46 49 47 50 73 51 74 52 82 53 75 54
REMARK SMILES IDX 81 55 83 56 80 57 76 58 77 59 78 60 79 61 58 62 59 63 67 64
REMARK SMILES IDX 60 65 66 66 68 67 65 68 61 69 62 70 63 71 64 72 8 73 9 74
REMARK SMILES IDX 10 75 11 76 12 77 13 78 14 79 15 80 16 81 24 82 17 83 23 84
REMARK SMILES IDX 18 85 22 86 19 87 21 88 20 89 25 90 26 91 27 92 28 93 31 94
REMARK SMILES IDX 29 95 30 96
REMARK H PARENT 88 25 56 36 31 97
REMARK Flexibility Score: inf
ROOT
ATOM      1  C   UNL A   1      31.197  29.349  23.694  1.00  0.00     0.188 C 
ENDROOT
BRANCH   1   2
ATOM      2  O   UNL A   1      30.816  29.812  24.994  1.00  0.00    -0.376 OA
BRANCH   2   3
ATOM      3  C   UNL A   1      31.864  30.471  25.702  1.00  0.00     0.202 C 
BRANCH   3   4
ATOM      4  C   UNL A   1      33.110  29.608  25.933  1.00  0.00     0.261 C 
BRANCH   4   5
ATOM      5  O   UNL A   1      33.643  29.777  27.258  1.00  0.00    -0.460 OA
BRANCH   5   6
ATOM      6  C   UNL A   1      34.658  30.610  27.605  1.00  0.00     0.338 C 
ATOM      7  O   UNL A   1      34.497  31.829  27.562  1.00  0.00    -0.246 OA
BRANCH   6   8
ATOM      8  C   UNL A   1      35.938  30.088  28.156  1.00  0.00     0.060 A 
ATOM      9  C   UNL A   1      36.044  29.487  29.411  1.00  0.00     0.016 A 
ATOM     10  C   UNL A   1      37.068  30.138  27.330  1.00  0.00     0.016 A 
ATOM     11  C   UNL A   1      37.279  29.050  29.888  1.00  0.00     0.010 A 
ATOM     12  C   UNL A   1      38.291  29.623  27.773  1.00  0.00     0.010 A 
ATOM     13  C   UNL A   1      38.411  29.092  29.067  1.00  0.00    -0.014 A 
BRANCH  13  14
ATOM     14  C   UNL A   1      39.712  28.569  29.556  1.00  0.00     0.031 A 
ATOM     15  C   UNL A   1      40.484  29.335  30.589  1.00  0.00     0.074 A 
ATOM     16  C   UNL A   1      40.195  27.406  29.073  1.00  0.00     0.049 A 
ATOM     17  N   UNL A   1      41.690  29.127  31.044  1.00  0.00    -0.248 NA
ATOM     18  C   UNL A   1      39.800  30.490  31.193  1.00  0.00     0.031 C 
ATOM     19  C   UNL A   1      39.499  26.539  28.123  1.00  0.00     0.029 A 
ATOM     20  N   UNL A   1      41.384  26.759  29.295  1.00  0.00    -0.354 N 
ATOM     21  C   UNL A   1      41.917  30.124  31.985  1.00  0.00     0.074 A 
ATOM     22  C   UNL A   1      40.734  30.957  32.009  1.00  0.00     0.031 C 
ATOM     23  C   UNL A   1      40.284  25.494  27.816  1.00  0.00     0.029 A 
ATOM     24  C   UNL A   1      41.559  25.648  28.502  1.00  0.00     0.049 A 
ATOM     25  H   UNL A   1      42.047  27.059  29.958  1.00  0.00     0.167 HD
ATOM     26  C   UNL A   1      43.010  30.315  32.765  1.00  0.00     0.034 A 
ATOM     27  C   UNL A   1      42.642  24.873  28.300  1.00  0.00     0.034 A 
ATOM     28  C   UNL A   1      44.180  29.474  32.720  1.00  0.00     0.049 A 
ATOM     29  C   UNL A   1      43.891  25.182  29.074  1.00  0.00     0.074 A 
ATOM     30  C   UNL A   1      45.339  29.556  33.471  1.00  0.00     0.029 A 
ATOM     31  N   UNL A   1      44.344  28.397  31.856  1.00  0.00    -0.354 N 
ATOM     32  N   UNL A   1      44.095  26.133  29.955  1.00  0.00    -0.248 NA
ATOM     33  C   UNL A   1      45.053  24.319  28.829  1.00  0.00     0.031 C 
ATOM     34  C   UNL A   1      46.223  28.566  33.023  1.00  0.00     0.029 A 
ATOM     35  C   UNL A   1      45.597  27.833  32.027  1.00  0.00     0.049 A 
ATOM     36  H   UNL A   1      43.666  28.081  31.215  1.00  0.00     0.167 HD
ATOM     37  C   UNL A   1      45.408  25.977  30.380  1.00  0.00     0.074 A 
ATOM     38  C   UNL A   1      45.942  24.833  29.667  1.00  0.00     0.031 C 
ATOM     39  C   UNL A   1      46.109  26.708  31.283  1.00  0.00     0.034 A 
BRANCH  26  40
ATOM     40  C   UNL A   1      42.994  31.513  33.678  1.00  0.00     0.023 A 
ATOM     41  C   UNL A   1      42.457  31.444  34.977  1.00  0.00     0.031 A 
ATOM     42  C   UNL A   1      43.457  32.758  33.218  1.00  0.00     0.131 A 
ATOM     43  C   UNL A   1      42.326  32.615  35.741  1.00  0.00     0.055 A 
ATOM     44  C   UNL A   1      43.387  33.906  34.010  1.00  0.00     0.041 A 
ATOM     45  F   UNL A   1      43.957  32.885  31.979  1.00  0.00    -0.206 F 
ATOM     46  C   UNL A   1      42.805  33.842  35.274  1.00  0.00     0.022 A 
BRANCH  43  47
ATOM     47  S   UNL A   1      41.395  32.536  37.296  1.00  0.00     0.124 S 
ATOM     48  O   UNL A   1      40.030  32.343  36.812  1.00  0.00    -0.237 OA
ATOM     49  O   UNL A   1      42.002  31.394  37.969  1.00  0.00    -0.237 OA
ATOM     50  O   UNL A   1      41.652  33.834  37.916  1.00  0.00    -0.744 OA
ENDBRANCH  43  47
ENDBRANCH  26  40
BRANCH  27  51
ATOM     51  C   UNL A   1      42.627  23.815  27.250  1.00  0.00     0.023 A 
ATOM     52  C   UNL A   1      42.081  22.546  27.483  1.00  0.00     0.031 A 
ATOM     53  C   UNL A   1      43.205  24.066  25.991  1.00  0.00     0.131 A 
ATOM     54  C   UNL A   1      42.149  21.565  26.479  1.00  0.00     0.055 A 
ATOM     55  C   UNL A   1      43.230  23.104  24.982  1.00  0.00     0.041 A 
ATOM     56  F   UNL A   1      43.750  25.263  25.726  1.00  0.00    -0.206 F 
ATOM     57  C   UNL A   1      42.707  21.839  25.228  1.00  0.00     0.022 A 
BRANCH  54  58
ATOM     58  S   UNL A   1      41.561  19.890  26.857  1.00  0.00     0.124 S 
ATOM     59  O   UNL A   1      40.856  20.098  28.117  1.00  0.00    -0.237 OA
ATOM     60  O   UNL A   1      40.729  19.597  25.695  1.00  0.00    -0.237 OA
ATOM     61  O   UNL A   1      42.794  19.111  26.952  1.00  0.00    -0.744 OA
ENDBRANCH  54  58
ENDBRANCH  27  51
BRANCH  39  62
ATOM     62  C   UNL A   1      47.519  26.259  31.550  1.00  0.00     0.023 A 
ATOM     63  C   UNL A   1      47.817  25.402  32.621  1.00  0.00     0.031 A 
ATOM     64  C   UNL A   1      48.571  26.718  30.742  1.00  0.00     0.131 A 
ATOM     65  C   UNL A   1      49.151  25.063  32.886  1.00  0.00     0.055 A 
ATOM     66  C   UNL A   1      49.892  26.339  30.981  1.00  0.00     0.041 A 
ATOM     67  F   UNL A   1      48.332  27.543  29.711  1.00  0.00    -0.206 F 
ATOM     68  C   UNL A   1      50.189  25.514  32.064  1.00  0.00     0.022 A 
BRANCH  65  69
ATOM     69  S   UNL A   1      49.522  24.069  34.356  1.00  0.00     0.124 S 
ATOM     70  O   UNL A   1      50.786  23.442  33.984  1.00  0.00    -0.237 OA
ATOM     71  O   UNL A   1      49.596  25.078  35.407  1.00  0.00    -0.237 OA
ATOM     72  O   UNL A   1      48.382  23.160  34.450  1.00  0.00    -0.744 OA
ENDBRANCH  65  69
ENDBRANCH  39  62
ENDBRANCH  13  14
ENDBRANCH   6   8
ENDBRANCH   5   6
ENDBRANCH   4   5
ENDBRANCH   3   4
ENDBRANCH   2   3
ENDBRANCH   1   2
BRANCH   1  73
ATOM     73  C   UNL A   1      30.178  28.350  23.137  1.00  0.00     0.188 C 
BRANCH  73  74
ATOM     74  O   UNL A   1      30.472  26.990  23.467  1.00  0.00    -0.376 OA
BRANCH  74  75
ATOM     75  C   UNL A   1      29.880  26.517  24.683  1.00  0.00     0.202 C 
BRANCH  75  76
ATOM     76  C   UNL A   1      30.866  26.312  25.842  1.00  0.00     0.261 C 
BRANCH  76  77
ATOM     77  O   UNL A   1      31.292  24.938  25.982  1.00  0.00    -0.462 OA
BRANCH  77  78
ATOM     78  C   UNL A   1      32.282  24.495  25.143  1.00  0.00     0.328 C 
ATOM     79  O   UNL A   1      33.109  25.209  24.588  1.00  0.00    -0.250 OA
BRANCH  78  80
ATOM     80  C   UNL A   1      32.119  22.974  24.892  1.00  0.00     0.195 C 
ATOM     81  C   UNL A   1      31.627  22.903  23.415  1.00  0.00     0.037 C 
ATOM     82  N   UNL A   1      33.312  22.122  25.140  1.00  0.00    -0.320 N 
ATOM     83  C   UNL A   1      32.177  21.739  22.593  1.00  0.00     0.008 C 
ATOM     84  C   UNL A   1      33.305  20.748  24.586  1.00  0.00     0.089 C 
ATOM     85  C   UNL A   1      32.248  20.526  23.493  1.00  0.00     0.012 C 
ATOM     86  C   UNL A   1      33.079  19.641  25.639  1.00  0.00     0.025 C 
ATOM     87  C   UNL A   1      32.537  19.210  22.770  1.00  0.00     0.006 C 
ATOM     88  C   UNL A   1      33.276  18.257  25.016  1.00  0.00     0.002 C 
ATOM     89  C   UNL A   1      32.429  18.045  23.761  1.00  0.00     0.000 C 
BRANCH  82  90
ATOM     90  C   UNL A   1      34.136  22.430  26.231  1.00  0.00     0.272 C 
ATOM     91  O   UNL A   1      33.701  22.362  27.389  1.00  0.00    -0.267 OA
BRANCH  90  92
ATOM     92  C   UNL A   1      35.515  22.788  26.000  1.00  0.00     0.123 A 
ATOM     93  C   UNL A   1      36.135  23.946  25.562  1.00  0.00     0.055 A 
ATOM     94  N   UNL A   1      36.543  21.907  26.227  1.00  0.00    -0.273 N 
ATOM     95  C   UNL A   1      37.499  23.623  25.469  1.00  0.00     0.135 A 
ATOM     96  N   UNL A   1      37.757  22.381  25.875  1.00  0.00    -0.183 NA
ATOM     97  H   UNL A   1      36.408  21.010  26.613  1.00  0.00     0.190 HD
ENDBRANCH  90  92
ENDBRANCH  82  90
ENDBRANCH  78  80
ENDBRANCH  77  78
ENDBRANCH  76  77
ENDBRANCH  75  76
ENDBRANCH  74  75
ENDBRANCH  73  74
ENDBRANCH   1  73
TORSDOF 22
ENDMDL
MODEL 2
REMARK VINA RESULT:     -10.2      2.527      8.105
REMARK SMILES O=C(OCCOCCOCCOC(=O)[C@H]1CC[C@H]2CCCC[C@@H]2N1C(=O)c1ccn[nH]1)c1ccc(-c2c3nc(c(-c4cc(S(=O)(=O)[O-])ccc4F)c4ccc([nH]4)c(-c4cc(S(=O)(=O)[O-])ccc4F)c4nc(c(-c5cc(S(=O)(=O)[O-])ccc5F)c5ccc2[nH]5)C=C4)C=C3)cc1
REMARK SMILES IDX 7 1 6 2 5 3 4 4 3 5 2 6 1 7 32 8 33 9 94 10 34 11 93 12
REMARK SMILES IDX 35 13 36 14 37 15 87 16 38 17 92 18 86 19 88 20 39 21 91 22
REMARK SMILES IDX 85 23 84 24 40 26 72 27 52 28 71 29 53 30 56 31 70 32 89 33
REMARK SMILES IDX 54 34 55 35 69 37 90 38 57 39 41 40 42 41 50 42 43 43 49 44
REMARK SMILES IDX 51 45 48 46 44 47 45 48 46 49 47 50 73 51 74 52 82 53 75 54
REMARK SMILES IDX 81 55 83 56 80 57 76 58 77 59 78 60 79 61 58 62 59 63 67 64
REMARK SMILES IDX 60 65 66 66 68 67 65 68 61 69 62 70 63 71 64 72 8 73 9 74
REMARK SMILES IDX 10 75 11 76 12 77 13 78 14 79 15 80 16 81 24 82 17 83 23 84
REMARK SMILES IDX 18 85 22 86 19 87 21 88 20 89 25 90 26 91 27 92 28 93 31 94
REMARK SMILES IDX 29 95 30 96
REMARK H PARENT 88 25 56 36 31 97
REMARK Flexibility Score: inf
ROOT
ATOM      1  C   UNL A   1      30.920  28.980  23.297  1.00  0.00     0.188 C 
ENDROOT
BRANCH   1   2
ATOM      2  O   UNL A   1      30.155  29.838  24.151  1.00  0.00    -0.376 OA
BRANCH   2   3
ATOM      3  C   UNL A   1      30.949  30.663  25.001  1.00  0.00     0.202 C 
BRANCH   3   4
ATOM      4  C   UNL A   1      32.183  29.967  25.587  1.00  0.00     0.261 C 
BRANCH   4   5
ATOM      5  O   UNL A   1      32.461  30.403  26.928  1.00  0.00    -0.460 OA
BRANCH   5   6
ATOM      6  C   UNL A   1      33.279  31.429  27.275  1.00  0.00     0.338 C 
ATOM      7  O   UNL A   1      32.897  32.592  27.147  1.00  0.00    -0.246 OA
BRANCH   6   8
ATOM      8  C   UNL A   1      34.596  31.188  27.925  1.00  0.00     0.060 A 
ATOM      9  C   UNL A   1      35.571  32.175  28.071  1.00  0.00     0.016 A 
ATOM     10  C   UNL A   1      34.821  29.924  28.484  1.00  0.00     0.016 A 
ATOM     11  C   UNL A   1      36.801  31.879  28.658  1.00  0.00     0.010 A 
ATOM     12  C   UNL A   1      36.021  29.647  29.148  1.00  0.00     0.010 A 
ATOM     13  C   UNL A   1      37.031  30.619  29.222  1.00  0.00    -0.014 A 
BRANCH  13  14
ATOM     14  C   UNL A   1      38.319  30.326  29.901  1.00  0.00     0.031 A 
ATOM     15  C   UNL A   1      39.260  29.317  29.312  1.00  0.00     0.074 A 
ATOM     16  C   UNL A   1      38.641  30.968  31.043  1.00  0.00     0.049 A 
ATOM     17  N   UNL A   1      40.359  28.819  29.812  1.00  0.00    -0.248 NA
ATOM     18  C   UNL A   1      38.917  28.805  27.976  1.00  0.00     0.031 C 
ATOM     19  C   UNL A   1      37.841  32.020  31.668  1.00  0.00     0.029 A 
ATOM     20  N   UNL A   1      39.710  30.824  31.890  1.00  0.00    -0.354 N 
ATOM     21  C   UNL A   1      40.841  27.930  28.859  1.00  0.00     0.074 A 
ATOM     22  C   UNL A   1      39.893  27.933  27.764  1.00  0.00     0.031 C 
ATOM     23  C   UNL A   1      38.424  32.402  32.814  1.00  0.00     0.029 A 
ATOM     24  C   UNL A   1      39.607  31.583  33.034  1.00  0.00     0.049 A 
ATOM     25  H   UNL A   1      40.476  30.236  31.699  1.00  0.00     0.167 HD
ATOM     26  C   UNL A   1      41.977  27.191  28.891  1.00  0.00     0.034 A 
ATOM     27  C   UNL A   1      40.345  31.579  34.161  1.00  0.00     0.034 A 
ATOM     28  C   UNL A   1      42.904  27.201  29.996  1.00  0.00     0.049 A 
ATOM     29  C   UNL A   1      41.525  30.653  34.235  1.00  0.00     0.074 A 
ATOM     30  C   UNL A   1      44.094  26.511  30.136  1.00  0.00     0.029 A 
ATOM     31  N   UNL A   1      42.731  27.934  31.163  1.00  0.00    -0.354 N 
ATOM     32  N   UNL A   1      41.964  29.812  33.329  1.00  0.00    -0.248 NA
ATOM     33  C   UNL A   1      42.306  30.674  35.477  1.00  0.00     0.031 C 
ATOM     34  C   UNL A   1      44.611  26.783  31.410  1.00  0.00     0.029 A 
ATOM     35  C   UNL A   1      43.769  27.682  32.045  1.00  0.00     0.049 A 
ATOM     36  H   UNL A   1      41.977  28.544  31.339  1.00  0.00     0.167 HD
ATOM     37  C   UNL A   1      43.084  29.209  33.887  1.00  0.00     0.074 A 
ATOM     38  C   UNL A   1      43.257  29.792  35.203  1.00  0.00     0.031 C 
ATOM     39  C   UNL A   1      43.900  28.262  33.360  1.00  0.00     0.034 A 
BRANCH  26  40
ATOM     40  C   UNL A   1      42.229  26.277  27.721  1.00  0.00     0.023 A 
ATOM     41  C   UNL A   1      41.845  24.923  27.745  1.00  0.00     0.031 A 
ATOM     42  C   UNL A   1      42.928  26.747  26.596  1.00  0.00     0.131 A 
ATOM     43  C   UNL A   1      42.229  24.070  26.698  1.00  0.00     0.055 A 
ATOM     44  C   UNL A   1      43.247  25.908  25.525  1.00  0.00     0.041 A 
ATOM     45  F   UNL A   1      43.339  28.022  26.531  1.00  0.00    -0.206 F 
ATOM     46  C   UNL A   1      42.910  24.558  25.580  1.00  0.00     0.022 A 
BRANCH  43  47
ATOM     47  S   UNL A   1      41.947  22.288  26.885  1.00  0.00     0.124 S 
ATOM     48  O   UNL A   1      41.562  22.196  28.291  1.00  0.00    -0.237 OA
ATOM     49  O   UNL A   1      40.889  22.032  25.915  1.00  0.00    -0.237 OA
ATOM     50  O   UNL A   1      43.245  21.700  26.561  1.00  0.00    -0.744 OA
ENDBRANCH  43  47
ENDBRANCH  26  40
BRANCH  27  51
ATOM     51  C   UNL A   1      39.925  32.389  35.339  1.00  0.00     0.023 A 
ATOM     52  C   UNL A   1      40.293  33.733  35.486  1.00  0.00     0.031 A 
ATOM     53  C   UNL A   1      39.165  31.795  36.365  1.00  0.00     0.131 A 
ATOM     54  C   UNL A   1      39.922  34.433  36.646  1.00  0.00     0.055 A 
ATOM     55  C   UNL A   1      38.762  32.506  37.495  1.00  0.00     0.041 A 
ATOM     56  F   UNL A   1      38.799  30.507  36.275  1.00  0.00    -0.206 F 
ATOM     57  C   UNL A   1      39.150  33.833  37.645  1.00  0.00     0.022 A 
BRANCH  54  58
ATOM     58  S   UNL A   1      40.529  36.128  36.873  1.00  0.00     0.124 S 
ATOM     59  O   UNL A   1      39.892  36.825  35.762  1.00  0.00    -0.237 OA
ATOM     60  O   UNL A   1      40.030  36.448  38.205  1.00  0.00    -0.237 OA
ATOM     61  O   UNL A   1      41.981  35.985  36.770  1.00  0.00    -0.744 OA
ENDBRANCH  54  58
ENDBRANCH  27  51
BRANCH  39  62
ATOM     62  C   UNL A   1      45.059  27.832  34.216  1.00  0.00     0.023 A 
ATOM     63  C   UNL A   1      44.947  26.743  35.095  1.00  0.00     0.031 A 
ATOM     64  C   UNL A   1      46.271  28.538  34.171  1.00  0.00     0.131 A 
ATOM     65  C   UNL A   1      46.022  26.416  35.933  1.00  0.00     0.055 A 
ATOM     66  C   UNL A   1      47.354  28.179  34.973  1.00  0.00     0.041 A 
ATOM     67  F   UNL A   1      46.420  29.590  33.350  1.00  0.00    -0.206 F 
ATOM     68  C   UNL A   1      47.230  27.117  35.866  1.00  0.00     0.022 A 
BRANCH  65  69
ATOM     69  S   UNL A   1      45.803  25.095  37.155  1.00  0.00     0.124 S 
ATOM     70  O   UNL A   1      44.800  25.671  38.043  1.00  0.00    -0.237 OA
ATOM     71  O   UNL A   1      45.358  23.975  36.331  1.00  0.00    -0.237 OA
ATOM     72  O   UNL A   1      47.135  24.943  37.736  1.00  0.00    -0.744 OA
ENDBRANCH  65  69
ENDBRANCH  39  62
ENDBRANCH  13  14
ENDBRANCH   6   8
ENDBRANCH   5   6
ENDBRANCH   4   5
ENDBRANCH   3   4
ENDBRANCH   2   3
ENDBRANCH   1   2
BRANCH   1  73
ATOM     73  C   UNL A   1      30.036  27.920  22.634  1.00  0.00     0.188 C 
BRANCH  73  74
ATOM     74  O   UNL A   1      30.481  26.580  22.860  1.00  0.00    -0.376 OA
BRANCH  74  75
ATOM     75  C   UNL A   1      29.605  25.773  23.655  1.00  0.00     0.202 C 
BRANCH  75  76
ATOM     76  C   UNL A   1      29.838  25.868  25.169  1.00  0.00     0.261 C 
BRANCH  76  77
ATOM     77  O   UNL A   1      30.743  24.857  25.664  1.00  0.00    -0.462 OA
BRANCH  77  78
ATOM     78  C   UNL A   1      31.813  25.277  26.412  1.00  0.00     0.328 C 
ATOM     79  O   UNL A   1      31.883  26.350  27.003  1.00  0.00    -0.250 OA
BRANCH  78  80
ATOM     80  C   UNL A   1      32.974  24.258  26.292  1.00  0.00     0.195 C 
ATOM     81  C   UNL A   1      32.324  22.915  26.741  1.00  0.00     0.037 C 
ATOM     82  N   UNL A   1      33.642  24.156  24.967  1.00  0.00    -0.320 N 
ATOM     83  C   UNL A   1      32.781  21.674  25.976  1.00  0.00     0.008 C 
ATOM     84  C   UNL A   1      34.498  22.974  24.717  1.00  0.00     0.089 C 
ATOM     85  C   UNL A   1      34.260  21.816  25.699  1.00  0.00     0.012 C 
ATOM     86  C   UNL A   1      36.014  23.269  24.754  1.00  0.00     0.025 C 
ATOM     87  C   UNL A   1      34.935  20.553  25.165  1.00  0.00     0.006 C 
ATOM     88  C   UNL A   1      36.811  22.044  24.299  1.00  0.00     0.002 C 
ATOM     89  C   UNL A   1      36.448  20.777  25.074  1.00  0.00     0.000 C 
BRANCH  82  90
ATOM     90  C   UNL A   1      33.842  25.331  24.230  1.00  0.00     0.272 C 
ATOM     91  O   UNL A   1      34.382  26.318  24.749  1.00  0.00    -0.267 OA
BRANCH  90  92
ATOM     92  C   UNL A   1      33.450  25.371  22.841  1.00  0.00     0.123 A 
ATOM     93  C   UNL A   1      32.948  24.423  21.968  1.00  0.00     0.055 A 
ATOM     94  N   UNL A   1      33.521  26.525  22.099  1.00  0.00    -0.273 N 
ATOM     95  C   UNL A   1      32.851  25.075  20.727  1.00  0.00     0.135 A 
ATOM     96  N   UNL A   1      33.198  26.359  20.799  1.00  0.00    -0.183 NA
ATOM     97  H   UNL A   1      33.784  27.395  22.480  1.00  0.00     0.190 HD
ENDBRANCH  90  92
ENDBRANCH  82  90
ENDBRANCH  78  80
ENDBRANCH  77  78
ENDBRANCH  76  77
ENDBRANCH  75  76
ENDBRANCH  74  75
ENDBRANCH  73  74
ENDBRANCH   1  73
TORSDOF 22
ENDMDL
MODEL 3
REMARK VINA RESULT:     -10.2      3.093      8.268
REMARK SMILES O=C(OCCOCCOCCOC(=O)[C@H]1CC[C@H]2CCCC[C@@H]2N1C(=O)c1ccn[nH]1)c1ccc(-c2c3nc(c(-c4cc(S(=O)(=O)[O-])ccc4F)c4ccc([nH]4)c(-c4cc(S(=O)(=O)[O-])ccc4F)c4nc(c(-c5cc(S(=O)(=O)[O-])ccc5F)c5ccc2[nH]5)C=C4)C=C3)cc1
REMARK SMILES IDX 7 1 6 2 5 3 4 4 3 5 2 6 1 7 32 8 33 9 94 10 34 11 93 12
REMARK SMILES IDX 35 13 36 14 37 15 87 16 38 17 92 18 86 19 88 20 39 21 91 22
REMARK SMILES IDX 85 23 84 24 40 26 72 27 52 28 71 29 53 30 56 31 70 32 89 33
REMARK SMILES IDX 54 34 55 35 69 37 90 38 57 39 41 40 42 41 50 42 43 43 49 44
REMARK SMILES IDX 51 45 48 46 44 47 45 48 46 49 47 50 73 51 74 52 82 53 75 54
REMARK SMILES IDX 81 55 83 56 80 57 76 58 77 59 78 60 79 61 58 62 59 63 67 64
REMARK SMILES IDX 60 65 66 66 68 67 65 68 61 69 62 70 63 71 64 72 8 73 9 74
REMARK SMILES IDX 10 75 11 76 12 77 13 78 14 79 15 80 16 81 24 82 17 83 23 84
REMARK SMILES IDX 18 85 22 86 19 87 21 88 20 89 25 90 26 91 27 92 28 93 31 94
REMARK SMILES IDX 29 95 30 96
REMARK H PARENT 88 25 56 36 31 97
REMARK Flexibility Score: inf
ROOT
ATOM      1  C   UNL A   1      32.355  29.744  25.838  1.00  0.00     0.188 C 
ENDROOT
BRANCH   1   2
ATOM      2  O   UNL A   1      31.201  30.509  25.475  1.00  0.00    -0.376 OA
BRANCH   2   3
ATOM      3  C   UNL A   1      31.121  31.776  26.125  1.00  0.00     0.202 C 
BRANCH   3   4
ATOM      4  C   UNL A   1      32.363  32.149  26.942  1.00  0.00     0.261 C 
BRANCH   4   5
ATOM      5  O   UNL A   1      32.161  33.346  27.713  1.00  0.00    -0.460 OA
BRANCH   5   6
ATOM      6  C   UNL A   1      33.140  34.140  28.217  1.00  0.00     0.338 C 
ATOM      7  O   UNL A   1      32.978  35.358  28.272  1.00  0.00    -0.246 OA
BRANCH   6   8
ATOM      8  C   UNL A   1      34.373  33.565  28.822  1.00  0.00     0.060 A 
ATOM      9  C   UNL A   1      35.658  34.022  28.525  1.00  0.00     0.016 A 
ATOM     10  C   UNL A   1      34.214  32.570  29.795  1.00  0.00     0.016 A 
ATOM     11  C   UNL A   1      36.777  33.419  29.098  1.00  0.00     0.010 A 
ATOM     12  C   UNL A   1      35.332  32.021  30.433  1.00  0.00     0.010 A 
ATOM     13  C   UNL A   1      36.626  32.428  30.074  1.00  0.00    -0.014 A 
BRANCH  13  14
ATOM     14  C   UNL A   1      37.819  31.831  30.727  1.00  0.00     0.031 A 
ATOM     15  C   UNL A   1      38.597  30.759  30.021  1.00  0.00     0.074 A 
ATOM     16  C   UNL A   1      38.201  32.254  31.949  1.00  0.00     0.049 A 
ATOM     17  N   UNL A   1      39.576  30.019  30.467  1.00  0.00    -0.248 NA
ATOM     18  C   UNL A   1      38.223  30.492  28.624  1.00  0.00     0.031 C 
ATOM     19  C   UNL A   1      37.567  33.338  32.698  1.00  0.00     0.029 A 
ATOM     20  N   UNL A   1      39.197  31.818  32.785  1.00  0.00    -0.354 N 
ATOM     21  C   UNL A   1      39.937  29.191  29.410  1.00  0.00     0.074 A 
ATOM     22  C   UNL A   1      39.045  29.501  28.311  1.00  0.00     0.031 C 
ATOM     23  C   UNL A   1      38.163  33.461  33.894  1.00  0.00     0.029 A 
ATOM     24  C   UNL A   1      39.180  32.428  34.019  1.00  0.00     0.049 A 
ATOM     25  H   UNL A   1      39.859  31.137  32.529  1.00  0.00     0.167 HD
ATOM     26  C   UNL A   1      40.929  28.269  29.360  1.00  0.00     0.034 A 
ATOM     27  C   UNL A   1      39.863  32.151  35.146  1.00  0.00     0.034 A 
ATOM     28  C   UNL A   1      41.801  27.975  30.470  1.00  0.00     0.049 A 
ATOM     29  C   UNL A   1      40.866  31.033  35.114  1.00  0.00     0.074 A 
ATOM     30  C   UNL A   1      42.852  27.077  30.534  1.00  0.00     0.029 A 
ATOM     31  N   UNL A   1      41.710  28.569  31.723  1.00  0.00    -0.354 N 
ATOM     32  N   UNL A   1      41.191  30.254  34.109  1.00  0.00    -0.248 NA
ATOM     33  C   UNL A   1      41.591  30.757  36.359  1.00  0.00     0.031 C 
ATOM     34  C   UNL A   1      43.358  27.088  31.841  1.00  0.00     0.029 A 
ATOM     35  C   UNL A   1      42.657  28.029  32.578  1.00  0.00     0.049 A 
ATOM     36  H   UNL A   1      41.065  29.272  31.968  1.00  0.00     0.167 HD
ATOM     37  C   UNL A   1      42.170  29.399  34.598  1.00  0.00     0.074 A 
ATOM     38  C   UNL A   1      42.389  29.767  35.984  1.00  0.00     0.031 C 
ATOM     39  C   UNL A   1      42.834  28.402  33.961  1.00  0.00     0.034 A 
BRANCH  26  40
ATOM     40  C   UNL A   1      41.067  27.485  28.081  1.00  0.00     0.023 A 
ATOM     41  C   UNL A   1      40.677  26.136  27.997  1.00  0.00     0.031 A 
ATOM     42  C   UNL A   1      41.665  28.073  26.953  1.00  0.00     0.131 A 
ATOM     43  C   UNL A   1      40.958  25.399  26.835  1.00  0.00     0.055 A 
ATOM     44  C   UNL A   1      41.879  27.353  25.776  1.00  0.00     0.041 A 
ATOM     45  F   UNL A   1      42.077  29.350  26.987  1.00  0.00    -0.206 F 
ATOM     46  C   UNL A   1      41.539  26.005  25.717  1.00  0.00     0.022 A 
BRANCH  43  47
ATOM     47  S   UNL A   1      40.682  23.607  26.856  1.00  0.00     0.124 S 
ATOM     48  O   UNL A   1      39.250  23.526  26.580  1.00  0.00    -0.237 OA
ATOM     49  O   UNL A   1      41.565  23.138  25.795  1.00  0.00    -0.237 OA
ATOM     50  O   UNL A   1      41.072  23.216  28.209  1.00  0.00    -0.744 OA
ENDBRANCH  43  47
ENDBRANCH  26  40
BRANCH  27  51
ATOM     51  C   UNL A   1      39.542  32.861  36.417  1.00  0.00     0.023 A 
ATOM     52  C   UNL A   1      38.625  32.347  37.343  1.00  0.00     0.031 A 
ATOM     53  C   UNL A   1      40.138  34.106  36.696  1.00  0.00     0.131 A 
ATOM     54  C   UNL A   1      38.312  33.088  38.495  1.00  0.00     0.055 A 
ATOM     55  C   UNL A   1      39.857  34.816  37.863  1.00  0.00     0.041 A 
ATOM     56  F   UNL A   1      41.013  34.644  35.833  1.00  0.00    -0.206 F 
ATOM     57  C   UNL A   1      38.930  34.311  38.767  1.00  0.00     0.022 A 
BRANCH  54  58
ATOM     58  S   UNL A   1      37.020  32.464  39.607  1.00  0.00     0.124 S 
ATOM     59  O   UNL A   1      37.402  31.064  39.754  1.00  0.00    -0.237 OA
ATOM     60  O   UNL A   1      37.204  33.308  40.782  1.00  0.00    -0.237 OA
ATOM     61  O   UNL A   1      35.786  32.699  38.859  1.00  0.00    -0.744 OA
ENDBRANCH  54  58
ENDBRANCH  27  51
BRANCH  39  62
ATOM     62  C   UNL A   1      43.869  27.671  34.769  1.00  0.00     0.023 A 
ATOM     63  C   UNL A   1      45.186  28.149  34.865  1.00  0.00     0.031 A 
ATOM     64  C   UNL A   1      43.540  26.471  35.421  1.00  0.00     0.131 A 
ATOM     65  C   UNL A   1      46.144  27.404  35.566  1.00  0.00     0.055 A 
ATOM     66  C   UNL A   1      44.487  25.757  36.155  1.00  0.00     0.041 A 
ATOM     67  F   UNL A   1      42.295  25.974  35.349  1.00  0.00    -0.206 F 
ATOM     68  C   UNL A   1      45.800  26.219  36.224  1.00  0.00     0.022 A 
BRANCH  65  69
ATOM     69  S   UNL A   1      47.865  27.972  35.558  1.00  0.00     0.124 S 
ATOM     70  O   UNL A   1      48.347  27.457  34.282  1.00  0.00    -0.237 OA
ATOM     71  O   UNL A   1      47.718  29.422  35.646  1.00  0.00    -0.237 OA
ATOM     72  O   UNL A   1      48.440  27.337  36.742  1.00  0.00    -0.744 OA
ENDBRANCH  65  69
ENDBRANCH  39  62
ENDBRANCH  13  14
ENDBRANCH   6   8
ENDBRANCH   5   6
ENDBRANCH   4   5
ENDBRANCH   3   4
ENDBRANCH   2   3
ENDBRANCH   1   2
BRANCH   1  73
ATOM     73  C   UNL A   1      32.552  28.551  24.899  1.00  0.00     0.188 C 
BRANCH  73  74
ATOM     74  O   UNL A   1      33.517  27.606  25.370  1.00  0.00    -0.376 OA
BRANCH  74  75
ATOM     75  C   UNL A   1      33.098  26.812  26.486  1.00  0.00     0.202 C 
BRANCH  75  76
ATOM     76  C   UNL A   1      31.713  26.165  26.333  1.00  0.00     0.261 C 
BRANCH  76  77
ATOM     77  O   UNL A   1      31.716  24.753  26.635  1.00  0.00    -0.462 OA
BRANCH  77  78
ATOM     78  C   UNL A   1      31.565  23.882  25.587  1.00  0.00     0.328 C 
ATOM     79  O   UNL A   1      30.647  23.908  24.774  1.00  0.00    -0.250 OA
BRANCH  78  80
ATOM     80  C   UNL A   1      32.647  22.774  25.660  1.00  0.00     0.195 C 
ATOM     81  C   UNL A   1      31.820  21.456  25.574  1.00  0.00     0.037 C 
ATOM     82  N   UNL A   1      33.737  22.835  24.649  1.00  0.00    -0.320 N 
ATOM     83  C   UNL A   1      32.464  20.327  24.769  1.00  0.00     0.008 C 
ATOM     84  C   UNL A   1      34.572  21.626  24.465  1.00  0.00     0.089 C 
ATOM     85  C   UNL A   1      33.950  20.347  25.046  1.00  0.00     0.012 C 
ATOM     86  C   UNL A   1      35.988  21.735  25.073  1.00  0.00     0.025 C 
ATOM     87  C   UNL A   1      34.713  19.130  24.523  1.00  0.00     0.006 C 
ATOM     88  C   UNL A   1      36.839  20.528  24.673  1.00  0.00     0.002 C 
ATOM     89  C   UNL A   1      36.169  19.193  24.999  1.00  0.00     0.000 C 
BRANCH  82  90
ATOM     90  C   UNL A   1      34.237  24.092  24.283  1.00  0.00     0.272 C 
ATOM     91  O   UNL A   1      35.130  24.634  24.949  1.00  0.00    -0.267 OA
BRANCH  90  92
ATOM     92  C   UNL A   1      33.732  24.736  23.095  1.00  0.00     0.123 A 
ATOM     93  C   UNL A   1      32.916  24.315  22.059  1.00  0.00     0.055 A 
ATOM     94  N   UNL A   1      34.026  26.045  22.797  1.00  0.00    -0.273 N 
ATOM     95  C   UNL A   1      32.868  25.395  21.161  1.00  0.00     0.135 A 
ATOM     96  N   UNL A   1      33.542  26.455  21.605  1.00  0.00    -0.183 NA
ATOM     97  H   UNL A   1      34.542  26.630  23.398  1.00  0.00     0.190 HD
ENDBRANCH  90  92
ENDBRANCH  82  90
ENDBRANCH  78  80
ENDBRANCH  77  78
ENDBRANCH  76  77
ENDBRANCH  75  76
ENDBRANCH  74  75
ENDBRANCH  73  74
ENDBRANCH   1  73
TORSDOF 22
ENDMDL
