MODEL 1
REMARK VINA RESULT:     -10.3      0.000      0.000
REMARK SMILES Cc1ccc(N2C(=O)N=C(OCCOCCOCCOC(=O)c3ccc(-c4c5nc(c(-c6cc(S(=O)(=O)[O-])ccc6F)c6ccc([nH]6)c(-c6cc(S(=O)(=O)[O-])ccc6F)c6nc(c(-c7cc(S(=O)(=O)[O-])ccc7F)c7ccc4[nH]7)C=C6)C=C5)cc3)/C(=C\c3ccccc3OCc3cccc(C(=O)[O-])c3)C2=O)cc1
REMARK SMILES IDX 15 1 14 2 13 3 12 4 11 5 10 6 6 7 7 8 105 9 8 10 9 11 86 12
REMARK SMILES IDX 106 13 87 14 5 15 1 16 2 17 3 18 108 19 4 20 107 21 88 22
REMARK SMILES IDX 89 23 93 24 90 25 92 26 91 27 94 28 95 29 96 30 97 31 104 32
REMARK SMILES IDX 98 33 100 34 99 35 101 36 102 37 103 38 16 39 17 40 18 41
REMARK SMILES IDX 19 42 20 43 21 44 22 45 23 46 24 47 85 48 25 49 84 50 26 51
REMARK SMILES IDX 27 52 28 53 78 54 29 55 83 56 77 57 79 58 30 59 82 60 76 61
REMARK SMILES IDX 75 62 31 64 63 65 43 66 62 67 44 68 47 69 61 70 80 71 45 72
REMARK SMILES IDX 46 73 60 75 81 76 48 77 32 78 33 79 41 80 34 81 40 82 42 83
REMARK SMILES IDX 39 84 35 85 36 86 37 87 38 88 64 89 65 90 73 91 66 92 72 93
REMARK SMILES IDX 74 94 71 95 67 96 68 97 69 98 70 99 49 100 50 101 58 102
REMARK SMILES IDX 51 103 57 104 59 105 56 106 52 107 53 108 54 109 55 110
REMARK H PARENT 79 63 47 74
REMARK Flexibility Score: inf
ROOT
ATOM      1  C   UNL A   1      46.380  23.824  24.728  1.00  0.00     0.188 C 
ENDROOT
BRANCH   1   2
ATOM      2  O   UNL A   1      45.054  23.702  24.200  1.00  0.00    -0.376 OA
BRANCH   2   3
ATOM      3  C   UNL A   1      44.122  24.460  24.985  1.00  0.00     0.201 C 
BRANCH   3   4
ATOM      4  C   UNL A   1      44.120  23.992  26.432  1.00  0.00     0.260 C 
BRANCH   4   5
ATOM      5  O   UNL A   1      42.816  23.992  27.039  1.00  0.00    -0.475 OA
BRANCH   5   6
ATOM      6  C   UNL A   1      41.998  24.942  27.498  1.00  0.00     0.231 C 
ATOM      7  N   UNL A   1      40.602  27.187  28.359  1.00  0.00    -0.226 N 
ATOM      8  C   UNL A   1      41.925  27.248  27.982  1.00  0.00     0.358 C 
ATOM      9  C   UNL A   1      40.005  25.943  28.533  1.00  0.00     0.272 C 
ATOM     10  O   UNL A   1      42.517  28.324  27.893  1.00  0.00    -0.245 OA
ATOM     11  N   UNL A   1      42.557  26.099  27.609  1.00  0.00    -0.156 NA
ATOM     12  C   UNL A   1      40.638  24.629  27.901  1.00  0.00     0.103 C 
ATOM     13  O   UNL A   1      38.927  25.942  29.118  1.00  0.00    -0.268 OA
ATOM     14  C   UNL A   1      39.909  23.460  27.709  1.00  0.00     0.031 C 
BRANCH   7  15
ATOM     15  C   UNL A   1      39.885  28.443  28.710  1.00  0.00     0.054 A 
ATOM     16  C   UNL A   1      37.787  32.212  29.648  1.00  0.00     0.044 C 
ATOM     17  C   UNL A   1      38.495  30.918  29.335  1.00  0.00    -0.051 A 
ATOM     18  C   UNL A   1      39.461  30.387  30.197  1.00  0.00     0.005 A 
ATOM     19  C   UNL A   1      38.203  30.185  28.181  1.00  0.00     0.005 A 
ATOM     20  C   UNL A   1      40.156  29.184  29.882  1.00  0.00     0.027 A 
ATOM     21  C   UNL A   1      38.870  28.968  27.887  1.00  0.00     0.027 A 
ENDBRANCH   7  15
BRANCH  14  22
ATOM     22  C   UNL A   1      39.571  22.171  26.651  1.00  0.00     0.018 A 
ATOM     23  C   UNL A   1      40.462  21.113  26.946  1.00  0.00     0.012 A 
ATOM     24  C   UNL A   1      38.374  21.719  25.723  1.00  0.00     0.127 A 
ATOM     25  C   UNL A   1      40.404  19.862  26.304  1.00  0.00     0.001 A 
ATOM     26  C   UNL A   1      38.431  20.476  25.048  1.00  0.00     0.047 A 
ATOM     27  C   UNL A   1      39.443  19.569  25.334  1.00  0.00     0.004 A 
BRANCH  24  28
ATOM     28  O   UNL A   1      36.738  22.015  25.696  1.00  0.00    -0.488 OA
BRANCH  28  29
ATOM     29  C   UNL A   1      35.515  23.236  25.871  1.00  0.00     0.265 C 
BRANCH  29  30
ATOM     30  C   UNL A   1      34.870  24.470  25.072  1.00  0.00    -0.010 A 
ATOM     31  C   UNL A   1      34.569  25.677  25.733  1.00  0.00     0.007 A 
ATOM     32  C   UNL A   1      34.265  24.325  23.814  1.00  0.00     0.017 A 
ATOM     33  C   UNL A   1      33.728  26.652  25.154  1.00  0.00     0.001 A 
ATOM     34  C   UNL A   1      33.453  25.292  23.203  1.00  0.00    -0.002 A 
ATOM     35  C   UNL A   1      33.164  26.459  23.891  1.00  0.00     0.010 A 
BRANCH  34  36
ATOM     36  C   UNL A   1      32.842  25.029  21.872  1.00  0.00     0.071 C 
ATOM     37  O   UNL A   1      33.274  24.292  21.009  1.00  0.00    -0.545 OA
ATOM     38  O   UNL A   1      31.686  25.701  21.710  1.00  0.00    -0.545 OA
ENDBRANCH  34  36
ENDBRANCH  29  30
ENDBRANCH  28  29
ENDBRANCH  24  28
ENDBRANCH  14  22
ENDBRANCH   5   6
ENDBRANCH   4   5
ENDBRANCH   3   4
ENDBRANCH   2   3
ENDBRANCH   1   2
BRANCH   1  39
ATOM     39  C   UNL A   1      46.902  25.267  24.726  1.00  0.00     0.188 C 
BRANCH  39  40
ATOM     40  O   UNL A   1      47.938  25.617  23.814  1.00  0.00    -0.376 OA
BRANCH  40  41
ATOM     41  C   UNL A   1      48.552  26.886  23.983  1.00  0.00     0.202 C 
BRANCH  41  42
ATOM     42  C   UNL A   1      48.636  27.159  25.493  1.00  0.00     0.261 C 
BRANCH  42  43
ATOM     43  O   UNL A   1      48.237  28.525  25.758  1.00  0.00    -0.460 OA
BRANCH  43  44
ATOM     44  C   UNL A   1      46.924  28.780  26.042  1.00  0.00     0.338 C 
ATOM     45  O   UNL A   1      46.077  29.140  25.243  1.00  0.00    -0.246 OA
BRANCH  44  46
ATOM     46  C   UNL A   1      46.698  28.632  27.527  1.00  0.00     0.060 A 
ATOM     47  C   UNL A   1      47.270  29.529  28.457  1.00  0.00     0.016 A 
ATOM     48  C   UNL A   1      46.124  27.469  28.018  1.00  0.00     0.016 A 
ATOM     49  C   UNL A   1      47.464  29.174  29.829  1.00  0.00     0.010 A 
ATOM     50  C   UNL A   1      46.351  27.114  29.349  1.00  0.00     0.010 A 
ATOM     51  C   UNL A   1      47.099  27.909  30.270  1.00  0.00    -0.014 A 
BRANCH  51  52
ATOM     52  C   UNL A   1      47.177  27.301  31.662  1.00  0.00     0.031 A 
ATOM     53  C   UNL A   1      48.781  26.524  31.500  1.00  0.00     0.074 A 
ATOM     54  C   UNL A   1      46.311  27.573  32.889  1.00  0.00     0.049 A 
ATOM     55  N   UNL A   1      49.865  26.590  32.243  1.00  0.00    -0.248 NA
ATOM     56  C   UNL A   1      49.028  25.542  30.433  1.00  0.00     0.031 C 
ATOM     57  C   UNL A   1      46.697  27.884  34.540  1.00  0.00     0.029 A 
ATOM     58  N   UNL A   1      44.962  27.606  33.220  1.00  0.00    -0.354 N 
ATOM     59  C   UNL A   1      50.496  25.375  32.256  1.00  0.00     0.074 A 
ATOM     60  C   UNL A   1      50.103  24.885  30.919  1.00  0.00     0.031 C 
ATOM     61  C   UNL A   1      45.769  28.456  35.263  1.00  0.00     0.029 A 
ATOM     62  C   UNL A   1      44.627  28.075  34.530  1.00  0.00     0.049 A 
ATOM     63  H   UNL A   1      44.268  27.319  32.583  1.00  0.00     0.167 HD
ATOM     64  C   UNL A   1      50.747  24.582  33.391  1.00  0.00     0.034 A 
ATOM     65  C   UNL A   1      43.676  27.680  35.381  1.00  0.00     0.034 A 
ATOM     66  C   UNL A   1      49.976  24.704  34.730  1.00  0.00     0.049 A 
ATOM     67  C   UNL A   1      44.179  26.398  36.082  1.00  0.00     0.074 A 
ATOM     68  C   UNL A   1      50.003  25.575  35.820  1.00  0.00     0.029 A 
ATOM     69  N   UNL A   1      48.994  23.741  35.194  1.00  0.00    -0.354 N 
ATOM     70  N   UNL A   1      45.451  25.992  36.152  1.00  0.00    -0.248 NA
ATOM     71  C   UNL A   1      43.299  25.465  36.748  1.00  0.00     0.031 C 
ATOM     72  C   UNL A   1      48.836  25.369  36.661  1.00  0.00     0.029 A 
ATOM     73  C   UNL A   1      48.066  24.321  36.163  1.00  0.00     0.049 A 
ATOM     74  H   UNL A   1      48.957  22.805  34.890  1.00  0.00     0.167 HD
ATOM     75  C   UNL A   1      45.542  24.685  36.593  1.00  0.00     0.074 A 
ATOM     76  C   UNL A   1      44.161  24.482  37.077  1.00  0.00     0.031 C 
ATOM     77  C   UNL A   1      46.636  23.809  36.434  1.00  0.00     0.034 A 
BRANCH  64  78
ATOM     78  C   UNL A   1      52.148  23.984  33.414  1.00  0.00     0.023 A 
ATOM     79  C   UNL A   1      53.233  24.851  33.661  1.00  0.00     0.031 A 
ATOM     80  C   UNL A   1      52.494  22.652  33.100  1.00  0.00     0.131 A 
ATOM     81  C   UNL A   1      54.562  24.415  33.552  1.00  0.00     0.055 A 
ATOM     82  C   UNL A   1      53.821  22.220  32.985  1.00  0.00     0.041 A 
ATOM     83  F   UNL A   1      51.579  21.703  32.882  1.00  0.00    -0.206 F 
ATOM     84  C   UNL A   1      54.864  23.103  33.202  1.00  0.00     0.022 A 
BRANCH  81  85
ATOM     85  S   UNL A   1      55.893  25.608  33.842  1.00  0.00     0.124 S 
ATOM     86  O   UNL A   1      55.911  26.365  32.595  1.00  0.00    -0.237 OA
ATOM     87  O   UNL A   1      55.411  26.318  35.023  1.00  0.00    -0.237 OA
ATOM     88  O   UNL A   1      57.062  24.759  34.067  1.00  0.00    -0.744 OA
ENDBRANCH  81  85
ENDBRANCH  64  78
BRANCH  65  89
ATOM     89  C   UNL A   1      42.537  28.638  35.192  1.00  0.00     0.023 A 
ATOM     90  C   UNL A   1      42.826  30.059  35.265  1.00  0.00     0.031 A 
ATOM     91  C   UNL A   1      41.476  28.272  34.358  1.00  0.00     0.131 A 
ATOM     92  C   UNL A   1      42.199  30.992  34.403  1.00  0.00     0.055 A 
ATOM     93  C   UNL A   1      40.803  29.219  33.554  1.00  0.00     0.041 A 
ATOM     94  F   UNL A   1      41.226  26.971  34.142  1.00  0.00    -0.206 F 
ATOM     95  C   UNL A   1      41.188  30.569  33.539  1.00  0.00     0.022 A 
BRANCH  92  96
ATOM     96  S   UNL A   1      42.916  32.666  34.136  1.00  0.00     0.124 S 
ATOM     97  O   UNL A   1      41.801  33.537  34.494  1.00  0.00    -0.237 OA
ATOM     98  O   UNL A   1      44.067  32.708  35.036  1.00  0.00    -0.237 OA
ATOM     99  O   UNL A   1      43.278  32.662  32.717  1.00  0.00    -0.744 OA
ENDBRANCH  92  96
ENDBRANCH  65  89
BRANCH  77 100
ATOM    100  C   UNL A   1      46.375  22.291  36.524  1.00  0.00     0.023 A 
ATOM    101  C   UNL A   1      46.371  21.577  37.741  1.00  0.00     0.031 A 
ATOM    102  C   UNL A   1      46.082  21.502  35.394  1.00  0.00     0.131 A 
ATOM    103  C   UNL A   1      46.312  20.173  37.789  1.00  0.00     0.055 A 
ATOM    104  C   UNL A   1      45.870  20.116  35.457  1.00  0.00     0.041 A 
ATOM    105  F   UNL A   1      45.980  22.034  34.170  1.00  0.00    -0.206 F 
ATOM    106  C   UNL A   1      46.035  19.434  36.652  1.00  0.00     0.022 A 
BRANCH 103 107
ATOM    107  S   UNL A   1      46.780  19.354  39.341  1.00  0.00     0.124 S 
ATOM    108  O   UNL A   1      46.747  20.465  40.289  1.00  0.00    -0.237 OA
ATOM    109  O   UNL A   1      45.726  18.358  39.500  1.00  0.00    -0.237 OA
ATOM    110  O   UNL A   1      48.111  18.820  39.060  1.00  0.00    -0.744 OA
ENDBRANCH 103 107
ENDBRANCH  77 100
ENDBRANCH  51  52
ENDBRANCH  44  46
ENDBRANCH  43  44
ENDBRANCH  42  43
ENDBRANCH  41  42
ENDBRANCH  40  41
ENDBRANCH  39  40
ENDBRANCH   1  39
TORSDOF 25
ENDMDL
MODEL 2
REMARK VINA RESULT:     -10.1      6.684     12.349
REMARK SMILES Cc1ccc(N2C(=O)N=C(OCCOCCOCCOC(=O)c3ccc(-c4c5nc(c(-c6cc(S(=O)(=O)[O-])ccc6F)c6ccc([nH]6)c(-c6cc(S(=O)(=O)[O-])ccc6F)c6nc(c(-c7cc(S(=O)(=O)[O-])ccc7F)c7ccc4[nH]7)C=C6)C=C5)cc3)/C(=C\c3ccccc3OCc3cccc(C(=O)[O-])c3)C2=O)cc1
REMARK SMILES IDX 15 1 14 2 13 3 12 4 11 5 10 6 6 7 7 8 105 9 8 10 9 11 86 12
REMARK SMILES IDX 106 13 87 14 5 15 1 16 2 17 3 18 108 19 4 20 107 21 88 22
REMARK SMILES IDX 89 23 93 24 90 25 92 26 91 27 94 28 95 29 96 30 97 31 104 32
REMARK SMILES IDX 98 33 100 34 99 35 101 36 102 37 103 38 16 39 17 40 18 41
REMARK SMILES IDX 19 42 20 43 21 44 22 45 23 46 24 47 85 48 25 49 84 50 26 51
REMARK SMILES IDX 27 52 28 53 78 54 29 55 83 56 77 57 79 58 30 59 82 60 76 61
REMARK SMILES IDX 75 62 31 64 63 65 43 66 62 67 44 68 47 69 61 70 80 71 45 72
REMARK SMILES IDX 46 73 60 75 81 76 48 77 32 78 33 79 41 80 34 81 40 82 42 83
REMARK SMILES IDX 39 84 35 85 36 86 37 87 38 88 64 89 65 90 73 91 66 92 72 93
REMARK SMILES IDX 74 94 71 95 67 96 68 97 69 98 70 99 49 100 50 101 58 102
REMARK SMILES IDX 51 103 57 104 59 105 56 106 52 107 53 108 54 109 55 110
REMARK H PARENT 79 63 47 74
REMARK Flexibility Score: inf
ROOT
ATOM      1  C   UNL A   1      44.680  23.108  24.255  1.00  0.00     0.188 C 
ENDROOT
BRANCH   1   2
ATOM      2  O   UNL A   1      43.503  22.296  24.335  1.00  0.00    -0.376 OA
BRANCH   2   3
ATOM      3  C   UNL A   1      43.129  22.073  25.702  1.00  0.00     0.201 C 
BRANCH   3   4
ATOM      4  C   UNL A   1      41.724  21.497  25.796  1.00  0.00     0.260 C 
BRANCH   4   5
ATOM      5  O   UNL A   1      40.757  22.414  26.335  1.00  0.00    -0.475 OA
BRANCH   5   6
ATOM      6  C   UNL A   1      39.444  22.595  26.169  1.00  0.00     0.231 C 
ATOM      7  N   UNL A   1      36.690  22.554  25.790  1.00  0.00    -0.226 N 
ATOM      8  C   UNL A   1      37.463  21.423  25.657  1.00  0.00     0.358 C 
ATOM      9  C   UNL A   1      37.315  23.793  25.892  1.00  0.00     0.272 C 
ATOM     10  O   UNL A   1      36.955  20.315  25.483  1.00  0.00    -0.245 OA
ATOM     11  N   UNL A   1      38.814  21.526  25.818  1.00  0.00    -0.156 NA
ATOM     12  C   UNL A   1      38.847  23.912  26.301  1.00  0.00     0.103 C 
ATOM     13  O   UNL A   1      36.593  24.773  25.741  1.00  0.00    -0.268 OA
ATOM     14  C   UNL A   1      39.406  25.088  26.789  1.00  0.00     0.031 C 
BRANCH   7  15
ATOM     15  C   UNL A   1      35.211  22.444  25.675  1.00  0.00     0.054 A 
ATOM     16  C   UNL A   1      30.824  22.022  25.406  1.00  0.00     0.044 C 
ATOM     17  C   UNL A   1      32.322  22.179  25.496  1.00  0.00    -0.051 A 
ATOM     18  C   UNL A   1      33.118  22.264  24.349  1.00  0.00     0.005 A 
ATOM     19  C   UNL A   1      32.974  22.266  26.730  1.00  0.00     0.005 A 
ATOM     20  C   UNL A   1      34.536  22.374  24.436  1.00  0.00     0.027 A 
ATOM     21  C   UNL A   1      34.383  22.413  26.815  1.00  0.00     0.027 A 
ENDBRANCH   7  15
BRANCH  14  22
ATOM     22  C   UNL A   1      40.446  25.776  27.947  1.00  0.00     0.018 A 
ATOM     23  C   UNL A   1      41.778  25.498  27.562  1.00  0.00     0.012 A 
ATOM     24  C   UNL A   1      40.355  26.881  29.074  1.00  0.00     0.127 A 
ATOM     25  C   UNL A   1      42.896  25.990  28.263  1.00  0.00     0.001 A 
ATOM     26  C   UNL A   1      41.517  27.262  29.788  1.00  0.00     0.047 A 
ATOM     27  C   UNL A   1      42.766  26.809  29.386  1.00  0.00     0.004 A 
BRANCH  24  28
ATOM     28  O   UNL A   1      39.374  28.195  29.348  1.00  0.00    -0.488 OA
BRANCH  28  29
ATOM     29  C   UNL A   1      38.900  29.759  28.758  1.00  0.00     0.265 C 
BRANCH  29  30
ATOM     30  C   UNL A   1      37.596  30.560  28.275  1.00  0.00    -0.010 A 
ATOM     31  C   UNL A   1      37.373  31.888  28.687  1.00  0.00     0.007 A 
ATOM     32  C   UNL A   1      36.472  29.919  27.732  1.00  0.00     0.017 A 
ATOM     33  C   UNL A   1      36.111  32.508  28.550  1.00  0.00     0.001 A 
ATOM     34  C   UNL A   1      35.218  30.522  27.553  1.00  0.00    -0.002 A 
ATOM     35  C   UNL A   1      35.031  31.824  27.988  1.00  0.00     0.010 A 
BRANCH  34  36
ATOM     36  C   UNL A   1      34.084  29.746  26.985  1.00  0.00     0.071 C 
ATOM     37  O   UNL A   1      33.354  30.087  26.076  1.00  0.00    -0.545 OA
ATOM     38  O   UNL A   1      33.945  28.548  27.587  1.00  0.00    -0.545 OA
ENDBRANCH  34  36
ENDBRANCH  29  30
ENDBRANCH  28  29
ENDBRANCH  24  28
ENDBRANCH  14  22
ENDBRANCH   5   6
ENDBRANCH   4   5
ENDBRANCH   3   4
ENDBRANCH   2   3
ENDBRANCH   1   2
BRANCH   1  39
ATOM     39  C   UNL A   1      45.929  22.421  24.827  1.00  0.00     0.188 C 
BRANCH  39  40
ATOM     40  O   UNL A   1      46.409  22.834  26.102  1.00  0.00    -0.376 OA
BRANCH  40  41
ATOM     41  C   UNL A   1      46.014  24.118  26.562  1.00  0.00     0.202 C 
BRANCH  41  42
ATOM     42  C   UNL A   1      47.174  25.086  26.276  1.00  0.00     0.261 C 
BRANCH  42  43
ATOM     43  O   UNL A   1      46.841  26.399  26.786  1.00  0.00    -0.460 OA
BRANCH  43  44
ATOM     44  C   UNL A   1      45.874  27.124  26.147  1.00  0.00     0.338 C 
ATOM     45  O   UNL A   1      45.470  26.931  25.014  1.00  0.00    -0.246 OA
BRANCH  44  46
ATOM     46  C   UNL A   1      45.439  28.265  27.034  1.00  0.00     0.060 A 
ATOM     47  C   UNL A   1      44.342  29.089  26.696  1.00  0.00     0.016 A 
ATOM     48  C   UNL A   1      46.259  28.674  28.073  1.00  0.00     0.016 A 
ATOM     49  C   UNL A   1      44.191  30.405  27.234  1.00  0.00     0.010 A 
ATOM     50  C   UNL A   1      46.127  29.973  28.566  1.00  0.00     0.010 A 
ATOM     51  C   UNL A   1      45.149  30.907  28.104  1.00  0.00    -0.014 A 
BRANCH  51  52
ATOM     52  C   UNL A   1      45.210  32.246  28.823  1.00  0.00     0.031 A 
ATOM     53  C   UNL A   1      43.850  31.978  29.954  1.00  0.00     0.074 A 
ATOM     54  C   UNL A   1      46.305  33.309  28.800  1.00  0.00     0.049 A 
ATOM     55  N   UNL A   1      43.765  32.085  31.262  1.00  0.00    -0.248 NA
ATOM     56  C   UNL A   1      42.507  31.666  29.442  1.00  0.00     0.031 C 
ATOM     57  C   UNL A   1      47.089  34.200  30.051  1.00  0.00     0.029 A 
ATOM     58  N   UNL A   1      47.030  34.031  27.860  1.00  0.00    -0.354 N 
ATOM     59  C   UNL A   1      42.529  32.556  31.613  1.00  0.00     0.074 A 
ATOM     60  C   UNL A   1      41.734  32.000  30.498  1.00  0.00     0.031 C 
ATOM     61  C   UNL A   1      48.239  34.746  29.751  1.00  0.00     0.029 A 
ATOM     62  C   UNL A   1      48.097  34.847  28.352  1.00  0.00     0.049 A 
ATOM     63  H   UNL A   1      46.819  33.984  26.899  1.00  0.00     0.167 HD
ATOM     64  C   UNL A   1      42.260  33.748  32.311  1.00  0.00     0.034 A 
ATOM     65  C   UNL A   1      48.531  36.048  27.958  1.00  0.00     0.034 A 
ATOM     66  C   UNL A   1      43.240  34.945  32.404  1.00  0.00     0.049 A 
ATOM     67  C   UNL A   1      47.582  37.108  28.560  1.00  0.00     0.074 A 
ATOM     68  C   UNL A   1      44.390  35.236  33.140  1.00  0.00     0.029 A 
ATOM     69  N   UNL A   1      43.066  36.197  31.693  1.00  0.00    -0.354 N 
ATOM     70  N   UNL A   1      46.755  36.922  29.594  1.00  0.00    -0.248 NA
ATOM     71  C   UNL A   1      47.473  38.455  28.045  1.00  0.00     0.031 C 
ATOM     72  C   UNL A   1      45.062  36.401  32.589  1.00  0.00     0.029 A 
ATOM     73  C   UNL A   1      44.326  36.919  31.526  1.00  0.00     0.049 A 
ATOM     74  H   UNL A   1      42.198  36.523  31.359  1.00  0.00     0.167 HD
ATOM     75  C   UNL A   1      45.848  37.959  29.711  1.00  0.00     0.074 A 
ATOM     76  C   UNL A   1      46.461  38.939  28.791  1.00  0.00     0.031 C 
ATOM     77  C   UNL A   1      44.620  37.939  30.405  1.00  0.00     0.034 A 
BRANCH  64  78
ATOM     78  C   UNL A   1      41.205  33.589  33.399  1.00  0.00     0.023 A 
ATOM     79  C   UNL A   1      39.849  33.654  33.018  1.00  0.00     0.031 A 
ATOM     80  C   UNL A   1      41.443  33.494  34.787  1.00  0.00     0.131 A 
ATOM     81  C   UNL A   1      38.818  33.670  33.970  1.00  0.00     0.055 A 
ATOM     82  C   UNL A   1      40.415  33.515  35.736  1.00  0.00     0.041 A 
ATOM     83  F   UNL A   1      42.672  33.382  35.301  1.00  0.00    -0.206 F 
ATOM     84  C   UNL A   1      39.094  33.613  35.332  1.00  0.00     0.022 A 
BRANCH  81  85
ATOM     85  S   UNL A   1      37.107  33.800  33.394  1.00  0.00     0.124 S 
ATOM     86  O   UNL A   1      36.698  32.402  33.312  1.00  0.00    -0.237 OA
ATOM     87  O   UNL A   1      36.490  34.594  34.452  1.00  0.00    -0.237 OA
ATOM     88  O   UNL A   1      37.236  34.482  32.106  1.00  0.00    -0.744 OA
ENDBRANCH  81  85
ENDBRANCH  64  78
BRANCH  65  89
ATOM     89  C   UNL A   1      49.697  35.783  27.053  1.00  0.00     0.023 A 
ATOM     90  C   UNL A   1      50.560  34.659  27.369  1.00  0.00     0.031 A 
ATOM     91  C   UNL A   1      49.589  36.108  25.697  1.00  0.00     0.131 A 
ATOM     92  C   UNL A   1      51.106  33.831  26.358  1.00  0.00     0.055 A 
ATOM     93  C   UNL A   1      50.197  35.319  24.694  1.00  0.00     0.041 A 
ATOM     94  F   UNL A   1      48.717  37.052  25.312  1.00  0.00    -0.206 F 
ATOM     95  C   UNL A   1      50.917  34.157  25.015  1.00  0.00     0.022 A 
BRANCH  92  96
ATOM     96  S   UNL A   1      51.749  32.151  26.754  1.00  0.00     0.124 S 
ATOM     97  O   UNL A   1      53.168  32.412  26.974  1.00  0.00    -0.237 OA
ATOM     98  O   UNL A   1      50.988  31.748  27.934  1.00  0.00    -0.237 OA
ATOM     99  O   UNL A   1      51.434  31.371  25.555  1.00  0.00    -0.744 OA
ENDBRANCH  92  96
ENDBRANCH  65  89
BRANCH  77 100
ATOM    100  C   UNL A   1      43.541  38.968  30.010  1.00  0.00     0.023 A 
ATOM    101  C   UNL A   1      42.888  38.965  28.759  1.00  0.00     0.031 A 
ATOM    102  C   UNL A   1      43.095  39.976  30.888  1.00  0.00     0.131 A 
ATOM    103  C   UNL A   1      42.045  40.011  28.348  1.00  0.00     0.055 A 
ATOM    104  C   UNL A   1      42.135  40.936  30.532  1.00  0.00     0.041 A 
ATOM    105  F   UNL A   1      43.562  40.079  32.138  1.00  0.00    -0.206 F 
ATOM    106  C   UNL A   1      41.640  40.989  29.239  1.00  0.00     0.022 A 
BRANCH 103 107
ATOM    107  S   UNL A   1      41.644  40.138  26.581  1.00  0.00     0.124 S 
ATOM    108  O   UNL A   1      40.499  41.046  26.597  1.00  0.00    -0.237 OA
ATOM    109  O   UNL A   1      42.874  40.685  26.019  1.00  0.00    -0.237 OA
ATOM    110  O   UNL A   1      41.336  38.761  26.199  1.00  0.00    -0.744 OA
ENDBRANCH 103 107
ENDBRANCH  77 100
ENDBRANCH  51  52
ENDBRANCH  44  46
ENDBRANCH  43  44
ENDBRANCH  42  43
ENDBRANCH  41  42
ENDBRANCH  40  41
ENDBRANCH  39  40
ENDBRANCH   1  39
TORSDOF 25
ENDMDL
MODEL 3
REMARK VINA RESULT:     -10.0     10.065     15.113
REMARK SMILES Cc1ccc(N2C(=O)N=C(OCCOCCOCCOC(=O)c3ccc(-c4c5nc(c(-c6cc(S(=O)(=O)[O-])ccc6F)c6ccc([nH]6)c(-c6cc(S(=O)(=O)[O-])ccc6F)c6nc(c(-c7cc(S(=O)(=O)[O-])ccc7F)c7ccc4[nH]7)C=C6)C=C5)cc3)/C(=C\c3ccccc3OCc3cccc(C(=O)[O-])c3)C2=O)cc1
REMARK SMILES IDX 15 1 14 2 13 3 12 4 11 5 10 6 6 7 7 8 105 9 8 10 9 11 86 12
REMARK SMILES IDX 106 13 87 14 5 15 1 16 2 17 3 18 108 19 4 20 107 21 88 22
REMARK SMILES IDX 89 23 93 24 90 25 92 26 91 27 94 28 95 29 96 30 97 31 104 32
REMARK SMILES IDX 98 33 100 34 99 35 101 36 102 37 103 38 16 39 17 40 18 41
REMARK SMILES IDX 19 42 20 43 21 44 22 45 23 46 24 47 85 48 25 49 84 50 26 51
REMARK SMILES IDX 27 52 28 53 78 54 29 55 83 56 77 57 79 58 30 59 82 60 76 61
REMARK SMILES IDX 75 62 31 64 63 65 43 66 62 67 44 68 47 69 61 70 80 71 45 72
REMARK SMILES IDX 46 73 60 75 81 76 48 77 32 78 33 79 41 80 34 81 40 82 42 83
REMARK SMILES IDX 39 84 35 85 36 86 37 87 38 88 64 89 65 90 73 91 66 92 72 93
REMARK SMILES IDX 74 94 71 95 67 96 68 97 69 98 70 99 49 100 50 101 58 102
REMARK SMILES IDX 51 103 57 104 59 105 56 106 52 107 53 108 54 109 55 110
REMARK H PARENT 79 63 47 74
REMARK Flexibility Score: inf
ROOT
ATOM      1  C   UNL A   1      48.275  42.985  28.492  1.00  0.00     0.188 C 
ENDROOT
BRANCH   1   2
ATOM      2  O   UNL A   1      47.588  43.419  27.313  1.00  0.00    -0.376 OA
BRANCH   2   3
ATOM      3  C   UNL A   1      48.402  44.322  26.552  1.00  0.00     0.201 C 
BRANCH   3   4
ATOM      4  C   UNL A   1      47.549  45.379  25.867  1.00  0.00     0.260 C 
BRANCH   4   5
ATOM      5  O   UNL A   1      46.912  44.918  24.662  1.00  0.00    -0.475 OA
BRANCH   5   6
ATOM      6  C   UNL A   1      47.023  45.227  23.368  1.00  0.00     0.231 C 
ATOM      7  N   UNL A   1      47.667  45.861  20.739  1.00  0.00    -0.226 N 
ATOM      8  C   UNL A   1      48.620  45.802  21.731  1.00  0.00     0.358 C 
ATOM      9  C   UNL A   1      46.321  45.829  21.090  1.00  0.00     0.272 C 
ATOM     10  O   UNL A   1      49.820  45.907  21.475  1.00  0.00    -0.245 OA
ATOM     11  N   UNL A   1      48.225  45.524  23.007  1.00  0.00    -0.156 NA
ATOM     12  C   UNL A   1      45.853  45.291  22.511  1.00  0.00     0.103 C 
ATOM     13  O   UNL A   1      45.529  46.151  20.211  1.00  0.00    -0.268 OA
ATOM     14  C   UNL A   1      44.550  44.877  22.766  1.00  0.00     0.031 C 
BRANCH   7  15
ATOM     15  C   UNL A   1      48.092  46.105  19.334  1.00  0.00     0.054 A 
ATOM     16  C   UNL A   1      49.441  46.751  15.180  1.00  0.00     0.044 C 
ATOM     17  C   UNL A   1      48.967  46.532  16.596  1.00  0.00    -0.051 A 
ATOM     18  C   UNL A   1      48.763  47.605  17.471  1.00  0.00     0.005 A 
ATOM     19  C   UNL A   1      48.696  45.252  17.086  1.00  0.00     0.005 A 
ATOM     20  C   UNL A   1      48.352  47.395  18.818  1.00  0.00     0.027 A 
ATOM     21  C   UNL A   1      48.251  45.047  18.418  1.00  0.00     0.027 A 
ENDBRANCH   7  15
BRANCH  14  22
ATOM     22  C   UNL A   1      43.567  43.703  23.510  1.00  0.00     0.018 A 
ATOM     23  C   UNL A   1      42.332  43.665  22.824  1.00  0.00     0.012 A 
ATOM     24  C   UNL A   1      43.770  42.465  24.471  1.00  0.00     0.127 A 
ATOM     25  C   UNL A   1      41.312  42.745  23.135  1.00  0.00     0.001 A 
ATOM     26  C   UNL A   1      42.672  41.634  24.797  1.00  0.00     0.047 A 
ATOM     27  C   UNL A   1      41.459  41.786  24.140  1.00  0.00     0.004 A 
BRANCH  24  28
ATOM     28  O   UNL A   1      45.043  41.455  24.827  1.00  0.00    -0.488 OA
BRANCH  28  29
ATOM     29  C   UNL A   1      45.949  40.714  26.111  1.00  0.00     0.265 C 
BRANCH  29  30
ATOM     30  C   UNL A   1      46.715  39.347  26.460  1.00  0.00    -0.010 A 
ATOM     31  C   UNL A   1      47.123  38.469  25.439  1.00  0.00     0.007 A 
ATOM     32  C   UNL A   1      46.716  38.789  27.748  1.00  0.00     0.017 A 
ATOM     33  C   UNL A   1      47.506  37.137  25.711  1.00  0.00     0.001 A 
ATOM     34  C   UNL A   1      47.123  37.480  28.049  1.00  0.00    -0.002 A 
ATOM     35  C   UNL A   1      47.501  36.639  27.016  1.00  0.00     0.010 A 
BRANCH  34  36
ATOM     36  C   UNL A   1      47.066  36.979  29.449  1.00  0.00     0.071 C 
ATOM     37  O   UNL A   1      47.014  37.651  30.459  1.00  0.00    -0.545 OA
ATOM     38  O   UNL A   1      47.052  35.633  29.498  1.00  0.00    -0.545 OA
ENDBRANCH  34  36
ENDBRANCH  29  30
ENDBRANCH  28  29
ENDBRANCH  24  28
ENDBRANCH  14  22
ENDBRANCH   5   6
ENDBRANCH   4   5
ENDBRANCH   3   4
ENDBRANCH   2   3
ENDBRANCH   1   2
BRANCH   1  39
ATOM     39  C   UNL A   1      47.329  42.626  29.647  1.00  0.00     0.188 C 
BRANCH  39  40
ATOM     40  O   UNL A   1      45.993  43.115  29.611  1.00  0.00    -0.376 OA
BRANCH  40  41
ATOM     41  C   UNL A   1      44.994  42.326  30.243  1.00  0.00     0.202 C 
BRANCH  41  42
ATOM     42  C   UNL A   1      43.990  41.901  29.160  1.00  0.00     0.261 C 
BRANCH  42  43
ATOM     43  O   UNL A   1      43.834  40.462  29.188  1.00  0.00    -0.460 OA
BRANCH  43  44
ATOM     44  C   UNL A   1      42.847  39.896  28.430  1.00  0.00     0.338 C 
ATOM     45  O   UNL A   1      41.914  40.488  27.915  1.00  0.00    -0.246 OA
BRANCH  44  46
ATOM     46  C   UNL A   1      43.038  38.400  28.399  1.00  0.00     0.060 A 
ATOM     47  C   UNL A   1      42.442  37.597  27.400  1.00  0.00     0.016 A 
ATOM     48  C   UNL A   1      43.603  37.760  29.491  1.00  0.00     0.016 A 
ATOM     49  C   UNL A   1      42.217  36.198  27.589  1.00  0.00     0.010 A 
ATOM     50  C   UNL A   1      43.346  36.402  29.685  1.00  0.00     0.010 A 
ATOM     51  C   UNL A   1      42.575  35.600  28.790  1.00  0.00    -0.014 A 
BRANCH  51  52
ATOM     52  C   UNL A   1      42.465  34.147  29.228  1.00  0.00     0.031 A 
ATOM     53  C   UNL A   1      44.130  33.640  28.814  1.00  0.00     0.074 A 
ATOM     54  C   UNL A   1      41.384  33.466  30.064  1.00  0.00     0.049 A 
ATOM     55  N   UNL A   1      45.063  33.039  29.520  1.00  0.00    -0.248 NA
ATOM     56  C   UNL A   1      44.631  33.784  27.439  1.00  0.00     0.031 C 
ATOM     57  C   UNL A   1      41.459  32.394  31.412  1.00  0.00     0.029 A 
ATOM     58  N   UNL A   1      40.000  33.341  30.068  1.00  0.00    -0.354 N 
ATOM     59  C   UNL A   1      45.778  32.188  28.721  1.00  0.00     0.074 A 
ATOM     60  C   UNL A   1      45.658  32.907  27.435  1.00  0.00     0.031 C 
ATOM     61  C   UNL A   1      40.379  32.293  32.143  1.00  0.00     0.029 A 
ATOM     62  C   UNL A   1      39.412  32.686  31.195  1.00  0.00     0.049 A 
ATOM     63  H   UNL A   1      39.449  33.688  29.329  1.00  0.00     0.167 HD
ATOM     64  C   UNL A   1      45.896  30.796  28.885  1.00  0.00     0.034 A 
ATOM     65  C   UNL A   1      38.365  31.860  31.275  1.00  0.00     0.034 A 
ATOM     66  C   UNL A   1      44.902  29.925  29.695  1.00  0.00     0.049 A 
ATOM     67  C   UNL A   1      38.843  30.456  30.840  1.00  0.00     0.074 A 
ATOM     68  C   UNL A   1      44.675  29.669  31.048  1.00  0.00     0.029 A 
ATOM     69  N   UNL A   1      43.936  29.022  29.096  1.00  0.00    -0.354 N 
ATOM     70  N   UNL A   1      40.113  30.040  30.795  1.00  0.00    -0.248 NA
ATOM     71  C   UNL A   1      37.941  29.412  30.408  1.00  0.00     0.031 C 
ATOM     72  C   UNL A   1      43.402  28.990  31.227  1.00  0.00     0.029 A 
ATOM     73  C   UNL A   1      42.814  28.741  29.990  1.00  0.00     0.049 A 
ATOM     74  H   UNL A   1      44.026  28.644  28.191  1.00  0.00     0.167 HD
ATOM     75  C   UNL A   1      40.232  28.848  30.105  1.00  0.00     0.074 A 
ATOM     76  C   UNL A   1      38.810  28.457  30.024  1.00  0.00     0.031 C 
ATOM     77  C   UNL A   1      41.404  28.313  29.531  1.00  0.00     0.034 A 
BRANCH  64  78
ATOM     78  C   UNL A   1      47.317  30.280  28.688  1.00  0.00     0.023 A 
ATOM     79  C   UNL A   1      47.490  29.086  27.959  1.00  0.00     0.031 A 
ATOM     80  C   UNL A   1      48.488  30.818  29.261  1.00  0.00     0.131 A 
ATOM     81  C   UNL A   1      48.743  28.462  27.858  1.00  0.00     0.055 A 
ATOM     82  C   UNL A   1      49.736  30.192  29.165  1.00  0.00     0.041 A 
ATOM     83  F   UNL A   1      48.494  31.967  29.945  1.00  0.00    -0.206 F 
ATOM     84  C   UNL A   1      49.869  29.003  28.469  1.00  0.00     0.022 A 
BRANCH  81  85
ATOM     85  S   UNL A   1      48.865  26.907  26.939  1.00  0.00     0.124 S 
ATOM     86  O   UNL A   1      48.484  25.920  27.944  1.00  0.00    -0.237 OA
ATOM     87  O   UNL A   1      47.918  27.122  25.851  1.00  0.00    -0.237 OA
ATOM     88  O   UNL A   1      50.270  26.865  26.534  1.00  0.00    -0.744 OA
ENDBRANCH  81  85
ENDBRANCH  64  78
BRANCH  65  89
ATOM     89  C   UNL A   1      37.201  32.714  31.683  1.00  0.00     0.023 A 
ATOM     90  C   UNL A   1      36.484  33.426  30.640  1.00  0.00     0.031 A 
ATOM     91  C   UNL A   1      36.446  32.340  32.798  1.00  0.00     0.131 A 
ATOM     92  C   UNL A   1      35.075  33.565  30.667  1.00  0.00     0.055 A 
ATOM     93  C   UNL A   1      35.049  32.548  32.852  1.00  0.00     0.041 A 
ATOM     94  F   UNL A   1      37.005  31.573  33.747  1.00  0.00    -0.206 F 
ATOM     95  C   UNL A   1      34.354  33.118  31.774  1.00  0.00     0.022 A 
BRANCH  92  96
ATOM     96  S   UNL A   1      34.135  33.993  29.142  1.00  0.00     0.124 S 
ATOM     97  O   UNL A   1      34.000  32.693  28.493  1.00  0.00    -0.237 OA
ATOM     98  O   UNL A   1      32.896  34.584  29.642  1.00  0.00    -0.237 OA
ATOM     99  O   UNL A   1      35.009  34.948  28.457  1.00  0.00    -0.744 OA
ENDBRANCH  92  96
ENDBRANCH  65  89
BRANCH  77 100
ATOM    100  C   UNL A   1      41.254  27.275  28.400  1.00  0.00     0.023 A 
ATOM    101  C   UNL A   1      41.426  25.888  28.593  1.00  0.00     0.031 A 
ATOM    102  C   UNL A   1      40.895  27.632  27.084  1.00  0.00     0.131 A 
ATOM    103  C   UNL A   1      41.465  24.979  27.522  1.00  0.00     0.055 A 
ATOM    104  C   UNL A   1      40.781  26.702  26.039  1.00  0.00     0.041 A 
ATOM    105  F   UNL A   1      40.627  28.899  26.745  1.00  0.00    -0.206 F 
ATOM    106  C   UNL A   1      41.117  25.373  26.241  1.00  0.00     0.022 A 
BRANCH 103 107
ATOM    107  S   UNL A   1      42.149  23.325  27.833  1.00  0.00     0.124 S 
ATOM    108  O   UNL A   1      40.940  22.539  28.067  1.00  0.00    -0.237 OA
ATOM    109  O   UNL A   1      42.855  23.039  26.589  1.00  0.00    -0.237 OA
ATOM    110  O   UNL A   1      42.997  23.519  29.007  1.00  0.00    -0.744 OA
ENDBRANCH 103 107
ENDBRANCH  77 100
ENDBRANCH  51  52
ENDBRANCH  44  46
ENDBRANCH  43  44
ENDBRANCH  42  43
ENDBRANCH  41  42
ENDBRANCH  40  41
ENDBRANCH  39  40
ENDBRANCH   1  39
TORSDOF 25
ENDMDL
