MODEL 1
REMARK VINA RESULT:     -10.5      0.000      0.000
REMARK SMILES C[C@H]1SC[C@H](C(=O)OCCOCCOCCOC(=O)c2ccc(-c3c4nc(c(-c5cc(S(=O)(=O)[O-])ccc5F)c5ccc([nH]5)c(-c5cc(S(=O)(=O)[O-])ccc5F)c5nc(c(-c6cc(S(=O)(=O)[O-])ccc6F)c6ccc3[nH]6)C=C5)C=C4)cc2)N1C(=O)[C@@H]1CSc2ccccc21
REMARK SMILES IDX 13 1 12 2 11 3 10 4 9 5 8 6 6 7 7 8 5 9 1 10 2 11 3 12 83 13
REMARK SMILES IDX 4 14 84 15 85 16 86 17 87 18 94 19 88 20 89 21 93 22 90 23
REMARK SMILES IDX 92 24 91 25 14 26 15 27 16 28 17 29 18 30 19 31 20 32 21 33
REMARK SMILES IDX 82 34 22 35 81 36 23 37 24 38 25 39 75 40 26 41 80 42 74 43
REMARK SMILES IDX 76 44 27 45 79 46 73 47 72 48 28 50 60 51 40 52 59 53 41 54
REMARK SMILES IDX 44 55 58 56 77 57 42 58 43 59 57 61 78 62 45 63 29 64 30 65
REMARK SMILES IDX 38 66 31 67 37 68 39 69 36 70 32 71 33 72 34 73 35 74 61 75
REMARK SMILES IDX 62 76 70 77 63 78 69 79 71 80 68 81 64 82 65 83 66 84 67 85
REMARK SMILES IDX 46 86 47 87 55 88 48 89 54 90 56 91 53 92 49 93 50 94 51 95
REMARK SMILES IDX 52 96
REMARK H PARENT 76 49 44 60
REMARK Flexibility Score: inf
ROOT
ATOM      1  C   UNL A   1      33.313  30.384  27.131  1.00  0.00     0.188 C 
ENDROOT
BRANCH   1   2
ATOM      2  C   UNL A   1      33.992  29.399  26.173  1.00  0.00     0.188 C 
BRANCH   2   3
ATOM      3  O   UNL A   1      33.442  29.177  24.879  1.00  0.00    -0.376 OA
BRANCH   3   4
ATOM      4  C   UNL A   1      34.283  28.908  23.769  1.00  0.00     0.202 C 
BRANCH   4   5
ATOM      5  C   UNL A   1      33.655  28.346  22.480  1.00  0.00     0.261 C 
BRANCH   5   6
ATOM      6  O   UNL A   1      34.046  27.020  22.068  1.00  0.00    -0.462 OA
BRANCH   6   7
ATOM      7  C   UNL A   1      33.049  26.088  22.085  1.00  0.00     0.329 C 
ATOM      8  O   UNL A   1      32.990  25.150  21.298  1.00  0.00    -0.250 OA
BRANCH   7   9
ATOM      9  C   UNL A   1      31.982  26.326  23.186  1.00  0.00     0.206 C 
ATOM     10  C   UNL A   1      31.091  27.128  26.073  1.00  0.00     0.043 C 
ATOM     11  C   UNL A   1      30.933  25.816  25.303  1.00  0.00     0.141 C 
ATOM     12  S   UNL A   1      29.500  25.942  24.212  1.00  0.00    -0.135 SA
ATOM     13  N   UNL A   1      32.058  25.532  24.416  1.00  0.00    -0.316 N 
ATOM     14  C   UNL A   1      30.514  26.213  22.737  1.00  0.00     0.109 C 
BRANCH  13  15
ATOM     15  C   UNL A   1      33.120  24.688  24.654  1.00  0.00     0.232 C 
ATOM     16  O   UNL A   1      34.186  25.098  25.115  1.00  0.00    -0.274 OA
BRANCH  15  17
ATOM     17  C   UNL A   1      33.053  23.232  24.187  1.00  0.00     0.120 C 
ATOM     18  C   UNL A   1      32.242  22.367  25.167  1.00  0.00     0.093 C 
ATOM     19  C   UNL A   1      34.408  22.628  23.982  1.00  0.00    -0.021 A 
ATOM     20  S   UNL A   1      33.316  21.032  25.792  1.00  0.00    -0.125 SA
ATOM     21  C   UNL A   1      34.701  21.557  24.825  1.00  0.00     0.011 A 
ATOM     22  C   UNL A   1      35.386  23.197  23.170  1.00  0.00     0.006 A 
ATOM     23  C   UNL A   1      36.010  21.134  24.980  1.00  0.00     0.015 A 
ATOM     24  C   UNL A   1      36.698  22.760  23.306  1.00  0.00     0.000 A 
ATOM     25  C   UNL A   1      37.014  21.758  24.232  1.00  0.00     0.001 A 
ENDBRANCH  15  17
ENDBRANCH  13  15
ENDBRANCH   7   9
ENDBRANCH   6   7
ENDBRANCH   5   6
ENDBRANCH   4   5
ENDBRANCH   3   4
ENDBRANCH   2   3
ENDBRANCH   1   2
BRANCH   1  26
ATOM     26  O   UNL A   1      32.036  30.817  26.728  1.00  0.00    -0.376 OA
BRANCH  26  27
ATOM     27  C   UNL A   1      31.720  32.179  26.915  1.00  0.00     0.202 C 
BRANCH  27  28
ATOM     28  C   UNL A   1      32.745  33.035  27.671  1.00  0.00     0.261 C 
BRANCH  28  29
ATOM     29  O   UNL A   1      32.459  34.440  27.792  1.00  0.00    -0.460 OA
BRANCH  29  30
ATOM     30  C   UNL A   1      32.968  35.096  28.868  1.00  0.00     0.338 C 
ATOM     31  O   UNL A   1      32.445  36.013  29.461  1.00  0.00    -0.246 OA
BRANCH  30  32
ATOM     32  C   UNL A   1      34.161  34.336  29.339  1.00  0.00     0.060 A 
ATOM     33  C   UNL A   1      34.012  33.397  30.372  1.00  0.00     0.016 A 
ATOM     34  C   UNL A   1      35.414  34.537  28.758  1.00  0.00     0.016 A 
ATOM     35  C   UNL A   1      35.119  32.676  30.839  1.00  0.00     0.010 A 
ATOM     36  C   UNL A   1      36.524  33.832  29.243  1.00  0.00     0.010 A 
ATOM     37  C   UNL A   1      36.391  32.915  30.303  1.00  0.00    -0.014 A 
BRANCH  37  38
ATOM     38  C   UNL A   1      37.613  32.368  30.959  1.00  0.00     0.031 A 
ATOM     39  C   UNL A   1      38.400  31.309  30.227  1.00  0.00     0.074 A 
ATOM     40  C   UNL A   1      38.016  32.774  32.177  1.00  0.00     0.049 A 
ATOM     41  N   UNL A   1      39.410  30.587  30.636  1.00  0.00    -0.248 NA
ATOM     42  C   UNL A   1      37.976  31.028  28.847  1.00  0.00     0.031 C 
ATOM     43  C   UNL A   1      37.385  33.825  32.971  1.00  0.00     0.029 A 
ATOM     44  N   UNL A   1      39.048  32.329  32.972  1.00  0.00    -0.354 N 
ATOM     45  C   UNL A   1      39.731  29.750  29.573  1.00  0.00     0.074 A 
ATOM     46  C   UNL A   1      38.791  30.040  28.511  1.00  0.00     0.031 C 
ATOM     47  C   UNL A   1      38.028  33.929  34.147  1.00  0.00     0.029 A 
ATOM     48  C   UNL A   1      39.085  32.919  34.215  1.00  0.00     0.049 A 
ATOM     49  H   UNL A   1      39.700  31.652  32.678  1.00  0.00     0.167 HD
ATOM     50  C   UNL A   1      40.720  28.825  29.488  1.00  0.00     0.034 A 
ATOM     51  C   UNL A   1      39.850  32.648  35.296  1.00  0.00     0.034 A 
ATOM     52  C   UNL A   1      41.648  28.538  30.555  1.00  0.00     0.049 A 
ATOM     53  C   UNL A   1      40.881  31.543  35.214  1.00  0.00     0.074 A 
ATOM     54  C   UNL A   1      42.700  27.638  30.560  1.00  0.00     0.029 A 
ATOM     55  N   UNL A   1      41.625  29.128  31.812  1.00  0.00    -0.354 N 
ATOM     56  N   UNL A   1      41.181  30.762  34.200  1.00  0.00    -0.248 NA
ATOM     57  C   UNL A   1      41.678  31.282  36.422  1.00  0.00     0.031 C 
ATOM     58  C   UNL A   1      43.254  27.619  31.843  1.00  0.00     0.029 A 
ATOM     59  C   UNL A   1      42.616  28.579  32.613  1.00  0.00     0.049 A 
ATOM     60  H   UNL A   1      40.999  29.833  32.094  1.00  0.00     0.167 HD
ATOM     61  C   UNL A   1      42.226  29.948  34.642  1.00  0.00     0.074 A 
ATOM     62  C   UNL A   1      42.510  30.340  36.005  1.00  0.00     0.031 C 
ATOM     63  C   UNL A   1      42.893  28.971  33.976  1.00  0.00     0.034 A 
BRANCH  50  64
ATOM     64  C   UNL A   1      40.808  28.011  28.219  1.00  0.00     0.023 A 
ATOM     65  C   UNL A   1      40.184  26.758  28.092  1.00  0.00     0.031 A 
ATOM     66  C   UNL A   1      41.545  28.493  27.122  1.00  0.00     0.131 A 
ATOM     67  C   UNL A   1      40.364  26.002  26.923  1.00  0.00     0.055 A 
ATOM     68  C   UNL A   1      41.649  27.775  25.930  1.00  0.00     0.041 A 
ATOM     69  F   UNL A   1      42.184  29.671  27.193  1.00  0.00    -0.206 F 
ATOM     70  C   UNL A   1      41.068  26.514  25.830  1.00  0.00     0.022 A 
BRANCH  67  71
ATOM     71  S   UNL A   1      39.787  24.283  26.905  1.00  0.00     0.124 S 
ATOM     72  O   UNL A   1      38.695  24.348  25.938  1.00  0.00    -0.237 OA
ATOM     73  O   UNL A   1      40.976  23.556  26.478  1.00  0.00    -0.237 OA
ATOM     74  O   UNL A   1      39.373  24.047  28.287  1.00  0.00    -0.744 OA
ENDBRANCH  67  71
ENDBRANCH  50  64
BRANCH  51  75
ATOM     75  C   UNL A   1      39.641  33.383  36.581  1.00  0.00     0.023 A 
ATOM     76  C   UNL A   1      38.925  32.807  37.645  1.00  0.00     0.031 A 
ATOM     77  C   UNL A   1      40.088  34.708  36.734  1.00  0.00     0.131 A 
ATOM     78  C   UNL A   1      38.635  33.570  38.789  1.00  0.00     0.055 A 
ATOM     79  C   UNL A   1      39.852  35.440  37.900  1.00  0.00     0.041 A 
ATOM     80  F   UNL A   1      40.762  35.315  35.744  1.00  0.00    -0.206 F 
ATOM     81  C   UNL A   1      39.109  34.875  38.930  1.00  0.00     0.022 A 
BRANCH  78  82
ATOM     82  S   UNL A   1      37.531  32.866  40.046  1.00  0.00     0.124 S 
ATOM     83  O   UNL A   1      38.353  31.792  40.593  1.00  0.00    -0.237 OA
ATOM     84  O   UNL A   1      37.302  34.009  40.923  1.00  0.00    -0.237 OA
ATOM     85  O   UNL A   1      36.369  32.431  39.275  1.00  0.00    -0.744 OA
ENDBRANCH  78  82
ENDBRANCH  51  75
BRANCH  63  86
ATOM     86  C   UNL A   1      44.040  28.292  34.691  1.00  0.00     0.023 A 
ATOM     87  C   UNL A   1      43.842  27.214  35.571  1.00  0.00     0.031 A 
ATOM     88  C   UNL A   1      45.361  28.734  34.480  1.00  0.00     0.131 A 
ATOM     89  C   UNL A   1      44.937  26.649  36.245  1.00  0.00     0.055 A 
ATOM     90  C   UNL A   1      46.452  28.124  35.101  1.00  0.00     0.041 A 
ATOM     91  F   UNL A   1      45.614  29.763  33.655  1.00  0.00    -0.206 F 
ATOM     92  C   UNL A   1      46.242  27.083  35.999  1.00  0.00     0.022 A 
BRANCH  89  93
ATOM     93  S   UNL A   1      44.627  25.397  37.521  1.00  0.00     0.124 S 
ATOM     94  O   UNL A   1      45.731  24.467  37.309  1.00  0.00    -0.237 OA
ATOM     95  O   UNL A   1      44.681  26.182  38.749  1.00  0.00    -0.237 OA
ATOM     96  O   UNL A   1      43.304  24.877  37.178  1.00  0.00    -0.744 OA
ENDBRANCH  89  93
ENDBRANCH  63  86
ENDBRANCH  37  38
ENDBRANCH  30  32
ENDBRANCH  29  30
ENDBRANCH  28  29
ENDBRANCH  27  28
ENDBRANCH  26  27
ENDBRANCH   1  26
TORSDOF 22
ENDMDL
MODEL 2
REMARK VINA RESULT:     -10.4      2.757      9.100
REMARK SMILES C[C@H]1SC[C@H](C(=O)OCCOCCOCCOC(=O)c2ccc(-c3c4nc(c(-c5cc(S(=O)(=O)[O-])ccc5F)c5ccc([nH]5)c(-c5cc(S(=O)(=O)[O-])ccc5F)c5nc(c(-c6cc(S(=O)(=O)[O-])ccc6F)c6ccc3[nH]6)C=C5)C=C4)cc2)N1C(=O)[C@@H]1CSc2ccccc21
REMARK SMILES IDX 13 1 12 2 11 3 10 4 9 5 8 6 6 7 7 8 5 9 1 10 2 11 3 12 83 13
REMARK SMILES IDX 4 14 84 15 85 16 86 17 87 18 94 19 88 20 89 21 93 22 90 23
REMARK SMILES IDX 92 24 91 25 14 26 15 27 16 28 17 29 18 30 19 31 20 32 21 33
REMARK SMILES IDX 82 34 22 35 81 36 23 37 24 38 25 39 75 40 26 41 80 42 74 43
REMARK SMILES IDX 76 44 27 45 79 46 73 47 72 48 28 50 60 51 40 52 59 53 41 54
REMARK SMILES IDX 44 55 58 56 77 57 42 58 43 59 57 61 78 62 45 63 29 64 30 65
REMARK SMILES IDX 38 66 31 67 37 68 39 69 36 70 32 71 33 72 34 73 35 74 61 75
REMARK SMILES IDX 62 76 70 77 63 78 69 79 71 80 68 81 64 82 65 83 66 84 67 85
REMARK SMILES IDX 46 86 47 87 55 88 48 89 54 90 56 91 53 92 49 93 50 94 51 95
REMARK SMILES IDX 52 96
REMARK H PARENT 76 49 44 60
REMARK Flexibility Score: inf
ROOT
ATOM      1  C   UNL A   1      40.447  20.706  26.531  1.00  0.00     0.188 C 
ENDROOT
BRANCH   1   2
ATOM      2  C   UNL A   1      39.456  21.874  26.536  1.00  0.00     0.188 C 
BRANCH   2   3
ATOM      3  O   UNL A   1      38.620  22.098  25.406  1.00  0.00    -0.376 OA
BRANCH   3   4
ATOM      4  C   UNL A   1      37.214  21.930  25.499  1.00  0.00     0.202 C 
BRANCH   4   5
ATOM      5  C   UNL A   1      36.296  23.052  24.980  1.00  0.00     0.261 C 
BRANCH   5   6
ATOM      6  O   UNL A   1      34.923  23.052  25.422  1.00  0.00    -0.462 OA
BRANCH   6   7
ATOM      7  C   UNL A   1      34.030  22.503  24.549  1.00  0.00     0.329 C 
ATOM      8  O   UNL A   1      34.321  21.615  23.756  1.00  0.00    -0.250 OA
BRANCH   7   9
ATOM      9  C   UNL A   1      32.606  23.114  24.636  1.00  0.00     0.206 C 
ATOM     10  C   UNL A   1      30.061  24.434  23.388  1.00  0.00     0.043 C 
ATOM     11  C   UNL A   1      31.044  24.949  24.441  1.00  0.00     0.141 C 
ATOM     12  S   UNL A   1      30.596  24.263  26.050  1.00  0.00    -0.135 SA
ATOM     13  N   UNL A   1      32.416  24.505  24.212  1.00  0.00    -0.316 N 
ATOM     14  C   UNL A   1      31.918  23.027  26.010  1.00  0.00     0.109 C 
BRANCH  13  15
ATOM     15  C   UNL A   1      33.440  25.218  23.626  1.00  0.00     0.232 C 
ATOM     16  O   UNL A   1      34.077  24.774  22.671  1.00  0.00    -0.274 OA
BRANCH  15  17
ATOM     17  C   UNL A   1      33.923  26.520  24.269  1.00  0.00     0.120 C 
ATOM     18  C   UNL A   1      34.114  26.358  25.787  1.00  0.00     0.093 C 
ATOM     19  C   UNL A   1      33.007  27.673  23.995  1.00  0.00    -0.021 A 
ATOM     20  S   UNL A   1      33.031  27.551  26.641  1.00  0.00    -0.125 SA
ATOM     21  C   UNL A   1      32.403  28.218  25.128  1.00  0.00     0.011 A 
ATOM     22  C   UNL A   1      32.617  28.055  22.714  1.00  0.00     0.006 A 
ATOM     23  C   UNL A   1      31.299  29.042  24.996  1.00  0.00     0.015 A 
ATOM     24  C   UNL A   1      31.522  28.900  22.578  1.00  0.00     0.000 A 
ATOM     25  C   UNL A   1      30.844  29.362  23.713  1.00  0.00     0.001 A 
ENDBRANCH  15  17
ENDBRANCH  13  15
ENDBRANCH   7   9
ENDBRANCH   6   7
ENDBRANCH   5   6
ENDBRANCH   4   5
ENDBRANCH   3   4
ENDBRANCH   2   3
ENDBRANCH   1   2
BRANCH   1  26
ATOM     26  O   UNL A   1      41.546  20.866  25.666  1.00  0.00    -0.376 OA
BRANCH  26  27
ATOM     27  C   UNL A   1      42.750  20.220  26.015  1.00  0.00     0.202 C 
BRANCH  27  28
ATOM     28  C   UNL A   1      44.057  20.912  25.604  1.00  0.00     0.261 C 
BRANCH  28  29
ATOM     29  O   UNL A   1      44.283  22.237  26.118  1.00  0.00    -0.460 OA
BRANCH  29  30
ATOM     30  C   UNL A   1      43.942  23.287  25.326  1.00  0.00     0.338 C 
ATOM     31  O   UNL A   1      43.949  23.303  24.116  1.00  0.00    -0.246 OA
BRANCH  30  32
ATOM     32  C   UNL A   1      43.325  24.328  26.196  1.00  0.00     0.060 A 
ATOM     33  C   UNL A   1      43.743  25.663  26.072  1.00  0.00     0.016 A 
ATOM     34  C   UNL A   1      42.332  23.995  27.118  1.00  0.00     0.016 A 
ATOM     35  C   UNL A   1      43.185  26.659  26.883  1.00  0.00     0.010 A 
ATOM     36  C   UNL A   1      41.792  24.989  27.946  1.00  0.00     0.010 A 
ATOM     37  C   UNL A   1      42.232  26.324  27.854  1.00  0.00    -0.014 A 
BRANCH  37  38
ATOM     38  C   UNL A   1      41.828  27.305  28.900  1.00  0.00     0.031 A 
ATOM     39  C   UNL A   1      42.610  27.333  30.190  1.00  0.00     0.074 A 
ATOM     40  C   UNL A   1      40.786  28.142  28.735  1.00  0.00     0.049 A 
ATOM     41  N   UNL A   1      42.376  27.992  31.295  1.00  0.00    -0.248 NA
ATOM     42  C   UNL A   1      43.816  26.492  30.233  1.00  0.00     0.031 C 
ATOM     43  C   UNL A   1      39.981  28.261  27.522  1.00  0.00     0.029 A 
ATOM     44  N   UNL A   1      40.214  29.040  29.607  1.00  0.00    -0.354 N 
ATOM     45  C   UNL A   1      43.392  27.631  32.173  1.00  0.00     0.074 A 
ATOM     46  C   UNL A   1      44.228  26.676  31.478  1.00  0.00     0.031 C 
ATOM     47  C   UNL A   1      39.005  29.162  27.734  1.00  0.00     0.029 A 
ATOM     48  C   UNL A   1      39.082  29.648  29.113  1.00  0.00     0.049 A 
ATOM     49  H   UNL A   1      40.580  29.231  30.500  1.00  0.00     0.167 HD
ATOM     50  C   UNL A   1      43.609  28.057  33.443  1.00  0.00     0.034 A 
ATOM     51  C   UNL A   1      38.187  30.465  29.713  1.00  0.00     0.034 A 
ATOM     52  C   UNL A   1      42.765  29.004  34.129  1.00  0.00     0.049 A 
ATOM     53  C   UNL A   1      38.394  30.850  31.162  1.00  0.00     0.074 A 
ATOM     54  C   UNL A   1      42.913  29.518  35.406  1.00  0.00     0.029 A 
ATOM     55  N   UNL A   1      41.606  29.564  33.609  1.00  0.00    -0.354 N 
ATOM     56  N   UNL A   1      39.363  30.507  31.981  1.00  0.00    -0.248 NA
ATOM     57  C   UNL A   1      37.385  31.732  31.769  1.00  0.00     0.031 C 
ATOM     58  C   UNL A   1      41.800  30.316  35.689  1.00  0.00     0.029 A 
ATOM     59  C   UNL A   1      41.007  30.383  34.555  1.00  0.00     0.049 A 
ATOM     60  H   UNL A   1      41.260  29.405  32.701  1.00  0.00     0.167 HD
ATOM     61  C   UNL A   1      39.096  31.164  33.184  1.00  0.00     0.074 A 
ATOM     62  C   UNL A   1      37.886  31.929  32.979  1.00  0.00     0.031 C 
ATOM     63  C   UNL A   1      39.795  31.141  34.348  1.00  0.00     0.034 A 
BRANCH  50  64
ATOM     64  C   UNL A   1      44.772  27.452  34.192  1.00  0.00     0.023 A 
ATOM     65  C   UNL A   1      44.652  26.250  34.912  1.00  0.00     0.031 A 
ATOM     66  C   UNL A   1      46.021  28.100  34.200  1.00  0.00     0.131 A 
ATOM     67  C   UNL A   1      45.738  25.771  35.661  1.00  0.00     0.055 A 
ATOM     68  C   UNL A   1      47.121  27.574  34.876  1.00  0.00     0.041 A 
ATOM     69  F   UNL A   1      46.190  29.264  33.552  1.00  0.00    -0.206 F 
ATOM     70  C   UNL A   1      46.980  26.409  35.626  1.00  0.00     0.022 A 
BRANCH  67  71
ATOM     71  S   UNL A   1      45.462  24.385  36.797  1.00  0.00     0.124 S 
ATOM     72  O   UNL A   1      46.819  23.873  36.972  1.00  0.00    -0.237 OA
ATOM     73  O   UNL A   1      44.872  25.040  37.957  1.00  0.00    -0.237 OA
ATOM     74  O   UNL A   1      44.565  23.504  36.052  1.00  0.00    -0.744 OA
ENDBRANCH  67  71
ENDBRANCH  50  64
BRANCH  51  75
ATOM     75  C   UNL A   1      36.973  30.936  28.979  1.00  0.00     0.023 A 
ATOM     76  C   UNL A   1      36.634  32.299  28.925  1.00  0.00     0.031 A 
ATOM     77  C   UNL A   1      36.088  30.018  28.385  1.00  0.00     0.131 A 
ATOM     78  C   UNL A   1      35.420  32.697  28.340  1.00  0.00     0.055 A 
ATOM     79  C   UNL A   1      34.914  30.425  27.748  1.00  0.00     0.041 A 
ATOM     80  F   UNL A   1      36.352  28.701  28.420  1.00  0.00    -0.206 F 
ATOM     81  C   UNL A   1      34.568  31.772  27.736  1.00  0.00     0.022 A 
BRANCH  78  82
ATOM     82  S   UNL A   1      34.918  34.436  28.479  1.00  0.00     0.124 S 
ATOM     83  O   UNL A   1      33.700  34.329  29.274  1.00  0.00    -0.237 OA
ATOM     84  O   UNL A   1      36.070  35.033  29.145  1.00  0.00    -0.237 OA
ATOM     85  O   UNL A   1      34.722  34.845  27.090  1.00  0.00    -0.744 OA
ENDBRANCH  78  82
ENDBRANCH  51  75
BRANCH  63  86
ATOM     86  C   UNL A   1      39.302  32.016  35.479  1.00  0.00     0.023 A 
ATOM     87  C   UNL A   1      39.711  33.353  35.625  1.00  0.00     0.031 A 
ATOM     88  C   UNL A   1      38.397  31.499  36.425  1.00  0.00     0.131 A 
ATOM     89  C   UNL A   1      39.258  34.109  36.719  1.00  0.00     0.055 A 
ATOM     90  C   UNL A   1      37.897  32.275  37.472  1.00  0.00     0.041 A 
ATOM     91  F   UNL A   1      37.972  30.227  36.341  1.00  0.00    -0.206 F 
ATOM     92  C   UNL A   1      38.338  33.585  37.630  1.00  0.00     0.022 A 
BRANCH  89  93
ATOM     93  S   UNL A   1      39.960  35.760  36.992  1.00  0.00     0.124 S 
ATOM     94  O   UNL A   1      41.384  35.466  37.123  1.00  0.00    -0.237 OA
ATOM     95  O   UNL A   1      39.565  36.472  35.781  1.00  0.00    -0.237 OA
ATOM     96  O   UNL A   1      39.305  36.214  38.218  1.00  0.00    -0.744 OA
ENDBRANCH  89  93
ENDBRANCH  63  86
ENDBRANCH  37  38
ENDBRANCH  30  32
ENDBRANCH  29  30
ENDBRANCH  28  29
ENDBRANCH  27  28
ENDBRANCH  26  27
ENDBRANCH   1  26
TORSDOF 22
ENDMDL
MODEL 3
REMARK VINA RESULT:     -10.3      2.137      7.771
REMARK SMILES C[C@H]1SC[C@H](C(=O)OCCOCCOCCOC(=O)c2ccc(-c3c4nc(c(-c5cc(S(=O)(=O)[O-])ccc5F)c5ccc([nH]5)c(-c5cc(S(=O)(=O)[O-])ccc5F)c5nc(c(-c6cc(S(=O)(=O)[O-])ccc6F)c6ccc3[nH]6)C=C5)C=C4)cc2)N1C(=O)[C@@H]1CSc2ccccc21
REMARK SMILES IDX 13 1 12 2 11 3 10 4 9 5 8 6 6 7 7 8 5 9 1 10 2 11 3 12 83 13
REMARK SMILES IDX 4 14 84 15 85 16 86 17 87 18 94 19 88 20 89 21 93 22 90 23
REMARK SMILES IDX 92 24 91 25 14 26 15 27 16 28 17 29 18 30 19 31 20 32 21 33
REMARK SMILES IDX 82 34 22 35 81 36 23 37 24 38 25 39 75 40 26 41 80 42 74 43
REMARK SMILES IDX 76 44 27 45 79 46 73 47 72 48 28 50 60 51 40 52 59 53 41 54
REMARK SMILES IDX 44 55 58 56 77 57 42 58 43 59 57 61 78 62 45 63 29 64 30 65
REMARK SMILES IDX 38 66 31 67 37 68 39 69 36 70 32 71 33 72 34 73 35 74 61 75
REMARK SMILES IDX 62 76 70 77 63 78 69 79 71 80 68 81 64 82 65 83 66 84 67 85
REMARK SMILES IDX 46 86 47 87 55 88 48 89 54 90 56 91 53 92 49 93 50 94 51 95
REMARK SMILES IDX 52 96
REMARK H PARENT 76 49 44 60
REMARK Flexibility Score: inf
ROOT
ATOM      1  C   UNL A   1      30.042  30.813  23.747  1.00  0.00     0.188 C 
ENDROOT
BRANCH   1   2
ATOM      2  C   UNL A   1      30.158  29.300  23.962  1.00  0.00     0.188 C 
BRANCH   2   3
ATOM      3  O   UNL A   1      29.258  28.420  23.299  1.00  0.00    -0.376 OA
BRANCH   3   4
ATOM      4  C   UNL A   1      29.051  27.099  23.774  1.00  0.00     0.202 C 
BRANCH   4   5
ATOM      5  C   UNL A   1      30.103  26.021  23.453  1.00  0.00     0.261 C 
BRANCH   5   6
ATOM      6  O   UNL A   1      30.306  24.974  24.424  1.00  0.00    -0.462 OA
BRANCH   6   7
ATOM      7  C   UNL A   1      30.839  25.378  25.614  1.00  0.00     0.329 C 
ATOM      8  O   UNL A   1      30.535  24.881  26.692  1.00  0.00    -0.250 OA
BRANCH   7   9
ATOM      9  C   UNL A   1      31.861  26.538  25.484  1.00  0.00     0.206 C 
ATOM     10  C   UNL A   1      33.908  28.281  23.888  1.00  0.00     0.043 C 
ATOM     11  C   UNL A   1      34.090  27.404  25.128  1.00  0.00     0.141 C 
ATOM     12  S   UNL A   1      33.572  28.332  26.587  1.00  0.00    -0.135 SA
ATOM     13  N   UNL A   1      33.244  26.214  25.118  1.00  0.00    -0.316 N 
ATOM     14  C   UNL A   1      31.987  27.465  26.707  1.00  0.00     0.109 C 
BRANCH  13  15
ATOM     15  C   UNL A   1      33.605  24.931  24.768  1.00  0.00     0.232 C 
ATOM     16  O   UNL A   1      33.343  24.461  23.660  1.00  0.00    -0.274 OA
BRANCH  15  17
ATOM     17  C   UNL A   1      34.200  23.995  25.822  1.00  0.00     0.120 C 
ATOM     18  C   UNL A   1      35.737  24.071  25.834  1.00  0.00     0.093 C 
ATOM     19  C   UNL A   1      33.765  22.574  25.644  1.00  0.00    -0.021 A 
ATOM     20  S   UNL A   1      36.404  22.410  25.481  1.00  0.00    -0.125 SA
ATOM     21  C   UNL A   1      34.797  21.681  25.356  1.00  0.00     0.011 A 
ATOM     22  C   UNL A   1      32.431  22.184  25.564  1.00  0.00     0.006 A 
ATOM     23  C   UNL A   1      34.509  20.429  24.840  1.00  0.00     0.015 A 
ATOM     24  C   UNL A   1      32.137  20.920  25.067  1.00  0.00     0.000 A 
ATOM     25  C   UNL A   1      33.169  20.060  24.673  1.00  0.00     0.001 A 
ENDBRANCH  15  17
ENDBRANCH  13  15
ENDBRANCH   7   9
ENDBRANCH   6   7
ENDBRANCH   5   6
ENDBRANCH   4   5
ENDBRANCH   3   4
ENDBRANCH   2   3
ENDBRANCH   1   2
BRANCH   1  26
ATOM     26  O   UNL A   1      30.102  31.584  24.923  1.00  0.00    -0.376 OA
BRANCH  26  27
ATOM     27  C   UNL A   1      31.125  31.287  25.846  1.00  0.00     0.202 C 
BRANCH  27  28
ATOM     28  C   UNL A   1      31.539  32.406  26.812  1.00  0.00     0.261 C 
BRANCH  28  29
ATOM     29  O   UNL A   1      32.894  32.882  26.716  1.00  0.00    -0.460 OA
BRANCH  29  30
ATOM     30  C   UNL A   1      33.399  33.563  27.778  1.00  0.00     0.338 C 
ATOM     31  O   UNL A   1      32.859  34.470  28.370  1.00  0.00    -0.246 OA
BRANCH  30  32
ATOM     32  C   UNL A   1      34.619  32.841  28.240  1.00  0.00     0.060 A 
ATOM     33  C   UNL A   1      34.562  31.452  28.436  1.00  0.00     0.016 A 
ATOM     34  C   UNL A   1      35.814  33.525  28.464  1.00  0.00     0.016 A 
ATOM     35  C   UNL A   1      35.692  30.751  28.877  1.00  0.00     0.010 A 
ATOM     36  C   UNL A   1      36.937  32.827  28.929  1.00  0.00     0.010 A 
ATOM     37  C   UNL A   1      36.879  31.439  29.164  1.00  0.00    -0.014 A 
BRANCH  37  38
ATOM     38  C   UNL A   1      37.997  30.768  29.885  1.00  0.00     0.031 A 
ATOM     39  C   UNL A   1      38.240  31.140  31.326  1.00  0.00     0.074 A 
ATOM     40  C   UNL A   1      38.797  29.865  29.286  1.00  0.00     0.049 A 
ATOM     41  N   UNL A   1      39.221  30.803  32.122  1.00  0.00    -0.248 NA
ATOM     42  C   UNL A   1      37.238  32.021  31.944  1.00  0.00     0.031 C 
ATOM     43  C   UNL A   1      38.643  29.373  27.920  1.00  0.00     0.029 A 
ATOM     44  N   UNL A   1      39.918  29.216  29.752  1.00  0.00    -0.354 N 
ATOM     45  C   UNL A   1      38.967  31.445  33.329  1.00  0.00     0.074 A 
ATOM     46  C   UNL A   1      37.753  32.212  33.149  1.00  0.00     0.031 C 
ATOM     47  C   UNL A   1      39.644  28.517  27.649  1.00  0.00     0.029 A 
ATOM     48  C   UNL A   1      40.542  28.438  28.803  1.00  0.00     0.049 A 
ATOM     49  H   UNL A   1      40.244  29.300  30.677  1.00  0.00     0.167 HD
ATOM     50  C   UNL A   1      39.680  31.401  34.482  1.00  0.00     0.034 A 
ATOM     51  C   UNL A   1      41.719  27.774  28.843  1.00  0.00     0.034 A 
ATOM     52  C   UNL A   1      40.894  30.639  34.649  1.00  0.00     0.049 A 
ATOM     53  C   UNL A   1      42.550  27.818  30.108  1.00  0.00     0.074 A 
ATOM     54  C   UNL A   1      41.677  30.509  35.783  1.00  0.00     0.029 A 
ATOM     55  N   UNL A   1      41.514  29.898  33.652  1.00  0.00    -0.354 N 
ATOM     56  N   UNL A   1      42.296  28.425  31.246  1.00  0.00    -0.248 NA
ATOM     57  C   UNL A   1      43.826  27.089  30.094  1.00  0.00     0.031 C 
ATOM     58  C   UNL A   1      42.812  29.765  35.449  1.00  0.00     0.029 A 
ATOM     59  C   UNL A   1      42.691  29.344  34.135  1.00  0.00     0.049 A 
ATOM     60  H   UNL A   1      41.169  29.781  32.738  1.00  0.00     0.167 HD
ATOM     61  C   UNL A   1      43.364  28.115  32.090  1.00  0.00     0.074 A 
ATOM     62  C   UNL A   1      44.255  27.261  31.335  1.00  0.00     0.031 C 
ATOM     63  C   UNL A   1      43.581  28.496  33.375  1.00  0.00     0.034 A 
BRANCH  50  64
ATOM     64  C   UNL A   1      39.197  32.250  35.634  1.00  0.00     0.023 A 
ATOM     65  C   UNL A   1      39.570  33.598  35.775  1.00  0.00     0.031 A 
ATOM     66  C   UNL A   1      38.362  31.693  36.619  1.00  0.00     0.131 A 
ATOM     67  C   UNL A   1      39.164  34.322  36.907  1.00  0.00     0.055 A 
ATOM     68  C   UNL A   1      37.891  32.442  37.698  1.00  0.00     0.041 A 
ATOM     69  F   UNL A   1      37.993  30.403  36.553  1.00  0.00    -0.206 F 
ATOM     70  C   UNL A   1      38.304  33.762  37.854  1.00  0.00     0.022 A 
BRANCH  67  71
ATOM     71  S   UNL A   1      39.893  35.957  37.197  1.00  0.00     0.124 S 
ATOM     72  O   UNL A   1      41.225  35.604  37.680  1.00  0.00    -0.237 OA
ATOM     73  O   UNL A   1      39.834  36.568  35.874  1.00  0.00    -0.237 OA
ATOM     74  O   UNL A   1      39.012  36.552  38.200  1.00  0.00    -0.744 OA
ENDBRANCH  67  71
ENDBRANCH  50  64
BRANCH  51  75
ATOM     75  C   UNL A   1      42.230  27.056  27.636  1.00  0.00     0.023 A 
ATOM     76  C   UNL A   1      41.986  25.685  27.442  1.00  0.00     0.031 A 
ATOM     77  C   UNL A   1      43.042  27.715  26.695  1.00  0.00     0.131 A 
ATOM     78  C   UNL A   1      42.587  25.010  26.368  1.00  0.00     0.055 A 
ATOM     79  C   UNL A   1      43.586  27.053  25.593  1.00  0.00     0.041 A 
ATOM     80  F   UNL A   1      43.324  29.020  26.838  1.00  0.00    -0.206 F 
ATOM     81  C   UNL A   1      43.370  25.688  25.432  1.00  0.00     0.022 A 
BRANCH  78  82
ATOM     82  S   UNL A   1      42.421  23.205  26.271  1.00  0.00     0.124 S 
ATOM     83  O   UNL A   1      42.829  22.944  24.896  1.00  0.00    -0.237 OA
ATOM     84  O   UNL A   1      43.344  22.760  27.310  1.00  0.00    -0.237 OA
ATOM     85  O   UNL A   1      41.007  22.978  26.557  1.00  0.00    -0.744 OA
ENDBRANCH  78  82
ENDBRANCH  51  75
BRANCH  63  86
ATOM     86  C   UNL A   1      44.806  27.946  34.072  1.00  0.00     0.023 A 
ATOM     87  C   UNL A   1      44.782  26.731  34.779  1.00  0.00     0.031 A 
ATOM     88  C   UNL A   1      46.022  28.652  34.019  1.00  0.00     0.131 A 
ATOM     89  C   UNL A   1      45.936  26.287  35.447  1.00  0.00     0.055 A 
ATOM     90  C   UNL A   1      47.183  28.172  34.627  1.00  0.00     0.041 A 
ATOM     91  F   UNL A   1      46.106  29.821  33.362  1.00  0.00    -0.206 F 
ATOM     92  C   UNL A   1      47.140  26.989  35.357  1.00  0.00     0.022 A 
BRANCH  89  93
ATOM     93  S   UNL A   1      45.819  24.824  36.515  1.00  0.00     0.124 S 
ATOM     94  O   UNL A   1      44.559  25.059  37.213  1.00  0.00    -0.237 OA
ATOM     95  O   UNL A   1      45.820  23.731  35.549  1.00  0.00    -0.237 OA
ATOM     96  O   UNL A   1      47.016  24.912  37.350  1.00  0.00    -0.744 OA
ENDBRANCH  89  93
ENDBRANCH  63  86
ENDBRANCH  37  38
ENDBRANCH  30  32
ENDBRANCH  29  30
ENDBRANCH  28  29
ENDBRANCH  27  28
ENDBRANCH  26  27
ENDBRANCH   1  26
TORSDOF 22
ENDMDL
