MODEL 1
REMARK VINA RESULT:      -9.6      0.000      0.000
REMARK SMILES Cc1cc(C(=O)N(C)[C@H]2CCSC2)sc1/C=C/C(=O)OCCOCCOCCOC(=O)c1ccc(-c2c3nc(c(-c4cc(S(=O)(=O)[O-])ccc4F)c4ccc([nH]4)c(-c4cc(S(=O)(=O)[O-])ccc4F)c4nc(c(-c5cc(S(=O)(=O)[O-])ccc5F)c5ccc2[nH]5)C=C4)C=C3)cc1
REMARK SMILES IDX 24 1 23 2 22 3 21 4 20 5 18 6 19 7 17 8 16 9 15 10 1 11 2 12
REMARK SMILES IDX 3 13 4 14 14 15 5 16 6 17 7 18 8 19 9 20 10 21 13 22 11 23
REMARK SMILES IDX 12 24 25 25 26 26 27 27 28 28 29 29 30 30 31 31 32 32 33 33
REMARK SMILES IDX 94 34 34 35 93 36 35 37 36 38 37 39 87 40 38 41 92 42 86 43
REMARK SMILES IDX 88 44 39 45 91 46 85 47 84 48 40 50 72 51 52 52 71 53 53 54
REMARK SMILES IDX 56 55 70 56 89 57 54 58 55 59 69 61 90 62 57 63 41 64 42 65
REMARK SMILES IDX 50 66 43 67 49 68 51 69 48 70 44 71 45 72 46 73 47 74 73 75
REMARK SMILES IDX 74 76 82 77 75 78 81 79 83 80 80 81 76 82 77 83 78 84 79 85
REMARK SMILES IDX 58 86 59 87 67 88 60 89 66 90 68 91 65 92 61 93 62 94 63 95
REMARK SMILES IDX 64 96
REMARK H PARENT 88 49 56 60
REMARK Flexibility Score: inf
ROOT
ATOM      1  C   UNL A   1      31.538  28.715  25.939  1.00  0.00     0.188 C 
ENDROOT
BRANCH   1   2
ATOM      2  O   UNL A   1      31.388  29.234  24.621  1.00  0.00    -0.376 OA
BRANCH   2   3
ATOM      3  C   UNL A   1      30.353  28.742  23.782  1.00  0.00     0.202 C 
BRANCH   3   4
ATOM      4  C   UNL A   1      30.610  28.548  22.278  1.00  0.00     0.261 C 
BRANCH   4   5
ATOM      5  O   UNL A   1      30.943  27.208  21.873  1.00  0.00    -0.460 OA
BRANCH   5   6
ATOM      6  C   UNL A   1      32.243  26.861  22.038  1.00  0.00     0.330 C 
ATOM      7  O   UNL A   1      33.206  27.607  21.938  1.00  0.00    -0.247 OA
BRANCH   6   8
ATOM      8  C   UNL A   1      32.416  25.459  22.473  1.00  0.00     0.095 C 
ATOM      9  C   UNL A   1      33.457  24.971  23.165  1.00  0.00     0.027 C 
BRANCH   9  10
ATOM     10  C   UNL A   1      33.557  23.594  23.572  1.00  0.00     0.031 A 
ATOM     11  C   UNL A   1      35.996  23.517  24.425  1.00  0.00     0.046 C 
ATOM     12  C   UNL A   1      34.663  22.925  24.090  1.00  0.00    -0.032 A 
ATOM     13  C   UNL A   1      34.375  21.540  24.326  1.00  0.00     0.029 A 
ATOM     14  C   UNL A   1      33.079  21.156  24.020  1.00  0.00     0.093 A 
ATOM     15  S   UNL A   1      32.211  22.510  23.474  1.00  0.00    -0.130 S 
BRANCH  14  16
ATOM     16  C   UNL A   1      32.549  19.808  24.277  1.00  0.00     0.263 C 
ATOM     17  O   UNL A   1      32.014  19.592  25.373  1.00  0.00    -0.268 OA
BRANCH  16  18
ATOM     18  N   UNL A   1      32.582  18.749  23.346  1.00  0.00    -0.337 N 
ATOM     19  C   UNL A   1      32.224  18.843  21.935  1.00  0.00     0.147 C 
BRANCH  18  20
ATOM     20  C   UNL A   1      33.197  17.485  23.807  1.00  0.00     0.095 C 
ATOM     21  C   UNL A   1      34.577  17.615  24.463  1.00  0.00     0.037 C 
ATOM     22  C   UNL A   1      32.315  16.734  24.814  1.00  0.00     0.094 C 
ATOM     23  C   UNL A   1      34.949  16.221  24.945  1.00  0.00     0.072 C 
ATOM     24  S   UNL A   1      33.411  15.513  25.599  1.00  0.00    -0.160 SA
ENDBRANCH  18  20
ENDBRANCH  16  18
ENDBRANCH  14  16
ENDBRANCH   9  10
ENDBRANCH   6   8
ENDBRANCH   5   6
ENDBRANCH   4   5
ENDBRANCH   3   4
ENDBRANCH   2   3
ENDBRANCH   1   2
BRANCH   1  25
ATOM     25  C   UNL A   1      32.938  28.665  26.587  1.00  0.00     0.188 C 
BRANCH  25  26
ATOM     26  O   UNL A   1      33.673  29.863  26.444  1.00  0.00    -0.376 OA
BRANCH  26  27
ATOM     27  C   UNL A   1      33.001  31.092  26.662  1.00  0.00     0.202 C 
BRANCH  27  28
ATOM     28  C   UNL A   1      33.244  31.951  27.921  1.00  0.00     0.261 C 
BRANCH  28  29
ATOM     29  O   UNL A   1      33.140  33.374  27.792  1.00  0.00    -0.460 OA
BRANCH  29  30
ATOM     30  C   UNL A   1      33.961  34.125  28.554  1.00  0.00     0.338 C 
ATOM     31  O   UNL A   1      33.777  35.289  28.901  1.00  0.00    -0.246 OA
BRANCH  30  32
ATOM     32  C   UNL A   1      35.049  33.262  29.049  1.00  0.00     0.060 A 
ATOM     33  C   UNL A   1      34.807  32.412  30.134  1.00  0.00     0.016 A 
ATOM     34  C   UNL A   1      36.309  33.292  28.442  1.00  0.00     0.016 A 
ATOM     35  C   UNL A   1      35.831  31.601  30.630  1.00  0.00     0.010 A 
ATOM     36  C   UNL A   1      37.337  32.492  28.951  1.00  0.00     0.010 A 
ATOM     37  C   UNL A   1      37.111  31.660  30.062  1.00  0.00    -0.014 A 
BRANCH  37  38
ATOM     38  C   UNL A   1      38.254  30.983  30.730  1.00  0.00     0.031 A 
ATOM     39  C   UNL A   1      38.633  31.419  32.120  1.00  0.00     0.074 A 
ATOM     40  C   UNL A   1      38.936  29.996  30.121  1.00  0.00     0.049 A 
ATOM     41  N   UNL A   1      39.629  31.027  32.873  1.00  0.00    -0.248 NA
ATOM     42  C   UNL A   1      37.771  32.436  32.738  1.00  0.00     0.031 C 
ATOM     43  C   UNL A   1      38.637  29.455  28.797  1.00  0.00     0.029 A 
ATOM     44  N   UNL A   1      40.031  29.279  30.539  1.00  0.00    -0.354 N 
ATOM     45  C   UNL A   1      39.516  31.754  34.054  1.00  0.00     0.074 A 
ATOM     46  C   UNL A   1      38.379  32.635  33.898  1.00  0.00     0.031 C 
ATOM     47  C   UNL A   1      39.537  28.501  28.503  1.00  0.00     0.029 A 
ATOM     48  C   UNL A   1      40.501  28.392  29.597  1.00  0.00     0.049 A 
ATOM     49  H   UNL A   1      40.441  29.389  31.426  1.00  0.00     0.167 HD
ATOM     50  C   UNL A   1      40.285  31.685  35.169  1.00  0.00     0.034 A 
ATOM     51  C   UNL A   1      41.600  27.608  29.606  1.00  0.00     0.034 A 
ATOM     52  C   UNL A   1      41.430  30.817  35.302  1.00  0.00     0.049 A 
ATOM     53  C   UNL A   1      42.503  27.622  30.818  1.00  0.00     0.074 A 
ATOM     54  C   UNL A   1      42.274  30.664  36.388  1.00  0.00     0.029 A 
ATOM     55  N   UNL A   1      41.903  29.966  34.311  1.00  0.00    -0.354 N 
ATOM     56  N   UNL A   1      42.383  28.307  31.934  1.00  0.00    -0.248 NA
ATOM     57  C   UNL A   1      43.686  26.751  30.775  1.00  0.00     0.031 C 
ATOM     58  C   UNL A   1      43.300  29.783  36.027  1.00  0.00     0.029 A 
ATOM     59  C   UNL A   1      43.047  29.314  34.748  1.00  0.00     0.049 A 
ATOM     60  H   UNL A   1      41.487  29.844  33.427  1.00  0.00     0.167 HD
ATOM     61  C   UNL A   1      43.457  27.922  32.735  1.00  0.00     0.074 A 
ATOM     62  C   UNL A   1      44.204  26.936  31.981  1.00  0.00     0.031 C 
ATOM     63  C   UNL A   1      43.790  28.339  33.984  1.00  0.00     0.034 A 
BRANCH  50  64
ATOM     64  C   UNL A   1      39.940  32.619  36.305  1.00  0.00     0.023 A 
ATOM     65  C   UNL A   1      39.088  32.227  37.352  1.00  0.00     0.031 A 
ATOM     66  C   UNL A   1      40.442  33.932  36.323  1.00  0.00     0.131 A 
ATOM     67  C   UNL A   1      38.704  33.159  38.329  1.00  0.00     0.055 A 
ATOM     68  C   UNL A   1      40.124  34.828  37.344  1.00  0.00     0.041 A 
ATOM     69  F   UNL A   1      41.240  34.373  35.337  1.00  0.00    -0.206 F 
ATOM     70  C   UNL A   1      39.237  34.449  38.347  1.00  0.00     0.022 A 
BRANCH  67  71
ATOM     71  S   UNL A   1      37.382  32.706  39.485  1.00  0.00     0.124 S 
ATOM     72  O   UNL A   1      37.509  33.749  40.500  1.00  0.00    -0.237 OA
ATOM     73  O   UNL A   1      36.192  32.772  38.646  1.00  0.00    -0.237 OA
ATOM     74  O   UNL A   1      37.760  31.366  39.930  1.00  0.00    -0.744 OA
ENDBRANCH  67  71
ENDBRANCH  50  64
BRANCH  51  75
ATOM     75  C   UNL A   1      41.947  26.776  28.416  1.00  0.00     0.023 A 
ATOM     76  C   UNL A   1      41.495  25.451  28.298  1.00  0.00     0.031 A 
ATOM     77  C   UNL A   1      42.790  27.276  27.408  1.00  0.00     0.131 A 
ATOM     78  C   UNL A   1      41.927  24.658  27.223  1.00  0.00     0.055 A 
ATOM     79  C   UNL A   1      43.170  26.501  26.311  1.00  0.00     0.041 A 
ATOM     80  F   UNL A   1      43.256  28.533  27.474  1.00  0.00    -0.206 F 
ATOM     81  C   UNL A   1      42.750  25.178  26.221  1.00  0.00     0.022 A 
BRANCH  78  82
ATOM     82  S   UNL A   1      41.469  22.903  27.200  1.00  0.00     0.124 S 
ATOM     83  O   UNL A   1      42.176  22.428  26.016  1.00  0.00    -0.237 OA
ATOM     84  O   UNL A   1      41.985  22.438  28.484  1.00  0.00    -0.237 OA
ATOM     85  O   UNL A   1      40.013  22.932  27.090  1.00  0.00    -0.744 OA
ENDBRANCH  78  82
ENDBRANCH  51  75
BRANCH  63  86
ATOM     86  C   UNL A   1      44.989  27.686  34.636  1.00  0.00     0.023 A 
ATOM     87  C   UNL A   1      46.289  28.200  34.491  1.00  0.00     0.031 A 
ATOM     88  C   UNL A   1      44.821  26.525  35.413  1.00  0.00     0.131 A 
ATOM     89  C   UNL A   1      47.376  27.524  35.068  1.00  0.00     0.055 A 
ATOM     90  C   UNL A   1      45.897  25.895  36.038  1.00  0.00     0.041 A 
ATOM     91  F   UNL A   1      43.603  25.986  35.583  1.00  0.00    -0.206 F 
ATOM     92  C   UNL A   1      47.186  26.387  35.856  1.00  0.00     0.022 A 
BRANCH  89  93
ATOM     93  S   UNL A   1      49.057  28.098  34.696  1.00  0.00     0.124 S 
ATOM     94  O   UNL A   1      48.877  28.740  33.398  1.00  0.00    -0.237 OA
ATOM     95  O   UNL A   1      49.338  28.990  35.816  1.00  0.00    -0.237 OA
ATOM     96  O   UNL A   1      49.843  26.865  34.674  1.00  0.00    -0.744 OA
ENDBRANCH  89  93
ENDBRANCH  63  86
ENDBRANCH  37  38
ENDBRANCH  30  32
ENDBRANCH  29  30
ENDBRANCH  28  29
ENDBRANCH  27  28
ENDBRANCH  26  27
ENDBRANCH  25  26
ENDBRANCH   1  25
TORSDOF 24
ENDMDL
MODEL 2
REMARK VINA RESULT:      -9.6      2.563      7.824
REMARK SMILES Cc1cc(C(=O)N(C)[C@H]2CCSC2)sc1/C=C/C(=O)OCCOCCOCCOC(=O)c1ccc(-c2c3nc(c(-c4cc(S(=O)(=O)[O-])ccc4F)c4ccc([nH]4)c(-c4cc(S(=O)(=O)[O-])ccc4F)c4nc(c(-c5cc(S(=O)(=O)[O-])ccc5F)c5ccc2[nH]5)C=C4)C=C3)cc1
REMARK SMILES IDX 24 1 23 2 22 3 21 4 20 5 18 6 19 7 17 8 16 9 15 10 1 11 2 12
REMARK SMILES IDX 3 13 4 14 14 15 5 16 6 17 7 18 8 19 9 20 10 21 13 22 11 23
REMARK SMILES IDX 12 24 25 25 26 26 27 27 28 28 29 29 30 30 31 31 32 32 33 33
REMARK SMILES IDX 94 34 34 35 93 36 35 37 36 38 37 39 87 40 38 41 92 42 86 43
REMARK SMILES IDX 88 44 39 45 91 46 85 47 84 48 40 50 72 51 52 52 71 53 53 54
REMARK SMILES IDX 56 55 70 56 89 57 54 58 55 59 69 61 90 62 57 63 41 64 42 65
REMARK SMILES IDX 50 66 43 67 49 68 51 69 48 70 44 71 45 72 46 73 47 74 73 75
REMARK SMILES IDX 74 76 82 77 75 78 81 79 83 80 80 81 76 82 77 83 78 84 79 85
REMARK SMILES IDX 58 86 59 87 67 88 60 89 66 90 68 91 65 92 61 93 62 94 63 95
REMARK SMILES IDX 64 96
REMARK H PARENT 88 49 56 60
REMARK Flexibility Score: inf
ROOT
ATOM      1  C   UNL A   1      31.205  29.506  25.943  1.00  0.00     0.188 C 
ENDROOT
BRANCH   1   2
ATOM      2  O   UNL A   1      30.951  30.119  24.683  1.00  0.00    -0.376 OA
BRANCH   2   3
ATOM      3  C   UNL A   1      29.894  29.639  23.865  1.00  0.00     0.202 C 
BRANCH   3   4
ATOM      4  C   UNL A   1      30.124  29.419  22.361  1.00  0.00     0.261 C 
BRANCH   4   5
ATOM      5  O   UNL A   1      30.622  28.119  21.993  1.00  0.00    -0.460 OA
BRANCH   5   6
ATOM      6  C   UNL A   1      31.894  27.857  22.381  1.00  0.00     0.330 C 
ATOM      7  O   UNL A   1      32.802  28.670  22.473  1.00  0.00    -0.247 OA
BRANCH   6   8
ATOM      8  C   UNL A   1      32.091  26.455  22.806  1.00  0.00     0.095 C 
ATOM      9  C   UNL A   1      31.212  25.707  23.490  1.00  0.00     0.027 C 
BRANCH   9  10
ATOM     10  C   UNL A   1      31.460  24.339  23.860  1.00  0.00     0.031 A 
ATOM     11  C   UNL A   1      30.603  24.333  26.299  1.00  0.00     0.046 C 
ATOM     12  C   UNL A   1      31.239  23.723  25.090  1.00  0.00    -0.032 A 
ATOM     13  C   UNL A   1      31.665  22.353  25.075  1.00  0.00     0.029 A 
ATOM     14  C   UNL A   1      32.179  21.919  23.863  1.00  0.00     0.093 A 
ATOM     15  S   UNL A   1      32.106  23.189  22.739  1.00  0.00    -0.130 S 
BRANCH  14  16
ATOM     16  C   UNL A   1      32.582  20.528  23.604  1.00  0.00     0.263 C 
ATOM     17  O   UNL A   1      32.032  19.926  22.673  1.00  0.00    -0.268 OA
BRANCH  16  18
ATOM     18  N   UNL A   1      33.578  19.840  24.329  1.00  0.00    -0.337 N 
ATOM     19  C   UNL A   1      34.577  20.453  25.198  1.00  0.00     0.147 C 
BRANCH  18  20
ATOM     20  C   UNL A   1      33.484  18.363  24.339  1.00  0.00     0.095 C 
ATOM     21  C   UNL A   1      34.816  17.610  24.427  1.00  0.00     0.037 C 
ATOM     22  C   UNL A   1      32.619  17.837  25.492  1.00  0.00     0.094 C 
ATOM     23  C   UNL A   1      34.461  16.134  24.531  1.00  0.00     0.072 C 
ATOM     24  S   UNL A   1      33.011  16.065  25.619  1.00  0.00    -0.160 SA
ENDBRANCH  18  20
ENDBRANCH  16  18
ENDBRANCH  14  16
ENDBRANCH   9  10
ENDBRANCH   6   8
ENDBRANCH   5   6
ENDBRANCH   4   5
ENDBRANCH   3   4
ENDBRANCH   2   3
ENDBRANCH   1   2
BRANCH   1  25
ATOM     25  C   UNL A   1      32.598  29.647  26.595  1.00  0.00     0.188 C 
BRANCH  25  26
ATOM     26  O   UNL A   1      33.266  30.843  26.253  1.00  0.00    -0.376 OA
BRANCH  26  27
ATOM     27  C   UNL A   1      32.721  32.070  26.710  1.00  0.00     0.202 C 
BRANCH  27  28
ATOM     28  C   UNL A   1      33.057  32.654  28.097  1.00  0.00     0.261 C 
BRANCH  28  29
ATOM     29  O   UNL A   1      32.605  33.982  28.392  1.00  0.00    -0.460 OA
BRANCH  29  30
ATOM     30  C   UNL A   1      33.530  34.871  28.809  1.00  0.00     0.338 C 
ATOM     31  O   UNL A   1      33.406  36.092  28.851  1.00  0.00    -0.246 OA
BRANCH  30  32
ATOM     32  C   UNL A   1      34.669  34.122  29.372  1.00  0.00     0.060 A 
ATOM     33  C   UNL A   1      34.445  33.227  30.425  1.00  0.00     0.016 A 
ATOM     34  C   UNL A   1      35.958  34.303  28.860  1.00  0.00     0.016 A 
ATOM     35  C   UNL A   1      35.515  32.523  30.983  1.00  0.00     0.010 A 
ATOM     36  C   UNL A   1      37.029  33.610  29.432  1.00  0.00     0.010 A 
ATOM     37  C   UNL A   1      36.818  32.734  30.513  1.00  0.00    -0.014 A 
BRANCH  37  38
ATOM     38  C   UNL A   1      37.978  32.172  31.253  1.00  0.00     0.031 A 
ATOM     39  C   UNL A   1      38.743  31.033  30.634  1.00  0.00     0.074 A 
ATOM     40  C   UNL A   1      38.352  32.667  32.448  1.00  0.00     0.049 A 
ATOM     41  N   UNL A   1      39.740  30.339  31.118  1.00  0.00    -0.248 NA
ATOM     42  C   UNL A   1      38.318  30.625  29.288  1.00  0.00     0.031 C 
ATOM     43  C   UNL A   1      37.721  33.796  33.129  1.00  0.00     0.029 A 
ATOM     44  N   UNL A   1      39.352  32.274  33.303  1.00  0.00    -0.354 N 
ATOM     45  C   UNL A   1      40.061  29.407  30.136  1.00  0.00     0.074 A 
ATOM     46  C   UNL A   1      39.126  29.602  29.049  1.00  0.00     0.031 C 
ATOM     47  C   UNL A   1      38.340  33.994  34.306  1.00  0.00     0.029 A 
ATOM     48  C   UNL A   1      39.380  32.983  34.482  1.00  0.00     0.049 A 
ATOM     49  H   UNL A   1      39.988  31.552  33.094  1.00  0.00     0.167 HD
ATOM     50  C   UNL A   1      41.050  28.479  30.139  1.00  0.00     0.034 A 
ATOM     51  C   UNL A   1      40.137  32.813  35.587  1.00  0.00     0.034 A 
ATOM     52  C   UNL A   1      41.962  28.279  31.240  1.00  0.00     0.049 A 
ATOM     53  C   UNL A   1      41.167  31.706  35.610  1.00  0.00     0.074 A 
ATOM     54  C   UNL A   1      43.002  27.374  31.344  1.00  0.00     0.029 A 
ATOM     55  N   UNL A   1      41.931  28.987  32.436  1.00  0.00    -0.354 N 
ATOM     56  N   UNL A   1      41.468  30.835  34.673  1.00  0.00    -0.248 NA
ATOM     57  C   UNL A   1      41.963  31.564  36.837  1.00  0.00     0.031 C 
ATOM     58  C   UNL A   1      43.549  27.478  32.628  1.00  0.00     0.029 A 
ATOM     59  C   UNL A   1      42.911  28.512  33.295  1.00  0.00     0.049 A 
ATOM     60  H   UNL A   1      41.305  29.717  32.643  1.00  0.00     0.167 HD
ATOM     61  C   UNL A   1      42.511  30.066  35.188  1.00  0.00     0.074 A 
ATOM     62  C   UNL A   1      42.794  30.586  36.510  1.00  0.00     0.031 C 
ATOM     63  C   UNL A   1      43.179  29.031  34.617  1.00  0.00     0.034 A 
BRANCH  50  64
ATOM     64  C   UNL A   1      41.153  27.575  28.933  1.00  0.00     0.023 A 
ATOM     65  C   UNL A   1      42.138  27.765  27.947  1.00  0.00     0.031 A 
ATOM     66  C   UNL A   1      40.230  26.530  28.747  1.00  0.00     0.131 A 
ATOM     67  C   UNL A   1      42.130  26.973  26.789  1.00  0.00     0.055 A 
ATOM     68  C   UNL A   1      40.281  25.692  27.633  1.00  0.00     0.041 A 
ATOM     69  F   UNL A   1      39.251  26.316  29.641  1.00  0.00    -0.206 F 
ATOM     70  C   UNL A   1      41.226  25.921  26.637  1.00  0.00     0.022 A 
BRANCH  67  71
ATOM     71  S   UNL A   1      43.222  27.438  25.417  1.00  0.00     0.124 S 
ATOM     72  O   UNL A   1      44.262  28.193  26.111  1.00  0.00    -0.237 OA
ATOM     73  O   UNL A   1      43.622  26.144  24.879  1.00  0.00    -0.237 OA
ATOM     74  O   UNL A   1      42.359  28.237  24.548  1.00  0.00    -0.744 OA
ENDBRANCH  67  71
ENDBRANCH  50  64
BRANCH  51  75
ATOM     75  C   UNL A   1      39.929  33.674  36.788  1.00  0.00     0.023 A 
ATOM     76  C   UNL A   1      40.772  34.764  37.057  1.00  0.00     0.031 A 
ATOM     77  C   UNL A   1      38.918  33.377  37.720  1.00  0.00     0.131 A 
ATOM     78  C   UNL A   1      40.620  35.489  38.251  1.00  0.00     0.055 A 
ATOM     79  C   UNL A   1      38.734  34.137  38.877  1.00  0.00     0.041 A 
ATOM     80  F   UNL A   1      38.088  32.342  37.515  1.00  0.00    -0.206 F 
ATOM     81  C   UNL A   1      39.598  35.192  39.156  1.00  0.00     0.022 A 
BRANCH  78  82
ATOM     82  S   UNL A   1      41.837  36.773  38.648  1.00  0.00     0.124 S 
ATOM     83  O   UNL A   1      42.732  36.062  39.554  1.00  0.00    -0.237 OA
ATOM     84  O   UNL A   1      42.379  37.095  37.332  1.00  0.00    -0.237 OA
ATOM     85  O   UNL A   1      41.033  37.826  39.264  1.00  0.00    -0.744 OA
ENDBRANCH  78  82
ENDBRANCH  51  75
BRANCH  63  86
ATOM     86  C   UNL A   1      44.323  28.427  35.401  1.00  0.00     0.023 A 
ATOM     87  C   UNL A   1      44.148  27.304  36.229  1.00  0.00     0.031 A 
ATOM     88  C   UNL A   1      45.609  28.991  35.317  1.00  0.00     0.131 A 
ATOM     89  C   UNL A   1      45.228  26.817  36.982  1.00  0.00     0.055 A 
ATOM     90  C   UNL A   1      46.693  28.462  36.017  1.00  0.00     0.041 A 
ATOM     91  F   UNL A   1      45.835  30.066  34.545  1.00  0.00    -0.206 F 
ATOM     92  C   UNL A   1      46.503  27.376  36.866  1.00  0.00     0.022 A 
BRANCH  89  93
ATOM     93  S   UNL A   1      44.924  25.497  38.191  1.00  0.00     0.124 S 
ATOM     94  O   UNL A   1      45.243  26.161  39.450  1.00  0.00    -0.237 OA
ATOM     95  O   UNL A   1      43.515  25.191  37.970  1.00  0.00    -0.237 OA
ATOM     96  O   UNL A   1      45.857  24.445  37.790  1.00  0.00    -0.744 OA
ENDBRANCH  89  93
ENDBRANCH  63  86
ENDBRANCH  37  38
ENDBRANCH  30  32
ENDBRANCH  29  30
ENDBRANCH  28  29
ENDBRANCH  27  28
ENDBRANCH  26  27
ENDBRANCH  25  26
ENDBRANCH   1  25
TORSDOF 24
ENDMDL
MODEL 3
REMARK VINA RESULT:      -9.3      3.981      9.810
REMARK SMILES Cc1cc(C(=O)N(C)[C@H]2CCSC2)sc1/C=C/C(=O)OCCOCCOCCOC(=O)c1ccc(-c2c3nc(c(-c4cc(S(=O)(=O)[O-])ccc4F)c4ccc([nH]4)c(-c4cc(S(=O)(=O)[O-])ccc4F)c4nc(c(-c5cc(S(=O)(=O)[O-])ccc5F)c5ccc2[nH]5)C=C4)C=C3)cc1
REMARK SMILES IDX 24 1 23 2 22 3 21 4 20 5 18 6 19 7 17 8 16 9 15 10 1 11 2 12
REMARK SMILES IDX 3 13 4 14 14 15 5 16 6 17 7 18 8 19 9 20 10 21 13 22 11 23
REMARK SMILES IDX 12 24 25 25 26 26 27 27 28 28 29 29 30 30 31 31 32 32 33 33
REMARK SMILES IDX 94 34 34 35 93 36 35 37 36 38 37 39 87 40 38 41 92 42 86 43
REMARK SMILES IDX 88 44 39 45 91 46 85 47 84 48 40 50 72 51 52 52 71 53 53 54
REMARK SMILES IDX 56 55 70 56 89 57 54 58 55 59 69 61 90 62 57 63 41 64 42 65
REMARK SMILES IDX 50 66 43 67 49 68 51 69 48 70 44 71 45 72 46 73 47 74 73 75
REMARK SMILES IDX 74 76 82 77 75 78 81 79 83 80 80 81 76 82 77 83 78 84 79 85
REMARK SMILES IDX 58 86 59 87 67 88 60 89 66 90 68 91 65 92 61 93 62 94 63 95
REMARK SMILES IDX 64 96
REMARK H PARENT 88 49 56 60
REMARK Flexibility Score: inf
ROOT
ATOM      1  C   UNL A   1      34.381  21.010  26.552  1.00  0.00     0.188 C 
ENDROOT
BRANCH   1   2
ATOM      2  O   UNL A   1      33.167  20.364  26.179  1.00  0.00    -0.376 OA
BRANCH   2   3
ATOM      3  C   UNL A   1      33.112  18.947  26.112  1.00  0.00     0.202 C 
BRANCH   3   4
ATOM      4  C   UNL A   1      33.334  18.232  24.769  1.00  0.00     0.261 C 
BRANCH   4   5
ATOM      5  O   UNL A   1      32.173  18.122  23.925  1.00  0.00    -0.460 OA
BRANCH   5   6
ATOM      6  C   UNL A   1      32.283  18.713  22.710  1.00  0.00     0.330 C 
ATOM      7  O   UNL A   1      32.491  18.144  21.648  1.00  0.00    -0.247 OA
BRANCH   6   8
ATOM      8  C   UNL A   1      32.018  20.166  22.748  1.00  0.00     0.095 C 
ATOM      9  C   UNL A   1      32.864  21.111  23.188  1.00  0.00     0.027 C 
BRANCH   9  10
ATOM     10  C   UNL A   1      32.549  22.515  23.183  1.00  0.00     0.031 A 
ATOM     11  C   UNL A   1      30.936  22.657  25.199  1.00  0.00     0.046 C 
ATOM     12  C   UNL A   1      31.683  23.209  24.025  1.00  0.00    -0.032 A 
ATOM     13  C   UNL A   1      31.601  24.595  23.666  1.00  0.00     0.029 A 
ATOM     14  C   UNL A   1      32.397  24.965  22.593  1.00  0.00     0.093 A 
ATOM     15  S   UNL A   1      33.267  23.611  22.052  1.00  0.00    -0.130 S 
BRANCH  14  16
ATOM     16  C   UNL A   1      32.536  26.353  22.125  1.00  0.00     0.263 C 
ATOM     17  O   UNL A   1      33.102  26.548  21.041  1.00  0.00    -0.268 OA
BRANCH  16  18
ATOM     18  N   UNL A   1      32.039  27.479  22.816  1.00  0.00    -0.337 N 
ATOM     19  C   UNL A   1      32.812  28.352  23.691  1.00  0.00     0.147 C 
BRANCH  18  20
ATOM     20  C   UNL A   1      30.661  27.901  22.480  1.00  0.00     0.095 C 
ATOM     21  C   UNL A   1      29.592  27.588  23.534  1.00  0.00     0.037 C 
ATOM     22  C   UNL A   1      30.558  29.406  22.202  1.00  0.00     0.094 C 
ATOM     23  C   UNL A   1      28.299  28.204  23.020  1.00  0.00     0.072 C 
ATOM     24  S   UNL A   1      28.783  29.793  22.288  1.00  0.00    -0.160 SA
ENDBRANCH  18  20
ENDBRANCH  16  18
ENDBRANCH  14  16
ENDBRANCH   9  10
ENDBRANCH   6   8
ENDBRANCH   5   6
ENDBRANCH   4   5
ENDBRANCH   3   4
ENDBRANCH   2   3
ENDBRANCH   1   2
BRANCH   1  25
ATOM     25  C   UNL A   1      35.401  21.409  25.465  1.00  0.00     0.188 C 
BRANCH  25  26
ATOM     26  O   UNL A   1      36.632  20.724  25.562  1.00  0.00    -0.376 OA
BRANCH  26  27
ATOM     27  C   UNL A   1      37.810  21.403  25.160  1.00  0.00     0.202 C 
BRANCH  27  28
ATOM     28  C   UNL A   1      39.075  21.450  26.042  1.00  0.00     0.261 C 
BRANCH  28  29
ATOM     29  O   UNL A   1      39.390  22.685  26.696  1.00  0.00    -0.460 OA
BRANCH  29  30
ATOM     30  C   UNL A   1      38.804  23.803  26.221  1.00  0.00     0.338 C 
ATOM     31  O   UNL A   1      37.852  23.859  25.447  1.00  0.00    -0.246 OA
BRANCH  30  32
ATOM     32  C   UNL A   1      39.388  24.963  26.920  1.00  0.00     0.060 A 
ATOM     33  C   UNL A   1      39.301  25.036  28.315  1.00  0.00     0.016 A 
ATOM     34  C   UNL A   1      40.022  25.979  26.198  1.00  0.00     0.016 A 
ATOM     35  C   UNL A   1      39.832  26.137  28.992  1.00  0.00     0.010 A 
ATOM     36  C   UNL A   1      40.537  27.088  26.877  1.00  0.00     0.010 A 
ATOM     37  C   UNL A   1      40.424  27.185  28.275  1.00  0.00    -0.014 A 
BRANCH  37  38
ATOM     38  C   UNL A   1      40.773  28.455  28.964  1.00  0.00     0.031 A 
ATOM     39  C   UNL A   1      42.227  28.776  29.185  1.00  0.00     0.074 A 
ATOM     40  C   UNL A   1      39.821  29.311  29.379  1.00  0.00     0.049 A 
ATOM     41  N   UNL A   1      42.771  29.783  29.819  1.00  0.00    -0.248 NA
ATOM     42  C   UNL A   1      43.194  27.827  28.614  1.00  0.00     0.031 C 
ATOM     43  C   UNL A   1      38.384  29.135  29.183  1.00  0.00     0.029 A 
ATOM     44  N   UNL A   1      39.925  30.500  30.060  1.00  0.00    -0.354 N 
ATOM     45  C   UNL A   1      44.145  29.588  29.726  1.00  0.00     0.074 A 
ATOM     46  C   UNL A   1      44.346  28.346  29.010  1.00  0.00     0.031 C 
ATOM     47  C   UNL A   1      37.738  30.171  29.746  1.00  0.00     0.029 A 
ATOM     48  C   UNL A   1      38.710  31.061  30.379  1.00  0.00     0.049 A 
ATOM     49  H   UNL A   1      40.787  30.911  30.298  1.00  0.00     0.167 HD
ATOM     50  C   UNL A   1      45.147  30.376  30.190  1.00  0.00     0.034 A 
ATOM     51  C   UNL A   1      38.417  32.149  31.122  1.00  0.00     0.034 A 
ATOM     52  C   UNL A   1      44.932  31.600  30.923  1.00  0.00     0.049 A 
ATOM     53  C   UNL A   1      39.547  32.958  31.718  1.00  0.00     0.074 A 
ATOM     54  C   UNL A   1      45.873  32.477  31.432  1.00  0.00     0.029 A 
ATOM     55  N   UNL A   1      43.686  32.114  31.266  1.00  0.00    -0.354 N 
ATOM     56  N   UNL A   1      40.844  32.770  31.617  1.00  0.00    -0.248 NA
ATOM     57  C   UNL A   1      39.173  34.132  32.519  1.00  0.00     0.031 C 
ATOM     58  C   UNL A   1      45.203  33.475  32.148  1.00  0.00     0.029 A 
ATOM     59  C   UNL A   1      43.838  33.274  32.010  1.00  0.00     0.049 A 
ATOM     60  H   UNL A   1      42.823  31.712  31.018  1.00  0.00     0.167 HD
ATOM     61  C   UNL A   1      41.437  33.821  32.316  1.00  0.00     0.074 A 
ATOM     62  C   UNL A   1      40.357  34.645  32.818  1.00  0.00     0.031 C 
ATOM     63  C   UNL A   1      42.754  34.085  32.516  1.00  0.00     0.034 A 
BRANCH  50  64
ATOM     64  C   UNL A   1      46.562  29.899  29.963  1.00  0.00     0.023 A 
ATOM     65  C   UNL A   1      47.359  30.413  28.925  1.00  0.00     0.031 A 
ATOM     66  C   UNL A   1      47.111  28.891  30.775  1.00  0.00     0.131 A 
ATOM     67  C   UNL A   1      48.627  29.866  28.679  1.00  0.00     0.055 A 
ATOM     68  C   UNL A   1      48.406  28.411  30.578  1.00  0.00     0.041 A 
ATOM     69  F   UNL A   1      46.390  28.343  31.767  1.00  0.00    -0.206 F 
ATOM     70  C   UNL A   1      49.167  28.887  29.515  1.00  0.00     0.022 A 
BRANCH  67  71
ATOM     71  S   UNL A   1      49.497  30.345  27.161  1.00  0.00     0.124 S 
ATOM     72  O   UNL A   1      50.815  30.706  27.679  1.00  0.00    -0.237 OA
ATOM     73  O   UNL A   1      49.436  29.127  26.364  1.00  0.00    -0.237 OA
ATOM     74  O   UNL A   1      48.708  31.466  26.654  1.00  0.00    -0.744 OA
ENDBRANCH  67  71
ENDBRANCH  50  64
BRANCH  51  75
ATOM     75  C   UNL A   1      36.998  32.521  31.395  1.00  0.00     0.023 A 
ATOM     76  C   UNL A   1      36.217  33.173  30.428  1.00  0.00     0.031 A 
ATOM     77  C   UNL A   1      36.421  32.283  32.656  1.00  0.00     0.131 A 
ATOM     78  C   UNL A   1      34.922  33.609  30.750  1.00  0.00     0.055 A 
ATOM     79  C   UNL A   1      35.111  32.667  32.953  1.00  0.00     0.041 A 
ATOM     80  F   UNL A   1      37.124  31.668  33.620  1.00  0.00    -0.206 F 
ATOM     81  C   UNL A   1      34.358  33.347  32.001  1.00  0.00     0.022 A 
BRANCH  78  82
ATOM     82  S   UNL A   1      34.013  34.605  29.537  1.00  0.00     0.124 S 
ATOM     83  O   UNL A   1      33.197  33.593  28.875  1.00  0.00    -0.237 OA
ATOM     84  O   UNL A   1      33.297  35.546  30.393  1.00  0.00    -0.237 OA
ATOM     85  O   UNL A   1      35.070  35.191  28.717  1.00  0.00    -0.744 OA
ENDBRANCH  78  82
ENDBRANCH  51  75
BRANCH  63  86
ATOM     86  C   UNL A   1      43.101  35.350  33.268  1.00  0.00     0.023 A 
ATOM     87  C   UNL A   1      43.128  35.400  34.672  1.00  0.00     0.031 A 
ATOM     88  C   UNL A   1      43.407  36.527  32.560  1.00  0.00     0.131 A 
ATOM     89  C   UNL A   1      43.398  36.615  35.324  1.00  0.00     0.055 A 
ATOM     90  C   UNL A   1      43.740  37.715  33.213  1.00  0.00     0.041 A 
ATOM     91  F   UNL A   1      43.395  36.541  31.217  1.00  0.00    -0.206 F 
ATOM     92  C   UNL A   1      43.723  37.766  34.603  1.00  0.00     0.022 A 
BRANCH  89  93
ATOM     93  S   UNL A   1      43.226  36.693  37.129  1.00  0.00     0.124 S 
ATOM     94  O   UNL A   1      43.961  37.912  37.449  1.00  0.00    -0.237 OA
ATOM     95  O   UNL A   1      41.779  36.756  37.303  1.00  0.00    -0.237 OA
ATOM     96  O   UNL A   1      43.853  35.454  37.586  1.00  0.00    -0.744 OA
ENDBRANCH  89  93
ENDBRANCH  63  86
ENDBRANCH  37  38
ENDBRANCH  30  32
ENDBRANCH  29  30
ENDBRANCH  28  29
ENDBRANCH  27  28
ENDBRANCH  26  27
ENDBRANCH  25  26
ENDBRANCH   1  25
TORSDOF 24
ENDMDL
