MODEL 1
REMARK VINA RESULT:      -9.5      0.000      0.000
REMARK SMILES CCC(CC)(CC(=O)Nc1ccc(F)c(F)c1)C(=O)OCCOCCOCCOC(=O)c1ccc(-c2c3nc(c(-c4cc(S(=O)(=O)[O-])ccc4F)c4ccc([nH]4)c(-c4cc(S(=O)(=O)[O-])ccc4F)c4nc(c(-c5cc(S(=O)(=O)[O-])ccc5F)c5ccc2[nH]5)C=C4)C=C3)cc1
REMARK SMILES IDX 24 1 23 2 22 3 21 4 20 5 18 6 19 7 3 8 2 9 1 10 4 11 5 12
REMARK SMILES IDX 6 13 7 14 8 15 9 16 10 18 11 19 17 20 12 21 15 22 13 23
REMARK SMILES IDX 16 24 14 25 25 26 26 27 27 28 28 29 29 30 30 31 31 32 32 33
REMARK SMILES IDX 33 34 94 35 34 36 93 37 35 38 36 39 37 40 87 41 38 42 92 43
REMARK SMILES IDX 86 44 88 45 39 46 91 47 85 48 84 49 40 51 72 52 52 53 71 54
REMARK SMILES IDX 53 55 56 56 70 57 89 58 54 59 55 60 69 62 90 63 57 64 41 65
REMARK SMILES IDX 42 66 50 67 43 68 49 69 51 70 48 71 44 72 45 73 46 74 47 75
REMARK SMILES IDX 73 76 74 77 82 78 75 79 81 80 83 81 80 82 76 83 77 84 78 85
REMARK SMILES IDX 79 86 58 87 59 88 67 89 60 90 66 91 68 92 65 93 61 94 62 95
REMARK SMILES IDX 63 96 64 97
REMARK H PARENT 9 17 88 50 56 61
REMARK Flexibility Score: inf
ROOT
ATOM      1  C   UNL A   1      34.878  31.882  28.565  1.00  0.00     0.188 C 
ENDROOT
BRANCH   1   2
ATOM      2  O   UNL A   1      35.283  30.522  28.437  1.00  0.00    -0.376 OA
BRANCH   2   3
ATOM      3  C   UNL A   1      34.874  29.807  27.279  1.00  0.00     0.202 C 
BRANCH   3   4
ATOM      4  C   UNL A   1      33.656  28.896  27.444  1.00  0.00     0.261 C 
BRANCH   4   5
ATOM      5  O   UNL A   1      33.678  27.738  26.585  1.00  0.00    -0.463 OA
BRANCH   5   6
ATOM      6  C   UNL A   1      32.499  27.083  26.504  1.00  0.00     0.312 C 
ATOM      7  O   UNL A   1      31.608  27.244  27.334  1.00  0.00    -0.252 OA
BRANCH   6   8
ATOM      8  C   UNL A   1      32.314  26.259  25.191  1.00  0.00     0.076 C 
BRANCH   8   9
ATOM      9  C   UNL A   1      33.529  26.520  24.313  1.00  0.00     0.016 C 
ATOM     10  C   UNL A   1      33.472  27.625  23.272  1.00  0.00     0.005 C 
ENDBRANCH   8   9
BRANCH   8  11
ATOM     11  C   UNL A   1      31.001  26.884  24.586  1.00  0.00     0.016 C 
ATOM     12  C   UNL A   1      30.196  26.058  23.594  1.00  0.00     0.005 C 
ENDBRANCH   8  11
BRANCH   8  13
ATOM     13  C   UNL A   1      32.074  24.723  25.377  1.00  0.00     0.119 C 
BRANCH  13  14
ATOM     14  C   UNL A   1      32.341  23.784  26.586  1.00  0.00     0.225 C 
ATOM     15  O   UNL A   1      31.448  23.729  27.450  1.00  0.00    -0.275 OA
ATOM     16  N   UNL A   1      33.224  22.752  26.684  1.00  0.00    -0.326 N 
ATOM     17  H   UNL A   1      32.833  22.019  27.213  1.00  0.00     0.169 HD
BRANCH  16  18
ATOM     18  C   UNL A   1      34.517  22.411  26.266  1.00  0.00     0.044 A 
ATOM     19  C   UNL A   1      34.854  21.198  25.670  1.00  0.00     0.029 A 
ATOM     20  C   UNL A   1      35.472  23.435  26.232  1.00  0.00     0.068 A 
ATOM     21  C   UNL A   1      36.167  20.924  25.259  1.00  0.00     0.044 A 
ATOM     22  C   UNL A   1      36.774  23.177  25.796  1.00  0.00     0.160 A 
ATOM     23  C   UNL A   1      37.131  21.914  25.351  1.00  0.00     0.158 A 
ATOM     24  F   UNL A   1      37.679  24.165  25.818  1.00  0.00    -0.204 F 
ATOM     25  F   UNL A   1      38.391  21.652  24.982  1.00  0.00    -0.204 F 
ENDBRANCH  16  18
ENDBRANCH  13  14
ENDBRANCH   8  13
ENDBRANCH   6   8
ENDBRANCH   5   6
ENDBRANCH   4   5
ENDBRANCH   3   4
ENDBRANCH   2   3
ENDBRANCH   1   2
BRANCH   1  26
ATOM     26  C   UNL A   1      33.625  32.361  27.818  1.00  0.00     0.188 C 
BRANCH  26  27
ATOM     27  O   UNL A   1      33.431  33.765  27.856  1.00  0.00    -0.376 OA
BRANCH  27  28
ATOM     28  C   UNL A   1      33.964  34.389  29.014  1.00  0.00     0.202 C 
BRANCH  28  29
ATOM     29  C   UNL A   1      33.004  35.485  29.476  1.00  0.00     0.261 C 
BRANCH  29  30
ATOM     30  O   UNL A   1      33.433  36.165  30.670  1.00  0.00    -0.460 OA
BRANCH  30  31
ATOM     31  C   UNL A   1      32.947  35.686  31.835  1.00  0.00     0.338 C 
ATOM     32  O   UNL A   1      31.784  35.725  32.220  1.00  0.00    -0.246 OA
BRANCH  31  33
ATOM     33  C   UNL A   1      34.030  34.957  32.515  1.00  0.00     0.060 A 
ATOM     34  C   UNL A   1      35.349  35.423  32.418  1.00  0.00     0.016 A 
ATOM     35  C   UNL A   1      33.739  33.795  33.227  1.00  0.00     0.016 A 
ATOM     36  C   UNL A   1      36.389  34.713  33.021  1.00  0.00     0.010 A 
ATOM     37  C   UNL A   1      34.780  33.079  33.816  1.00  0.00     0.010 A 
ATOM     38  C   UNL A   1      36.113  33.519  33.698  1.00  0.00    -0.014 A 
BRANCH  38  39
ATOM     39  C   UNL A   1      37.202  32.611  34.135  1.00  0.00     0.031 A 
ATOM     40  C   UNL A   1      37.920  32.939  35.411  1.00  0.00     0.074 A 
ATOM     41  C   UNL A   1      37.586  31.560  33.393  1.00  0.00     0.049 A 
ATOM     42  N   UNL A   1      39.060  32.494  35.867  1.00  0.00    -0.248 NA
ATOM     43  C   UNL A   1      37.260  33.925  36.279  1.00  0.00     0.031 C 
ATOM     44  C   UNL A   1      36.919  31.092  32.180  1.00  0.00     0.029 A 
ATOM     45  N   UNL A   1      38.662  30.718  33.536  1.00  0.00    -0.354 N 
ATOM     46  C   UNL A   1      39.281  33.178  37.058  1.00  0.00     0.074 A 
ATOM     47  C   UNL A   1      38.156  34.072  37.242  1.00  0.00     0.031 C 
ATOM     48  C   UNL A   1      37.627  30.073  31.663  1.00  0.00     0.029 A 
ATOM     49  C   UNL A   1      38.830  29.866  32.469  1.00  0.00     0.049 A 
ATOM     50  H   UNL A   1      39.254  30.723  34.323  1.00  0.00     0.167 HD
ATOM     51  C   UNL A   1      40.332  33.076  37.909  1.00  0.00     0.034 A 
ATOM     52  C   UNL A   1      39.868  29.069  32.143  1.00  0.00     0.034 A 
ATOM     53  C   UNL A   1      41.444  32.182  37.692  1.00  0.00     0.049 A 
ATOM     54  C   UNL A   1      41.078  29.029  33.046  1.00  0.00     0.074 A 
ATOM     55  C   UNL A   1      42.563  31.987  38.481  1.00  0.00     0.029 A 
ATOM     56  N   UNL A   1      41.584  31.342  36.593  1.00  0.00    -0.354 N 
ATOM     57  N   UNL A   1      41.308  29.705  34.149  1.00  0.00    -0.248 NA
ATOM     58  C   UNL A   1      42.170  28.128  32.658  1.00  0.00     0.031 C 
ATOM     59  C   UNL A   1      43.411  31.088  37.824  1.00  0.00     0.029 A 
ATOM     60  C   UNL A   1      42.784  30.655  36.666  1.00  0.00     0.049 A 
ATOM     61  H   UNL A   1      40.925  31.250  35.867  1.00  0.00     0.167 HD
ATOM     62  C   UNL A   1      42.560  29.291  34.599  1.00  0.00     0.074 A 
ATOM     63  C   UNL A   1      43.035  28.306  33.648  1.00  0.00     0.031 C 
ATOM     64  C   UNL A   1      43.248  29.681  35.704  1.00  0.00     0.034 A 
BRANCH  51  65
ATOM     65  C   UNL A   1      40.354  34.022  39.086  1.00  0.00     0.023 A 
ATOM     66  C   UNL A   1      39.653  33.752  40.273  1.00  0.00     0.031 A 
ATOM     67  C   UNL A   1      41.017  35.258  38.983  1.00  0.00     0.131 A 
ATOM     68  C   UNL A   1      39.541  34.743  41.262  1.00  0.00     0.055 A 
ATOM     69  C   UNL A   1      40.982  36.202  40.011  1.00  0.00     0.041 A 
ATOM     70  F   UNL A   1      41.684  35.586  37.865  1.00  0.00    -0.206 F 
ATOM     71  C   UNL A   1      40.221  35.956  41.150  1.00  0.00     0.022 A 
BRANCH  68  72
ATOM     72  S   UNL A   1      38.333  34.499  42.595  1.00  0.00     0.124 S 
ATOM     73  O   UNL A   1      38.943  33.409  43.352  1.00  0.00    -0.237 OA
ATOM     74  O   UNL A   1      38.320  35.802  43.249  1.00  0.00    -0.237 OA
ATOM     75  O   UNL A   1      37.107  34.142  41.885  1.00  0.00    -0.744 OA
ENDBRANCH  68  72
ENDBRANCH  51  65
BRANCH  52  76
ATOM     76  C   UNL A   1      39.850  28.319  30.854  1.00  0.00     0.023 A 
ATOM     77  C   UNL A   1      40.631  28.719  29.759  1.00  0.00     0.031 A 
ATOM     78  C   UNL A   1      39.033  27.182  30.702  1.00  0.00     0.131 A 
ATOM     79  C   UNL A   1      40.566  27.998  28.556  1.00  0.00     0.055 A 
ATOM     80  C   UNL A   1      39.007  26.443  29.519  1.00  0.00     0.041 A 
ATOM     81  F   UNL A   1      38.266  26.757  31.719  1.00  0.00    -0.206 F 
ATOM     82  C   UNL A   1      39.772  26.854  28.434  1.00  0.00     0.022 A 
BRANCH  79  83
ATOM     83  S   UNL A   1      41.508  28.599  27.126  1.00  0.00     0.124 S 
ATOM     84  O   UNL A   1      40.446  29.093  26.257  1.00  0.00    -0.237 OA
ATOM     85  O   UNL A   1      42.364  29.613  27.732  1.00  0.00    -0.237 OA
ATOM     86  O   UNL A   1      42.203  27.406  26.650  1.00  0.00    -0.744 OA
ENDBRANCH  79  83
ENDBRANCH  52  76
BRANCH  64  87
ATOM     87  C   UNL A   1      44.566  28.995  35.979  1.00  0.00     0.023 A 
ATOM     88  C   UNL A   1      44.650  27.802  36.716  1.00  0.00     0.031 A 
ATOM     89  C   UNL A   1      45.756  29.541  35.461  1.00  0.00     0.131 A 
ATOM     90  C   UNL A   1      45.904  27.210  36.942  1.00  0.00     0.055 A 
ATOM     91  C   UNL A   1      46.991  28.920  35.646  1.00  0.00     0.041 A 
ATOM     92  F   UNL A   1      45.732  30.681  34.751  1.00  0.00    -0.206 F 
ATOM     93  C   UNL A   1      47.071  27.751  36.396  1.00  0.00     0.022 A 
BRANCH  90  94
ATOM     94  S   UNL A   1      46.002  25.748  38.013  1.00  0.00     0.124 S 
ATOM     95  O   UNL A   1      44.606  25.558  38.394  1.00  0.00    -0.237 OA
ATOM     96  O   UNL A   1      46.563  24.741  37.119  1.00  0.00    -0.237 OA
ATOM     97  O   UNL A   1      46.887  26.175  39.095  1.00  0.00    -0.744 OA
ENDBRANCH  90  94
ENDBRANCH  64  87
ENDBRANCH  38  39
ENDBRANCH  31  33
ENDBRANCH  30  31
ENDBRANCH  29  30
ENDBRANCH  28  29
ENDBRANCH  27  28
ENDBRANCH  26  27
ENDBRANCH   1  26
TORSDOF 25
ENDMDL
MODEL 2
REMARK VINA RESULT:      -9.0      2.041      2.465
REMARK SMILES CCC(CC)(CC(=O)Nc1ccc(F)c(F)c1)C(=O)OCCOCCOCCOC(=O)c1ccc(-c2c3nc(c(-c4cc(S(=O)(=O)[O-])ccc4F)c4ccc([nH]4)c(-c4cc(S(=O)(=O)[O-])ccc4F)c4nc(c(-c5cc(S(=O)(=O)[O-])ccc5F)c5ccc2[nH]5)C=C4)C=C3)cc1
REMARK SMILES IDX 24 1 23 2 22 3 21 4 20 5 18 6 19 7 3 8 2 9 1 10 4 11 5 12
REMARK SMILES IDX 6 13 7 14 8 15 9 16 10 18 11 19 17 20 12 21 15 22 13 23
REMARK SMILES IDX 16 24 14 25 25 26 26 27 27 28 28 29 29 30 30 31 31 32 32 33
REMARK SMILES IDX 33 34 94 35 34 36 93 37 35 38 36 39 37 40 87 41 38 42 92 43
REMARK SMILES IDX 86 44 88 45 39 46 91 47 85 48 84 49 40 51 72 52 52 53 71 54
REMARK SMILES IDX 53 55 56 56 70 57 89 58 54 59 55 60 69 62 90 63 57 64 41 65
REMARK SMILES IDX 42 66 50 67 43 68 49 69 51 70 48 71 44 72 45 73 46 74 47 75
REMARK SMILES IDX 73 76 74 77 82 78 75 79 81 80 83 81 80 82 76 83 77 84 78 85
REMARK SMILES IDX 79 86 58 87 59 88 67 89 60 90 66 91 68 92 65 93 61 94 62 95
REMARK SMILES IDX 63 96 64 97
REMARK H PARENT 9 17 88 50 56 61
REMARK Flexibility Score: inf
ROOT
ATOM      1  C   UNL A   1      34.528  31.653  28.139  1.00  0.00     0.188 C 
ENDROOT
BRANCH   1   2
ATOM      2  O   UNL A   1      34.884  30.278  28.017  1.00  0.00    -0.376 OA
BRANCH   2   3
ATOM      3  C   UNL A   1      34.333  29.535  26.939  1.00  0.00     0.202 C 
BRANCH   3   4
ATOM      4  C   UNL A   1      33.217  28.551  27.297  1.00  0.00     0.261 C 
BRANCH   4   5
ATOM      5  O   UNL A   1      33.158  27.401  26.428  1.00  0.00    -0.463 OA
BRANCH   5   6
ATOM      6  C   UNL A   1      31.953  26.791  26.395  1.00  0.00     0.312 C 
ATOM      7  O   UNL A   1      31.151  26.887  27.320  1.00  0.00    -0.252 OA
BRANCH   6   8
ATOM      8  C   UNL A   1      31.616  26.116  25.028  1.00  0.00     0.076 C 
BRANCH   8   9
ATOM      9  C   UNL A   1      32.842  26.250  24.137  1.00  0.00     0.016 C 
ATOM     10  C   UNL A   1      33.990  25.268  24.298  1.00  0.00     0.005 C 
ENDBRANCH   8   9
BRANCH   8  11
ATOM     11  C   UNL A   1      30.411  26.988  24.513  1.00  0.00     0.016 C 
ATOM     12  C   UNL A   1      29.082  26.300  24.241  1.00  0.00     0.005 C 
ENDBRANCH   8  11
BRANCH   8  13
ATOM     13  C   UNL A   1      31.135  24.628  25.102  1.00  0.00     0.119 C 
BRANCH  13  14
ATOM     14  C   UNL A   1      31.132  23.611  26.277  1.00  0.00     0.225 C 
ATOM     15  O   UNL A   1      30.231  23.749  27.125  1.00  0.00    -0.275 OA
ATOM     16  N   UNL A   1      31.728  22.388  26.347  1.00  0.00    -0.326 N 
ATOM     17  H   UNL A   1      31.154  21.758  26.840  1.00  0.00     0.169 HD
BRANCH  16  18
ATOM     18  C   UNL A   1      32.906  21.751  25.935  1.00  0.00     0.044 A 
ATOM     19  C   UNL A   1      34.187  22.168  26.287  1.00  0.00     0.029 A 
ATOM     20  C   UNL A   1      32.779  20.493  25.331  1.00  0.00     0.068 A 
ATOM     21  C   UNL A   1      35.328  21.477  25.853  1.00  0.00     0.044 A 
ATOM     22  C   UNL A   1      33.911  19.784  24.923  1.00  0.00     0.160 A 
ATOM     23  C   UNL A   1      35.180  20.294  25.144  1.00  0.00     0.158 A 
ATOM     24  F   UNL A   1      33.757  18.604  24.306  1.00  0.00    -0.204 F 
ATOM     25  F   UNL A   1      36.264  19.642  24.708  1.00  0.00    -0.204 F 
ENDBRANCH  16  18
ENDBRANCH  13  14
ENDBRANCH   8  13
ENDBRANCH   6   8
ENDBRANCH   5   6
ENDBRANCH   4   5
ENDBRANCH   3   4
ENDBRANCH   2   3
ENDBRANCH   1   2
BRANCH   1  26
ATOM     26  C   UNL A   1      33.187  32.129  27.564  1.00  0.00     0.188 C 
BRANCH  26  27
ATOM     27  O   UNL A   1      32.983  33.530  27.657  1.00  0.00    -0.376 OA
BRANCH  27  28
ATOM     28  C   UNL A   1      33.727  34.152  28.693  1.00  0.00     0.202 C 
BRANCH  28  29
ATOM     29  C   UNL A   1      32.956  35.372  29.198  1.00  0.00     0.261 C 
BRANCH  29  30
ATOM     30  O   UNL A   1      33.511  35.955  30.391  1.00  0.00    -0.460 OA
BRANCH  30  31
ATOM     31  C   UNL A   1      33.061  35.455  31.562  1.00  0.00     0.338 C 
ATOM     32  O   UNL A   1      31.901  35.433  31.957  1.00  0.00    -0.246 OA
BRANCH  31  33
ATOM     33  C   UNL A   1      34.188  34.785  32.233  1.00  0.00     0.060 A 
ATOM     34  C   UNL A   1      35.442  35.409  32.272  1.00  0.00     0.016 A 
ATOM     35  C   UNL A   1      34.003  33.526  32.801  1.00  0.00     0.016 A 
ATOM     36  C   UNL A   1      36.528  34.762  32.866  1.00  0.00     0.010 A 
ATOM     37  C   UNL A   1      35.091  32.875  33.381  1.00  0.00     0.010 A 
ATOM     38  C   UNL A   1      36.365  33.477  33.397  1.00  0.00    -0.014 A 
BRANCH  38  39
ATOM     39  C   UNL A   1      37.531  32.659  33.810  1.00  0.00     0.031 A 
ATOM     40  C   UNL A   1      38.090  32.876  35.186  1.00  0.00     0.074 A 
ATOM     41  C   UNL A   1      38.119  31.792  32.969  1.00  0.00     0.049 A 
ATOM     42  N   UNL A   1      39.241  32.515  35.687  1.00  0.00    -0.248 NA
ATOM     43  C   UNL A   1      37.229  33.625  36.113  1.00  0.00     0.031 C 
ATOM     44  C   UNL A   1      37.626  31.435  31.641  1.00  0.00     0.029 A 
ATOM     45  N   UNL A   1      39.288  31.082  33.100  1.00  0.00    -0.354 N 
ATOM     46  C   UNL A   1      39.265  33.030  36.979  1.00  0.00     0.074 A 
ATOM     47  C   UNL A   1      38.014  33.735  37.172  1.00  0.00     0.031 C 
ATOM     48  C   UNL A   1      38.510  30.606  31.060  1.00  0.00     0.029 A 
ATOM     49  C   UNL A   1      39.661  30.432  31.947  1.00  0.00     0.049 A 
ATOM     50  H   UNL A   1      39.807  31.042  33.936  1.00  0.00     0.167 HD
ATOM     51  C   UNL A   1      40.247  32.933  37.909  1.00  0.00     0.034 A 
ATOM     52  C   UNL A   1      40.824  29.834  31.618  1.00  0.00     0.034 A 
ATOM     53  C   UNL A   1      41.488  32.232  37.682  1.00  0.00     0.049 A 
ATOM     54  C   UNL A   1      41.950  29.811  32.624  1.00  0.00     0.074 A 
ATOM     55  C   UNL A   1      42.556  32.062  38.545  1.00  0.00     0.029 A 
ATOM     56  N   UNL A   1      41.834  31.596  36.495  1.00  0.00    -0.354 N 
ATOM     57  N   UNL A   1      41.991  30.333  33.830  1.00  0.00    -0.248 NA
ATOM     58  C   UNL A   1      43.186  29.126  32.225  1.00  0.00     0.031 C 
ATOM     59  C   UNL A   1      43.573  31.391  37.857  1.00  0.00     0.029 A 
ATOM     60  C   UNL A   1      43.109  31.064  36.591  1.00  0.00     0.049 A 
ATOM     61  H   UNL A   1      41.256  31.534  35.701  1.00  0.00     0.167 HD
ATOM     62  C   UNL A   1      43.248  30.017  34.341  1.00  0.00     0.074 A 
ATOM     63  C   UNL A   1      43.933  29.259  33.313  1.00  0.00     0.031 C 
ATOM     64  C   UNL A   1      43.783  30.317  35.553  1.00  0.00     0.034 A 
BRANCH  51  65
ATOM     65  C   UNL A   1      40.040  33.682  39.205  1.00  0.00     0.023 A 
ATOM     66  C   UNL A   1      39.261  33.160  40.251  1.00  0.00     0.031 A 
ATOM     67  C   UNL A   1      40.558  34.981  39.357  1.00  0.00     0.131 A 
ATOM     68  C   UNL A   1      38.935  33.969  41.352  1.00  0.00     0.055 A 
ATOM     69  C   UNL A   1      40.310  35.745  40.499  1.00  0.00     0.041 A 
ATOM     70  F   UNL A   1      41.289  35.545  38.382  1.00  0.00    -0.206 F 
ATOM     71  C   UNL A   1      39.474  35.248  41.495  1.00  0.00     0.022 A 
BRANCH  68  72
ATOM     72  S   UNL A   1      37.638  33.399  42.487  1.00  0.00     0.124 S 
ATOM     73  O   UNL A   1      37.086  34.664  42.965  1.00  0.00    -0.237 OA
ATOM     74  O   UNL A   1      36.776  32.615  41.612  1.00  0.00    -0.237 OA
ATOM     75  O   UNL A   1      38.374  32.633  43.491  1.00  0.00    -0.744 OA
ENDBRANCH  68  72
ENDBRANCH  51  65
BRANCH  52  76
ATOM     76  C   UNL A   1      41.016  29.295  30.241  1.00  0.00     0.023 A 
ATOM     77  C   UNL A   1      40.604  27.999  29.894  1.00  0.00     0.031 A 
ATOM     78  C   UNL A   1      41.629  30.081  29.246  1.00  0.00     0.131 A 
ATOM     79  C   UNL A   1      40.826  27.522  28.592  1.00  0.00     0.055 A 
ATOM     80  C   UNL A   1      41.806  29.618  27.942  1.00  0.00     0.041 A 
ATOM     81  F   UNL A   1      42.042  31.327  29.526  1.00  0.00    -0.206 F 
ATOM     82  C   UNL A   1      41.409  28.328  27.610  1.00  0.00     0.022 A 
BRANCH  79  83
ATOM     83  S   UNL A   1      40.376  25.808  28.202  1.00  0.00     0.124 S 
ATOM     84  O   UNL A   1      39.179  25.624  29.014  1.00  0.00    -0.237 OA
ATOM     85  O   UNL A   1      40.170  25.869  26.759  1.00  0.00    -0.237 OA
ATOM     86  O   UNL A   1      41.546  25.043  28.629  1.00  0.00    -0.744 OA
ENDBRANCH  79  83
ENDBRANCH  52  76
BRANCH  64  87
ATOM     87  C   UNL A   1      45.157  29.771  35.861  1.00  0.00     0.023 A 
ATOM     88  C   UNL A   1      46.330  30.487  35.570  1.00  0.00     0.031 A 
ATOM     89  C   UNL A   1      45.283  28.516  36.487  1.00  0.00     0.131 A 
ATOM     90  C   UNL A   1      47.582  29.929  35.878  1.00  0.00     0.055 A 
ATOM     91  C   UNL A   1      46.528  27.991  36.836  1.00  0.00     0.041 A 
ATOM     92  F   UNL A   1      44.194  27.789  36.784  1.00  0.00    -0.206 F 
ATOM     93  C   UNL A   1      47.687  28.694  36.525  1.00  0.00     0.022 A 
BRANCH  90  94
ATOM     94  S   UNL A   1      49.084  30.810  35.367  1.00  0.00     0.124 S 
ATOM     95  O   UNL A   1      49.987  30.538  36.481  1.00  0.00    -0.237 OA
ATOM     96  O   UNL A   1      49.413  30.162  34.103  1.00  0.00    -0.237 OA
ATOM     97  O   UNL A   1      48.644  32.200  35.252  1.00  0.00    -0.744 OA
ENDBRANCH  90  94
ENDBRANCH  64  87
ENDBRANCH  38  39
ENDBRANCH  31  33
ENDBRANCH  30  31
ENDBRANCH  29  30
ENDBRANCH  28  29
ENDBRANCH  27  28
ENDBRANCH  26  27
ENDBRANCH   1  26
TORSDOF 25
ENDMDL
MODEL 3
REMARK VINA RESULT:      -8.6      5.375     10.868
REMARK SMILES CCC(CC)(CC(=O)Nc1ccc(F)c(F)c1)C(=O)OCCOCCOCCOC(=O)c1ccc(-c2c3nc(c(-c4cc(S(=O)(=O)[O-])ccc4F)c4ccc([nH]4)c(-c4cc(S(=O)(=O)[O-])ccc4F)c4nc(c(-c5cc(S(=O)(=O)[O-])ccc5F)c5ccc2[nH]5)C=C4)C=C3)cc1
REMARK SMILES IDX 24 1 23 2 22 3 21 4 20 5 18 6 19 7 3 8 2 9 1 10 4 11 5 12
REMARK SMILES IDX 6 13 7 14 8 15 9 16 10 18 11 19 17 20 12 21 15 22 13 23
REMARK SMILES IDX 16 24 14 25 25 26 26 27 27 28 28 29 29 30 30 31 31 32 32 33
REMARK SMILES IDX 33 34 94 35 34 36 93 37 35 38 36 39 37 40 87 41 38 42 92 43
REMARK SMILES IDX 86 44 88 45 39 46 91 47 85 48 84 49 40 51 72 52 52 53 71 54
REMARK SMILES IDX 53 55 56 56 70 57 89 58 54 59 55 60 69 62 90 63 57 64 41 65
REMARK SMILES IDX 42 66 50 67 43 68 49 69 51 70 48 71 44 72 45 73 46 74 47 75
REMARK SMILES IDX 73 76 74 77 82 78 75 79 81 80 83 81 80 82 76 83 77 84 78 85
REMARK SMILES IDX 79 86 58 87 59 88 67 89 60 90 66 91 68 92 65 93 61 94 62 95
REMARK SMILES IDX 63 96 64 97
REMARK H PARENT 9 17 88 50 56 61
REMARK Flexibility Score: inf
ROOT
ATOM      1  C   UNL A   1      38.425  21.260  25.772  1.00  0.00     0.188 C 
ENDROOT
BRANCH   1   2
ATOM      2  O   UNL A   1      38.981  22.550  26.012  1.00  0.00    -0.376 OA
BRANCH   2   3
ATOM      3  C   UNL A   1      38.091  23.648  26.159  1.00  0.00     0.202 C 
BRANCH   3   4
ATOM      4  C   UNL A   1      36.848  23.633  25.267  1.00  0.00     0.261 C 
BRANCH   4   5
ATOM      5  O   UNL A   1      35.632  23.313  25.972  1.00  0.00    -0.463 OA
BRANCH   5   6
ATOM      6  C   UNL A   1      34.557  24.031  25.582  1.00  0.00     0.312 C 
ATOM      7  O   UNL A   1      34.462  25.235  25.809  1.00  0.00    -0.252 OA
BRANCH   6   8
ATOM      8  C   UNL A   1      33.554  23.243  24.681  1.00  0.00     0.076 C 
BRANCH   8   9
ATOM      9  C   UNL A   1      34.041  21.804  24.606  1.00  0.00     0.016 C 
ATOM     10  C   UNL A   1      33.711  20.846  25.738  1.00  0.00     0.005 C 
ENDBRANCH   8   9
BRANCH   8  11
ATOM     11  C   UNL A   1      33.689  23.987  23.300  1.00  0.00     0.016 C 
ATOM     12  C   UNL A   1      32.482  24.022  22.375  1.00  0.00     0.005 C 
ENDBRANCH   8  11
BRANCH   8  13
ATOM     13  C   UNL A   1      32.051  23.306  25.117  1.00  0.00     0.119 C 
BRANCH  13  14
ATOM     14  C   UNL A   1      31.373  23.933  26.366  1.00  0.00     0.225 C 
ATOM     15  O   UNL A   1      31.015  23.141  27.256  1.00  0.00    -0.275 OA
ATOM     16  N   UNL A   1      31.422  25.221  26.806  1.00  0.00    -0.326 N 
ATOM     17  H   UNL A   1      31.453  25.243  27.790  1.00  0.00     0.169 HD
BRANCH  16  18
ATOM     18  C   UNL A   1      31.442  26.524  26.291  1.00  0.00     0.044 A 
ATOM     19  C   UNL A   1      31.008  26.869  25.013  1.00  0.00     0.029 A 
ATOM     20  C   UNL A   1      31.693  27.568  27.191  1.00  0.00     0.068 A 
ATOM     21  C   UNL A   1      31.041  28.196  24.562  1.00  0.00     0.044 A 
ATOM     22  C   UNL A   1      31.697  28.895  26.756  1.00  0.00     0.160 A 
ATOM     23  C   UNL A   1      31.414  29.205  25.436  1.00  0.00     0.158 A 
ATOM     24  F   UNL A   1      31.985  29.869  27.630  1.00  0.00    -0.204 F 
ATOM     25  F   UNL A   1      31.468  30.471  25.005  1.00  0.00    -0.204 F 
ENDBRANCH  16  18
ENDBRANCH  13  14
ENDBRANCH   8  13
ENDBRANCH   6   8
ENDBRANCH   5   6
ENDBRANCH   4   5
ENDBRANCH   3   4
ENDBRANCH   2   3
ENDBRANCH   1   2
BRANCH   1  26
ATOM     26  C   UNL A   1      39.364  20.095  25.430  1.00  0.00     0.188 C 
BRANCH  26  27
ATOM     27  O   UNL A   1      40.250  19.741  26.479  1.00  0.00    -0.376 OA
BRANCH  27  28
ATOM     28  C   UNL A   1      41.601  19.593  26.068  1.00  0.00     0.202 C 
BRANCH  28  29
ATOM     29  C   UNL A   1      42.354  20.892  26.355  1.00  0.00     0.261 C 
BRANCH  29  30
ATOM     30  O   UNL A   1      43.088  21.397  25.225  1.00  0.00    -0.460 OA
BRANCH  30  31
ATOM     31  C   UNL A   1      44.249  22.028  25.503  1.00  0.00     0.338 C 
ATOM     32  O   UNL A   1      45.383  21.611  25.294  1.00  0.00    -0.246 OA
BRANCH  31  33
ATOM     33  C   UNL A   1      43.929  23.389  25.962  1.00  0.00     0.060 A 
ATOM     34  C   UNL A   1      43.841  24.433  25.031  1.00  0.00     0.016 A 
ATOM     35  C   UNL A   1      43.740  23.632  27.321  1.00  0.00     0.016 A 
ATOM     36  C   UNL A   1      43.582  25.736  25.462  1.00  0.00     0.010 A 
ATOM     37  C   UNL A   1      43.496  24.936  27.752  1.00  0.00     0.010 A 
ATOM     38  C   UNL A   1      43.438  25.999  26.829  1.00  0.00    -0.014 A 
BRANCH  38  39
ATOM     39  C   UNL A   1      43.411  27.388  27.348  1.00  0.00     0.031 A 
ATOM     40  C   UNL A   1      44.724  28.068  27.606  1.00  0.00     0.074 A 
ATOM     41  C   UNL A   1      42.257  28.010  27.642  1.00  0.00     0.049 A 
ATOM     42  N   UNL A   1      44.988  29.140  28.304  1.00  0.00    -0.248 NA
ATOM     43  C   UNL A   1      45.902  27.428  27.004  1.00  0.00     0.031 C 
ATOM     44  C   UNL A   1      40.920  27.490  27.365  1.00  0.00     0.029 A 
ATOM     45  N   UNL A   1      42.031  29.206  28.280  1.00  0.00    -0.354 N 
ATOM     46  C   UNL A   1      46.371  29.282  28.264  1.00  0.00     0.074 A 
ATOM     47  C   UNL A   1      46.883  28.178  27.478  1.00  0.00     0.031 C 
ATOM     48  C   UNL A   1      40.011  28.342  27.869  1.00  0.00     0.029 A 
ATOM     49  C   UNL A   1      40.703  29.427  28.565  1.00  0.00     0.049 A 
ATOM     50  H   UNL A   1      42.747  29.842  28.509  1.00  0.00     0.167 HD
ATOM     51  C   UNL A   1      47.139  30.240  28.841  1.00  0.00     0.034 A 
ATOM     52  C   UNL A   1      40.121  30.351  29.356  1.00  0.00     0.034 A 
ATOM     53  C   UNL A   1      46.598  31.323  29.627  1.00  0.00     0.049 A 
ATOM     54  C   UNL A   1      40.989  31.359  30.072  1.00  0.00     0.074 A 
ATOM     55  C   UNL A   1      47.272  32.353  30.259  1.00  0.00     0.029 A 
ATOM     56  N   UNL A   1      45.248  31.506  29.903  1.00  0.00    -0.354 N 
ATOM     57  N   UNL A   1      42.299  31.470  30.069  1.00  0.00    -0.248 NA
ATOM     58  C   UNL A   1      40.304  32.358  30.902  1.00  0.00     0.031 C 
ATOM     59  C   UNL A   1      46.340  33.112  30.974  1.00  0.00     0.029 A 
ATOM     60  C   UNL A   1      45.072  32.609  30.722  1.00  0.00     0.049 A 
ATOM     61  H   UNL A   1      44.522  30.933  29.565  1.00  0.00     0.167 HD
ATOM     62  C   UNL A   1      42.591  32.568  30.877  1.00  0.00     0.074 A 
ATOM     63  C   UNL A   1      41.321  33.083  31.348  1.00  0.00     0.031 C 
ATOM     64  C   UNL A   1      43.798  33.107  31.191  1.00  0.00     0.034 A 
BRANCH  51  65
ATOM     65  C   UNL A   1      48.636  30.088  28.710  1.00  0.00     0.023 A 
ATOM     66  C   UNL A   1      49.352  30.649  27.640  1.00  0.00     0.031 A 
ATOM     67  C   UNL A   1      49.344  29.290  29.627  1.00  0.00     0.131 A 
ATOM     68  C   UNL A   1      50.704  30.320  27.453  1.00  0.00     0.055 A 
ATOM     69  C   UNL A   1      50.712  29.045  29.489  1.00  0.00     0.041 A 
ATOM     70  F   UNL A   1      48.712  28.705  30.657  1.00  0.00    -0.206 F 
ATOM     71  C   UNL A   1      51.395  29.542  28.383  1.00  0.00     0.022 A 
BRANCH  68  72
ATOM     72  S   UNL A   1      51.488  30.756  25.874  1.00  0.00     0.124 S 
ATOM     73  O   UNL A   1      52.895  30.846  26.258  1.00  0.00    -0.237 OA
ATOM     74  O   UNL A   1      51.129  29.629  25.023  1.00  0.00    -0.237 OA
ATOM     75  O   UNL A   1      50.865  32.030  25.523  1.00  0.00    -0.744 OA
ENDBRANCH  68  72
ENDBRANCH  51  65
BRANCH  52  76
ATOM     76  C   UNL A   1      38.649  30.305  29.590  1.00  0.00     0.023 A 
ATOM     77  C   UNL A   1      37.762  31.105  28.854  1.00  0.00     0.031 A 
ATOM     78  C   UNL A   1      38.110  29.452  30.571  1.00  0.00     0.131 A 
ATOM     79  C   UNL A   1      36.385  31.048  29.123  1.00  0.00     0.055 A 
ATOM     80  C   UNL A   1      36.736  29.366  30.803  1.00  0.00     0.041 A 
ATOM     81  F   UNL A   1      38.915  28.666  31.304  1.00  0.00    -0.206 F 
ATOM     82  C   UNL A   1      35.865  30.173  30.080  1.00  0.00     0.022 A 
BRANCH  79  83
ATOM     83  S   UNL A   1      35.274  32.169  28.227  1.00  0.00     0.124 S 
ATOM     84  O   UNL A   1      34.417  32.658  29.301  1.00  0.00    -0.237 OA
ATOM     85  O   UNL A   1      36.209  33.135  27.661  1.00  0.00    -0.237 OA
ATOM     86  O   UNL A   1      34.621  31.296  27.255  1.00  0.00    -0.744 OA
ENDBRANCH  79  83
ENDBRANCH  52  76
BRANCH  64  87
ATOM     87  C   UNL A   1      43.802  34.356  32.038  1.00  0.00     0.023 A 
ATOM     88  C   UNL A   1      43.870  34.310  33.441  1.00  0.00     0.031 A 
ATOM     89  C   UNL A   1      43.767  35.619  31.417  1.00  0.00     0.131 A 
ATOM     90  C   UNL A   1      43.869  35.506  34.179  1.00  0.00     0.055 A 
ATOM     91  C   UNL A   1      43.817  36.803  32.153  1.00  0.00     0.041 A 
ATOM     92  F   UNL A   1      43.698  35.720  30.079  1.00  0.00    -0.206 F 
ATOM     93  C   UNL A   1      43.861  36.751  33.542  1.00  0.00     0.022 A 
BRANCH  90  94
ATOM     94  S   UNL A   1      43.817  35.418  35.990  1.00  0.00     0.124 S 
ATOM     95  O   UNL A   1      42.415  35.715  36.267  1.00  0.00    -0.237 OA
ATOM     96  O   UNL A   1      44.244  34.047  36.250  1.00  0.00    -0.237 OA
ATOM     97  O   UNL A   1      44.764  36.450  36.411  1.00  0.00    -0.744 OA
ENDBRANCH  90  94
ENDBRANCH  64  87
ENDBRANCH  38  39
ENDBRANCH  31  33
ENDBRANCH  30  31
ENDBRANCH  29  30
ENDBRANCH  28  29
ENDBRANCH  27  28
ENDBRANCH  26  27
ENDBRANCH   1  26
TORSDOF 25
ENDMDL
