MODEL 1
REMARK VINA RESULT:      -9.5      0.000      0.000
REMARK SMILES Cc1cc(C)nc(SCC(=O)N2CCC[C@H](C(=O)OCCOCCOCCOC(=O)c3ccc(-c4c5nc(c(-c6cc(S(=O)(=O)[O-])ccc6F)c6ccc([nH]6)c(-c6cc(S(=O)(=O)[O-])ccc6F)c6nc(c(-c7cc(S(=O)(=O)[O-])ccc7F)c7ccc4[nH]7)C=C6)C=C5)cc3)C2)n1
REMARK SMILES IDX 23 1 22 2 21 3 20 4 19 5 17 6 18 7 16 8 12 9 13 10 94 11
REMARK SMILES IDX 14 12 15 13 10 14 11 15 9 16 8 17 7 18 1 19 2 20 3 21 95 22
REMARK SMILES IDX 4 23 5 24 6 25 24 26 25 27 26 28 27 29 28 30 29 31 30 32
REMARK SMILES IDX 31 33 32 34 93 35 33 36 92 37 34 38 35 39 36 40 86 41 37 42
REMARK SMILES IDX 91 43 85 44 87 45 38 46 90 47 84 48 83 49 39 51 71 52 51 53
REMARK SMILES IDX 70 54 52 55 55 56 69 57 88 58 53 59 54 60 68 62 89 63 56 64
REMARK SMILES IDX 40 65 41 66 49 67 42 68 48 69 50 70 47 71 43 72 44 73 45 74
REMARK SMILES IDX 46 75 72 76 73 77 81 78 74 79 80 80 82 81 79 82 75 83 76 84
REMARK SMILES IDX 77 85 78 86 57 87 58 88 66 89 59 90 65 91 67 92 64 93 60 94
REMARK SMILES IDX 61 95 62 96 63 97
REMARK H PARENT 87 50 55 61
REMARK Flexibility Score: inf
ROOT
ATOM      1  C   UNL A   1      37.159  23.411  25.260  1.00  0.00     0.188 C 
ENDROOT
BRANCH   1   2
ATOM      2  O   UNL A   1      36.120  23.666  26.196  1.00  0.00    -0.376 OA
BRANCH   2   3
ATOM      3  C   UNL A   1      35.475  22.552  26.804  1.00  0.00     0.202 C 
BRANCH   3   4
ATOM      4  C   UNL A   1      33.962  22.619  27.068  1.00  0.00     0.261 C 
BRANCH   4   5
ATOM      5  O   UNL A   1      33.100  21.671  26.408  1.00  0.00    -0.463 OA
BRANCH   5   6
ATOM      6  C   UNL A   1      32.118  22.181  25.620  1.00  0.00     0.310 C 
ATOM      7  O   UNL A   1      30.973  22.398  26.001  1.00  0.00    -0.252 OA
BRANCH   6   8
ATOM      8  C   UNL A   1      32.521  22.430  24.172  1.00  0.00     0.119 C 
ATOM      9  N   UNL A   1      32.477  24.869  24.329  1.00  0.00    -0.341 N 
ATOM     10  C   UNL A   1      31.442  25.009  23.303  1.00  0.00     0.119 C 
ATOM     11  C   UNL A   1      33.355  23.715  24.133  1.00  0.00     0.134 C 
ATOM     12  C   UNL A   1      30.577  23.758  23.167  1.00  0.00     0.022 C 
ATOM     13  C   UNL A   1      31.432  22.496  23.089  1.00  0.00     0.019 C 
BRANCH   9  14
ATOM     14  C   UNL A   1      32.294  25.489  25.568  1.00  0.00     0.233 C 
ATOM     15  O   UNL A   1      31.184  25.471  26.115  1.00  0.00    -0.274 OA
BRANCH  14  16
ATOM     16  C   UNL A   1      33.359  26.457  26.073  1.00  0.00     0.178 C 
BRANCH  16  17
ATOM     17  S   UNL A   1      33.973  27.767  25.002  1.00  0.00    -0.076 SA
BRANCH  17  18
ATOM     18  C   UNL A   1      32.568  28.818  24.772  1.00  0.00     0.188 A 
ATOM     19  C   UNL A   1      29.490  29.000  22.812  1.00  0.00     0.067 C 
ATOM     20  C   UNL A   1      30.593  29.371  23.758  1.00  0.00     0.042 A 
ATOM     21  C   UNL A   1      30.446  30.474  24.583  1.00  0.00     0.047 A 
ATOM     22  N   UNL A   1      31.650  28.531  23.837  1.00  0.00    -0.228 NA
ATOM     23  C   UNL A   1      31.444  30.685  25.510  1.00  0.00     0.042 A 
ATOM     24  C   UNL A   1      31.321  31.776  26.532  1.00  0.00     0.067 C 
ATOM     25  N   UNL A   1      32.524  29.886  25.586  1.00  0.00    -0.228 NA
ENDBRANCH  17  18
ENDBRANCH  16  17
ENDBRANCH  14  16
ENDBRANCH   9  14
ENDBRANCH   6   8
ENDBRANCH   5   6
ENDBRANCH   4   5
ENDBRANCH   3   4
ENDBRANCH   2   3
ENDBRANCH   1   2
BRANCH   1  26
ATOM     26  C   UNL A   1      36.932  22.310  24.217  1.00  0.00     0.188 C 
BRANCH  26  27
ATOM     27  O   UNL A   1      37.427  21.037  24.569  1.00  0.00    -0.376 OA
BRANCH  27  28
ATOM     28  C   UNL A   1      38.520  20.958  25.468  1.00  0.00     0.202 C 
BRANCH  28  29
ATOM     29  C   UNL A   1      39.381  19.683  25.491  1.00  0.00     0.261 C 
BRANCH  29  30
ATOM     30  O   UNL A   1      40.418  19.618  26.484  1.00  0.00    -0.460 OA
BRANCH  30  31
ATOM     31  C   UNL A   1      41.687  19.892  26.089  1.00  0.00     0.338 C 
ATOM     32  O   UNL A   1      42.372  19.219  25.337  1.00  0.00    -0.246 OA
BRANCH  31  33
ATOM     33  C   UNL A   1      41.964  21.300  26.481  1.00  0.00     0.060 A 
ATOM     34  C   UNL A   1      41.990  22.293  25.487  1.00  0.00     0.016 A 
ATOM     35  C   UNL A   1      42.104  21.653  27.824  1.00  0.00     0.016 A 
ATOM     36  C   UNL A   1      42.170  23.634  25.832  1.00  0.00     0.010 A 
ATOM     37  C   UNL A   1      42.319  22.992  28.166  1.00  0.00     0.010 A 
ATOM     38  C   UNL A   1      42.381  23.985  27.171  1.00  0.00    -0.014 A 
BRANCH  38  39
ATOM     39  C   UNL A   1      42.919  25.329  27.508  1.00  0.00     0.031 A 
ATOM     40  C   UNL A   1      41.983  26.302  28.174  1.00  0.00     0.074 A 
ATOM     41  C   UNL A   1      44.190  25.685  27.247  1.00  0.00     0.049 A 
ATOM     42  N   UNL A   1      42.165  27.560  28.481  1.00  0.00    -0.248 NA
ATOM     43  C   UNL A   1      40.656  25.778  28.536  1.00  0.00     0.031 C 
ATOM     44  C   UNL A   1      45.213  24.819  26.668  1.00  0.00     0.029 A 
ATOM     45  N   UNL A   1      44.832  26.888  27.432  1.00  0.00    -0.354 N 
ATOM     46  C   UNL A   1      40.973  27.981  29.061  1.00  0.00     0.074 A 
ATOM     47  C   UNL A   1      40.066  26.853  29.027  1.00  0.00     0.031 C 
ATOM     48  C   UNL A   1      46.352  25.523  26.530  1.00  0.00     0.029 A 
ATOM     49  C   UNL A   1      46.127  26.902  26.967  1.00  0.00     0.049 A 
ATOM     50  H   UNL A   1      44.404  27.666  27.858  1.00  0.00     0.167 HD
ATOM     51  C   UNL A   1      40.663  29.193  29.579  1.00  0.00     0.034 A 
ATOM     52  C   UNL A   1      47.012  27.917  26.875  1.00  0.00     0.034 A 
ATOM     53  C   UNL A   1      41.569  30.314  29.592  1.00  0.00     0.049 A 
ATOM     54  C   UNL A   1      46.607  29.294  27.358  1.00  0.00     0.074 A 
ATOM     55  C   UNL A   1      41.359  31.585  30.098  1.00  0.00     0.029 A 
ATOM     56  N   UNL A   1      42.853  30.305  29.063  1.00  0.00    -0.354 N 
ATOM     57  N   UNL A   1      45.477  29.684  27.901  1.00  0.00    -0.248 NA
ATOM     58  C   UNL A   1      47.602  30.368  27.217  1.00  0.00     0.031 C 
ATOM     59  C   UNL A   1      42.480  32.366  29.798  1.00  0.00     0.029 A 
ATOM     60  C   UNL A   1      43.430  31.559  29.194  1.00  0.00     0.049 A 
ATOM     61  H   UNL A   1      43.290  29.523  28.653  1.00  0.00     0.167 HD
ATOM     62  C   UNL A   1      45.643  31.036  28.202  1.00  0.00     0.074 A 
ATOM     63  C   UNL A   1      46.984  31.389  27.789  1.00  0.00     0.031 C 
ATOM     64  C   UNL A   1      44.769  31.905  28.774  1.00  0.00     0.034 A 
BRANCH  51  65
ATOM     65  C   UNL A   1      39.264  29.380  30.115  1.00  0.00     0.023 A 
ATOM     66  C   UNL A   1      38.260  30.017  29.364  1.00  0.00     0.031 A 
ATOM     67  C   UNL A   1      38.941  28.947  31.413  1.00  0.00     0.131 A 
ATOM     68  C   UNL A   1      37.007  30.267  29.943  1.00  0.00     0.055 A 
ATOM     69  C   UNL A   1      37.665  29.121  31.951  1.00  0.00     0.041 A 
ATOM     70  F   UNL A   1      39.866  28.360  32.189  1.00  0.00    -0.206 F 
ATOM     71  C   UNL A   1      36.692  29.798  31.221  1.00  0.00     0.022 A 
BRANCH  68  72
ATOM     72  S   UNL A   1      35.847  31.348  29.062  1.00  0.00     0.124 S 
ATOM     73  O   UNL A   1      36.758  32.252  28.363  1.00  0.00    -0.237 OA
ATOM     74  O   UNL A   1      35.113  30.408  28.225  1.00  0.00    -0.237 OA
ATOM     75  O   UNL A   1      35.072  31.966  30.136  1.00  0.00    -0.744 OA
ENDBRANCH  68  72
ENDBRANCH  51  65
BRANCH  52  76
ATOM     76  C   UNL A   1      48.355  27.705  26.256  1.00  0.00     0.023 A 
ATOM     77  C   UNL A   1      48.537  27.774  24.865  1.00  0.00     0.031 A 
ATOM     78  C   UNL A   1      49.465  27.348  27.044  1.00  0.00     0.131 A 
ATOM     79  C   UNL A   1      49.781  27.442  24.302  1.00  0.00     0.055 A 
ATOM     80  C   UNL A   1      50.716  27.081  26.485  1.00  0.00     0.041 A 
ATOM     81  F   UNL A   1      49.348  27.253  28.379  1.00  0.00    -0.206 F 
ATOM     82  C   UNL A   1      50.875  27.113  25.104  1.00  0.00     0.022 A 
BRANCH  79  83
ATOM     83  S   UNL A   1      49.920  27.343  22.495  1.00  0.00     0.124 S 
ATOM     84  O   UNL A   1      48.855  26.402  22.168  1.00  0.00    -0.237 OA
ATOM     85  O   UNL A   1      49.697  28.728  22.097  1.00  0.00    -0.237 OA
ATOM     86  O   UNL A   1      51.278  26.846  22.285  1.00  0.00    -0.744 OA
ENDBRANCH  79  83
ENDBRANCH  52  76
BRANCH  64  87
ATOM     87  C   UNL A   1      45.257  33.310  29.045  1.00  0.00     0.023 A 
ATOM     88  C   UNL A   1      44.922  34.392  28.212  1.00  0.00     0.031 A 
ATOM     89  C   UNL A   1      46.073  33.569  30.163  1.00  0.00     0.131 A 
ATOM     90  C   UNL A   1      45.446  35.667  28.476  1.00  0.00     0.055 A 
ATOM     91  C   UNL A   1      46.535  34.851  30.459  1.00  0.00     0.041 A 
ATOM     92  F   UNL A   1      46.430  32.576  30.993  1.00  0.00    -0.206 F 
ATOM     93  C   UNL A   1      46.233  35.908  29.605  1.00  0.00     0.022 A 
BRANCH  90  94
ATOM     94  S   UNL A   1      45.167  36.993  27.270  1.00  0.00     0.124 S 
ATOM     95  O   UNL A   1      43.823  36.688  26.790  1.00  0.00    -0.237 OA
ATOM     96  O   UNL A   1      45.294  38.193  28.089  1.00  0.00    -0.237 OA
ATOM     97  O   UNL A   1      46.235  36.796  26.290  1.00  0.00    -0.744 OA
ENDBRANCH  90  94
ENDBRANCH  64  87
ENDBRANCH  38  39
ENDBRANCH  31  33
ENDBRANCH  30  31
ENDBRANCH  29  30
ENDBRANCH  28  29
ENDBRANCH  27  28
ENDBRANCH  26  27
ENDBRANCH   1  26
TORSDOF 24
ENDMDL
MODEL 2
REMARK VINA RESULT:      -9.5      2.331      7.788
REMARK SMILES Cc1cc(C)nc(SCC(=O)N2CCC[C@H](C(=O)OCCOCCOCCOC(=O)c3ccc(-c4c5nc(c(-c6cc(S(=O)(=O)[O-])ccc6F)c6ccc([nH]6)c(-c6cc(S(=O)(=O)[O-])ccc6F)c6nc(c(-c7cc(S(=O)(=O)[O-])ccc7F)c7ccc4[nH]7)C=C6)C=C5)cc3)C2)n1
REMARK SMILES IDX 23 1 22 2 21 3 20 4 19 5 17 6 18 7 16 8 12 9 13 10 94 11
REMARK SMILES IDX 14 12 15 13 10 14 11 15 9 16 8 17 7 18 1 19 2 20 3 21 95 22
REMARK SMILES IDX 4 23 5 24 6 25 24 26 25 27 26 28 27 29 28 30 29 31 30 32
REMARK SMILES IDX 31 33 32 34 93 35 33 36 92 37 34 38 35 39 36 40 86 41 37 42
REMARK SMILES IDX 91 43 85 44 87 45 38 46 90 47 84 48 83 49 39 51 71 52 51 53
REMARK SMILES IDX 70 54 52 55 55 56 69 57 88 58 53 59 54 60 68 62 89 63 56 64
REMARK SMILES IDX 40 65 41 66 49 67 42 68 48 69 50 70 47 71 43 72 44 73 45 74
REMARK SMILES IDX 46 75 72 76 73 77 81 78 74 79 80 80 82 81 79 82 75 83 76 84
REMARK SMILES IDX 77 85 78 86 57 87 58 88 66 89 59 90 65 91 67 92 64 93 60 94
REMARK SMILES IDX 61 95 62 96 63 97
REMARK H PARENT 87 50 55 61
REMARK Flexibility Score: inf
ROOT
ATOM      1  C   UNL A   1      34.826  17.563  24.475  1.00  0.00     0.188 C 
ENDROOT
BRANCH   1   2
ATOM      2  O   UNL A   1      33.833  17.431  23.466  1.00  0.00    -0.376 OA
BRANCH   2   3
ATOM      3  C   UNL A   1      32.490  17.769  23.797  1.00  0.00     0.202 C 
BRANCH   3   4
ATOM      4  C   UNL A   1      32.225  19.018  24.655  1.00  0.00     0.261 C 
BRANCH   4   5
ATOM      5  O   UNL A   1      32.269  20.313  24.026  1.00  0.00    -0.463 OA
BRANCH   5   6
ATOM      6  C   UNL A   1      33.144  21.216  24.544  1.00  0.00     0.310 C 
ATOM      7  O   UNL A   1      34.132  21.634  23.952  1.00  0.00    -0.252 OA
BRANCH   6   8
ATOM      8  C   UNL A   1      32.843  21.656  25.971  1.00  0.00     0.119 C 
ATOM      9  N   UNL A   1      32.068  23.895  25.372  1.00  0.00    -0.341 N 
ATOM     10  C   UNL A   1      33.107  24.565  26.157  1.00  0.00     0.119 C 
ATOM     11  C   UNL A   1      31.644  22.609  25.924  1.00  0.00     0.134 C 
ATOM     12  C   UNL A   1      34.342  23.693  26.361  1.00  0.00     0.022 C 
ATOM     13  C   UNL A   1      33.962  22.286  26.816  1.00  0.00     0.019 C 
BRANCH   9  14
ATOM     14  C   UNL A   1      31.900  24.244  24.029  1.00  0.00     0.233 C 
ATOM     15  O   UNL A   1      32.884  24.337  23.283  1.00  0.00    -0.274 OA
BRANCH  14  16
ATOM     16  C   UNL A   1      30.565  24.826  23.579  1.00  0.00     0.178 C 
BRANCH  16  17
ATOM     17  S   UNL A   1      29.839  26.216  24.462  1.00  0.00    -0.076 SA
BRANCH  17  18
ATOM     18  C   UNL A   1      31.167  27.380  24.582  1.00  0.00     0.188 A 
ATOM     19  C   UNL A   1      33.968  28.656  22.613  1.00  0.00     0.067 C 
ATOM     20  C   UNL A   1      33.026  28.429  23.758  1.00  0.00     0.042 A 
ATOM     21  C   UNL A   1      33.093  29.247  24.874  1.00  0.00     0.047 A 
ATOM     22  N   UNL A   1      32.069  27.487  23.595  1.00  0.00    -0.228 NA
ATOM     23  C   UNL A   1      32.122  29.058  25.833  1.00  0.00     0.042 A 
ATOM     24  C   UNL A   1      32.030  29.973  27.018  1.00  0.00     0.067 C 
ATOM     25  N   UNL A   1      31.180  28.105  25.713  1.00  0.00    -0.228 NA
ENDBRANCH  17  18
ENDBRANCH  16  17
ENDBRANCH  14  16
ENDBRANCH   9  14
ENDBRANCH   6   8
ENDBRANCH   5   6
ENDBRANCH   4   5
ENDBRANCH   3   4
ENDBRANCH   2   3
ENDBRANCH   1   2
BRANCH   1  26
ATOM     26  C   UNL A   1      35.774  18.764  24.396  1.00  0.00     0.188 C 
BRANCH  26  27
ATOM     27  O   UNL A   1      36.846  18.746  25.312  1.00  0.00    -0.376 OA
BRANCH  27  28
ATOM     28  C   UNL A   1      38.043  19.426  24.970  1.00  0.00     0.202 C 
BRANCH  28  29
ATOM     29  C   UNL A   1      39.349  19.052  25.692  1.00  0.00     0.261 C 
BRANCH  29  30
ATOM     30  O   UNL A   1      40.346  20.081  25.804  1.00  0.00    -0.460 OA
BRANCH  30  31
ATOM     31  C   UNL A   1      41.054  20.149  26.960  1.00  0.00     0.338 C 
ATOM     32  O   UNL A   1      41.655  19.232  27.495  1.00  0.00    -0.246 OA
BRANCH  31  33
ATOM     33  C   UNL A   1      41.223  21.592  27.276  1.00  0.00     0.060 A 
ATOM     34  C   UNL A   1      40.554  22.546  26.491  1.00  0.00     0.016 A 
ATOM     35  C   UNL A   1      41.958  21.997  28.392  1.00  0.00     0.016 A 
ATOM     36  C   UNL A   1      40.629  23.903  26.811  1.00  0.00     0.010 A 
ATOM     37  C   UNL A   1      42.061  23.360  28.691  1.00  0.00     0.010 A 
ATOM     38  C   UNL A   1      41.422  24.321  27.887  1.00  0.00    -0.014 A 
BRANCH  38  39
ATOM     39  C   UNL A   1      41.793  25.755  28.020  1.00  0.00     0.031 A 
ATOM     40  C   UNL A   1      43.136  26.174  27.485  1.00  0.00     0.074 A 
ATOM     41  C   UNL A   1      40.977  26.663  28.584  1.00  0.00     0.049 A 
ATOM     42  N   UNL A   1      43.742  27.329  27.561  1.00  0.00    -0.248 NA
ATOM     43  C   UNL A   1      43.900  25.137  26.770  1.00  0.00     0.031 C 
ATOM     44  C   UNL A   1      39.628  26.402  29.080  1.00  0.00     0.029 A 
ATOM     45  N   UNL A   1      41.178  27.999  28.842  1.00  0.00    -0.354 N 
ATOM     46  C   UNL A   1      44.963  27.157  26.916  1.00  0.00     0.074 A 
ATOM     47  C   UNL A   1      45.022  25.775  26.489  1.00  0.00     0.031 C 
ATOM     48  C   UNL A   1      39.128  27.539  29.597  1.00  0.00     0.029 A 
ATOM     49  C   UNL A   1      40.135  28.598  29.512  1.00  0.00     0.049 A 
ATOM     50  H   UNL A   1      41.992  28.483  28.571  1.00  0.00     0.167 HD
ATOM     51  C   UNL A   1      45.941  28.066  26.693  1.00  0.00     0.034 A 
ATOM     52  C   UNL A   1      40.024  29.841  30.024  1.00  0.00     0.034 A 
ATOM     53  C   UNL A   1      45.878  29.436  27.138  1.00  0.00     0.049 A 
ATOM     54  C   UNL A   1      41.176  30.811  29.863  1.00  0.00     0.074 A 
ATOM     55  C   UNL A   1      46.810  30.442  26.961  1.00  0.00     0.029 A 
ATOM     56  N   UNL A   1      44.829  29.989  27.862  1.00  0.00    -0.354 N 
ATOM     57  N   UNL A   1      42.328  30.638  29.255  1.00  0.00    -0.248 NA
ATOM     58  C   UNL A   1      41.011  32.147  30.456  1.00  0.00     0.031 C 
ATOM     59  C   UNL A   1      46.367  31.577  27.649  1.00  0.00     0.029 A 
ATOM     60  C   UNL A   1      45.112  31.311  28.172  1.00  0.00     0.049 A 
ATOM     61  H   UNL A   1      44.006  29.514  28.118  1.00  0.00     0.167 HD
ATOM     62  C   UNL A   1      43.002  31.855  29.359  1.00  0.00     0.074 A 
ATOM     63  C   UNL A   1      42.125  32.753  30.079  1.00  0.00     0.031 C 
ATOM     64  C   UNL A   1      44.231  32.200  28.896  1.00  0.00     0.034 A 
BRANCH  51  65
ATOM     65  C   UNL A   1      47.187  27.584  25.991  1.00  0.00     0.023 A 
ATOM     66  C   UNL A   1      48.263  27.014  26.695  1.00  0.00     0.031 A 
ATOM     67  C   UNL A   1      47.317  27.733  24.599  1.00  0.00     0.131 A 
ATOM     68  C   UNL A   1      49.444  26.682  26.017  1.00  0.00     0.055 A 
ATOM     69  C   UNL A   1      48.462  27.319  23.918  1.00  0.00     0.041 A 
ATOM     70  F   UNL A   1      46.336  28.298  23.878  1.00  0.00    -0.206 F 
ATOM     71  C   UNL A   1      49.542  26.803  24.629  1.00  0.00     0.022 A 
BRANCH  68  72
ATOM     72  S   UNL A   1      50.907  26.235  26.993  1.00  0.00     0.124 S 
ATOM     73  O   UNL A   1      51.989  26.525  26.053  1.00  0.00    -0.237 OA
ATOM     74  O   UNL A   1      50.803  27.125  28.142  1.00  0.00    -0.237 OA
ATOM     75  O   UNL A   1      50.706  24.816  27.281  1.00  0.00    -0.744 OA
ENDBRANCH  68  72
ENDBRANCH  51  65
BRANCH  52  76
ATOM     76  C   UNL A   1      38.806  30.246  30.789  1.00  0.00     0.023 A 
ATOM     77  C   UNL A   1      37.737  30.907  30.161  1.00  0.00     0.031 A 
ATOM     78  C   UNL A   1      38.728  30.047  32.180  1.00  0.00     0.131 A 
ATOM     79  C   UNL A   1      36.664  31.390  30.929  1.00  0.00     0.055 A 
ATOM     80  C   UNL A   1      37.629  30.473  32.928  1.00  0.00     0.041 A 
ATOM     81  F   UNL A   1      39.726  29.433  32.836  1.00  0.00    -0.206 F 
ATOM     82  C   UNL A   1      36.595  31.162  32.305  1.00  0.00     0.022 A 
BRANCH  79  83
ATOM     83  S   UNL A   1      35.405  32.416  30.116  1.00  0.00     0.124 S 
ATOM     84  O   UNL A   1      34.418  32.568  31.179  1.00  0.00    -0.237 OA
ATOM     85  O   UNL A   1      36.166  33.612  29.771  1.00  0.00    -0.237 OA
ATOM     86  O   UNL A   1      34.981  31.599  28.982  1.00  0.00    -0.744 OA
ENDBRANCH  79  83
ENDBRANCH  52  76
BRANCH  64  87
ATOM     87  C   UNL A   1      44.678  33.630  29.100  1.00  0.00     0.023 A 
ATOM     88  C   UNL A   1      45.420  34.030  30.225  1.00  0.00     0.031 A 
ATOM     89  C   UNL A   1      44.355  34.611  28.143  1.00  0.00     0.131 A 
ATOM     90  C   UNL A   1      45.763  35.381  30.394  1.00  0.00     0.055 A 
ATOM     91  C   UNL A   1      44.758  35.940  28.282  1.00  0.00     0.041 A 
ATOM     92  F   UNL A   1      43.646  34.292  27.048  1.00  0.00    -0.206 F 
ATOM     93  C   UNL A   1      45.455  36.334  29.420  1.00  0.00     0.022 A 
BRANCH  90  94
ATOM     94  S   UNL A   1      46.535  35.897  31.953  1.00  0.00     0.124 S 
ATOM     95  O   UNL A   1      45.605  36.916  32.428  1.00  0.00    -0.237 OA
ATOM     96  O   UNL A   1      46.563  34.654  32.715  1.00  0.00    -0.237 OA
ATOM     97  O   UNL A   1      47.844  36.399  31.538  1.00  0.00    -0.744 OA
ENDBRANCH  90  94
ENDBRANCH  64  87
ENDBRANCH  38  39
ENDBRANCH  31  33
ENDBRANCH  30  31
ENDBRANCH  29  30
ENDBRANCH  28  29
ENDBRANCH  27  28
ENDBRANCH  26  27
ENDBRANCH   1  26
TORSDOF 24
ENDMDL
MODEL 3
REMARK VINA RESULT:      -9.5      2.228      7.781
REMARK SMILES Cc1cc(C)nc(SCC(=O)N2CCC[C@H](C(=O)OCCOCCOCCOC(=O)c3ccc(-c4c5nc(c(-c6cc(S(=O)(=O)[O-])ccc6F)c6ccc([nH]6)c(-c6cc(S(=O)(=O)[O-])ccc6F)c6nc(c(-c7cc(S(=O)(=O)[O-])ccc7F)c7ccc4[nH]7)C=C6)C=C5)cc3)C2)n1
REMARK SMILES IDX 23 1 22 2 21 3 20 4 19 5 17 6 18 7 16 8 12 9 13 10 94 11
REMARK SMILES IDX 14 12 15 13 10 14 11 15 9 16 8 17 7 18 1 19 2 20 3 21 95 22
REMARK SMILES IDX 4 23 5 24 6 25 24 26 25 27 26 28 27 29 28 30 29 31 30 32
REMARK SMILES IDX 31 33 32 34 93 35 33 36 92 37 34 38 35 39 36 40 86 41 37 42
REMARK SMILES IDX 91 43 85 44 87 45 38 46 90 47 84 48 83 49 39 51 71 52 51 53
REMARK SMILES IDX 70 54 52 55 55 56 69 57 88 58 53 59 54 60 68 62 89 63 56 64
REMARK SMILES IDX 40 65 41 66 49 67 42 68 48 69 50 70 47 71 43 72 44 73 45 74
REMARK SMILES IDX 46 75 72 76 73 77 81 78 74 79 80 80 82 81 79 82 75 83 76 84
REMARK SMILES IDX 77 85 78 86 57 87 58 88 66 89 59 90 65 91 67 92 64 93 60 94
REMARK SMILES IDX 61 95 62 96 63 97
REMARK H PARENT 87 50 55 61
REMARK Flexibility Score: inf
ROOT
ATOM      1  C   UNL A   1      33.987  22.412  25.981  1.00  0.00     0.188 C 
ENDROOT
BRANCH   1   2
ATOM      2  O   UNL A   1      33.236  23.365  25.240  1.00  0.00    -0.376 OA
BRANCH   2   3
ATOM      3  C   UNL A   1      32.319  22.885  24.263  1.00  0.00     0.202 C 
BRANCH   3   4
ATOM      4  C   UNL A   1      31.613  23.894  23.343  1.00  0.00     0.261 C 
BRANCH   4   5
ATOM      5  O   UNL A   1      32.322  24.402  22.196  1.00  0.00    -0.463 OA
BRANCH   5   6
ATOM      6  C   UNL A   1      32.375  25.752  22.057  1.00  0.00     0.310 C 
ATOM      7  O   UNL A   1      31.481  26.430  21.563  1.00  0.00    -0.252 OA
BRANCH   6   8
ATOM      8  C   UNL A   1      33.676  26.395  22.522  1.00  0.00     0.119 C 
ATOM      9  N   UNL A   1      32.673  27.671  24.350  1.00  0.00    -0.341 N 
ATOM     10  C   UNL A   1      33.082  28.963  23.795  1.00  0.00     0.119 C 
ATOM     11  C   UNL A   1      33.593  26.576  24.041  1.00  0.00     0.134 C 
ATOM     12  C   UNL A   1      33.289  28.913  22.283  1.00  0.00     0.022 C 
ATOM     13  C   UNL A   1      34.138  27.711  21.876  1.00  0.00     0.019 C 
BRANCH   9  14
ATOM     14  C   UNL A   1      31.333  27.471  24.692  1.00  0.00     0.233 C 
ATOM     15  O   UNL A   1      30.455  28.207  24.223  1.00  0.00    -0.274 OA
BRANCH  14  16
ATOM     16  C   UNL A   1      31.001  26.577  25.882  1.00  0.00     0.178 C 
BRANCH  16  17
ATOM     17  S   UNL A   1      31.310  27.151  27.559  1.00  0.00    -0.076 SA
BRANCH  17  18
ATOM     18  C   UNL A   1      32.198  28.665  27.332  1.00  0.00     0.188 A 
ATOM     19  C   UNL A   1      31.588  32.205  26.663  1.00  0.00     0.067 C 
ATOM     20  C   UNL A   1      32.305  30.908  26.893  1.00  0.00     0.042 A 
ATOM     21  C   UNL A   1      33.678  30.908  27.084  1.00  0.00     0.047 A 
ATOM     22  N   UNL A   1      31.548  29.793  27.011  1.00  0.00    -0.228 NA
ATOM     23  C   UNL A   1      34.252  29.698  27.408  1.00  0.00     0.042 A 
ATOM     24  C   UNL A   1      35.708  29.613  27.758  1.00  0.00     0.067 C 
ATOM     25  N   UNL A   1      33.529  28.568  27.497  1.00  0.00    -0.228 NA
ENDBRANCH  17  18
ENDBRANCH  16  17
ENDBRANCH  14  16
ENDBRANCH   9  14
ENDBRANCH   6   8
ENDBRANCH   5   6
ENDBRANCH   4   5
ENDBRANCH   3   4
ENDBRANCH   2   3
ENDBRANCH   1   2
BRANCH   1  26
ATOM     26  C   UNL A   1      34.440  21.137  25.261  1.00  0.00     0.188 C 
BRANCH  26  27
ATOM     27  O   UNL A   1      35.734  21.187  24.705  1.00  0.00    -0.376 OA
BRANCH  27  28
ATOM     28  C   UNL A   1      36.566  20.045  24.816  1.00  0.00     0.202 C 
BRANCH  28  29
ATOM     29  C   UNL A   1      38.084  20.236  24.980  1.00  0.00     0.261 C 
BRANCH  29  30
ATOM     30  O   UNL A   1      38.515  21.256  25.897  1.00  0.00    -0.460 OA
BRANCH  30  31
ATOM     31  C   UNL A   1      39.782  21.178  26.374  1.00  0.00     0.338 C 
ATOM     32  O   UNL A   1      40.555  20.245  26.228  1.00  0.00    -0.246 OA
BRANCH  31  33
ATOM     33  C   UNL A   1      40.156  22.545  26.825  1.00  0.00     0.060 A 
ATOM     34  C   UNL A   1      39.509  23.654  26.252  1.00  0.00     0.016 A 
ATOM     35  C   UNL A   1      41.065  22.730  27.868  1.00  0.00     0.016 A 
ATOM     36  C   UNL A   1      39.780  24.945  26.709  1.00  0.00     0.010 A 
ATOM     37  C   UNL A   1      41.363  24.026  28.301  1.00  0.00     0.010 A 
ATOM     38  C   UNL A   1      40.744  25.141  27.707  1.00  0.00    -0.014 A 
BRANCH  38  39
ATOM     39  C   UNL A   1      41.293  26.501  27.948  1.00  0.00     0.031 A 
ATOM     40  C   UNL A   1      42.688  26.782  27.458  1.00  0.00     0.074 A 
ATOM     41  C   UNL A   1      40.589  27.465  28.569  1.00  0.00     0.049 A 
ATOM     42  N   UNL A   1      43.436  27.841  27.625  1.00  0.00    -0.248 NA
ATOM     43  C   UNL A   1      43.326  25.709  26.677  1.00  0.00     0.031 C 
ATOM     44  C   UNL A   1      39.209  27.345  29.032  1.00  0.00     0.029 A 
ATOM     45  N   UNL A   1      40.954  28.742  28.926  1.00  0.00    -0.354 N 
ATOM     46  C   UNL A   1      44.636  27.559  26.980  1.00  0.00     0.074 A 
ATOM     47  C   UNL A   1      44.527  26.216  26.454  1.00  0.00     0.031 C 
ATOM     48  C   UNL A   1      38.848  28.497  29.626  1.00  0.00     0.029 A 
ATOM     49  C   UNL A   1      39.983  29.420  29.628  1.00  0.00     0.049 A 
ATOM     50  H   UNL A   1      41.828  29.135  28.700  1.00  0.00     0.167 HD
ATOM     51  C   UNL A   1      45.727  28.349  26.835  1.00  0.00     0.034 A 
ATOM     52  C   UNL A   1      40.023  30.628  30.230  1.00  0.00     0.034 A 
ATOM     53  C   UNL A   1      45.830  29.680  27.378  1.00  0.00     0.049 A 
ATOM     54  C   UNL A   1      41.292  31.450  30.151  1.00  0.00     0.074 A 
ATOM     55  C   UNL A   1      46.887  30.568  27.285  1.00  0.00     0.029 A 
ATOM     56  N   UNL A   1      44.847  30.310  28.130  1.00  0.00    -0.354 N 
ATOM     57  N   UNL A   1      42.423  31.175  29.543  1.00  0.00    -0.248 NA
ATOM     58  C   UNL A   1      41.287  32.750  30.839  1.00  0.00     0.031 C 
ATOM     59  C   UNL A   1      46.579  31.698  28.049  1.00  0.00     0.029 A 
ATOM     60  C   UNL A   1      45.290  31.559  28.540  1.00  0.00     0.049 A 
ATOM     61  H   UNL A   1      43.965  29.928  28.343  1.00  0.00     0.167 HD
ATOM     62  C   UNL A   1      43.245  32.284  29.743  1.00  0.00     0.074 A 
ATOM     63  C   UNL A   1      42.477  33.233  30.518  1.00  0.00     0.031 C 
ATOM     64  C   UNL A   1      44.517  32.500  29.318  1.00  0.00     0.034 A 
BRANCH  51  65
ATOM     65  C   UNL A   1      46.914  27.762  26.111  1.00  0.00     0.023 A 
ATOM     66  C   UNL A   1      47.182  28.056  24.762  1.00  0.00     0.031 A 
ATOM     67  C   UNL A   1      47.771  26.864  26.771  1.00  0.00     0.131 A 
ATOM     68  C   UNL A   1      48.231  27.403  24.099  1.00  0.00     0.055 A 
ATOM     69  C   UNL A   1      48.866  26.285  26.129  1.00  0.00     0.041 A 
ATOM     70  F   UNL A   1      47.549  26.521  28.050  1.00  0.00    -0.206 F 
ATOM     71  C   UNL A   1      49.093  26.541  24.780  1.00  0.00     0.022 A 
BRANCH  68  72
ATOM     72  S   UNL A   1      48.358  27.577  22.298  1.00  0.00     0.124 S 
ATOM     73  O   UNL A   1      47.050  28.136  21.962  1.00  0.00    -0.237 OA
ATOM     74  O   UNL A   1      49.495  28.477  22.147  1.00  0.00    -0.237 OA
ATOM     75  O   UNL A   1      48.580  26.208  21.837  1.00  0.00    -0.744 OA
ENDBRANCH  68  72
ENDBRANCH  51  65
BRANCH  52  76
ATOM     76  C   UNL A   1      38.852  31.130  31.010  1.00  0.00     0.023 A 
ATOM     77  C   UNL A   1      37.832  31.876  30.396  1.00  0.00     0.031 A 
ATOM     78  C   UNL A   1      38.776  30.939  32.402  1.00  0.00     0.131 A 
ATOM     79  C   UNL A   1      36.811  32.445  31.177  1.00  0.00     0.055 A 
ATOM     80  C   UNL A   1      37.726  31.453  33.165  1.00  0.00     0.041 A 
ATOM     81  F   UNL A   1      39.730  30.246  33.045  1.00  0.00    -0.206 F 
ATOM     82  C   UNL A   1      36.743  32.224  32.554  1.00  0.00     0.022 A 
BRANCH  79  83
ATOM     83  S   UNL A   1      35.630  33.570  30.381  1.00  0.00     0.124 S 
ATOM     84  O   UNL A   1      35.342  34.507  31.460  1.00  0.00    -0.237 OA
ATOM     85  O   UNL A   1      36.414  34.094  29.267  1.00  0.00    -0.237 OA
ATOM     86  O   UNL A   1      34.525  32.691  30.004  1.00  0.00    -0.744 OA
ENDBRANCH  79  83
ENDBRANCH  52  76
BRANCH  64  87
ATOM     87  C   UNL A   1      45.139  33.842  29.631  1.00  0.00     0.023 A 
ATOM     88  C   UNL A   1      45.779  34.104  30.855  1.00  0.00     0.031 A 
ATOM     89  C   UNL A   1      45.091  34.879  28.679  1.00  0.00     0.131 A 
ATOM     90  C   UNL A   1      46.292  35.385  31.116  1.00  0.00     0.055 A 
ATOM     91  C   UNL A   1      45.663  36.129  28.918  1.00  0.00     0.041 A 
ATOM     92  F   UNL A   1      44.491  34.691  27.493  1.00  0.00    -0.206 F 
ATOM     93  C   UNL A   1      46.257  36.392  30.149  1.00  0.00     0.022 A 
BRANCH  90  94
ATOM     94  S   UNL A   1      46.922  35.750  32.778  1.00  0.00     0.124 S 
ATOM     95  O   UNL A   1      45.752  35.490  33.610  1.00  0.00    -0.237 OA
ATOM     96  O   UNL A   1      48.022  34.801  32.911  1.00  0.00    -0.237 OA
ATOM     97  O   UNL A   1      47.323  37.153  32.693  1.00  0.00    -0.744 OA
ENDBRANCH  90  94
ENDBRANCH  64  87
ENDBRANCH  38  39
ENDBRANCH  31  33
ENDBRANCH  30  31
ENDBRANCH  29  30
ENDBRANCH  28  29
ENDBRANCH  27  28
ENDBRANCH  26  27
ENDBRANCH   1  26
TORSDOF 24
ENDMDL
