MODEL 1
REMARK VINA RESULT:      -9.8      0.000      0.000
REMARK SMILES COCCC(=O)NC[C@@H]1CC[C@@H](C(=O)OCCOCCOCCOC(=O)c2ccc(-c3c4nc(c(-c5cc(S(=O)(=O)[O-])ccc5F)c5ccc([nH]5)c(-c5cc(S(=O)(=O)[O-])ccc5F)c5nc(c(-c6cc(S(=O)(=O)[O-])ccc6F)c6ccc3[nH]6)C=C5)C=C4)cc2)O1
REMARK SMILES IDX 19 1 18 2 17 3 16 4 15 5 13 6 14 7 12 8 9 9 10 10 90 11
REMARK SMILES IDX 11 12 8 13 7 14 5 15 6 16 4 18 3 19 2 20 1 21 20 22 21 23
REMARK SMILES IDX 22 24 23 25 24 26 25 27 26 28 27 29 28 30 89 31 29 32 88 33
REMARK SMILES IDX 30 34 31 35 32 36 82 37 33 38 87 39 81 40 83 41 34 42 86 43
REMARK SMILES IDX 80 44 79 45 35 47 67 48 47 49 66 50 48 51 51 52 65 53 84 54
REMARK SMILES IDX 49 55 50 56 64 58 85 59 52 60 36 61 37 62 45 63 38 64 44 65
REMARK SMILES IDX 46 66 43 67 39 68 40 69 41 70 42 71 68 72 69 73 77 74 70 75
REMARK SMILES IDX 76 76 78 77 75 78 71 79 72 80 73 81 74 82 53 83 54 84 62 85
REMARK SMILES IDX 55 86 61 87 63 88 60 89 56 90 57 91 58 92 59 93
REMARK H PARENT 7 17 83 46 51 57
REMARK Flexibility Score: inf
ROOT
ATOM      1  C   UNL A   1      31.699  26.452  23.649  1.00  0.00     0.188 C 
ENDROOT
BRANCH   1   2
ATOM      2  O   UNL A   1      33.077  26.726  23.838  1.00  0.00    -0.376 OA
BRANCH   2   3
ATOM      3  C   UNL A   1      34.021  25.675  23.715  1.00  0.00     0.202 C 
BRANCH   3   4
ATOM      4  C   UNL A   1      34.312  24.840  24.960  1.00  0.00     0.261 C 
BRANCH   4   5
ATOM      5  O   UNL A   1      35.174  23.732  24.660  1.00  0.00    -0.461 OA
BRANCH   5   6
ATOM      6  C   UNL A   1      36.059  23.378  25.634  1.00  0.00     0.335 C 
ATOM      7  O   UNL A   1      36.920  24.116  26.094  1.00  0.00    -0.249 OA
BRANCH   6   8
ATOM      8  C   UNL A   1      35.790  21.954  26.121  1.00  0.00     0.228 C 
ATOM      9  C   UNL A   1      34.151  20.762  24.978  1.00  0.00     0.138 C 
ATOM     10  C   UNL A   1      35.394  19.892  24.984  1.00  0.00     0.037 C 
ATOM     11  O   UNL A   1      34.385  21.691  26.055  1.00  0.00    -0.361 OA
ATOM     12  C   UNL A   1      36.479  20.912  25.242  1.00  0.00     0.047 C 
BRANCH   9  13
ATOM     13  C   UNL A   1      32.831  19.999  25.180  1.00  0.00     0.147 C 
BRANCH  13  14
ATOM     14  N   UNL A   1      32.554  19.083  24.078  1.00  0.00    -0.353 N 
ATOM     15  C   UNL A   1      32.712  17.733  24.025  1.00  0.00     0.222 C 
ATOM     16  O   UNL A   1      32.729  17.179  22.922  1.00  0.00    -0.275 OA
ATOM     17  H   UNL A   1      32.205  19.501  23.258  1.00  0.00     0.163 HD
BRANCH  15  18
ATOM     18  C   UNL A   1      32.835  16.925  25.295  1.00  0.00     0.128 C 
BRANCH  18  19
ATOM     19  C   UNL A   1      32.883  15.443  24.974  1.00  0.00     0.169 C 
BRANCH  19  20
ATOM     20  O   UNL A   1      34.127  14.914  25.425  1.00  0.00    -0.384 OA
ATOM     21  C   UNL A   1      35.197  15.829  25.230  1.00  0.00     0.194 C 
ENDBRANCH  19  20
ENDBRANCH  18  19
ENDBRANCH  15  18
ENDBRANCH  13  14
ENDBRANCH   9  13
ENDBRANCH   6   8
ENDBRANCH   5   6
ENDBRANCH   4   5
ENDBRANCH   3   4
ENDBRANCH   2   3
ENDBRANCH   1   2
BRANCH   1  22
ATOM     22  C   UNL A   1      30.677  27.606  23.577  1.00  0.00     0.188 C 
BRANCH  22  23
ATOM     23  O   UNL A   1      30.528  28.549  24.621  1.00  0.00    -0.376 OA
BRANCH  23  24
ATOM     24  C   UNL A   1      31.305  29.730  24.645  1.00  0.00     0.202 C 
BRANCH  24  25
ATOM     25  C   UNL A   1      31.691  30.387  25.975  1.00  0.00     0.261 C 
BRANCH  25  26
ATOM     26  O   UNL A   1      33.095  30.437  26.252  1.00  0.00    -0.460 OA
BRANCH  26  27
ATOM     27  C   UNL A   1      33.467  31.372  27.164  1.00  0.00     0.338 C 
ATOM     28  O   UNL A   1      32.779  32.268  27.617  1.00  0.00    -0.246 OA
BRANCH  27  29
ATOM     29  C   UNL A   1      34.813  31.041  27.679  1.00  0.00     0.060 A 
ATOM     30  C   UNL A   1      35.114  29.697  27.938  1.00  0.00     0.016 A 
ATOM     31  C   UNL A   1      35.746  32.042  27.950  1.00  0.00     0.016 A 
ATOM     32  C   UNL A   1      36.343  29.353  28.504  1.00  0.00     0.010 A 
ATOM     33  C   UNL A   1      36.968  31.698  28.535  1.00  0.00     0.010 A 
ATOM     34  C   UNL A   1      37.260  30.357  28.842  1.00  0.00    -0.014 A 
BRANCH  34  35
ATOM     35  C   UNL A   1      38.431  30.036  29.696  1.00  0.00     0.031 A 
ATOM     36  C   UNL A   1      39.434  29.037  29.184  1.00  0.00     0.074 A 
ATOM     37  C   UNL A   1      38.607  30.616  30.895  1.00  0.00     0.049 A 
ATOM     38  N   UNL A   1      40.492  28.543  29.772  1.00  0.00    -0.248 NA
ATOM     39  C   UNL A   1      39.204  28.528  27.823  1.00  0.00     0.031 C 
ATOM     40  C   UNL A   1      37.738  31.636  31.478  1.00  0.00     0.029 A 
ATOM     41  N   UNL A   1      39.579  30.419  31.844  1.00  0.00    -0.354 N 
ATOM     42  C   UNL A   1      41.059  27.665  28.853  1.00  0.00     0.074 A 
ATOM     43  C   UNL A   1      40.200  27.668  27.686  1.00  0.00     0.031 C 
ATOM     44  C   UNL A   1      38.210  31.965  32.694  1.00  0.00     0.029 A 
ATOM     45  C   UNL A   1      39.389  31.153  32.991  1.00  0.00     0.049 A 
ATOM     46  H   UNL A   1      40.341  29.808  31.715  1.00  0.00     0.167 HD
ATOM     47  C   UNL A   1      42.193  26.930  28.966  1.00  0.00     0.034 A 
ATOM     48  C   UNL A   1      40.071  31.145  34.155  1.00  0.00     0.034 A 
ATOM     49  C   UNL A   1      43.022  26.909  30.146  1.00  0.00     0.049 A 
ATOM     50  C   UNL A   1      41.262  30.225  34.306  1.00  0.00     0.074 A 
ATOM     51  C   UNL A   1      44.187  26.195  30.369  1.00  0.00     0.029 A 
ATOM     52  N   UNL A   1      42.764  27.619  31.311  1.00  0.00    -0.354 N 
ATOM     53  N   UNL A   1      41.790  29.400  33.431  1.00  0.00    -0.248 NA
ATOM     54  C   UNL A   1      41.949  30.240  35.606  1.00  0.00     0.031 C 
ATOM     55  C   UNL A   1      44.593  26.420  31.691  1.00  0.00     0.029 A 
ATOM     56  C   UNL A   1      43.728  27.336  32.267  1.00  0.00     0.049 A 
ATOM     57  H   UNL A   1      42.008  28.236  31.439  1.00  0.00     0.167 HD
ATOM     58  C   UNL A   1      42.892  28.827  34.064  1.00  0.00     0.074 A 
ATOM     59  C   UNL A   1      42.955  29.406  35.390  1.00  0.00     0.031 C 
ATOM     60  C   UNL A   1      43.777  27.912  33.591  1.00  0.00     0.034 A 
BRANCH  47  61
ATOM     61  C   UNL A   1      42.556  26.050  27.796  1.00  0.00     0.023 A 
ATOM     62  C   UNL A   1      42.123  24.714  27.718  1.00  0.00     0.031 A 
ATOM     63  C   UNL A   1      43.393  26.532  26.776  1.00  0.00     0.131 A 
ATOM     64  C   UNL A   1      42.593  23.885  26.688  1.00  0.00     0.055 A 
ATOM     65  C   UNL A   1      43.792  25.724  25.708  1.00  0.00     0.041 A 
ATOM     66  F   UNL A   1      43.858  27.790  26.810  1.00  0.00    -0.206 F 
ATOM     67  C   UNL A   1      43.406  24.388  25.669  1.00  0.00     0.022 A 
BRANCH  64  68
ATOM     68  S   UNL A   1      42.262  22.105  26.792  1.00  0.00     0.124 S 
ATOM     69  O   UNL A   1      43.381  21.551  26.033  1.00  0.00    -0.237 OA
ATOM     70  O   UNL A   1      42.283  21.863  28.230  1.00  0.00    -0.237 OA
ATOM     71  O   UNL A   1      40.955  21.961  26.153  1.00  0.00    -0.744 OA
ENDBRANCH  64  68
ENDBRANCH  47  61
BRANCH  48  72
ATOM     72  C   UNL A   1      39.633  31.997  35.298  1.00  0.00     0.023 A 
ATOM     73  C   UNL A   1      38.884  31.458  36.356  1.00  0.00     0.031 A 
ATOM     74  C   UNL A   1      39.893  33.378  35.310  1.00  0.00     0.131 A 
ATOM     75  C   UNL A   1      38.380  32.304  37.357  1.00  0.00     0.055 A 
ATOM     76  C   UNL A   1      39.435  34.206  36.335  1.00  0.00     0.041 A 
ATOM     77  F   UNL A   1      40.600  33.945  34.318  1.00  0.00    -0.206 F 
ATOM     78  C   UNL A   1      38.661  33.671  37.360  1.00  0.00     0.022 A 
BRANCH  75  79
ATOM     79  S   UNL A   1      37.273  31.601  38.611  1.00  0.00     0.124 S 
ATOM     80  O   UNL A   1      38.085  31.711  39.817  1.00  0.00    -0.237 OA
ATOM     81  O   UNL A   1      36.120  32.491  38.529  1.00  0.00    -0.237 OA
ATOM     82  O   UNL A   1      37.042  30.239  38.135  1.00  0.00    -0.744 OA
ENDBRANCH  75  79
ENDBRANCH  48  72
BRANCH  60  83
ATOM     83  C   UNL A   1      44.922  27.527  34.496  1.00  0.00     0.023 A 
ATOM     84  C   UNL A   1      44.795  26.524  35.474  1.00  0.00     0.031 A 
ATOM     85  C   UNL A   1      46.162  28.181  34.379  1.00  0.00     0.131 A 
ATOM     86  C   UNL A   1      45.872  26.242  36.330  1.00  0.00     0.055 A 
ATOM     87  C   UNL A   1      47.247  27.857  35.196  1.00  0.00     0.041 A 
ATOM     88  F   UNL A   1      46.341  29.148  33.464  1.00  0.00    -0.206 F 
ATOM     89  C   UNL A   1      47.100  26.891  36.186  1.00  0.00     0.022 A 
BRANCH  86  90
ATOM     90  S   UNL A   1      45.620  25.072  37.694  1.00  0.00     0.124 S 
ATOM     91  O   UNL A   1      46.916  25.102  38.364  1.00  0.00    -0.237 OA
ATOM     92  O   UNL A   1      44.510  25.677  38.423  1.00  0.00    -0.237 OA
ATOM     93  O   UNL A   1      45.303  23.816  37.015  1.00  0.00    -0.744 OA
ENDBRANCH  86  90
ENDBRANCH  60  83
ENDBRANCH  34  35
ENDBRANCH  27  29
ENDBRANCH  26  27
ENDBRANCH  25  26
ENDBRANCH  24  25
ENDBRANCH  23  24
ENDBRANCH  22  23
ENDBRANCH   1  22
TORSDOF 25
ENDMDL
MODEL 2
REMARK VINA RESULT:      -9.6      1.853      2.174
REMARK SMILES COCCC(=O)NC[C@@H]1CC[C@@H](C(=O)OCCOCCOCCOC(=O)c2ccc(-c3c4nc(c(-c5cc(S(=O)(=O)[O-])ccc5F)c5ccc([nH]5)c(-c5cc(S(=O)(=O)[O-])ccc5F)c5nc(c(-c6cc(S(=O)(=O)[O-])ccc6F)c6ccc3[nH]6)C=C5)C=C4)cc2)O1
REMARK SMILES IDX 19 1 18 2 17 3 16 4 15 5 13 6 14 7 12 8 9 9 10 10 90 11
REMARK SMILES IDX 11 12 8 13 7 14 5 15 6 16 4 18 3 19 2 20 1 21 20 22 21 23
REMARK SMILES IDX 22 24 23 25 24 26 25 27 26 28 27 29 28 30 89 31 29 32 88 33
REMARK SMILES IDX 30 34 31 35 32 36 82 37 33 38 87 39 81 40 83 41 34 42 86 43
REMARK SMILES IDX 80 44 79 45 35 47 67 48 47 49 66 50 48 51 51 52 65 53 84 54
REMARK SMILES IDX 49 55 50 56 64 58 85 59 52 60 36 61 37 62 45 63 38 64 44 65
REMARK SMILES IDX 46 66 43 67 39 68 40 69 41 70 42 71 68 72 69 73 77 74 70 75
REMARK SMILES IDX 76 76 78 77 75 78 71 79 72 80 73 81 74 82 53 83 54 84 62 85
REMARK SMILES IDX 55 86 61 87 63 88 60 89 56 90 57 91 58 92 59 93
REMARK H PARENT 7 17 83 46 51 57
REMARK Flexibility Score: inf
ROOT
ATOM      1  C   UNL A   1      31.628  26.234  23.609  1.00  0.00     0.188 C 
ENDROOT
BRANCH   1   2
ATOM      2  O   UNL A   1      33.023  26.470  23.536  1.00  0.00    -0.376 OA
BRANCH   2   3
ATOM      3  C   UNL A   1      33.913  25.373  23.419  1.00  0.00     0.202 C 
BRANCH   3   4
ATOM      4  C   UNL A   1      34.484  24.787  24.709  1.00  0.00     0.261 C 
BRANCH   4   5
ATOM      5  O   UNL A   1      35.435  23.746  24.437  1.00  0.00    -0.461 OA
BRANCH   5   6
ATOM      6  C   UNL A   1      36.306  23.452  25.443  1.00  0.00     0.335 C 
ATOM      7  O   UNL A   1      37.122  24.236  25.908  1.00  0.00    -0.249 OA
BRANCH   6   8
ATOM      8  C   UNL A   1      36.083  22.029  25.955  1.00  0.00     0.228 C 
ATOM      9  C   UNL A   1      34.574  20.723  24.759  1.00  0.00     0.138 C 
ATOM     10  C   UNL A   1      35.858  19.920  24.858  1.00  0.00     0.037 C 
ATOM     11  O   UNL A   1      34.699  21.691  25.820  1.00  0.00    -0.361 OA
ATOM     12  C   UNL A   1      36.873  21.003  25.146  1.00  0.00     0.047 C 
BRANCH   9  13
ATOM     13  C   UNL A   1      33.286  19.897  24.910  1.00  0.00     0.147 C 
BRANCH  13  14
ATOM     14  N   UNL A   1      33.128  18.927  23.832  1.00  0.00    -0.353 N 
ATOM     15  C   UNL A   1      33.268  17.574  23.868  1.00  0.00     0.222 C 
ATOM     16  O   UNL A   1      33.408  16.962  22.806  1.00  0.00    -0.275 OA
ATOM     17  H   UNL A   1      32.888  19.304  22.955  1.00  0.00     0.163 HD
BRANCH  15  18
ATOM     18  C   UNL A   1      33.223  16.834  25.184  1.00  0.00     0.128 C 
BRANCH  18  19
ATOM     19  C   UNL A   1      34.079  15.583  25.115  1.00  0.00     0.169 C 
BRANCH  19  20
ATOM     20  O   UNL A   1      33.271  14.454  25.437  1.00  0.00    -0.384 OA
ATOM     21  C   UNL A   1      32.161  14.808  26.250  1.00  0.00     0.194 C 
ENDBRANCH  19  20
ENDBRANCH  18  19
ENDBRANCH  15  18
ENDBRANCH  13  14
ENDBRANCH   9  13
ENDBRANCH   6   8
ENDBRANCH   5   6
ENDBRANCH   4   5
ENDBRANCH   3   4
ENDBRANCH   2   3
ENDBRANCH   1   2
BRANCH   1  22
ATOM     22  C   UNL A   1      30.634  27.415  23.598  1.00  0.00     0.188 C 
BRANCH  22  23
ATOM     23  O   UNL A   1      30.547  28.339  24.665  1.00  0.00    -0.376 OA
BRANCH  23  24
ATOM     24  C   UNL A   1      31.297  29.537  24.647  1.00  0.00     0.202 C 
BRANCH  24  25
ATOM     25  C   UNL A   1      31.696  30.231  25.955  1.00  0.00     0.261 C 
BRANCH  25  26
ATOM     26  O   UNL A   1      33.096  30.477  26.118  1.00  0.00    -0.460 OA
BRANCH  26  27
ATOM     27  C   UNL A   1      33.411  31.393  27.071  1.00  0.00     0.338 C 
ATOM     28  O   UNL A   1      32.685  32.259  27.522  1.00  0.00    -0.246 OA
BRANCH  27  29
ATOM     29  C   UNL A   1      34.743  31.077  27.628  1.00  0.00     0.060 A 
ATOM     30  C   UNL A   1      35.025  29.748  27.968  1.00  0.00     0.016 A 
ATOM     31  C   UNL A   1      35.682  32.083  27.860  1.00  0.00     0.016 A 
ATOM     32  C   UNL A   1      36.239  29.423  28.575  1.00  0.00     0.010 A 
ATOM     33  C   UNL A   1      36.890  31.760  28.486  1.00  0.00     0.010 A 
ATOM     34  C   UNL A   1      37.161  30.435  28.873  1.00  0.00    -0.014 A 
BRANCH  34  35
ATOM     35  C   UNL A   1      38.312  30.150  29.765  1.00  0.00     0.031 A 
ATOM     36  C   UNL A   1      39.359  29.178  29.291  1.00  0.00     0.074 A 
ATOM     37  C   UNL A   1      38.435  30.740  30.967  1.00  0.00     0.049 A 
ATOM     38  N   UNL A   1      40.411  28.715  29.915  1.00  0.00    -0.248 NA
ATOM     39  C   UNL A   1      39.186  28.656  27.926  1.00  0.00     0.031 C 
ATOM     40  C   UNL A   1      37.519  31.739  31.516  1.00  0.00     0.029 A 
ATOM     41  N   UNL A   1      39.381  30.575  31.947  1.00  0.00    -0.354 N 
ATOM     42  C   UNL A   1      41.030  27.850  29.019  1.00  0.00     0.074 A 
ATOM     43  C   UNL A   1      40.210  27.824  27.825  1.00  0.00     0.031 C 
ATOM     44  C   UNL A   1      37.943  32.086  32.745  1.00  0.00     0.029 A 
ATOM     45  C   UNL A   1      39.134  31.308  33.083  1.00  0.00     0.049 A 
ATOM     46  H   UNL A   1      40.163  29.985  31.846  1.00  0.00     0.167 HD
ATOM     47  C   UNL A   1      42.181  27.147  29.172  1.00  0.00     0.034 A 
ATOM     48  C   UNL A   1      39.779  31.324  34.268  1.00  0.00     0.034 A 
ATOM     49  C   UNL A   1      42.972  27.154  30.377  1.00  0.00     0.049 A 
ATOM     50  C   UNL A   1      40.989  30.438  34.462  1.00  0.00     0.074 A 
ATOM     51  C   UNL A   1      44.148  26.474  30.641  1.00  0.00     0.029 A 
ATOM     52  N   UNL A   1      42.658  27.863  31.530  1.00  0.00    -0.354 N 
ATOM     53  N   UNL A   1      41.567  29.625  33.609  1.00  0.00    -0.248 NA
ATOM     54  C   UNL A   1      41.634  30.478  35.783  1.00  0.00     0.031 C 
ATOM     55  C   UNL A   1      44.506  26.717  31.974  1.00  0.00     0.029 A 
ATOM     56  C   UNL A   1      43.598  27.610  32.518  1.00  0.00     0.049 A 
ATOM     57  H   UNL A   1      41.880  28.458  31.631  1.00  0.00     0.167 HD
ATOM     58  C   UNL A   1      42.664  29.085  34.280  1.00  0.00     0.074 A 
ATOM     59  C   UNL A   1      42.669  29.672  35.604  1.00  0.00     0.031 C 
ATOM     60  C   UNL A   1      43.589  28.194  33.839  1.00  0.00     0.034 A 
BRANCH  47  61
ATOM     61  C   UNL A   1      42.605  26.272  28.019  1.00  0.00     0.023 A 
ATOM     62  C   UNL A   1      42.001  25.024  27.780  1.00  0.00     0.031 A 
ATOM     63  C   UNL A   1      43.665  26.661  27.182  1.00  0.00     0.131 A 
ATOM     64  C   UNL A   1      42.513  24.178  26.786  1.00  0.00     0.055 A 
ATOM     65  C   UNL A   1      44.117  25.848  26.141  1.00  0.00     0.041 A 
ATOM     66  F   UNL A   1      44.297  27.830  27.378  1.00  0.00    -0.206 F 
ATOM     67  C   UNL A   1      43.553  24.591  25.949  1.00  0.00     0.022 A 
BRANCH  64  68
ATOM     68  S   UNL A   1      41.912  22.468  26.712  1.00  0.00     0.124 S 
ATOM     69  O   UNL A   1      40.468  22.657  26.825  1.00  0.00    -0.237 OA
ATOM     70  O   UNL A   1      42.398  22.019  25.413  1.00  0.00    -0.237 OA
ATOM     71  O   UNL A   1      42.542  21.833  27.869  1.00  0.00    -0.744 OA
ENDBRANCH  64  68
ENDBRANCH  47  61
BRANCH  48  72
ATOM     72  C   UNL A   1      39.281  32.169  35.392  1.00  0.00     0.023 A 
ATOM     73  C   UNL A   1      39.737  33.485  35.565  1.00  0.00     0.031 A 
ATOM     74  C   UNL A   1      38.398  31.645  36.353  1.00  0.00     0.131 A 
ATOM     75  C   UNL A   1      39.348  34.217  36.698  1.00  0.00     0.055 A 
ATOM     76  C   UNL A   1      37.972  32.395  37.449  1.00  0.00     0.041 A 
ATOM     77  F   UNL A   1      37.937  30.389  36.238  1.00  0.00    -0.206 F 
ATOM     78  C   UNL A   1      38.458  33.686  37.634  1.00  0.00     0.022 A 
BRANCH  75  79
ATOM     79  S   UNL A   1      40.093  35.847  36.977  1.00  0.00     0.124 S 
ATOM     80  O   UNL A   1      41.509  35.512  37.077  1.00  0.00    -0.237 OA
ATOM     81  O   UNL A   1      39.689  36.574  35.778  1.00  0.00    -0.237 OA
ATOM     82  O   UNL A   1      39.468  36.299  38.218  1.00  0.00    -0.744 OA
ENDBRANCH  75  79
ENDBRANCH  48  72
BRANCH  60  83
ATOM     83  C   UNL A   1      44.715  27.844  34.782  1.00  0.00     0.023 A 
ATOM     84  C   UNL A   1      45.943  28.528  34.763  1.00  0.00     0.031 A 
ATOM     85  C   UNL A   1      44.555  26.801  35.712  1.00  0.00     0.131 A 
ATOM     86  C   UNL A   1      46.980  28.128  35.620  1.00  0.00     0.055 A 
ATOM     87  C   UNL A   1      45.571  26.444  36.601  1.00  0.00     0.041 A 
ATOM     88  F   UNL A   1      43.405  26.111  35.774  1.00  0.00    -0.206 F 
ATOM     89  C   UNL A   1      46.796  27.101  36.549  1.00  0.00     0.022 A 
BRANCH  86  90
ATOM     90  S   UNL A   1      48.608  28.912  35.449  1.00  0.00     0.124 S 
ATOM     91  O   UNL A   1      48.670  29.174  34.014  1.00  0.00    -0.237 OA
ATOM     92  O   UNL A   1      48.481  30.086  36.306  1.00  0.00    -0.237 OA
ATOM     93  O   UNL A   1      49.534  27.890  35.932  1.00  0.00    -0.744 OA
ENDBRANCH  86  90
ENDBRANCH  60  83
ENDBRANCH  34  35
ENDBRANCH  27  29
ENDBRANCH  26  27
ENDBRANCH  25  26
ENDBRANCH  24  25
ENDBRANCH  23  24
ENDBRANCH  22  23
ENDBRANCH   1  22
TORSDOF 25
ENDMDL
MODEL 3
REMARK VINA RESULT:      -9.0      1.887      7.579
REMARK SMILES COCCC(=O)NC[C@@H]1CC[C@@H](C(=O)OCCOCCOCCOC(=O)c2ccc(-c3c4nc(c(-c5cc(S(=O)(=O)[O-])ccc5F)c5ccc([nH]5)c(-c5cc(S(=O)(=O)[O-])ccc5F)c5nc(c(-c6cc(S(=O)(=O)[O-])ccc6F)c6ccc3[nH]6)C=C5)C=C4)cc2)O1
REMARK SMILES IDX 19 1 18 2 17 3 16 4 15 5 13 6 14 7 12 8 9 9 10 10 90 11
REMARK SMILES IDX 11 12 8 13 7 14 5 15 6 16 4 18 3 19 2 20 1 21 20 22 21 23
REMARK SMILES IDX 22 24 23 25 24 26 25 27 26 28 27 29 28 30 89 31 29 32 88 33
REMARK SMILES IDX 30 34 31 35 32 36 82 37 33 38 87 39 81 40 83 41 34 42 86 43
REMARK SMILES IDX 80 44 79 45 35 47 67 48 47 49 66 50 48 51 51 52 65 53 84 54
REMARK SMILES IDX 49 55 50 56 64 58 85 59 52 60 36 61 37 62 45 63 38 64 44 65
REMARK SMILES IDX 46 66 43 67 39 68 40 69 41 70 42 71 68 72 69 73 77 74 70 75
REMARK SMILES IDX 76 76 78 77 75 78 71 79 72 80 73 81 74 82 53 83 54 84 62 85
REMARK SMILES IDX 55 86 61 87 63 88 60 89 56 90 57 91 58 92 59 93
REMARK H PARENT 7 17 83 46 51 57
REMARK Flexibility Score: inf
ROOT
ATOM      1  C   UNL A   1      32.162  25.811  23.672  1.00  0.00     0.188 C 
ENDROOT
BRANCH   1   2
ATOM      2  O   UNL A   1      33.499  26.164  23.362  1.00  0.00    -0.376 OA
BRANCH   2   3
ATOM      3  C   UNL A   1      34.500  25.160  23.338  1.00  0.00     0.202 C 
BRANCH   3   4
ATOM      4  C   UNL A   1      34.941  24.571  24.676  1.00  0.00     0.261 C 
BRANCH   4   5
ATOM      5  O   UNL A   1      36.059  23.685  24.517  1.00  0.00    -0.461 OA
BRANCH   5   6
ATOM      6  C   UNL A   1      36.726  23.350  25.658  1.00  0.00     0.335 C 
ATOM      7  O   UNL A   1      37.405  24.124  26.319  1.00  0.00    -0.249 OA
BRANCH   6   8
ATOM      8  C   UNL A   1      36.460  21.893  26.034  1.00  0.00     0.228 C 
ATOM      9  C   UNL A   1      34.576  20.907  25.089  1.00  0.00     0.138 C 
ATOM     10  C   UNL A   1      35.745  19.991  24.779  1.00  0.00     0.037 C 
ATOM     11  O   UNL A   1      35.052  21.697  26.197  1.00  0.00    -0.361 OA
ATOM     12  C   UNL A   1      36.919  20.930  24.941  1.00  0.00     0.047 C 
BRANCH   9  13
ATOM     13  C   UNL A   1      33.268  20.181  25.447  1.00  0.00     0.147 C 
BRANCH  13  14
ATOM     14  N   UNL A   1      32.582  19.674  24.263  1.00  0.00    -0.353 N 
ATOM     15  C   UNL A   1      32.445  18.390  23.835  1.00  0.00     0.222 C 
ATOM     16  O   UNL A   1      32.114  18.185  22.665  1.00  0.00    -0.275 OA
ATOM     17  H   UNL A   1      32.161  20.357  23.693  1.00  0.00     0.163 HD
BRANCH  15  18
ATOM     18  C   UNL A   1      32.665  17.238  24.787  1.00  0.00     0.128 C 
BRANCH  18  19
ATOM     19  C   UNL A   1      33.784  16.345  24.283  1.00  0.00     0.169 C 
BRANCH  19  20
ATOM     20  O   UNL A   1      33.880  15.205  25.133  1.00  0.00    -0.384 OA
ATOM     21  C   UNL A   1      32.601  14.713  25.511  1.00  0.00     0.194 C 
ENDBRANCH  19  20
ENDBRANCH  18  19
ENDBRANCH  15  18
ENDBRANCH  13  14
ENDBRANCH   9  13
ENDBRANCH   6   8
ENDBRANCH   5   6
ENDBRANCH   4   5
ENDBRANCH   3   4
ENDBRANCH   2   3
ENDBRANCH   1   2
BRANCH   1  22
ATOM     22  C   UNL A   1      31.117  26.904  23.979  1.00  0.00     0.188 C 
BRANCH  22  23
ATOM     23  O   UNL A   1      31.162  27.681  25.160  1.00  0.00    -0.376 OA
BRANCH  23  24
ATOM     24  C   UNL A   1      31.937  28.862  25.220  1.00  0.00     0.202 C 
BRANCH  24  25
ATOM     25  C   UNL A   1      32.380  29.440  26.569  1.00  0.00     0.261 C 
BRANCH  25  26
ATOM     26  O   UNL A   1      33.793  29.593  26.739  1.00  0.00    -0.460 OA
BRANCH  26  27
ATOM     27  C   UNL A   1      34.172  30.700  27.428  1.00  0.00     0.338 C 
ATOM     28  O   UNL A   1      33.524  31.716  27.596  1.00  0.00    -0.246 OA
BRANCH  27  29
ATOM     29  C   UNL A   1      35.453  30.431  28.115  1.00  0.00     0.060 A 
ATOM     30  C   UNL A   1      36.645  30.771  27.462  1.00  0.00     0.016 A 
ATOM     31  C   UNL A   1      35.482  29.806  29.363  1.00  0.00     0.016 A 
ATOM     32  C   UNL A   1      37.874  30.456  28.041  1.00  0.00     0.010 A 
ATOM     33  C   UNL A   1      36.714  29.473  29.933  1.00  0.00     0.010 A 
ATOM     34  C   UNL A   1      37.914  29.768  29.262  1.00  0.00    -0.014 A 
BRANCH  34  35
ATOM     35  C   UNL A   1      39.189  29.180  29.740  1.00  0.00     0.031 A 
ATOM     36  C   UNL A   1      39.894  29.843  30.893  1.00  0.00     0.074 A 
ATOM     37  C   UNL A   1      39.713  28.079  29.173  1.00  0.00     0.049 A 
ATOM     38  N   UNL A   1      41.047  29.561  31.440  1.00  0.00    -0.248 NA
ATOM     39  C   UNL A   1      39.196  30.984  31.507  1.00  0.00     0.031 C 
ATOM     40  C   UNL A   1      39.102  27.314  28.088  1.00  0.00     0.029 A 
ATOM     41  N   UNL A   1      40.889  27.420  29.430  1.00  0.00    -0.354 N 
ATOM     42  C   UNL A   1      41.216  30.486  32.464  1.00  0.00     0.074 A 
ATOM     43  C   UNL A   1      40.062  31.362  32.433  1.00  0.00     0.031 C 
ATOM     44  C   UNL A   1      39.918  26.295  27.762  1.00  0.00     0.029 A 
ATOM     45  C   UNL A   1      41.124  26.359  28.587  1.00  0.00     0.049 A 
ATOM     46  H   UNL A   1      41.507  27.683  30.150  1.00  0.00     0.167 HD
ATOM     47  C   UNL A   1      42.233  30.593  33.355  1.00  0.00     0.034 A 
ATOM     48  C   UNL A   1      42.202  25.556  28.476  1.00  0.00     0.034 A 
ATOM     49  C   UNL A   1      43.394  29.738  33.356  1.00  0.00     0.049 A 
ATOM     50  C   UNL A   1      43.381  25.771  29.398  1.00  0.00     0.074 A 
ATOM     51  C   UNL A   1      44.485  29.764  34.207  1.00  0.00     0.029 A 
ATOM     52  N   UNL A   1      43.625  28.712  32.448  1.00  0.00    -0.354 N 
ATOM     53  N   UNL A   1      43.530  26.648  30.364  1.00  0.00    -0.248 NA
ATOM     54  C   UNL A   1      44.537  24.882  29.212  1.00  0.00     0.031 C 
ATOM     55  C   UNL A   1      45.405  28.802  33.771  1.00  0.00     0.029 A 
ATOM     56  C   UNL A   1      44.855  28.122  32.697  1.00  0.00     0.049 A 
ATOM     57  H   UNL A   1      43.005  28.443  31.732  1.00  0.00     0.167 HD
ATOM     58  C   UNL A   1      44.781  26.390  30.923  1.00  0.00     0.074 A 
ATOM     59  C   UNL A   1      45.340  25.272  30.191  1.00  0.00     0.031 C 
ATOM     60  C   UNL A   1      45.408  27.013  31.954  1.00  0.00     0.034 A 
BRANCH  47  61
ATOM     61  C   UNL A   1      42.147  31.717  34.358  1.00  0.00     0.023 A 
ATOM     62  C   UNL A   1      41.092  31.797  35.286  1.00  0.00     0.031 A 
ATOM     63  C   UNL A   1      43.097  32.752  34.350  1.00  0.00     0.131 A 
ATOM     64  C   UNL A   1      40.968  32.927  36.108  1.00  0.00     0.055 A 
ATOM     65  C   UNL A   1      43.013  33.835  35.229  1.00  0.00     0.041 A 
ATOM     66  F   UNL A   1      44.112  32.743  33.471  1.00  0.00    -0.206 F 
ATOM     67  C   UNL A   1      41.935  33.935  36.103  1.00  0.00     0.022 A 
BRANCH  64  68
ATOM     68  S   UNL A   1      39.441  33.137  37.064  1.00  0.00     0.124 S 
ATOM     69  O   UNL A   1      38.421  32.886  36.049  1.00  0.00    -0.237 OA
ATOM     70  O   UNL A   1      39.576  32.120  38.100  1.00  0.00    -0.237 OA
ATOM     71  O   UNL A   1      39.517  34.520  37.531  1.00  0.00    -0.744 OA
ENDBRANCH  64  68
ENDBRANCH  47  61
BRANCH  48  72
ATOM     72  C   UNL A   1      42.254  24.496  27.428  1.00  0.00     0.023 A 
ATOM     73  C   UNL A   1      41.663  23.240  27.640  1.00  0.00     0.031 A 
ATOM     74  C   UNL A   1      42.959  24.700  26.229  1.00  0.00     0.131 A 
ATOM     75  C   UNL A   1      41.831  22.220  26.690  1.00  0.00     0.055 A 
ATOM     76  C   UNL A   1      43.078  23.699  25.264  1.00  0.00     0.041 A 
ATOM     77  F   UNL A   1      43.548  25.881  25.980  1.00  0.00    -0.206 F 
ATOM     78  C   UNL A   1      42.523  22.445  25.498  1.00  0.00     0.022 A 
BRANCH  75  79
ATOM     79  S   UNL A   1      41.204  20.562  27.077  1.00  0.00     0.124 S 
ATOM     80  O   UNL A   1      42.367  19.731  26.789  1.00  0.00    -0.237 OA
ATOM     81  O   UNL A   1      40.843  20.695  28.484  1.00  0.00    -0.237 OA
ATOM     82  O   UNL A   1      40.078  20.402  26.159  1.00  0.00    -0.744 OA
ENDBRANCH  75  79
ENDBRANCH  48  72
BRANCH  60  83
ATOM     83  C   UNL A   1      46.745  26.460  32.385  1.00  0.00     0.023 A 
ATOM     84  C   UNL A   1      46.852  25.332  33.219  1.00  0.00     0.031 A 
ATOM     85  C   UNL A   1      47.933  27.079  31.958  1.00  0.00     0.131 A 
ATOM     86  C   UNL A   1      48.117  24.891  33.640  1.00  0.00     0.055 A 
ATOM     87  C   UNL A   1      49.190  26.602  32.333  1.00  0.00     0.041 A 
ATOM     88  F   UNL A   1      47.892  28.161  31.162  1.00  0.00    -0.206 F 
ATOM     89  C   UNL A   1      49.286  25.509  33.189  1.00  0.00     0.022 A 
BRANCH  86  90
ATOM     90  S   UNL A   1      48.214  23.547  34.854  1.00  0.00     0.124 S 
ATOM     91  O   UNL A   1      48.201  24.277  36.118  1.00  0.00    -0.237 OA
ATOM     92  O   UNL A   1      47.016  22.769  34.555  1.00  0.00    -0.237 OA
ATOM     93  O   UNL A   1      49.477  22.885  34.534  1.00  0.00    -0.744 OA
ENDBRANCH  86  90
ENDBRANCH  60  83
ENDBRANCH  34  35
ENDBRANCH  27  29
ENDBRANCH  26  27
ENDBRANCH  25  26
ENDBRANCH  24  25
ENDBRANCH  23  24
ENDBRANCH  22  23
ENDBRANCH   1  22
TORSDOF 25
ENDMDL
