MODEL 1
REMARK VINA RESULT:     -10.4      0.000      0.000
REMARK SMILES Cc1cccc(NC(=O)C[C@H]([NH2+]C(C)C)C(=O)OCCOCCOCCOC(=O)c2ccc(-c3c4nc(c(-c5cc(S(=O)(=O)[O-])ccc5F)c5ccc([nH]5)c(-c5cc(S(=O)(=O)[O-])ccc5F)c5nc(c(-c6cc(S(=O)(=O)[O-])ccc6F)c6ccc3[nH]6)C=C5)C=C4)cc2)c1
REMARK SMILES IDX 22 1 21 2 20 3 19 4 18 5 16 6 17 7 11 8 10 9 8 10 7 11 9 13
REMARK SMILES IDX 6 14 1 15 2 16 3 17 93 18 4 19 5 20 12 21 13 24 14 25 15 26
REMARK SMILES IDX 23 27 24 28 25 29 26 30 27 31 28 32 29 33 30 34 31 35 92 36
REMARK SMILES IDX 32 37 91 38 33 39 34 40 35 41 85 42 36 43 90 44 84 45 86 46
REMARK SMILES IDX 37 47 89 48 83 49 82 50 38 52 70 53 50 54 69 55 51 56 54 57
REMARK SMILES IDX 68 58 87 59 52 60 53 61 67 63 88 64 55 65 39 66 40 67 48 68
REMARK SMILES IDX 41 69 47 70 49 71 46 72 42 73 43 74 44 75 45 76 71 77 72 78
REMARK SMILES IDX 80 79 73 80 79 81 81 82 78 83 74 84 75 85 76 86 77 87 56 88
REMARK SMILES IDX 57 89 65 90 58 91 64 92 66 93 63 94 59 95 60 96 61 97 62 98
REMARK H PARENT 7 12 12 22 12 23 86 51 54 62
REMARK Flexibility Score: inf
ROOT
ATOM      1  C   UNL A   1      35.599  33.222  29.514  1.00  0.00     0.188 C 
ENDROOT
BRANCH   1   2
ATOM      2  O   UNL A   1      34.423  32.492  29.102  1.00  0.00    -0.376 OA
BRANCH   2   3
ATOM      3  C   UNL A   1      34.347  31.285  28.331  1.00  0.00     0.202 C 
BRANCH   3   4
ATOM      4  C   UNL A   1      33.234  30.818  27.150  1.00  0.00     0.261 C 
BRANCH   4   5
ATOM      5  O   UNL A   1      32.706  29.293  26.538  1.00  0.00    -0.459 OA
BRANCH   5   6
ATOM      6  C   UNL A   1      32.274  27.958  26.939  1.00  0.00     0.365 C 
ATOM      7  O   UNL A   1      31.351  27.833  27.767  1.00  0.00    -0.245 OA
BRANCH   6   8
ATOM      8  C   UNL A   1      32.540  26.666  26.098  1.00  0.00     0.303 C 
BRANCH   8   9
ATOM      9  C   UNL A   1      33.121  26.685  24.391  1.00  0.00     0.177 C 
BRANCH   9  10
ATOM     10  C   UNL A   1      33.629  25.503  23.000  1.00  0.00     0.231 C 
ATOM     11  N   UNL A   1      34.135  23.911  22.938  1.00  0.00    -0.326 N 
ATOM     12  H   UNL A   1      34.308  23.693  21.994  1.00  0.00     0.169 HD
ATOM     13  O   UNL A   1      33.659  26.152  21.934  1.00  0.00    -0.274 OA
BRANCH  11  14
ATOM     14  C   UNL A   1      34.471  22.510  23.856  1.00  0.00     0.041 A 
ATOM     15  C   UNL A   1      37.577  20.513  25.091  1.00  0.00     0.044 C 
ATOM     16  C   UNL A   1      36.154  20.880  24.799  1.00  0.00    -0.049 A 
ATOM     17  C   UNL A   1      35.266  19.805  24.842  1.00  0.00     0.003 A 
ATOM     18  C   UNL A   1      35.742  22.227  24.390  1.00  0.00     0.029 A 
ATOM     19  C   UNL A   1      33.966  20.106  24.661  1.00  0.00     0.002 A 
ATOM     20  C   UNL A   1      33.648  21.422  24.261  1.00  0.00     0.026 A 
ENDBRANCH  11  14
ENDBRANCH   9  10
ENDBRANCH   8   9
BRANCH   8  21
ATOM     21  N   UNL A   1      31.612  25.578  26.848  1.00  0.00    -0.332 N 
ATOM     22  H   UNL A   1      30.635  25.790  26.650  1.00  0.00     0.347 HD
ATOM     23  H   UNL A   1      31.816  25.636  27.846  1.00  0.00     0.347 HD
BRANCH  21  24
ATOM     24  C   UNL A   1      31.905  24.125  26.396  1.00  0.00     0.176 C 
ATOM     25  C   UNL A   1      32.865  23.276  27.233  1.00  0.00     0.075 C 
ATOM     26  C   UNL A   1      30.708  23.239  25.960  1.00  0.00     0.075 C 
ENDBRANCH  21  24
ENDBRANCH   8  21
ENDBRANCH   6   8
ENDBRANCH   5   6
ENDBRANCH   4   5
ENDBRANCH   3   4
ENDBRANCH   2   3
ENDBRANCH   1   2
BRANCH   1  27
ATOM     27  C   UNL A   1      35.991  33.299  30.984  1.00  0.00     0.188 C 
BRANCH  27  28
ATOM     28  O   UNL A   1      35.986  31.990  31.512  1.00  0.00    -0.376 OA
BRANCH  28  29
ATOM     29  C   UNL A   1      36.987  31.098  31.099  1.00  0.00     0.202 C 
BRANCH  29  30
ATOM     30  C   UNL A   1      36.509  29.643  30.985  1.00  0.00     0.261 C 
BRANCH  30  31
ATOM     31  O   UNL A   1      37.569  28.673  30.784  1.00  0.00    -0.460 OA
BRANCH  31  32
ATOM     32  C   UNL A   1      38.389  28.337  31.861  1.00  0.00     0.338 C 
ATOM     33  O   UNL A   1      37.981  27.816  32.847  1.00  0.00    -0.246 OA
BRANCH  32  34
ATOM     34  C   UNL A   1      39.836  28.498  31.485  1.00  0.00     0.060 A 
ATOM     35  C   UNL A   1      40.414  28.676  30.224  1.00  0.00     0.016 A 
ATOM     36  C   UNL A   1      40.697  28.398  32.520  1.00  0.00     0.016 A 
ATOM     37  C   UNL A   1      41.854  28.559  30.009  1.00  0.00     0.010 A 
ATOM     38  C   UNL A   1      42.002  28.029  32.249  1.00  0.00     0.010 A 
ATOM     39  C   UNL A   1      42.750  28.092  31.014  1.00  0.00    -0.014 A 
BRANCH  39  40
ATOM     40  C   UNL A   1      44.508  27.729  30.824  1.00  0.00     0.031 A 
ATOM     41  C   UNL A   1      46.173  28.599  31.415  1.00  0.00     0.074 A 
ATOM     42  C   UNL A   1      44.322  26.494  30.210  1.00  0.00     0.049 A 
ATOM     43  N   UNL A   1      47.376  28.558  30.755  1.00  0.00    -0.248 NA
ATOM     44  C   UNL A   1      46.663  29.736  32.394  1.00  0.00     0.031 C 
ATOM     45  C   UNL A   1      44.895  25.172  30.419  1.00  0.00     0.029 A 
ATOM     46  N   UNL A   1      43.604  26.238  29.027  1.00  0.00    -0.354 N 
ATOM     47  C   UNL A   1      48.555  29.094  31.194  1.00  0.00     0.074 A 
ATOM     48  C   UNL A   1      47.980  30.017  32.146  1.00  0.00     0.031 C 
ATOM     49  C   UNL A   1      44.957  24.458  29.291  1.00  0.00     0.029 A 
ATOM     50  C   UNL A   1      44.239  25.210  28.311  1.00  0.00     0.049 A 
ATOM     51  H   UNL A   1      42.785  26.706  28.745  1.00  0.00     0.167 HD
ATOM     52  C   UNL A   1      49.773  28.399  30.982  1.00  0.00     0.034 A 
ATOM     53  C   UNL A   1      44.252  25.041  26.977  1.00  0.00     0.034 A 
ATOM     54  C   UNL A   1      49.733  27.189  30.047  1.00  0.00     0.049 A 
ATOM     55  C   UNL A   1      45.671  24.930  26.451  1.00  0.00     0.074 A 
ATOM     56  C   UNL A   1      49.871  25.815  30.309  1.00  0.00     0.029 A 
ATOM     57  N   UNL A   1      49.448  27.235  28.676  1.00  0.00    -0.354 N 
ATOM     58  N   UNL A   1      46.777  24.900  27.171  1.00  0.00    -0.248 NA
ATOM     59  C   UNL A   1      45.941  24.870  25.018  1.00  0.00     0.031 C 
ATOM     60  C   UNL A   1      49.588  25.055  29.146  1.00  0.00     0.029 A 
ATOM     61  C   UNL A   1      49.302  25.940  28.128  1.00  0.00     0.049 A 
ATOM     62  H   UNL A   1      49.361  28.067  28.158  1.00  0.00     0.167 HD
ATOM     63  C   UNL A   1      47.843  25.174  26.318  1.00  0.00     0.074 A 
ATOM     64  C   UNL A   1      47.280  24.908  25.000  1.00  0.00     0.031 C 
ATOM     65  C   UNL A   1      49.055  25.723  26.696  1.00  0.00     0.034 A 
BRANCH  52  66
ATOM     66  C   UNL A   1      50.975  28.384  32.022  1.00  0.00     0.023 A 
ATOM     67  C   UNL A   1      52.329  28.540  31.574  1.00  0.00     0.031 A 
ATOM     68  C   UNL A   1      50.876  28.096  33.391  1.00  0.00     0.131 A 
ATOM     69  C   UNL A   1      53.456  28.254  32.380  1.00  0.00     0.055 A 
ATOM     70  C   UNL A   1      52.001  27.865  34.217  1.00  0.00     0.041 A 
ATOM     71  F   UNL A   1      49.694  28.035  34.010  1.00  0.00    -0.206 F 
ATOM     72  C   UNL A   1      53.295  27.914  33.711  1.00  0.00     0.022 A 
BRANCH  69  73
ATOM     73  S   UNL A   1      55.139  28.276  31.663  1.00  0.00     0.124 S 
ATOM     74  O   UNL A   1      55.548  29.662  31.875  1.00  0.00    -0.237 OA
ATOM     75  O   UNL A   1      55.842  27.268  32.447  1.00  0.00    -0.237 OA
ATOM     76  O   UNL A   1      54.916  27.914  30.262  1.00  0.00    -0.744 OA
ENDBRANCH  69  73
ENDBRANCH  52  66
BRANCH  53  77
ATOM     77  C   UNL A   1      42.997  25.586  26.374  1.00  0.00     0.023 A 
ATOM     78  C   UNL A   1      41.856  24.746  26.526  1.00  0.00     0.031 A 
ATOM     79  C   UNL A   1      42.769  26.954  26.188  1.00  0.00     0.131 A 
ATOM     80  C   UNL A   1      40.572  25.295  26.682  1.00  0.00     0.055 A 
ATOM     81  C   UNL A   1      41.472  27.492  26.272  1.00  0.00     0.041 A 
ATOM     82  F   UNL A   1      43.795  27.807  26.069  1.00  0.00    -0.206 F 
ATOM     83  C   UNL A   1      40.375  26.671  26.563  1.00  0.00     0.022 A 
BRANCH  80  84
ATOM     84  S   UNL A   1      39.217  24.259  27.338  1.00  0.00     0.124 S 
ATOM     85  O   UNL A   1      38.224  24.334  26.274  1.00  0.00    -0.237 OA
ATOM     86  O   UNL A   1      39.846  22.955  27.533  1.00  0.00    -0.237 OA
ATOM     87  O   UNL A   1      38.867  24.939  28.581  1.00  0.00    -0.744 OA
ENDBRANCH  80  84
ENDBRANCH  53  77
BRANCH  65  88
ATOM     88  C   UNL A   1      50.204  26.078  25.745  1.00  0.00     0.023 A 
ATOM     89  C   UNL A   1      51.463  25.462  25.752  1.00  0.00     0.031 A 
ATOM     90  C   UNL A   1      50.041  27.084  24.754  1.00  0.00     0.131 A 
ATOM     91  C   UNL A   1      52.508  25.906  24.918  1.00  0.00     0.055 A 
ATOM     92  C   UNL A   1      51.046  27.451  23.852  1.00  0.00     0.041 A 
ATOM     93  F   UNL A   1      48.896  27.769  24.614  1.00  0.00    -0.206 F 
ATOM     94  C   UNL A   1      52.301  26.878  23.946  1.00  0.00     0.022 A 
BRANCH  91  95
ATOM     95  S   UNL A   1      54.172  25.244  25.202  1.00  0.00     0.124 S 
ATOM     96  O   UNL A   1      54.936  25.880  24.132  1.00  0.00    -0.237 OA
ATOM     97  O   UNL A   1      54.471  25.707  26.553  1.00  0.00    -0.237 OA
ATOM     98  O   UNL A   1      53.999  23.800  25.063  1.00  0.00    -0.744 OA
ENDBRANCH  91  95
ENDBRANCH  65  88
ENDBRANCH  39  40
ENDBRANCH  32  34
ENDBRANCH  31  32
ENDBRANCH  30  31
ENDBRANCH  29  30
ENDBRANCH  28  29
ENDBRANCH  27  28
ENDBRANCH   1  27
TORSDOF 25
ENDMDL
MODEL 2
REMARK VINA RESULT:     -10.3      4.260      8.801
REMARK SMILES Cc1cccc(NC(=O)C[C@H]([NH2+]C(C)C)C(=O)OCCOCCOCCOC(=O)c2ccc(-c3c4nc(c(-c5cc(S(=O)(=O)[O-])ccc5F)c5ccc([nH]5)c(-c5cc(S(=O)(=O)[O-])ccc5F)c5nc(c(-c6cc(S(=O)(=O)[O-])ccc6F)c6ccc3[nH]6)C=C5)C=C4)cc2)c1
REMARK SMILES IDX 22 1 21 2 20 3 19 4 18 5 16 6 17 7 11 8 10 9 8 10 7 11 9 13
REMARK SMILES IDX 6 14 1 15 2 16 3 17 93 18 4 19 5 20 12 21 13 24 14 25 15 26
REMARK SMILES IDX 23 27 24 28 25 29 26 30 27 31 28 32 29 33 30 34 31 35 92 36
REMARK SMILES IDX 32 37 91 38 33 39 34 40 35 41 85 42 36 43 90 44 84 45 86 46
REMARK SMILES IDX 37 47 89 48 83 49 82 50 38 52 70 53 50 54 69 55 51 56 54 57
REMARK SMILES IDX 68 58 87 59 52 60 53 61 67 63 88 64 55 65 39 66 40 67 48 68
REMARK SMILES IDX 41 69 47 70 49 71 46 72 42 73 43 74 44 75 45 76 71 77 72 78
REMARK SMILES IDX 80 79 73 80 79 81 81 82 78 83 74 84 75 85 76 86 77 87 56 88
REMARK SMILES IDX 57 89 65 90 58 91 64 92 66 93 63 94 59 95 60 96 61 97 62 98
REMARK H PARENT 7 12 12 22 12 23 86 51 54 62
REMARK Flexibility Score: inf
ROOT
ATOM      1  C   UNL A   1      33.441  20.813  25.422  1.00  0.00     0.188 C 
ENDROOT
BRANCH   1   2
ATOM      2  O   UNL A   1      32.505  21.517  24.577  1.00  0.00    -0.376 OA
BRANCH   2   3
ATOM      3  C   UNL A   1      32.597  21.782  23.171  1.00  0.00     0.202 C 
BRANCH   3   4
ATOM      4  C   UNL A   1      33.335  23.060  22.351  1.00  0.00     0.261 C 
BRANCH   4   5
ATOM      5  O   UNL A   1      33.595  24.727  22.717  1.00  0.00    -0.459 OA
BRANCH   5   6
ATOM      6  C   UNL A   1      32.988  25.894  23.349  1.00  0.00     0.365 C 
ATOM      7  O   UNL A   1      32.179  26.591  22.706  1.00  0.00    -0.245 OA
BRANCH   6   8
ATOM      8  C   UNL A   1      32.902  26.101  24.897  1.00  0.00     0.303 C 
BRANCH   8   9
ATOM      9  C   UNL A   1      33.744  27.431  25.777  1.00  0.00     0.177 C 
BRANCH   9  10
ATOM     10  C   UNL A   1      33.730  29.318  25.944  1.00  0.00     0.231 C 
ATOM     11  N   UNL A   1      34.427  30.409  27.001  1.00  0.00    -0.326 N 
ATOM     12  H   UNL A   1      34.144  31.310  26.725  1.00  0.00     0.169 HD
ATOM     13  O   UNL A   1      32.926  29.774  25.104  1.00  0.00    -0.274 OA
BRANCH  11  14
ATOM     14  C   UNL A   1      35.436  30.587  28.368  1.00  0.00     0.041 A 
ATOM     15  C   UNL A   1      37.909  28.430  30.464  1.00  0.00     0.044 C 
ATOM     16  C   UNL A   1      37.038  29.572  30.036  1.00  0.00    -0.049 A 
ATOM     17  C   UNL A   1      36.733  30.472  31.056  1.00  0.00     0.003 A 
ATOM     18  C   UNL A   1      36.461  29.678  28.692  1.00  0.00     0.029 A 
ATOM     19  C   UNL A   1      36.016  31.553  30.694  1.00  0.00     0.002 A 
ATOM     20  C   UNL A   1      35.487  31.579  29.386  1.00  0.00     0.026 A 
ENDBRANCH  11  14
ENDBRANCH   9  10
ENDBRANCH   8   9
BRANCH   8  21
ATOM     21  N   UNL A   1      32.510  24.622  25.414  1.00  0.00    -0.332 N 
ATOM     22  H   UNL A   1      32.996  24.444  26.292  1.00  0.00     0.347 HD
ATOM     23  H   UNL A   1      32.785  23.960  24.688  1.00  0.00     0.347 HD
BRANCH  21  24
ATOM     24  C   UNL A   1      30.987  24.452  25.647  1.00  0.00     0.176 C 
ATOM     25  C   UNL A   1      30.514  23.447  26.701  1.00  0.00     0.075 C 
ATOM     26  C   UNL A   1      30.116  25.731  25.754  1.00  0.00     0.075 C 
ENDBRANCH  21  24
ENDBRANCH   8  21
ENDBRANCH   6   8
ENDBRANCH   5   6
ENDBRANCH   4   5
ENDBRANCH   3   4
ENDBRANCH   2   3
ENDBRANCH   1   2
BRANCH   1  27
ATOM     27  C   UNL A   1      34.705  20.196  24.837  1.00  0.00     0.188 C 
BRANCH  27  28
ATOM     28  O   UNL A   1      35.819  20.766  25.489  1.00  0.00    -0.376 OA
BRANCH  28  29
ATOM     29  C   UNL A   1      35.941  22.164  25.505  1.00  0.00     0.202 C 
BRANCH  29  30
ATOM     30  C   UNL A   1      37.331  22.666  25.087  1.00  0.00     0.261 C 
BRANCH  30  31
ATOM     31  O   UNL A   1      37.853  23.748  25.901  1.00  0.00    -0.460 OA
BRANCH  31  32
ATOM     32  C   UNL A   1      39.080  23.578  26.542  1.00  0.00     0.338 C 
ATOM     33  O   UNL A   1      39.667  22.545  26.554  1.00  0.00    -0.246 OA
BRANCH  32  34
ATOM     34  C   UNL A   1      39.633  24.909  26.972  1.00  0.00     0.060 A 
ATOM     35  C   UNL A   1      40.504  25.770  26.299  1.00  0.00     0.016 A 
ATOM     36  C   UNL A   1      39.271  25.289  28.216  1.00  0.00     0.016 A 
ATOM     37  C   UNL A   1      41.143  26.902  26.966  1.00  0.00     0.010 A 
ATOM     38  C   UNL A   1      40.083  26.186  28.885  1.00  0.00     0.010 A 
ATOM     39  C   UNL A   1      41.067  27.113  28.373  1.00  0.00    -0.014 A 
BRANCH  39  40
ATOM     40  C   UNL A   1      41.952  28.355  29.339  1.00  0.00     0.031 A 
ATOM     41  C   UNL A   1      41.559  30.194  29.923  1.00  0.00     0.074 A 
ATOM     42  C   UNL A   1      43.011  27.521  29.687  1.00  0.00     0.049 A 
ATOM     43  N   UNL A   1      42.487  31.182  30.136  1.00  0.00    -0.248 NA
ATOM     44  C   UNL A   1      40.351  31.207  29.999  1.00  0.00     0.031 C 
ATOM     45  C   UNL A   1      43.688  27.227  30.942  1.00  0.00     0.029 A 
ATOM     46  N   UNL A   1      43.868  26.832  28.809  1.00  0.00    -0.354 N 
ATOM     47  C   UNL A   1      42.233  32.439  30.613  1.00  0.00     0.074 A 
ATOM     48  C   UNL A   1      40.821  32.457  30.302  1.00  0.00     0.031 C 
ATOM     49  C   UNL A   1      44.975  26.914  30.768  1.00  0.00     0.029 A 
ATOM     50  C   UNL A   1      45.160  26.793  29.356  1.00  0.00     0.049 A 
ATOM     51  H   UNL A   1      43.603  26.439  27.946  1.00  0.00     0.167 HD
ATOM     52  C   UNL A   1      43.134  33.049  31.522  1.00  0.00     0.034 A 
ATOM     53  C   UNL A   1      46.325  26.759  28.683  1.00  0.00     0.034 A 
ATOM     54  C   UNL A   1      44.484  32.361  31.735  1.00  0.00     0.049 A 
ATOM     55  C   UNL A   1      47.247  27.880  29.124  1.00  0.00     0.074 A 
ATOM     56  C   UNL A   1      45.008  31.679  32.846  1.00  0.00     0.029 A 
ATOM     57  N   UNL A   1      45.476  32.207  30.757  1.00  0.00    -0.354 N 
ATOM     58  N   UNL A   1      47.029  28.741  30.100  1.00  0.00    -0.248 NA
ATOM     59  C   UNL A   1      48.516  28.122  28.445  1.00  0.00     0.031 C 
ATOM     60  C   UNL A   1      46.239  31.058  32.516  1.00  0.00     0.029 A 
ATOM     61  C   UNL A   1      46.523  31.369  31.202  1.00  0.00     0.049 A 
ATOM     62  H   UNL A   1      45.447  32.631  29.869  1.00  0.00     0.167 HD
ATOM     63  C   UNL A   1      47.911  29.805  29.929  1.00  0.00     0.074 A 
ATOM     64  C   UNL A   1      48.931  29.243  29.052  1.00  0.00     0.031 C 
ATOM     65  C   UNL A   1      47.709  31.098  30.377  1.00  0.00     0.034 A 
BRANCH  52  66
ATOM     66  C   UNL A   1      42.679  33.985  32.723  1.00  0.00     0.023 A 
ATOM     67  C   UNL A   1      41.534  33.644  33.519  1.00  0.00     0.031 A 
ATOM     68  C   UNL A   1      43.217  35.240  33.040  1.00  0.00     0.131 A 
ATOM     69  C   UNL A   1      40.899  34.549  34.402  1.00  0.00     0.055 A 
ATOM     70  C   UNL A   1      42.620  36.128  33.967  1.00  0.00     0.041 A 
ATOM     71  F   UNL A   1      44.354  35.674  32.488  1.00  0.00    -0.206 F 
ATOM     72  C   UNL A   1      41.444  35.800  34.630  1.00  0.00     0.022 A 
BRANCH  69  73
ATOM     73  S   UNL A   1      39.322  34.101  35.215  1.00  0.00     0.124 S 
ATOM     74  O   UNL A   1      39.724  33.958  36.611  1.00  0.00    -0.237 OA
ATOM     75  O   UNL A   1      38.461  35.235  34.902  1.00  0.00    -0.237 OA
ATOM     76  O   UNL A   1      38.946  32.848  34.557  1.00  0.00    -0.744 OA
ENDBRANCH  69  73
ENDBRANCH  52  66
BRANCH  53  77
ATOM     77  C   UNL A   1      46.143  26.065  27.371  1.00  0.00     0.023 A 
ATOM     78  C   UNL A   1      46.428  26.871  26.232  1.00  0.00     0.031 A 
ATOM     79  C   UNL A   1      46.246  24.677  27.219  1.00  0.00     0.131 A 
ATOM     80  C   UNL A   1      46.978  26.308  25.069  1.00  0.00     0.055 A 
ATOM     81  C   UNL A   1      46.729  24.111  26.025  1.00  0.00     0.041 A 
ATOM     82  F   UNL A   1      46.023  23.859  28.257  1.00  0.00    -0.206 F 
ATOM     83  C   UNL A   1      47.139  24.926  24.963  1.00  0.00     0.022 A 
BRANCH  80  84
ATOM     84  S   UNL A   1      47.764  27.390  23.822  1.00  0.00     0.124 S 
ATOM     85  O   UNL A   1      48.293  26.427  22.864  1.00  0.00    -0.237 OA
ATOM     86  O   UNL A   1      46.662  28.222  23.347  1.00  0.00    -0.237 OA
ATOM     87  O   UNL A   1      48.758  28.114  24.607  1.00  0.00    -0.744 OA
ENDBRANCH  80  84
ENDBRANCH  53  77
BRANCH  65  88
ATOM     88  C   UNL A   1      48.655  32.280  30.135  1.00  0.00     0.023 A 
ATOM     89  C   UNL A   1      48.524  33.203  29.089  1.00  0.00     0.031 A 
ATOM     90  C   UNL A   1      49.753  32.519  31.004  1.00  0.00     0.131 A 
ATOM     91  C   UNL A   1      49.488  34.206  28.863  1.00  0.00     0.055 A 
ATOM     92  C   UNL A   1      50.650  33.581  30.842  1.00  0.00     0.041 A 
ATOM     93  F   UNL A   1      50.018  31.728  32.054  1.00  0.00    -0.206 F 
ATOM     94  C   UNL A   1      50.536  34.422  29.750  1.00  0.00     0.022 A 
BRANCH  91  95
ATOM     95  S   UNL A   1      49.386  35.162  27.326  1.00  0.00     0.124 S 
ATOM     96  O   UNL A   1      50.329  36.248  27.584  1.00  0.00    -0.237 OA
ATOM     97  O   UNL A   1      49.802  34.191  26.320  1.00  0.00    -0.237 OA
ATOM     98  O   UNL A   1      47.983  35.564  27.260  1.00  0.00    -0.744 OA
ENDBRANCH  91  95
ENDBRANCH  65  88
ENDBRANCH  39  40
ENDBRANCH  32  34
ENDBRANCH  31  32
ENDBRANCH  30  31
ENDBRANCH  29  30
ENDBRANCH  28  29
ENDBRANCH  27  28
ENDBRANCH   1  27
TORSDOF 25
ENDMDL
MODEL 3
REMARK VINA RESULT:     -10.2      4.513      8.745
REMARK SMILES Cc1cccc(NC(=O)C[C@H]([NH2+]C(C)C)C(=O)OCCOCCOCCOC(=O)c2ccc(-c3c4nc(c(-c5cc(S(=O)(=O)[O-])ccc5F)c5ccc([nH]5)c(-c5cc(S(=O)(=O)[O-])ccc5F)c5nc(c(-c6cc(S(=O)(=O)[O-])ccc6F)c6ccc3[nH]6)C=C5)C=C4)cc2)c1
REMARK SMILES IDX 22 1 21 2 20 3 19 4 18 5 16 6 17 7 11 8 10 9 8 10 7 11 9 13
REMARK SMILES IDX 6 14 1 15 2 16 3 17 93 18 4 19 5 20 12 21 13 24 14 25 15 26
REMARK SMILES IDX 23 27 24 28 25 29 26 30 27 31 28 32 29 33 30 34 31 35 92 36
REMARK SMILES IDX 32 37 91 38 33 39 34 40 35 41 85 42 36 43 90 44 84 45 86 46
REMARK SMILES IDX 37 47 89 48 83 49 82 50 38 52 70 53 50 54 69 55 51 56 54 57
REMARK SMILES IDX 68 58 87 59 52 60 53 61 67 63 88 64 55 65 39 66 40 67 48 68
REMARK SMILES IDX 41 69 47 70 49 71 46 72 42 73 43 74 44 75 45 76 71 77 72 78
REMARK SMILES IDX 80 79 73 80 79 81 81 82 78 83 74 84 75 85 76 86 77 87 56 88
REMARK SMILES IDX 57 89 65 90 58 91 64 92 66 93 63 94 59 95 60 96 61 97 62 98
REMARK H PARENT 7 12 12 22 12 23 86 51 54 62
REMARK Flexibility Score: inf
ROOT
ATOM      1  C   UNL A   1      33.377  20.958  25.459  1.00  0.00     0.188 C 
ENDROOT
BRANCH   1   2
ATOM      2  O   UNL A   1      32.494  21.791  24.676  1.00  0.00    -0.376 OA
BRANCH   2   3
ATOM      3  C   UNL A   1      32.530  22.053  23.267  1.00  0.00     0.202 C 
BRANCH   3   4
ATOM      4  C   UNL A   1      33.540  23.072  22.377  1.00  0.00     0.261 C 
BRANCH   4   5
ATOM      5  O   UNL A   1      34.063  24.706  22.569  1.00  0.00    -0.459 OA
BRANCH   5   6
ATOM      6  C   UNL A   1      33.649  26.095  22.395  1.00  0.00     0.365 C 
ATOM      7  O   UNL A   1      33.658  26.602  21.256  1.00  0.00    -0.245 OA
BRANCH   6   8
ATOM      8  C   UNL A   1      32.763  26.876  23.421  1.00  0.00     0.303 C 
BRANCH   8   9
ATOM      9  C   UNL A   1      33.262  28.426  24.197  1.00  0.00     0.177 C 
BRANCH   9  10
ATOM     10  C   UNL A   1      32.608  29.749  25.385  1.00  0.00     0.231 C 
ATOM     11  N   UNL A   1      33.277  30.648  26.624  1.00  0.00    -0.326 N 
ATOM     12  H   UNL A   1      32.565  31.221  26.991  1.00  0.00     0.169 HD
ATOM     13  O   UNL A   1      31.377  29.852  25.208  1.00  0.00    -0.274 OA
BRANCH  11  14
ATOM     14  C   UNL A   1      34.701  30.973  27.510  1.00  0.00     0.041 A 
ATOM     15  C   UNL A   1      37.286  29.033  29.682  1.00  0.00     0.044 C 
ATOM     16  C   UNL A   1      36.551  30.163  29.027  1.00  0.00    -0.049 A 
ATOM     17  C   UNL A   1      36.780  31.408  29.610  1.00  0.00     0.003 A 
ATOM     18  C   UNL A   1      35.587  29.966  27.940  1.00  0.00     0.029 A 
ATOM     19  C   UNL A   1      36.198  32.460  29.003  1.00  0.00     0.002 A 
ATOM     20  C   UNL A   1      35.275  32.191  27.970  1.00  0.00     0.026 A 
ENDBRANCH  11  14
ENDBRANCH   9  10
ENDBRANCH   8   9
BRANCH   8  21
ATOM     21  N   UNL A   1      31.802  25.711  23.992  1.00  0.00    -0.332 N 
ATOM     22  H   UNL A   1      31.970  24.859  23.459  1.00  0.00     0.347 HD
ATOM     23  H   UNL A   1      30.838  26.033  23.896  1.00  0.00     0.347 HD
BRANCH  21  24
ATOM     24  C   UNL A   1      32.046  25.413  25.493  1.00  0.00     0.176 C 
ATOM     25  C   UNL A   1      33.464  25.059  25.949  1.00  0.00     0.075 C 
ATOM     26  C   UNL A   1      31.409  26.363  26.541  1.00  0.00     0.075 C 
ENDBRANCH  21  24
ENDBRANCH   8  21
ENDBRANCH   6   8
ENDBRANCH   5   6
ENDBRANCH   4   5
ENDBRANCH   3   4
ENDBRANCH   2   3
ENDBRANCH   1   2
BRANCH   1  27
ATOM     27  C   UNL A   1      34.596  20.304  24.821  1.00  0.00     0.188 C 
BRANCH  27  28
ATOM     28  O   UNL A   1      35.752  20.815  25.449  1.00  0.00    -0.376 OA
BRANCH  28  29
ATOM     29  C   UNL A   1      35.884  22.206  25.577  1.00  0.00     0.202 C 
BRANCH  29  30
ATOM     30  C   UNL A   1      37.256  22.739  25.139  1.00  0.00     0.261 C 
BRANCH  30  31
ATOM     31  O   UNL A   1      37.771  23.823  25.955  1.00  0.00    -0.460 OA
BRANCH  31  32
ATOM     32  C   UNL A   1      39.010  23.668  26.578  1.00  0.00     0.338 C 
ATOM     33  O   UNL A   1      39.617  22.647  26.566  1.00  0.00    -0.246 OA
BRANCH  32  34
ATOM     34  C   UNL A   1      39.542  25.003  27.020  1.00  0.00     0.060 A 
ATOM     35  C   UNL A   1      40.439  25.862  26.376  1.00  0.00     0.016 A 
ATOM     36  C   UNL A   1      39.130  25.391  28.245  1.00  0.00     0.016 A 
ATOM     37  C   UNL A   1      41.048  27.000  27.060  1.00  0.00     0.010 A 
ATOM     38  C   UNL A   1      39.912  26.296  28.940  1.00  0.00     0.010 A 
ATOM     39  C   UNL A   1      40.914  27.220  28.461  1.00  0.00    -0.014 A 
BRANCH  39  40
ATOM     40  C   UNL A   1      41.757  28.472  29.453  1.00  0.00     0.031 A 
ATOM     41  C   UNL A   1      41.344  30.319  29.995  1.00  0.00     0.074 A 
ATOM     42  C   UNL A   1      42.795  27.638  29.861  1.00  0.00     0.049 A 
ATOM     43  N   UNL A   1      42.264  31.307  30.240  1.00  0.00    -0.248 NA
ATOM     44  C   UNL A   1      40.137  31.337  30.001  1.00  0.00     0.031 C 
ATOM     45  C   UNL A   1      43.410  27.358  31.152  1.00  0.00     0.029 A 
ATOM     46  N   UNL A   1      43.690  26.935  29.034  1.00  0.00    -0.354 N 
ATOM     47  C   UNL A   1      41.993  32.570  30.689  1.00  0.00     0.074 A 
ATOM     48  C   UNL A   1      40.597  32.589  30.311  1.00  0.00     0.031 C 
ATOM     49  C   UNL A   1      44.702  27.039  31.043  1.00  0.00     0.029 A 
ATOM     50  C   UNL A   1      44.955  26.899  29.643  1.00  0.00     0.049 A 
ATOM     51  H   UNL A   1      43.466  26.533  28.164  1.00  0.00     0.167 HD
ATOM     52  C   UNL A   1      42.852  33.188  31.633  1.00  0.00     0.034 A 
ATOM     53  C   UNL A   1      46.150  26.853  29.027  1.00  0.00     0.034 A 
ATOM     54  C   UNL A   1      44.187  32.498  31.918  1.00  0.00     0.049 A 
ATOM     55  C   UNL A   1      47.054  27.977  29.498  1.00  0.00     0.074 A 
ATOM     56  C   UNL A   1      44.655  31.829  33.062  1.00  0.00     0.029 A 
ATOM     57  N   UNL A   1      45.224  32.329  30.992  1.00  0.00    -0.354 N 
ATOM     58  N   UNL A   1      46.793  28.850  30.451  1.00  0.00    -0.248 NA
ATOM     59  C   UNL A   1      48.355  28.206  28.877  1.00  0.00     0.031 C 
ATOM     60  C   UNL A   1      45.898  31.200  32.798  1.00  0.00     0.029 A 
ATOM     61  C   UNL A   1      46.246  31.493  31.496  1.00  0.00     0.049 A 
ATOM     62  H   UNL A   1      45.239  32.742  30.098  1.00  0.00     0.167 HD
ATOM     63  C   UNL A   1      47.687  29.909  30.310  1.00  0.00     0.074 A 
ATOM     64  C   UNL A   1      48.745  29.333  29.490  1.00  0.00     0.031 C 
ATOM     65  C   UNL A   1      47.468  31.209  30.732  1.00  0.00     0.034 A 
BRANCH  52  66
ATOM     66  C   UNL A   1      42.343  34.141  32.800  1.00  0.00     0.023 A 
ATOM     67  C   UNL A   1      42.914  35.446  32.975  1.00  0.00     0.031 A 
ATOM     68  C   UNL A   1      41.440  33.792  33.814  1.00  0.00     0.131 A 
ATOM     69  C   UNL A   1      42.730  36.228  34.140  1.00  0.00     0.055 A 
ATOM     70  C   UNL A   1      41.207  34.597  34.954  1.00  0.00     0.041 A 
ATOM     71  F   UNL A   1      40.722  32.667  33.755  1.00  0.00    -0.206 F 
ATOM     72  C   UNL A   1      41.872  35.804  35.138  1.00  0.00     0.022 A 
BRANCH  69  73
ATOM     73  S   UNL A   1      43.664  37.785  34.369  1.00  0.00     0.124 S 
ATOM     74  O   UNL A   1      42.873  38.737  33.596  1.00  0.00    -0.237 OA
ATOM     75  O   UNL A   1      43.655  37.961  35.816  1.00  0.00    -0.237 OA
ATOM     76  O   UNL A   1      44.978  37.479  33.799  1.00  0.00    -0.744 OA
ENDBRANCH  69  73
ENDBRANCH  52  66
BRANCH  53  77
ATOM     77  C   UNL A   1      46.029  26.143  27.717  1.00  0.00     0.023 A 
ATOM     78  C   UNL A   1      46.284  26.959  26.577  1.00  0.00     0.031 A 
ATOM     79  C   UNL A   1      46.213  24.763  27.574  1.00  0.00     0.131 A 
ATOM     80  C   UNL A   1      46.883  26.423  25.425  1.00  0.00     0.055 A 
ATOM     81  C   UNL A   1      46.746  24.220  26.391  1.00  0.00     0.041 A 
ATOM     82  F   UNL A   1      46.022  23.938  28.613  1.00  0.00    -0.206 F 
ATOM     83  C   UNL A   1      47.124  25.052  25.330  1.00  0.00     0.022 A 
BRANCH  80  84
ATOM     84  S   UNL A   1      47.625  27.542  24.185  1.00  0.00     0.124 S 
ATOM     85  O   UNL A   1      47.909  26.636  23.079  1.00  0.00    -0.237 OA
ATOM     86  O   UNL A   1      46.577  28.531  23.946  1.00  0.00    -0.237 OA
ATOM     87  O   UNL A   1      48.790  28.071  24.886  1.00  0.00    -0.744 OA
ENDBRANCH  80  84
ENDBRANCH  53  77
BRANCH  65  88
ATOM     88  C   UNL A   1      48.430  32.384  30.521  1.00  0.00     0.023 A 
ATOM     89  C   UNL A   1      49.235  32.943  31.523  1.00  0.00     0.031 A 
ATOM     90  C   UNL A   1      48.571  32.984  29.242  1.00  0.00     0.131 A 
ATOM     91  C   UNL A   1      50.022  34.088  31.286  1.00  0.00     0.055 A 
ATOM     92  C   UNL A   1      49.435  34.054  28.981  1.00  0.00     0.041 A 
ATOM     93  F   UNL A   1      47.873  32.566  28.176  1.00  0.00    -0.206 F 
ATOM     94  C   UNL A   1      50.151  34.632  30.014  1.00  0.00     0.022 A 
BRANCH  91  95
ATOM     95  S   UNL A   1      50.798  34.904  32.707  1.00  0.00     0.124 S 
ATOM     96  O   UNL A   1      51.275  36.151  32.114  1.00  0.00    -0.237 OA
ATOM     97  O   UNL A   1      49.687  35.035  33.643  1.00  0.00    -0.237 OA
ATOM     98  O   UNL A   1      51.846  33.971  33.113  1.00  0.00    -0.744 OA
ENDBRANCH  91  95
ENDBRANCH  65  88
ENDBRANCH  39  40
ENDBRANCH  32  34
ENDBRANCH  31  32
ENDBRANCH  30  31
ENDBRANCH  29  30
ENDBRANCH  28  29
ENDBRANCH  27  28
ENDBRANCH   1  27
TORSDOF 25
ENDMDL
