MODEL 1
REMARK VINA RESULT:     -11.5      0.000      0.000
REMARK SMILES O=C(OCCOCCOCCOC(=O)c1cccn(Cc2ccc3c(c2)OC(F)(F)O3)c1=O)c1ccc(-c2c3nc(c(-c4cc(S(=O)(=O)[O-])ccc4F)c4ccc([nH]4)c(-c4cc(S(=O)(=O)[O-])ccc4F)c4nc(c(-c5cc(S(=O)(=O)[O-])ccc5F)c5ccc2[nH]5)C=C4)C=C3)cc1
REMARK SMILES IDX 7 1 6 2 5 3 4 4 3 5 2 6 1 7 34 8 35 9 96 10 36 11 95 12
REMARK SMILES IDX 37 13 38 14 39 15 89 16 40 17 94 18 88 19 90 20 41 21 93 22
REMARK SMILES IDX 87 23 86 24 42 26 74 27 54 28 73 29 55 30 58 31 72 32 91 33
REMARK SMILES IDX 56 34 57 35 71 37 92 38 59 39 43 40 44 41 52 42 45 43 51 44
REMARK SMILES IDX 53 45 50 46 46 47 47 48 48 49 49 50 75 51 76 52 84 53 77 54
REMARK SMILES IDX 83 55 85 56 82 57 78 58 79 59 80 60 81 61 60 62 61 63 69 64
REMARK SMILES IDX 62 65 68 66 70 67 67 68 63 69 64 70 65 71 66 72 8 73 9 74
REMARK SMILES IDX 10 75 11 76 12 77 13 78 14 79 15 80 16 81 32 82 17 83 19 84
REMARK SMILES IDX 33 85 18 86 20 87 21 88 22 89 26 90 23 91 25 92 24 93 27 94
REMARK SMILES IDX 31 95 28 96 29 97 30 98
REMARK H PARENT 90 25 58 36
REMARK Flexibility Score: inf
ROOT
ATOM      1  C   UNL A   1      35.508  23.902  23.962  1.00  0.00     0.188 C 
ENDROOT
BRANCH   1   2
ATOM      2  O   UNL A   1      36.620  23.083  23.583  1.00  0.00    -0.376 OA
BRANCH   2   3
ATOM      3  C   UNL A   1      36.605  21.795  24.208  1.00  0.00     0.202 C 
BRANCH   3   4
ATOM      4  C   UNL A   1      37.286  21.729  25.582  1.00  0.00     0.261 C 
BRANCH   4   5
ATOM      5  O   UNL A   1      38.625  21.215  25.540  1.00  0.00    -0.460 OA
BRANCH   5   6
ATOM      6  C   UNL A   1      39.700  21.554  26.291  1.00  0.00     0.338 C 
ATOM      7  O   UNL A   1      40.461  20.642  26.620  1.00  0.00    -0.246 OA
BRANCH   6   8
ATOM      8  C   UNL A   1      40.022  22.940  26.787  1.00  0.00     0.060 A 
ATOM      9  C   UNL A   1      40.867  23.018  27.910  1.00  0.00     0.016 A 
ATOM     10  C   UNL A   1      39.566  24.148  26.252  1.00  0.00     0.016 A 
ATOM     11  C   UNL A   1      41.247  24.251  28.459  1.00  0.00     0.010 A 
ATOM     12  C   UNL A   1      39.963  25.382  26.775  1.00  0.00     0.010 A 
ATOM     13  C   UNL A   1      40.809  25.448  27.879  1.00  0.00    -0.014 A 
BRANCH  13  14
ATOM     14  C   UNL A   1      41.395  26.750  28.270  1.00  0.00     0.031 A 
ATOM     15  C   UNL A   1      42.851  27.066  28.108  1.00  0.00     0.074 A 
ATOM     16  C   UNL A   1      40.583  27.623  28.895  1.00  0.00     0.049 A 
ATOM     17  N   UNL A   1      43.439  28.231  28.175  1.00  0.00    -0.248 NA
ATOM     18  C   UNL A   1      43.774  25.951  27.851  1.00  0.00     0.031 C 
ATOM     19  C   UNL A   1      39.186  27.358  29.249  1.00  0.00     0.029 A 
ATOM     20  N   UNL A   1      40.814  28.885  29.371  1.00  0.00    -0.354 N 
ATOM     21  C   UNL A   1      44.776  28.006  27.868  1.00  0.00     0.074 A 
ATOM     22  C   UNL A   1      44.941  26.580  27.738  1.00  0.00     0.031 C 
ATOM     23  C   UNL A   1      38.686  28.423  29.889  1.00  0.00     0.029 A 
ATOM     24  C   UNL A   1      39.722  29.447  29.987  1.00  0.00     0.049 A 
ATOM     25  H   UNL A   1      41.679  29.347  29.281  1.00  0.00     0.167 HD
ATOM     26  C   UNL A   1      45.745  28.930  27.673  1.00  0.00     0.034 A 
ATOM     27  C   UNL A   1      39.565  30.662  30.548  1.00  0.00     0.034 A 
ATOM     28  C   UNL A   1      45.575  30.321  27.982  1.00  0.00     0.049 A 
ATOM     29  C   UNL A   1      40.693  31.652  30.424  1.00  0.00     0.074 A 
ATOM     30  C   UNL A   1      46.494  31.340  27.826  1.00  0.00     0.029 A 
ATOM     31  N   UNL A   1      44.449  30.868  28.572  1.00  0.00    -0.354 N 
ATOM     32  N   UNL A   1      41.862  31.496  29.846  1.00  0.00    -0.248 NA
ATOM     33  C   UNL A   1      40.476  32.991  30.984  1.00  0.00     0.031 C 
ATOM     34  C   UNL A   1      45.950  32.492  28.390  1.00  0.00     0.029 A 
ATOM     35  C   UNL A   1      44.668  32.205  28.839  1.00  0.00     0.049 A 
ATOM     36  H   UNL A   1      43.619  30.379  28.771  1.00  0.00     0.167 HD
ATOM     37  C   UNL A   1      42.500  32.729  29.932  1.00  0.00     0.074 A 
ATOM     38  C   UNL A   1      41.583  33.621  30.610  1.00  0.00     0.031 C 
ATOM     39  C   UNL A   1      43.730  33.089  29.486  1.00  0.00     0.034 A 
BRANCH  26  40
ATOM     40  C   UNL A   1      47.047  28.548  27.024  1.00  0.00     0.023 A 
ATOM     41  C   UNL A   1      47.167  28.368  25.638  1.00  0.00     0.031 A 
ATOM     42  C   UNL A   1      48.096  28.094  27.846  1.00  0.00     0.131 A 
ATOM     43  C   UNL A   1      48.326  27.763  25.121  1.00  0.00     0.055 A 
ATOM     44  C   UNL A   1      49.267  27.544  27.326  1.00  0.00     0.041 A 
ATOM     45  F   UNL A   1      47.972  28.141  29.183  1.00  0.00    -0.206 F 
ATOM     46  C   UNL A   1      49.383  27.371  25.953  1.00  0.00     0.022 A 
BRANCH  43  47
ATOM     47  S   UNL A   1      48.445  27.310  23.366  1.00  0.00     0.124 S 
ATOM     48  O   UNL A   1      47.354  28.084  22.781  1.00  0.00    -0.237 OA
ATOM     49  O   UNL A   1      49.789  27.765  23.020  1.00  0.00    -0.237 OA
ATOM     50  O   UNL A   1      48.255  25.864  23.369  1.00  0.00    -0.744 OA
ENDBRANCH  43  47
ENDBRANCH  26  40
BRANCH  27  51
ATOM     51  C   UNL A   1      38.245  31.011  31.145  1.00  0.00     0.023 A 
ATOM     52  C   UNL A   1      37.244  31.631  30.373  1.00  0.00     0.031 A 
ATOM     53  C   UNL A   1      38.024  30.871  32.525  1.00  0.00     0.131 A 
ATOM     54  C   UNL A   1      36.100  32.146  30.999  1.00  0.00     0.055 A 
ATOM     55  C   UNL A   1      36.852  31.324  33.133  1.00  0.00     0.041 A 
ATOM     56  F   UNL A   1      38.962  30.313  33.306  1.00  0.00    -0.206 F 
ATOM     57  C   UNL A   1      35.892  31.982  32.372  1.00  0.00     0.022 A 
BRANCH  54  58
ATOM     58  S   UNL A   1      34.923  33.180  30.080  1.00  0.00     0.124 S 
ATOM     59  O   UNL A   1      35.811  34.114  29.396  1.00  0.00    -0.237 OA
ATOM     60  O   UNL A   1      34.262  32.196  29.226  1.00  0.00    -0.237 OA
ATOM     61  O   UNL A   1      34.081  33.755  31.125  1.00  0.00    -0.744 OA
ENDBRANCH  54  58
ENDBRANCH  27  51
BRANCH  39  62
ATOM     62  C   UNL A   1      44.191  34.507  29.689  1.00  0.00     0.023 A 
ATOM     63  C   UNL A   1      44.125  35.416  28.616  1.00  0.00     0.031 A 
ATOM     64  C   UNL A   1      44.877  34.893  30.852  1.00  0.00     0.131 A 
ATOM     65  C   UNL A   1      44.787  36.644  28.704  1.00  0.00     0.055 A 
ATOM     66  C   UNL A   1      45.483  36.145  30.958  1.00  0.00     0.041 A 
ATOM     67  F   UNL A   1      44.984  34.051  31.893  1.00  0.00    -0.206 F 
ATOM     68  C   UNL A   1      45.459  37.017  29.873  1.00  0.00     0.022 A 
BRANCH  65  69
ATOM     69  S   UNL A   1      44.921  37.731  27.258  1.00  0.00     0.124 S 
ATOM     70  O   UNL A   1      45.587  38.902  27.825  1.00  0.00    -0.237 OA
ATOM     71  O   UNL A   1      45.732  36.932  26.344  1.00  0.00    -0.237 OA
ATOM     72  O   UNL A   1      43.537  37.941  26.846  1.00  0.00    -0.744 OA
ENDBRANCH  65  69
ENDBRANCH  39  62
ENDBRANCH  13  14
ENDBRANCH   6   8
ENDBRANCH   5   6
ENDBRANCH   4   5
ENDBRANCH   3   4
ENDBRANCH   2   3
ENDBRANCH   1   2
BRANCH   1  73
ATOM     73  C   UNL A   1      34.261  23.641  23.111  1.00  0.00     0.188 C 
BRANCH  73  74
ATOM     74  O   UNL A   1      33.937  24.627  22.135  1.00  0.00    -0.376 OA
BRANCH  74  75
ATOM     75  C   UNL A   1      32.560  24.820  21.816  1.00  0.00     0.202 C 
BRANCH  75  76
ATOM     76  C   UNL A   1      32.143  26.165  21.209  1.00  0.00     0.261 C 
BRANCH  76  77
ATOM     77  O   UNL A   1      32.231  27.269  22.121  1.00  0.00    -0.459 OA
BRANCH  77  78
ATOM     78  C   UNL A   1      31.042  27.692  22.612  1.00  0.00     0.343 C 
ATOM     79  O   UNL A   1      30.103  28.147  21.960  1.00  0.00    -0.246 OA
BRANCH  78  80
ATOM     80  C   UNL A   1      30.967  27.487  24.057  1.00  0.00     0.125 A 
ATOM     81  C   UNL A   1      31.480  28.384  24.918  1.00  0.00     0.023 A 
ATOM     82  C   UNL A   1      30.468  26.185  24.552  1.00  0.00     0.265 A 
ATOM     83  C   UNL A   1      31.585  28.076  26.322  1.00  0.00     0.019 A 
ATOM     84  N   UNL A   1      30.719  25.916  25.897  1.00  0.00    -0.310 N 
ATOM     85  O   UNL A   1      29.873  25.430  23.790  1.00  0.00    -0.268 OA
ATOM     86  C   UNL A   1      31.243  26.860  26.761  1.00  0.00     0.089 A 
BRANCH  84  87
ATOM     87  C   UNL A   1      30.351  24.610  26.410  1.00  0.00     0.161 C 
BRANCH  87  88
ATOM     88  C   UNL A   1      31.418  23.563  26.200  1.00  0.00    -0.024 A 
ATOM     89  C   UNL A   1      32.658  23.672  26.868  1.00  0.00     0.010 A 
ATOM     90  C   UNL A   1      31.137  22.425  25.426  1.00  0.00     0.056 A 
ATOM     91  C   UNL A   1      33.600  22.642  26.802  1.00  0.00     0.051 A 
ATOM     92  C   UNL A   1      32.074  21.420  25.395  1.00  0.00     0.173 A 
ATOM     93  C   UNL A   1      33.269  21.522  26.073  1.00  0.00     0.172 A 
ATOM     94  O   UNL A   1      31.931  20.224  24.763  1.00  0.00    -0.395 OA
ATOM     95  O   UNL A   1      34.022  20.393  25.960  1.00  0.00    -0.395 OA
ATOM     96  C   UNL A   1      33.073  19.547  25.293  1.00  0.00     0.586 C 
ATOM     97  F   UNL A   1      32.651  18.600  26.168  1.00  0.00    -0.125 F 
ATOM     98  F   UNL A   1      33.708  18.905  24.280  1.00  0.00    -0.125 F 
ENDBRANCH  87  88
ENDBRANCH  84  87
ENDBRANCH  78  80
ENDBRANCH  77  78
ENDBRANCH  76  77
ENDBRANCH  75  76
ENDBRANCH  74  75
ENDBRANCH  73  74
ENDBRANCH   1  73
TORSDOF 22
ENDMDL
MODEL 2
REMARK VINA RESULT:     -11.0      4.595      8.951
REMARK SMILES O=C(OCCOCCOCCOC(=O)c1cccn(Cc2ccc3c(c2)OC(F)(F)O3)c1=O)c1ccc(-c2c3nc(c(-c4cc(S(=O)(=O)[O-])ccc4F)c4ccc([nH]4)c(-c4cc(S(=O)(=O)[O-])ccc4F)c4nc(c(-c5cc(S(=O)(=O)[O-])ccc5F)c5ccc2[nH]5)C=C4)C=C3)cc1
REMARK SMILES IDX 7 1 6 2 5 3 4 4 3 5 2 6 1 7 34 8 35 9 96 10 36 11 95 12
REMARK SMILES IDX 37 13 38 14 39 15 89 16 40 17 94 18 88 19 90 20 41 21 93 22
REMARK SMILES IDX 87 23 86 24 42 26 74 27 54 28 73 29 55 30 58 31 72 32 91 33
REMARK SMILES IDX 56 34 57 35 71 37 92 38 59 39 43 40 44 41 52 42 45 43 51 44
REMARK SMILES IDX 53 45 50 46 46 47 47 48 48 49 49 50 75 51 76 52 84 53 77 54
REMARK SMILES IDX 83 55 85 56 82 57 78 58 79 59 80 60 81 61 60 62 61 63 69 64
REMARK SMILES IDX 62 65 68 66 70 67 67 68 63 69 64 70 65 71 66 72 8 73 9 74
REMARK SMILES IDX 10 75 11 76 12 77 13 78 14 79 15 80 16 81 32 82 17 83 19 84
REMARK SMILES IDX 33 85 18 86 20 87 21 88 22 89 26 90 23 91 25 92 24 93 27 94
REMARK SMILES IDX 31 95 28 96 29 97 30 98
REMARK H PARENT 90 25 58 36
REMARK Flexibility Score: inf
ROOT
ATOM      1  C   UNL A   1      39.134  22.254  26.460  1.00  0.00     0.188 C 
ENDROOT
BRANCH   1   2
ATOM      2  O   UNL A   1      39.721  21.231  25.648  1.00  0.00    -0.376 OA
BRANCH   2   3
ATOM      3  C   UNL A   1      40.781  20.531  26.308  1.00  0.00     0.202 C 
BRANCH   3   4
ATOM      4  C   UNL A   1      42.100  21.308  26.427  1.00  0.00     0.261 C 
BRANCH   4   5
ATOM      5  O   UNL A   1      42.349  22.196  25.329  1.00  0.00    -0.460 OA
BRANCH   5   6
ATOM      6  C   UNL A   1      42.953  23.409  25.324  1.00  0.00     0.338 C 
ATOM      7  O   UNL A   1      43.934  23.541  24.589  1.00  0.00    -0.246 OA
BRANCH   6   8
ATOM      8  C   UNL A   1      42.550  24.593  26.164  1.00  0.00     0.060 A 
ATOM      9  C   UNL A   1      41.340  24.470  26.874  1.00  0.00     0.016 A 
ATOM     10  C   UNL A   1      43.248  25.795  26.307  1.00  0.00     0.016 A 
ATOM     11  C   UNL A   1      40.863  25.500  27.697  1.00  0.00     0.010 A 
ATOM     12  C   UNL A   1      42.794  26.815  27.147  1.00  0.00     0.010 A 
ATOM     13  C   UNL A   1      41.602  26.679  27.854  1.00  0.00    -0.014 A 
BRANCH  13  14
ATOM     14  C   UNL A   1      41.261  27.664  28.904  1.00  0.00     0.031 A 
ATOM     15  C   UNL A   1      40.161  28.669  28.748  1.00  0.00     0.074 A 
ATOM     16  C   UNL A   1      42.061  27.705  29.987  1.00  0.00     0.049 A 
ATOM     17  N   UNL A   1      39.603  29.408  29.670  1.00  0.00    -0.248 NA
ATOM     18  C   UNL A   1      39.617  28.892  27.401  1.00  0.00     0.031 C 
ATOM     19  C   UNL A   1      43.257  26.881  30.173  1.00  0.00     0.029 A 
ATOM     20  N   UNL A   1      42.014  28.483  31.112  1.00  0.00    -0.354 N 
ATOM     21  C   UNL A   1      38.579  30.105  29.037  1.00  0.00     0.074 A 
ATOM     22  C   UNL A   1      38.671  29.798  27.632  1.00  0.00     0.031 C 
ATOM     23  C   UNL A   1      43.833  27.200  31.339  1.00  0.00     0.029 A 
ATOM     24  C   UNL A   1      43.047  28.246  31.986  1.00  0.00     0.049 A 
ATOM     25  H   UNL A   1      41.308  29.150  31.278  1.00  0.00     0.167 HD
ATOM     26  C   UNL A   1      37.635  30.886  29.612  1.00  0.00     0.034 A 
ATOM     27  C   UNL A   1      43.317  28.793  33.188  1.00  0.00     0.034 A 
ATOM     28  C   UNL A   1      37.688  31.299  30.984  1.00  0.00     0.049 A 
ATOM     29  C   UNL A   1      42.313  29.750  33.774  1.00  0.00     0.074 A 
ATOM     30  C   UNL A   1      36.785  32.093  31.664  1.00  0.00     0.029 A 
ATOM     31  N   UNL A   1      38.725  31.016  31.855  1.00  0.00    -0.354 N 
ATOM     32  N   UNL A   1      41.177  30.164  33.261  1.00  0.00    -0.248 NA
ATOM     33  C   UNL A   1      42.595  30.283  35.111  1.00  0.00     0.031 C 
ATOM     34  C   UNL A   1      37.313  32.351  32.927  1.00  0.00     0.029 A 
ATOM     35  C   UNL A   1      38.514  31.666  33.056  1.00  0.00     0.049 A 
ATOM     36  H   UNL A   1      39.496  30.440  31.651  1.00  0.00     0.167 HD
ATOM     37  C   UNL A   1      40.588  30.967  34.230  1.00  0.00     0.074 A 
ATOM     38  C   UNL A   1      41.490  30.974  35.364  1.00  0.00     0.031 C 
ATOM     39  C   UNL A   1      39.407  31.635  34.187  1.00  0.00     0.034 A 
BRANCH  26  40
ATOM     40  C   UNL A   1      36.409  31.294  28.842  1.00  0.00     0.023 A 
ATOM     41  C   UNL A   1      35.922  32.610  28.853  1.00  0.00     0.031 A 
ATOM     42  C   UNL A   1      35.577  30.282  28.324  1.00  0.00     0.131 A 
ATOM     43  C   UNL A   1      34.641  32.872  28.337  1.00  0.00     0.055 A 
ATOM     44  C   UNL A   1      34.330  30.555  27.764  1.00  0.00     0.041 A 
ATOM     45  F   UNL A   1      35.956  28.995  28.401  1.00  0.00    -0.206 F 
ATOM     46  C   UNL A   1      33.854  31.859  27.774  1.00  0.00     0.022 A 
BRANCH  43  47
ATOM     47  S   UNL A   1      33.874  34.509  28.519  1.00  0.00     0.124 S 
ATOM     48  O   UNL A   1      34.653  35.312  27.581  1.00  0.00    -0.237 OA
ATOM     49  O   UNL A   1      32.492  34.250  28.121  1.00  0.00    -0.237 OA
ATOM     50  O   UNL A   1      34.069  34.828  29.929  1.00  0.00    -0.744 OA
ENDBRANCH  43  47
ENDBRANCH  26  40
BRANCH  27  51
ATOM     51  C   UNL A   1      44.522  28.329  33.932  1.00  0.00     0.023 A 
ATOM     52  C   UNL A   1      45.774  28.943  33.734  1.00  0.00     0.031 A 
ATOM     53  C   UNL A   1      44.470  27.174  34.729  1.00  0.00     0.131 A 
ATOM     54  C   UNL A   1      46.929  28.359  34.272  1.00  0.00     0.055 A 
ATOM     55  C   UNL A   1      45.615  26.636  35.319  1.00  0.00     0.041 A 
ATOM     56  F   UNL A   1      43.304  26.539  34.922  1.00  0.00    -0.206 F 
ATOM     57  C   UNL A   1      46.854  27.217  35.076  1.00  0.00     0.022 A 
BRANCH  54  58
ATOM     58  S   UNL A   1      48.578  28.968  33.817  1.00  0.00     0.124 S 
ATOM     59  O   UNL A   1      49.435  28.258  34.760  1.00  0.00    -0.237 OA
ATOM     60  O   UNL A   1      48.681  28.542  32.423  1.00  0.00    -0.237 OA
ATOM     61  O   UNL A   1      48.478  30.411  34.014  1.00  0.00    -0.744 OA
ENDBRANCH  54  58
ENDBRANCH  27  51
BRANCH  39  62
ATOM     62  C   UNL A   1      38.979  32.435  35.388  1.00  0.00     0.023 A 
ATOM     63  C   UNL A   1      39.421  33.764  35.527  1.00  0.00     0.031 A 
ATOM     64  C   UNL A   1      38.324  31.830  36.473  1.00  0.00     0.131 A 
ATOM     65  C   UNL A   1      39.258  34.426  36.747  1.00  0.00     0.055 A 
ATOM     66  C   UNL A   1      38.108  32.517  37.667  1.00  0.00     0.041 A 
ATOM     67  F   UNL A   1      37.904  30.557  36.393  1.00  0.00    -0.206 F 
ATOM     68  C   UNL A   1      38.596  33.813  37.816  1.00  0.00     0.022 A 
BRANCH  65  69
ATOM     69  S   UNL A   1      40.024  36.045  37.034  1.00  0.00     0.124 S 
ATOM     70  O   UNL A   1      39.788  36.718  35.758  1.00  0.00    -0.237 OA
ATOM     71  O   UNL A   1      39.252  36.558  38.163  1.00  0.00    -0.237 OA
ATOM     72  O   UNL A   1      41.419  35.729  37.323  1.00  0.00    -0.744 OA
ENDBRANCH  65  69
ENDBRANCH  39  62
ENDBRANCH  13  14
ENDBRANCH   6   8
ENDBRANCH   5   6
ENDBRANCH   4   5
ENDBRANCH   3   4
ENDBRANCH   2   3
ENDBRANCH   1   2
BRANCH   1  73
ATOM     73  C   UNL A   1      37.706  22.604  26.035  1.00  0.00     0.188 C 
BRANCH  73  74
ATOM     74  O   UNL A   1      37.487  22.816  24.643  1.00  0.00    -0.376 OA
BRANCH  74  75
ATOM     75  C   UNL A   1      36.432  22.089  24.017  1.00  0.00     0.202 C 
BRANCH  75  76
ATOM     76  C   UNL A   1      35.545  21.201  24.898  1.00  0.00     0.261 C 
BRANCH  76  77
ATOM     77  O   UNL A   1      34.225  21.721  25.108  1.00  0.00    -0.459 OA
BRANCH  77  78
ATOM     78  C   UNL A   1      33.945  22.053  26.391  1.00  0.00     0.343 C 
ATOM     79  O   UNL A   1      34.392  21.509  27.400  1.00  0.00    -0.246 OA
BRANCH  78  80
ATOM     80  C   UNL A   1      33.064  23.217  26.452  1.00  0.00     0.125 A 
ATOM     81  C   UNL A   1      31.745  23.084  26.681  1.00  0.00     0.023 A 
ATOM     82  C   UNL A   1      33.623  24.537  26.084  1.00  0.00     0.265 A 
ATOM     83  C   UNL A   1      30.858  24.211  26.535  1.00  0.00     0.019 A 
ATOM     84  N   UNL A   1      32.688  25.541  25.843  1.00  0.00    -0.310 N 
ATOM     85  O   UNL A   1      34.840  24.686  26.017  1.00  0.00    -0.268 OA
ATOM     86  C   UNL A   1      31.337  25.378  26.092  1.00  0.00     0.089 A 
BRANCH  84  87
ATOM     87  C   UNL A   1      33.173  26.825  25.372  1.00  0.00     0.161 C 
BRANCH  87  88
ATOM     88  C   UNL A   1      32.271  27.464  24.344  1.00  0.00    -0.024 A 
ATOM     89  C   UNL A   1      32.009  26.803  23.124  1.00  0.00     0.010 A 
ATOM     90  C   UNL A   1      31.607  28.664  24.647  1.00  0.00     0.056 A 
ATOM     91  C   UNL A   1      31.066  27.306  22.224  1.00  0.00     0.051 A 
ATOM     92  C   UNL A   1      30.671  29.125  23.753  1.00  0.00     0.173 A 
ATOM     93  C   UNL A   1      30.400  28.459  22.578  1.00  0.00     0.172 A 
ATOM     94  O   UNL A   1      29.885  30.222  23.924  1.00  0.00    -0.395 OA
ATOM     95  O   UNL A   1      29.399  29.050  21.870  1.00  0.00    -0.395 OA
ATOM     96  C   UNL A   1      28.984  30.033  22.830  1.00  0.00     0.586 C 
ATOM     97  F   UNL A   1      27.772  29.671  23.322  1.00  0.00    -0.125 F 
ATOM     98  F   UNL A   1      28.821  31.218  22.190  1.00  0.00    -0.125 F 
ENDBRANCH  87  88
ENDBRANCH  84  87
ENDBRANCH  78  80
ENDBRANCH  77  78
ENDBRANCH  76  77
ENDBRANCH  75  76
ENDBRANCH  74  75
ENDBRANCH  73  74
ENDBRANCH   1  73
TORSDOF 22
ENDMDL
MODEL 3
REMARK VINA RESULT:     -10.9      2.724      4.285
REMARK SMILES O=C(OCCOCCOCCOC(=O)c1cccn(Cc2ccc3c(c2)OC(F)(F)O3)c1=O)c1ccc(-c2c3nc(c(-c4cc(S(=O)(=O)[O-])ccc4F)c4ccc([nH]4)c(-c4cc(S(=O)(=O)[O-])ccc4F)c4nc(c(-c5cc(S(=O)(=O)[O-])ccc5F)c5ccc2[nH]5)C=C4)C=C3)cc1
REMARK SMILES IDX 7 1 6 2 5 3 4 4 3 5 2 6 1 7 34 8 35 9 96 10 36 11 95 12
REMARK SMILES IDX 37 13 38 14 39 15 89 16 40 17 94 18 88 19 90 20 41 21 93 22
REMARK SMILES IDX 87 23 86 24 42 26 74 27 54 28 73 29 55 30 58 31 72 32 91 33
REMARK SMILES IDX 56 34 57 35 71 37 92 38 59 39 43 40 44 41 52 42 45 43 51 44
REMARK SMILES IDX 53 45 50 46 46 47 47 48 48 49 49 50 75 51 76 52 84 53 77 54
REMARK SMILES IDX 83 55 85 56 82 57 78 58 79 59 80 60 81 61 60 62 61 63 69 64
REMARK SMILES IDX 62 65 68 66 70 67 67 68 63 69 64 70 65 71 66 72 8 73 9 74
REMARK SMILES IDX 10 75 11 76 12 77 13 78 14 79 15 80 16 81 32 82 17 83 19 84
REMARK SMILES IDX 33 85 18 86 20 87 21 88 22 89 26 90 23 91 25 92 24 93 27 94
REMARK SMILES IDX 31 95 28 96 29 97 30 98
REMARK H PARENT 90 25 58 36
REMARK Flexibility Score: inf
ROOT
ATOM      1  C   UNL A   1      35.531  23.209  23.472  1.00  0.00     0.188 C 
ENDROOT
BRANCH   1   2
ATOM      2  O   UNL A   1      36.470  23.403  24.536  1.00  0.00    -0.376 OA
BRANCH   2   3
ATOM      3  C   UNL A   1      36.354  22.422  25.570  1.00  0.00     0.202 C 
BRANCH   3   4
ATOM      4  C   UNL A   1      37.502  21.405  25.636  1.00  0.00     0.261 C 
BRANCH   4   5
ATOM      5  O   UNL A   1      38.806  22.001  25.603  1.00  0.00    -0.460 OA
BRANCH   5   6
ATOM      6  C   UNL A   1      39.570  22.456  26.624  1.00  0.00     0.338 C 
ATOM      7  O   UNL A   1      40.084  21.609  27.358  1.00  0.00    -0.246 OA
BRANCH   6   8
ATOM      8  C   UNL A   1      39.814  23.905  26.958  1.00  0.00     0.060 A 
ATOM      9  C   UNL A   1      39.651  24.267  28.310  1.00  0.00     0.016 A 
ATOM     10  C   UNL A   1      40.179  24.920  26.070  1.00  0.00     0.016 A 
ATOM     11  C   UNL A   1      39.859  25.583  28.747  1.00  0.00     0.010 A 
ATOM     12  C   UNL A   1      40.416  26.228  26.503  1.00  0.00     0.010 A 
ATOM     13  C   UNL A   1      40.263  26.573  27.843  1.00  0.00    -0.014 A 
BRANCH  13  14
ATOM     14  C   UNL A   1      40.738  27.894  28.313  1.00  0.00     0.031 A 
ATOM     15  C   UNL A   1      42.191  28.243  28.420  1.00  0.00     0.074 A 
ATOM     16  C   UNL A   1      39.805  28.755  28.760  1.00  0.00     0.049 A 
ATOM     17  N   UNL A   1      42.730  29.424  28.574  1.00  0.00    -0.248 NA
ATOM     18  C   UNL A   1      43.170  27.149  28.358  1.00  0.00     0.031 C 
ATOM     19  C   UNL A   1      38.372  28.460  28.853  1.00  0.00     0.029 A 
ATOM     20  N   UNL A   1      39.915  30.029  29.248  1.00  0.00    -0.354 N 
ATOM     21  C   UNL A   1      44.106  29.228  28.525  1.00  0.00     0.074 A 
ATOM     22  C   UNL A   1      44.323  27.804  28.453  1.00  0.00     0.031 C 
ATOM     23  C   UNL A   1      37.739  29.521  29.370  1.00  0.00     0.029 A 
ATOM     24  C   UNL A   1      38.715  30.572  29.641  1.00  0.00     0.049 A 
ATOM     25  H   UNL A   1      40.772  30.510  29.313  1.00  0.00     0.167 HD
ATOM     26  C   UNL A   1      45.074  30.173  28.498  1.00  0.00     0.034 A 
ATOM     27  C   UNL A   1      38.430  31.790  30.141  1.00  0.00     0.034 A 
ATOM     28  C   UNL A   1      44.819  31.563  28.745  1.00  0.00     0.049 A 
ATOM     29  C   UNL A   1      39.539  32.806  30.212  1.00  0.00     0.074 A 
ATOM     30  C   UNL A   1      45.729  32.603  28.744  1.00  0.00     0.029 A 
ATOM     31  N   UNL A   1      43.591  32.090  29.105  1.00  0.00    -0.354 N 
ATOM     32  N   UNL A   1      40.799  32.671  29.864  1.00  0.00    -0.248 NA
ATOM     33  C   UNL A   1      39.193  34.146  30.698  1.00  0.00     0.031 C 
ATOM     34  C   UNL A   1      45.064  33.748  29.176  1.00  0.00     0.029 A 
ATOM     35  C   UNL A   1      43.727  33.436  29.384  1.00  0.00     0.049 A 
ATOM     36  H   UNL A   1      42.749  31.583  29.154  1.00  0.00     0.167 HD
ATOM     37  C   UNL A   1      41.383  33.920  30.045  1.00  0.00     0.074 A 
ATOM     38  C   UNL A   1      40.335  34.798  30.525  1.00  0.00     0.031 C 
ATOM     39  C   UNL A   1      42.666  34.305  29.830  1.00  0.00     0.034 A 
BRANCH  26  40
ATOM     40  C   UNL A   1      46.482  29.815  28.109  1.00  0.00     0.023 A 
ATOM     41  C   UNL A   1      46.799  29.285  26.849  1.00  0.00     0.031 A 
ATOM     42  C   UNL A   1      47.460  29.752  29.121  1.00  0.00     0.131 A 
ATOM     43  C   UNL A   1      48.073  28.730  26.637  1.00  0.00     0.055 A 
ATOM     44  C   UNL A   1      48.740  29.250  28.891  1.00  0.00     0.041 A 
ATOM     45  F   UNL A   1      47.160  30.141  30.371  1.00  0.00    -0.206 F 
ATOM     46  C   UNL A   1      49.049  28.730  27.641  1.00  0.00     0.022 A 
BRANCH  43  47
ATOM     47  S   UNL A   1      48.465  27.840  25.103  1.00  0.00     0.124 S 
ATOM     48  O   UNL A   1      49.812  28.322  24.812  1.00  0.00    -0.237 OA
ATOM     49  O   UNL A   1      48.379  26.444  25.524  1.00  0.00    -0.237 OA
ATOM     50  O   UNL A   1      47.430  28.278  24.174  1.00  0.00    -0.744 OA
ENDBRANCH  43  47
ENDBRANCH  26  40
BRANCH  27  51
ATOM     51  C   UNL A   1      37.014  32.114  30.476  1.00  0.00     0.023 A 
ATOM     52  C   UNL A   1      36.155  32.678  29.513  1.00  0.00     0.031 A 
ATOM     53  C   UNL A   1      36.549  32.007  31.797  1.00  0.00     0.131 A 
ATOM     54  C   UNL A   1      34.903  33.175  29.903  1.00  0.00     0.055 A 
ATOM     55  C   UNL A   1      35.274  32.440  32.165  1.00  0.00     0.041 A 
ATOM     56  F   UNL A   1      37.342  31.502  32.754  1.00  0.00    -0.206 F 
ATOM     57  C   UNL A   1      34.452  33.045  31.220  1.00  0.00     0.022 A 
BRANCH  54  58
ATOM     58  S   UNL A   1      33.888  34.144  28.750  1.00  0.00     0.124 S 
ATOM     59  O   UNL A   1      32.810  34.610  29.615  1.00  0.00    -0.237 OA
ATOM     60  O   UNL A   1      34.832  35.168  28.308  1.00  0.00    -0.237 OA
ATOM     61  O   UNL A   1      33.507  33.174  27.728  1.00  0.00    -0.744 OA
ENDBRANCH  54  58
ENDBRANCH  27  51
BRANCH  39  62
ATOM     62  C   UNL A   1      43.050  35.736  30.090  1.00  0.00     0.023 A 
ATOM     63  C   UNL A   1      43.037  36.660  29.028  1.00  0.00     0.031 A 
ATOM     64  C   UNL A   1      43.619  36.130  31.312  1.00  0.00     0.131 A 
ATOM     65  C   UNL A   1      43.639  37.911  29.188  1.00  0.00     0.055 A 
ATOM     66  C   UNL A   1      44.162  37.402  31.486  1.00  0.00     0.041 A 
ATOM     67  F   UNL A   1      43.672  35.275  32.347  1.00  0.00    -0.206 F 
ATOM     68  C   UNL A   1      44.194  38.291  30.414  1.00  0.00     0.022 A 
BRANCH  65  69
ATOM     69  S   UNL A   1      43.850  39.027  27.773  1.00  0.00     0.124 S 
ATOM     70  O   UNL A   1      44.374  40.230  28.416  1.00  0.00    -0.237 OA
ATOM     71  O   UNL A   1      44.803  38.296  26.942  1.00  0.00    -0.237 OA
ATOM     72  O   UNL A   1      42.505  39.152  27.219  1.00  0.00    -0.744 OA
ENDBRANCH  65  69
ENDBRANCH  39  62
ENDBRANCH  13  14
ENDBRANCH   6   8
ENDBRANCH   5   6
ENDBRANCH   4   5
ENDBRANCH   3   4
ENDBRANCH   2   3
ENDBRANCH   1   2
BRANCH   1  73
ATOM     73  C   UNL A   1      34.758  21.893  23.593  1.00  0.00     0.188 C 
BRANCH  73  74
ATOM     74  O   UNL A   1      33.342  21.993  23.716  1.00  0.00    -0.376 OA
BRANCH  74  75
ATOM     75  C   UNL A   1      32.690  21.119  24.635  1.00  0.00     0.202 C 
BRANCH  75  76
ATOM     76  C   UNL A   1      31.419  21.622  25.331  1.00  0.00     0.261 C 
BRANCH  76  77
ATOM     77  O   UNL A   1      31.664  22.321  26.559  1.00  0.00    -0.459 OA
BRANCH  77  78
ATOM     78  C   UNL A   1      31.249  23.610  26.569  1.00  0.00     0.343 C 
ATOM     79  O   UNL A   1      30.285  24.061  27.185  1.00  0.00    -0.246 OA
BRANCH  78  80
ATOM     80  C   UNL A   1      32.144  24.456  25.783  1.00  0.00     0.125 A 
ATOM     81  C   UNL A   1      33.387  24.744  26.209  1.00  0.00     0.023 A 
ATOM     82  C   UNL A   1      31.595  25.133  24.588  1.00  0.00     0.265 A 
ATOM     83  C   UNL A   1      34.181  25.739  25.533  1.00  0.00     0.019 A 
ATOM     84  N   UNL A   1      32.373  26.166  24.069  1.00  0.00    -0.310 N 
ATOM     85  O   UNL A   1      30.522  24.766  24.118  1.00  0.00    -0.268 OA
ATOM     86  C   UNL A   1      33.651  26.438  24.524  1.00  0.00     0.089 A 
BRANCH  84  87
ATOM     87  C   UNL A   1      31.834  26.938  22.965  1.00  0.00     0.161 C 
BRANCH  87  88
ATOM     88  C   UNL A   1      31.069  28.161  23.409  1.00  0.00    -0.024 A 
ATOM     89  C   UNL A   1      31.598  29.000  24.415  1.00  0.00     0.010 A 
ATOM     90  C   UNL A   1      29.885  28.524  22.746  1.00  0.00     0.056 A 
ATOM     91  C   UNL A   1      30.980  30.211  24.736  1.00  0.00     0.051 A 
ATOM     92  C   UNL A   1      29.309  29.729  23.069  1.00  0.00     0.173 A 
ATOM     93  C   UNL A   1      29.848  30.555  24.031  1.00  0.00     0.172 A 
ATOM     94  O   UNL A   1      28.211  30.266  22.473  1.00  0.00    -0.395 OA
ATOM     95  O   UNL A   1      29.159  31.723  24.150  1.00  0.00    -0.395 OA
ATOM     96  C   UNL A   1      28.264  31.579  23.037  1.00  0.00     0.586 C 
ATOM     97  F   UNL A   1      28.635  32.455  22.069  1.00  0.00    -0.125 F 
ATOM     98  F   UNL A   1      27.017  31.930  23.440  1.00  0.00    -0.125 F 
ENDBRANCH  87  88
ENDBRANCH  84  87
ENDBRANCH  78  80
ENDBRANCH  77  78
ENDBRANCH  76  77
ENDBRANCH  75  76
ENDBRANCH  74  75
ENDBRANCH  73  74
ENDBRANCH   1  73
TORSDOF 22
ENDMDL
