MODEL 1
REMARK VINA RESULT:     -10.1      0.000      0.000
REMARK SMILES O=C(OCCOCCOCCOC(=O)c1cccnc1Sc1cccc(C(F)(F)F)c1)c1ccc(-c2c3nc(c(-c4cc(S(=O)(=O)[O-])ccc4F)c4ccc([nH]4)c(-c4cc(S(=O)(=O)[O-])ccc4F)c4nc(c(-c5cc(S(=O)(=O)[O-])ccc5F)c5ccc2[nH]5)C=C4)C=C3)cc1
REMARK SMILES IDX 7 1 6 2 5 3 4 4 3 5 2 6 1 7 32 8 33 9 94 10 34 11 93 12
REMARK SMILES IDX 35 13 36 14 37 15 87 16 38 17 92 18 86 19 88 20 39 21 91 22
REMARK SMILES IDX 85 23 84 24 40 26 72 27 52 28 71 29 53 30 56 31 70 32 89 33
REMARK SMILES IDX 54 34 55 35 69 37 90 38 57 39 41 40 42 41 50 42 43 43 49 44
REMARK SMILES IDX 51 45 48 46 44 47 45 48 46 49 47 50 73 51 74 52 82 53 75 54
REMARK SMILES IDX 81 55 83 56 80 57 76 58 77 59 78 60 79 61 58 62 59 63 67 64
REMARK SMILES IDX 60 65 66 66 68 67 65 68 61 69 62 70 63 71 64 72 8 73 9 74
REMARK SMILES IDX 10 75 11 76 12 77 13 78 14 79 15 80 16 81 20 82 17 83 19 84
REMARK SMILES IDX 18 85 21 86 22 87 23 88 31 89 24 90 26 91 25 92 27 93 28 94
REMARK SMILES IDX 29 95 30 96
REMARK H PARENT 88 25 56 36
REMARK Flexibility Score: inf
ROOT
ATOM      1  C   UNL A   1      38.079  21.675  25.369  1.00  0.00     0.188 C 
ENDROOT
BRANCH   1   2
ATOM      2  O   UNL A   1      38.957  22.253  26.312  1.00  0.00    -0.376 OA
BRANCH   2   3
ATOM      3  C   UNL A   1      40.022  21.429  26.753  1.00  0.00     0.202 C 
BRANCH   3   4
ATOM      4  C   UNL A   1      39.992  20.108  25.932  1.00  0.00     0.261 C 
BRANCH   4   5
ATOM      5  O   UNL A   1      41.263  19.363  25.887  1.00  0.00    -0.460 OA
BRANCH   5   6
ATOM      6  C   UNL A   1      42.562  19.728  25.682  1.00  0.00     0.338 C 
ATOM      7  O   UNL A   1      43.379  18.880  25.322  1.00  0.00    -0.246 OA
BRANCH   6   8
ATOM      8  C   UNL A   1      43.061  21.123  25.882  1.00  0.00     0.060 A 
ATOM      9  C   UNL A   1      43.446  21.549  27.132  1.00  0.00     0.016 A 
ATOM     10  C   UNL A   1      43.181  22.053  24.829  1.00  0.00     0.016 A 
ATOM     11  C   UNL A   1      44.050  22.746  27.365  1.00  0.00     0.010 A 
ATOM     12  C   UNL A   1      43.702  23.346  25.064  1.00  0.00     0.010 A 
ATOM     13  C   UNL A   1      44.152  23.671  26.345  1.00  0.00    -0.014 A 
BRANCH  13  14
ATOM     14  C   UNL A   1      44.498  24.981  26.909  1.00  0.00     0.031 A 
ATOM     15  C   UNL A   1      45.853  25.513  26.515  1.00  0.00     0.074 A 
ATOM     16  C   UNL A   1      43.470  25.803  27.212  1.00  0.00     0.049 A 
ATOM     17  N   UNL A   1      46.336  26.716  26.626  1.00  0.00    -0.248 NA
ATOM     18  C   UNL A   1      46.737  24.577  25.787  1.00  0.00     0.031 C 
ATOM     19  C   UNL A   1      42.050  25.409  27.201  1.00  0.00     0.029 A 
ATOM     20  N   UNL A   1      43.432  27.144  27.465  1.00  0.00    -0.354 N 
ATOM     21  C   UNL A   1      47.575  26.679  25.993  1.00  0.00     0.074 A 
ATOM     22  C   UNL A   1      47.751  25.355  25.450  1.00  0.00     0.031 C 
ATOM     23  C   UNL A   1      41.291  26.488  27.450  1.00  0.00     0.029 A 
ATOM     24  C   UNL A   1      42.165  27.619  27.728  1.00  0.00     0.049 A 
ATOM     25  H   UNL A   1      44.232  27.717  27.461  1.00  0.00     0.167 HD
ATOM     26  C   UNL A   1      48.499  27.666  25.928  1.00  0.00     0.034 A 
ATOM     27  C   UNL A   1      41.794  28.820  28.214  1.00  0.00     0.034 A 
ATOM     28  C   UNL A   1      48.286  28.924  26.586  1.00  0.00     0.049 A 
ATOM     29  C   UNL A   1      42.916  29.814  28.414  1.00  0.00     0.074 A 
ATOM     30  C   UNL A   1      49.186  29.927  26.879  1.00  0.00     0.029 A 
ATOM     31  N   UNL A   1      47.050  29.329  27.088  1.00  0.00    -0.354 N 
ATOM     32  N   UNL A   1      44.172  29.722  28.025  1.00  0.00    -0.248 NA
ATOM     33  C   UNL A   1      42.595  31.049  29.129  1.00  0.00     0.031 C 
ATOM     34  C   UNL A   1      48.511  30.897  27.630  1.00  0.00     0.029 A 
ATOM     35  C   UNL A   1      47.169  30.546  27.724  1.00  0.00     0.049 A 
ATOM     36  H   UNL A   1      46.213  28.818  27.002  1.00  0.00     0.167 HD
ATOM     37  C   UNL A   1      44.789  30.894  28.441  1.00  0.00     0.074 A 
ATOM     38  C   UNL A   1      43.752  31.692  29.072  1.00  0.00     0.031 C 
ATOM     39  C   UNL A   1      46.087  31.283  28.336  1.00  0.00     0.034 A 
BRANCH  26  40
ATOM     40  C   UNL A   1      49.832  27.299  25.330  1.00  0.00     0.023 A 
ATOM     41  C   UNL A   1      50.949  26.979  26.123  1.00  0.00     0.031 A 
ATOM     42  C   UNL A   1      50.023  27.433  23.943  1.00  0.00     0.131 A 
ATOM     43  C   UNL A   1      52.218  26.873  25.527  1.00  0.00     0.055 A 
ATOM     44  C   UNL A   1      51.275  27.259  23.350  1.00  0.00     0.041 A 
ATOM     45  F   UNL A   1      49.004  27.791  23.145  1.00  0.00    -0.206 F 
ATOM     46  C   UNL A   1      52.385  26.990  24.144  1.00  0.00     0.022 A 
BRANCH  43  47
ATOM     47  S   UNL A   1      53.680  26.733  26.596  1.00  0.00     0.124 S 
ATOM     48  O   UNL A   1      53.395  27.743  27.613  1.00  0.00    -0.237 OA
ATOM     49  O   UNL A   1      53.619  25.345  27.040  1.00  0.00    -0.237 OA
ATOM     50  O   UNL A   1      54.791  27.052  25.702  1.00  0.00    -0.744 OA
ENDBRANCH  43  47
ENDBRANCH  26  40
BRANCH  27  51
ATOM     51  C   UNL A   1      40.400  29.085  28.700  1.00  0.00     0.023 A 
ATOM     52  C   UNL A   1      40.056  29.001  30.059  1.00  0.00     0.031 A 
ATOM     53  C   UNL A   1      39.347  29.295  27.783  1.00  0.00     0.131 A 
ATOM     54  C   UNL A   1      38.704  29.055  30.450  1.00  0.00     0.055 A 
ATOM     55  C   UNL A   1      38.015  29.414  28.183  1.00  0.00     0.041 A 
ATOM     56  F   UNL A   1      39.589  29.372  26.465  1.00  0.00    -0.206 F 
ATOM     57  C   UNL A   1      37.683  29.270  29.523  1.00  0.00     0.022 A 
BRANCH  54  58
ATOM     58  S   UNL A   1      38.279  28.693  32.178  1.00  0.00     0.124 S 
ATOM     59  O   UNL A   1      39.260  29.496  32.899  1.00  0.00    -0.237 OA
ATOM     60  O   UNL A   1      36.896  29.153  32.247  1.00  0.00    -0.237 OA
ATOM     61  O   UNL A   1      38.459  27.247  32.277  1.00  0.00    -0.744 OA
ENDBRANCH  54  58
ENDBRANCH  27  51
BRANCH  39  62
ATOM     62  C   UNL A   1      46.417  32.641  28.886  1.00  0.00     0.023 A 
ATOM     63  C   UNL A   1      46.310  33.794  28.095  1.00  0.00     0.031 A 
ATOM     64  C   UNL A   1      46.850  32.773  30.216  1.00  0.00     0.131 A 
ATOM     65  C   UNL A   1      46.709  35.028  28.618  1.00  0.00     0.055 A 
ATOM     66  C   UNL A   1      47.166  34.017  30.757  1.00  0.00     0.041 A 
ATOM     67  F   UNL A   1      46.967  31.695  31.008  1.00  0.00    -0.206 F 
ATOM     68  C   UNL A   1      47.113  35.151  29.951  1.00  0.00     0.022 A 
BRANCH  65  69
ATOM     69  S   UNL A   1      46.809  36.443  27.494  1.00  0.00     0.124 S 
ATOM     70  O   UNL A   1      47.092  35.794  26.217  1.00  0.00    -0.237 OA
ATOM     71  O   UNL A   1      45.485  37.040  27.625  1.00  0.00    -0.237 OA
ATOM     72  O   UNL A   1      47.906  37.238  28.044  1.00  0.00    -0.744 OA
ENDBRANCH  65  69
ENDBRANCH  39  62
ENDBRANCH  13  14
ENDBRANCH   6   8
ENDBRANCH   5   6
ENDBRANCH   4   5
ENDBRANCH   3   4
ENDBRANCH   2   3
ENDBRANCH   1   2
BRANCH   1  73
ATOM     73  C   UNL A   1      36.743  22.374  25.303  1.00  0.00     0.188 C 
BRANCH  73  74
ATOM     74  O   UNL A   1      35.602  21.748  25.871  1.00  0.00    -0.376 OA
BRANCH  74  75
ATOM     75  C   UNL A   1      34.577  21.539  24.868  1.00  0.00     0.202 C 
BRANCH  75  76
ATOM     76  C   UNL A   1      34.514  22.602  23.746  1.00  0.00     0.261 C 
BRANCH  76  77
ATOM     77  O   UNL A   1      33.461  23.585  23.898  1.00  0.00    -0.460 OA
BRANCH  77  78
ATOM     78  C   UNL A   1      32.162  23.273  23.598  1.00  0.00     0.340 C 
ATOM     79  O   UNL A   1      31.786  22.640  22.653  1.00  0.00    -0.246 OA
BRANCH  78  80
ATOM     80  C   UNL A   1      31.362  23.691  24.795  1.00  0.00     0.092 A 
ATOM     81  C   UNL A   1      31.049  22.697  25.760  1.00  0.00     0.020 A 
ATOM     82  C   UNL A   1      30.802  24.967  24.947  1.00  0.00     0.115 A 
ATOM     83  C   UNL A   1      30.217  22.976  26.837  1.00  0.00     0.021 A 
ATOM     84  N   UNL A   1      29.982  25.219  26.018  1.00  0.00    -0.249 NA
ATOM     85  C   UNL A   1      29.711  24.250  26.923  1.00  0.00     0.112 A 
BRANCH  82  86
ATOM     86  S   UNL A   1      31.141  26.499  24.116  1.00  0.00    -0.069 SA
BRANCH  86  87
ATOM     87  C   UNL A   1      29.826  27.663  23.832  1.00  0.00     0.014 A 
ATOM     88  C   UNL A   1      28.568  27.064  23.660  1.00  0.00     0.015 A 
ATOM     89  C   UNL A   1      29.901  29.031  23.547  1.00  0.00     0.028 A 
ATOM     90  C   UNL A   1      27.432  27.794  23.302  1.00  0.00     0.002 A 
ATOM     91  C   UNL A   1      28.746  29.813  23.265  1.00  0.00     0.057 A 
ATOM     92  C   UNL A   1      27.513  29.167  23.142  1.00  0.00     0.013 A 
BRANCH  91  93
ATOM     93  C   UNL A   1      28.751  31.322  23.129  1.00  0.00     0.416 C 
ATOM     94  F   UNL A   1      29.363  31.749  21.978  1.00  0.00    -0.166 F 
ATOM     95  F   UNL A   1      27.493  31.843  23.059  1.00  0.00    -0.166 F 
ATOM     96  F   UNL A   1      29.400  31.981  24.112  1.00  0.00    -0.166 F 
ENDBRANCH  91  93
ENDBRANCH  86  87
ENDBRANCH  82  86
ENDBRANCH  78  80
ENDBRANCH  77  78
ENDBRANCH  76  77
ENDBRANCH  75  76
ENDBRANCH  74  75
ENDBRANCH  73  74
ENDBRANCH   1  73
TORSDOF 23
ENDMDL
MODEL 2
REMARK VINA RESULT:     -10.0      3.736      8.834
REMARK SMILES O=C(OCCOCCOCCOC(=O)c1cccnc1Sc1cccc(C(F)(F)F)c1)c1ccc(-c2c3nc(c(-c4cc(S(=O)(=O)[O-])ccc4F)c4ccc([nH]4)c(-c4cc(S(=O)(=O)[O-])ccc4F)c4nc(c(-c5cc(S(=O)(=O)[O-])ccc5F)c5ccc2[nH]5)C=C4)C=C3)cc1
REMARK SMILES IDX 7 1 6 2 5 3 4 4 3 5 2 6 1 7 32 8 33 9 94 10 34 11 93 12
REMARK SMILES IDX 35 13 36 14 37 15 87 16 38 17 92 18 86 19 88 20 39 21 91 22
REMARK SMILES IDX 85 23 84 24 40 26 72 27 52 28 71 29 53 30 56 31 70 32 89 33
REMARK SMILES IDX 54 34 55 35 69 37 90 38 57 39 41 40 42 41 50 42 43 43 49 44
REMARK SMILES IDX 51 45 48 46 44 47 45 48 46 49 47 50 73 51 74 52 82 53 75 54
REMARK SMILES IDX 81 55 83 56 80 57 76 58 77 59 78 60 79 61 58 62 59 63 67 64
REMARK SMILES IDX 60 65 66 66 68 67 65 68 61 69 62 70 63 71 64 72 8 73 9 74
REMARK SMILES IDX 10 75 11 76 12 77 13 78 14 79 15 80 16 81 20 82 17 83 19 84
REMARK SMILES IDX 18 85 21 86 22 87 23 88 31 89 24 90 26 91 25 92 27 93 28 94
REMARK SMILES IDX 29 95 30 96
REMARK H PARENT 88 25 56 36
REMARK Flexibility Score: inf
ROOT
ATOM      1  C   UNL A   1      36.371  20.894  25.183  1.00  0.00     0.188 C 
ENDROOT
BRANCH   1   2
ATOM      2  O   UNL A   1      37.768  21.067  25.075  1.00  0.00    -0.376 OA
BRANCH   2   3
ATOM      3  C   UNL A   1      38.313  22.161  25.791  1.00  0.00     0.202 C 
BRANCH   3   4
ATOM      4  C   UNL A   1      39.612  21.683  26.503  1.00  0.00     0.261 C 
BRANCH   4   5
ATOM      5  O   UNL A   1      40.871  22.043  25.829  1.00  0.00    -0.460 OA
BRANCH   5   6
ATOM      6  C   UNL A   1      42.039  22.609  26.252  1.00  0.00     0.338 C 
ATOM      7  O   UNL A   1      43.085  21.964  26.179  1.00  0.00    -0.246 OA
BRANCH   6   8
ATOM      8  C   UNL A   1      42.119  23.990  26.819  1.00  0.00     0.060 A 
ATOM      9  C   UNL A   1      42.232  25.077  25.985  1.00  0.00     0.016 A 
ATOM     10  C   UNL A   1      42.068  24.255  28.204  1.00  0.00     0.016 A 
ATOM     11  C   UNL A   1      42.158  26.366  26.414  1.00  0.00     0.010 A 
ATOM     12  C   UNL A   1      42.102  25.584  28.686  1.00  0.00     0.010 A 
ATOM     13  C   UNL A   1      42.129  26.635  27.768  1.00  0.00    -0.014 A 
BRANCH  13  14
ATOM     14  C   UNL A   1      42.410  28.058  27.987  1.00  0.00     0.031 A 
ATOM     15  C   UNL A   1      41.266  28.860  28.556  1.00  0.00     0.074 A 
ATOM     16  C   UNL A   1      43.697  28.396  28.213  1.00  0.00     0.049 A 
ATOM     17  N   UNL A   1      41.269  30.044  29.093  1.00  0.00    -0.248 NA
ATOM     18  C   UNL A   1      39.959  28.172  28.631  1.00  0.00     0.031 C 
ATOM     19  C   UNL A   1      44.843  27.482  28.063  1.00  0.00     0.029 A 
ATOM     20  N   UNL A   1      44.256  29.532  28.724  1.00  0.00    -0.354 N 
ATOM     21  C   UNL A   1      39.973  30.245  29.560  1.00  0.00     0.074 A 
ATOM     22  C   UNL A   1      39.221  29.044  29.297  1.00  0.00     0.031 C 
ATOM     23  C   UNL A   1      45.962  28.106  28.462  1.00  0.00     0.029 A 
ATOM     24  C   UNL A   1      45.631  29.482  28.807  1.00  0.00     0.049 A 
ATOM     25  H   UNL A   1      43.728  30.312  29.008  1.00  0.00     0.167 HD
ATOM     26  C   UNL A   1      39.459  31.368  30.113  1.00  0.00     0.034 A 
ATOM     27  C   UNL A   1      46.503  30.478  29.059  1.00  0.00     0.034 A 
ATOM     28  C   UNL A   1      40.252  32.558  30.246  1.00  0.00     0.049 A 
ATOM     29  C   UNL A   1      45.880  31.817  29.385  1.00  0.00     0.074 A 
ATOM     30  C   UNL A   1      39.857  33.854  30.507  1.00  0.00     0.029 A 
ATOM     31  N   UNL A   1      41.636  32.580  30.087  1.00  0.00    -0.354 N 
ATOM     32  N   UNL A   1      44.614  32.098  29.617  1.00  0.00    -0.248 NA
ATOM     33  C   UNL A   1      46.778  32.970  29.461  1.00  0.00     0.031 C 
ATOM     34  C   UNL A   1      40.993  34.668  30.422  1.00  0.00     0.029 A 
ATOM     35  C   UNL A   1      42.109  33.870  30.204  1.00  0.00     0.049 A 
ATOM     36  H   UNL A   1      42.195  31.788  29.915  1.00  0.00     0.167 HD
ATOM     37  C   UNL A   1      44.564  33.461  29.875  1.00  0.00     0.074 A 
ATOM     38  C   UNL A   1      45.937  33.932  29.813  1.00  0.00     0.031 C 
ATOM     39  C   UNL A   1      43.497  34.266  30.126  1.00  0.00     0.034 A 
BRANCH  26  40
ATOM     40  C   UNL A   1      37.975  31.371  30.369  1.00  0.00     0.023 A 
ATOM     41  C   UNL A   1      37.044  31.771  29.393  1.00  0.00     0.031 A 
ATOM     42  C   UNL A   1      37.501  31.124  31.670  1.00  0.00     0.131 A 
ATOM     43  C   UNL A   1      35.701  31.977  29.754  1.00  0.00     0.055 A 
ATOM     44  C   UNL A   1      36.153  31.265  32.005  1.00  0.00     0.041 A 
ATOM     45  F   UNL A   1      38.352  30.793  32.655  1.00  0.00    -0.206 F 
ATOM     46  C   UNL A   1      35.246  31.707  31.048  1.00  0.00     0.022 A 
BRANCH  43  47
ATOM     47  S   UNL A   1      34.579  32.752  28.554  1.00  0.00     0.124 S 
ATOM     48  O   UNL A   1      35.524  33.404  27.651  1.00  0.00    -0.237 OA
ATOM     49  O   UNL A   1      33.859  31.608  28.006  1.00  0.00    -0.237 OA
ATOM     50  O   UNL A   1      33.776  33.660  29.371  1.00  0.00    -0.744 OA
ENDBRANCH  43  47
ENDBRANCH  26  40
BRANCH  27  51
ATOM     51  C   UNL A   1      47.978  30.318  28.844  1.00  0.00     0.023 A 
ATOM     52  C   UNL A   1      48.852  29.980  29.890  1.00  0.00     0.031 A 
ATOM     53  C   UNL A   1      48.562  30.639  27.599  1.00  0.00     0.131 A 
ATOM     54  C   UNL A   1      50.245  30.040  29.694  1.00  0.00     0.055 A 
ATOM     55  C   UNL A   1      49.943  30.632  27.392  1.00  0.00     0.041 A 
ATOM     56  F   UNL A   1      47.797  30.988  26.552  1.00  0.00    -0.206 F 
ATOM     57  C   UNL A   1      50.795  30.355  28.450  1.00  0.00     0.022 A 
BRANCH  54  58
ATOM     58  S   UNL A   1      51.340  29.842  31.130  1.00  0.00     0.124 S 
ATOM     59  O   UNL A   1      52.108  28.660  30.756  1.00  0.00    -0.237 OA
ATOM     60  O   UNL A   1      52.065  31.107  31.129  1.00  0.00    -0.237 OA
ATOM     61  O   UNL A   1      50.410  29.658  32.243  1.00  0.00    -0.744 OA
ENDBRANCH  54  58
ENDBRANCH  27  51
BRANCH  39  62
ATOM     62  C   UNL A   1      43.805  35.712  30.383  1.00  0.00     0.023 A 
ATOM     63  C   UNL A   1      43.854  36.644  29.336  1.00  0.00     0.031 A 
ATOM     64  C   UNL A   1      44.060  36.155  31.691  1.00  0.00     0.131 A 
ATOM     65  C   UNL A   1      44.230  37.964  29.605  1.00  0.00     0.055 A 
ATOM     66  C   UNL A   1      44.351  37.489  31.964  1.00  0.00     0.041 A 
ATOM     67  F   UNL A   1      44.023  35.296  32.723  1.00  0.00    -0.206 F 
ATOM     68  C   UNL A   1      44.455  38.399  30.915  1.00  0.00     0.022 A 
BRANCH  65  69
ATOM     69  S   UNL A   1      44.541  39.070  28.205  1.00  0.00     0.124 S 
ATOM     70  O   UNL A   1      45.557  39.965  28.750  1.00  0.00    -0.237 OA
ATOM     71  O   UNL A   1      44.994  38.145  27.172  1.00  0.00    -0.237 OA
ATOM     72  O   UNL A   1      43.237  39.685  27.961  1.00  0.00    -0.744 OA
ENDBRANCH  65  69
ENDBRANCH  39  62
ENDBRANCH  13  14
ENDBRANCH   6   8
ENDBRANCH   5   6
ENDBRANCH   4   5
ENDBRANCH   3   4
ENDBRANCH   2   3
ENDBRANCH   1   2
BRANCH   1  73
ATOM     73  C   UNL A   1      35.721  21.903  26.099  1.00  0.00     0.188 C 
BRANCH  73  74
ATOM     74  O   UNL A   1      34.367  21.723  26.483  1.00  0.00    -0.376 OA
BRANCH  74  75
ATOM     75  C   UNL A   1      33.873  22.887  27.193  1.00  0.00     0.202 C 
BRANCH  75  76
ATOM     76  C   UNL A   1      32.442  23.340  26.818  1.00  0.00     0.261 C 
BRANCH  76  77
ATOM     77  O   UNL A   1      32.309  24.754  26.527  1.00  0.00    -0.460 OA
BRANCH  77  78
ATOM     78  C   UNL A   1      31.075  25.342  26.460  1.00  0.00     0.340 C 
ATOM     79  O   UNL A   1      30.032  24.832  26.753  1.00  0.00    -0.246 OA
BRANCH  78  80
ATOM     80  C   UNL A   1      31.334  26.787  26.161  1.00  0.00     0.092 A 
ATOM     81  C   UNL A   1      31.739  27.621  27.238  1.00  0.00     0.020 A 
ATOM     82  C   UNL A   1      31.077  27.382  24.918  1.00  0.00     0.115 A 
ATOM     83  C   UNL A   1      31.889  28.991  27.069  1.00  0.00     0.021 A 
ATOM     84  N   UNL A   1      31.230  28.738  24.776  1.00  0.00    -0.249 NA
ATOM     85  C   UNL A   1      31.624  29.501  25.822  1.00  0.00     0.112 A 
BRANCH  82  86
ATOM     86  S   UNL A   1      30.801  26.669  23.316  1.00  0.00    -0.069 SA
BRANCH  86  87
ATOM     87  C   UNL A   1      31.707  25.219  22.823  1.00  0.00     0.014 A 
ATOM     88  C   UNL A   1      32.507  25.412  21.685  1.00  0.00     0.015 A 
ATOM     89  C   UNL A   1      31.571  23.898  23.262  1.00  0.00     0.028 A 
ATOM     90  C   UNL A   1      33.196  24.367  21.066  1.00  0.00     0.002 A 
ATOM     91  C   UNL A   1      32.327  22.829  22.704  1.00  0.00     0.057 A 
ATOM     92  C   UNL A   1      33.135  23.089  21.594  1.00  0.00     0.013 A 
BRANCH  91  93
ATOM     93  C   UNL A   1      32.351  21.420  23.261  1.00  0.00     0.416 C 
ATOM     94  F   UNL A   1      31.532  21.266  24.350  1.00  0.00    -0.166 F 
ATOM     95  F   UNL A   1      31.901  20.497  22.364  1.00  0.00    -0.166 F 
ATOM     96  F   UNL A   1      33.558  20.998  23.694  1.00  0.00    -0.166 F 
ENDBRANCH  91  93
ENDBRANCH  86  87
ENDBRANCH  82  86
ENDBRANCH  78  80
ENDBRANCH  77  78
ENDBRANCH  76  77
ENDBRANCH  75  76
ENDBRANCH  74  75
ENDBRANCH  73  74
ENDBRANCH   1  73
TORSDOF 23
ENDMDL
MODEL 3
REMARK VINA RESULT:      -9.7      6.967     12.425
REMARK SMILES O=C(OCCOCCOCCOC(=O)c1cccnc1Sc1cccc(C(F)(F)F)c1)c1ccc(-c2c3nc(c(-c4cc(S(=O)(=O)[O-])ccc4F)c4ccc([nH]4)c(-c4cc(S(=O)(=O)[O-])ccc4F)c4nc(c(-c5cc(S(=O)(=O)[O-])ccc5F)c5ccc2[nH]5)C=C4)C=C3)cc1
REMARK SMILES IDX 7 1 6 2 5 3 4 4 3 5 2 6 1 7 32 8 33 9 94 10 34 11 93 12
REMARK SMILES IDX 35 13 36 14 37 15 87 16 38 17 92 18 86 19 88 20 39 21 91 22
REMARK SMILES IDX 85 23 84 24 40 26 72 27 52 28 71 29 53 30 56 31 70 32 89 33
REMARK SMILES IDX 54 34 55 35 69 37 90 38 57 39 41 40 42 41 50 42 43 43 49 44
REMARK SMILES IDX 51 45 48 46 44 47 45 48 46 49 47 50 73 51 74 52 82 53 75 54
REMARK SMILES IDX 81 55 83 56 80 57 76 58 77 59 78 60 79 61 58 62 59 63 67 64
REMARK SMILES IDX 60 65 66 66 68 67 65 68 61 69 62 70 63 71 64 72 8 73 9 74
REMARK SMILES IDX 10 75 11 76 12 77 13 78 14 79 15 80 16 81 20 82 17 83 19 84
REMARK SMILES IDX 18 85 21 86 22 87 23 88 31 89 24 90 26 91 25 92 27 93 28 94
REMARK SMILES IDX 29 95 30 96
REMARK H PARENT 88 25 56 36
REMARK Flexibility Score: inf
ROOT
ATOM      1  C   UNL A   1      35.435  33.063  28.429  1.00  0.00     0.188 C 
ENDROOT
BRANCH   1   2
ATOM      2  O   UNL A   1      34.654  33.985  27.699  1.00  0.00    -0.376 OA
BRANCH   2   3
ATOM      3  C   UNL A   1      33.285  34.056  28.055  1.00  0.00     0.202 C 
BRANCH   3   4
ATOM      4  C   UNL A   1      33.063  35.342  28.902  1.00  0.00     0.261 C 
BRANCH   4   5
ATOM      5  O   UNL A   1      32.563  35.120  30.270  1.00  0.00    -0.460 OA
BRANCH   5   6
ATOM      6  C   UNL A   1      33.039  35.435  31.510  1.00  0.00     0.338 C 
ATOM      7  O   UNL A   1      32.504  36.340  32.151  1.00  0.00    -0.246 OA
BRANCH   6   8
ATOM      8  C   UNL A   1      34.199  34.737  32.142  1.00  0.00     0.060 A 
ATOM      9  C   UNL A   1      35.486  35.116  31.838  1.00  0.00     0.016 A 
ATOM     10  C   UNL A   1      34.049  33.691  33.076  1.00  0.00     0.016 A 
ATOM     11  C   UNL A   1      36.583  34.635  32.483  1.00  0.00     0.010 A 
ATOM     12  C   UNL A   1      35.180  33.094  33.680  1.00  0.00     0.010 A 
ATOM     13  C   UNL A   1      36.449  33.596  33.383  1.00  0.00    -0.014 A 
BRANCH  13  14
ATOM     14  C   UNL A   1      37.769  33.023  33.666  1.00  0.00     0.031 A 
ATOM     15  C   UNL A   1      38.302  33.290  35.051  1.00  0.00     0.074 A 
ATOM     16  C   UNL A   1      38.114  31.917  32.972  1.00  0.00     0.049 A 
ATOM     17  N   UNL A   1      39.286  32.724  35.685  1.00  0.00    -0.248 NA
ATOM     18  C   UNL A   1      37.536  34.253  35.873  1.00  0.00     0.031 C 
ATOM     19  C   UNL A   1      37.355  31.373  31.832  1.00  0.00     0.029 A 
ATOM     20  N   UNL A   1      39.096  30.992  33.178  1.00  0.00    -0.354 N 
ATOM     21  C   UNL A   1      39.263  33.263  36.968  1.00  0.00     0.074 A 
ATOM     22  C   UNL A   1      38.136  34.159  37.047  1.00  0.00     0.031 C 
ATOM     23  C   UNL A   1      37.915  30.217  31.440  1.00  0.00     0.029 A 
ATOM     24  C   UNL A   1      39.115  29.988  32.233  1.00  0.00     0.049 A 
ATOM     25  H   UNL A   1      39.729  31.036  33.929  1.00  0.00     0.167 HD
ATOM     26  C   UNL A   1      40.150  33.054  37.968  1.00  0.00     0.034 A 
ATOM     27  C   UNL A   1      40.056  29.049  32.012  1.00  0.00     0.034 A 
ATOM     28  C   UNL A   1      41.305  32.223  37.772  1.00  0.00     0.049 A 
ATOM     29  C   UNL A   1      41.207  29.041  32.994  1.00  0.00     0.074 A 
ATOM     30  C   UNL A   1      42.447  32.110  38.538  1.00  0.00     0.029 A 
ATOM     31  N   UNL A   1      41.462  31.371  36.681  1.00  0.00    -0.354 N 
ATOM     32  N   UNL A   1      41.328  29.713  34.122  1.00  0.00    -0.248 NA
ATOM     33  C   UNL A   1      42.349  28.183  32.677  1.00  0.00     0.031 C 
ATOM     34  C   UNL A   1      43.326  31.253  37.863  1.00  0.00     0.029 A 
ATOM     35  C   UNL A   1      42.695  30.758  36.728  1.00  0.00     0.049 A 
ATOM     36  H   UNL A   1      40.788  31.229  35.977  1.00  0.00     0.167 HD
ATOM     37  C   UNL A   1      42.558  29.350  34.654  1.00  0.00     0.074 A 
ATOM     38  C   UNL A   1      43.116  28.368  33.741  1.00  0.00     0.031 C 
ATOM     39  C   UNL A   1      43.188  29.787  35.776  1.00  0.00     0.034 A 
BRANCH  26  40
ATOM     40  C   UNL A   1      39.984  33.903  39.201  1.00  0.00     0.023 A 
ATOM     41  C   UNL A   1      40.578  35.172  39.327  1.00  0.00     0.031 A 
ATOM     42  C   UNL A   1      39.351  33.356  40.333  1.00  0.00     0.131 A 
ATOM     43  C   UNL A   1      40.586  35.817  40.575  1.00  0.00     0.055 A 
ATOM     44  C   UNL A   1      39.304  34.033  41.552  1.00  0.00     0.041 A 
ATOM     45  F   UNL A   1      38.816  32.126  40.286  1.00  0.00    -0.206 F 
ATOM     46  C   UNL A   1      39.935  35.265  41.683  1.00  0.00     0.022 A 
BRANCH  43  47
ATOM     47  S   UNL A   1      41.590  37.316  40.782  1.00  0.00     0.124 S 
ATOM     48  O   UNL A   1      42.785  36.780  41.429  1.00  0.00    -0.237 OA
ATOM     49  O   UNL A   1      41.761  37.777  39.409  1.00  0.00    -0.237 OA
ATOM     50  O   UNL A   1      40.760  38.173  41.627  1.00  0.00    -0.744 OA
ENDBRANCH  43  47
ENDBRANCH  26  40
BRANCH  27  51
ATOM     51  C   UNL A   1      40.060  28.202  30.775  1.00  0.00     0.023 A 
ATOM     52  C   UNL A   1      40.858  28.512  29.661  1.00  0.00     0.031 A 
ATOM     53  C   UNL A   1      39.150  27.132  30.634  1.00  0.00     0.131 A 
ATOM     54  C   UNL A   1      40.682  27.815  28.451  1.00  0.00     0.055 A 
ATOM     55  C   UNL A   1      39.027  26.401  29.451  1.00  0.00     0.041 A 
ATOM     56  F   UNL A   1      38.339  26.782  31.646  1.00  0.00    -0.206 F 
ATOM     57  C   UNL A   1      39.779  26.756  28.341  1.00  0.00     0.022 A 
BRANCH  54  58
ATOM     58  S   UNL A   1      41.549  28.406  26.968  1.00  0.00     0.124 S 
ATOM     59  O   UNL A   1      42.551  29.294  27.545  1.00  0.00    -0.237 OA
ATOM     60  O   UNL A   1      42.045  27.159  26.396  1.00  0.00    -0.237 OA
ATOM     61  O   UNL A   1      40.496  29.067  26.200  1.00  0.00    -0.744 OA
ENDBRANCH  54  58
ENDBRANCH  27  51
BRANCH  39  62
ATOM     62  C   UNL A   1      44.522  29.165  36.071  1.00  0.00     0.023 A 
ATOM     63  C   UNL A   1      44.629  28.007  36.855  1.00  0.00     0.031 A 
ATOM     64  C   UNL A   1      45.696  29.747  35.564  1.00  0.00     0.131 A 
ATOM     65  C   UNL A   1      45.895  27.509  37.177  1.00  0.00     0.055 A 
ATOM     66  C   UNL A   1      46.949  29.197  35.820  1.00  0.00     0.041 A 
ATOM     67  F   UNL A   1      45.638  30.856  34.809  1.00  0.00    -0.206 F 
ATOM     68  C   UNL A   1      47.055  28.081  36.646  1.00  0.00     0.022 A 
BRANCH  65  69
ATOM     69  S   UNL A   1      46.006  26.179  38.402  1.00  0.00     0.124 S 
ATOM     70  O   UNL A   1      46.903  25.236  37.740  1.00  0.00    -0.237 OA
ATOM     71  O   UNL A   1      46.555  26.870  39.563  1.00  0.00    -0.237 OA
ATOM     72  O   UNL A   1      44.623  25.728  38.542  1.00  0.00    -0.744 OA
ENDBRANCH  65  69
ENDBRANCH  39  62
ENDBRANCH  13  14
ENDBRANCH   6   8
ENDBRANCH   5   6
ENDBRANCH   4   5
ENDBRANCH   3   4
ENDBRANCH   2   3
ENDBRANCH   1   2
BRANCH   1  73
ATOM     73  C   UNL A   1      35.440  31.682  27.820  1.00  0.00     0.188 C 
BRANCH  73  74
ATOM     74  O   UNL A   1      34.314  30.837  28.002  1.00  0.00    -0.376 OA
BRANCH  74  75
ATOM     75  C   UNL A   1      34.634  29.468  27.649  1.00  0.00     0.202 C 
BRANCH  75  76
ATOM     76  C   UNL A   1      34.387  29.085  26.171  1.00  0.00     0.261 C 
BRANCH  76  77
ATOM     77  O   UNL A   1      32.992  28.940  25.806  1.00  0.00    -0.460 OA
BRANCH  77  78
ATOM     78  C   UNL A   1      32.296  27.808  26.133  1.00  0.00     0.340 C 
ATOM     79  O   UNL A   1      32.417  27.168  27.138  1.00  0.00    -0.246 OA
BRANCH  78  80
ATOM     80  C   UNL A   1      31.227  27.679  25.090  1.00  0.00     0.092 A 
ATOM     81  C   UNL A   1      30.975  28.803  24.260  1.00  0.00     0.020 A 
ATOM     82  C   UNL A   1      30.383  26.565  24.978  1.00  0.00     0.115 A 
ATOM     83  C   UNL A   1      29.927  28.804  23.348  1.00  0.00     0.021 A 
ATOM     84  N   UNL A   1      29.353  26.590  24.071  1.00  0.00    -0.249 NA
ATOM     85  C   UNL A   1      29.147  27.676  23.291  1.00  0.00     0.112 A 
BRANCH  82  86
ATOM     86  S   UNL A   1      30.517  24.924  25.643  1.00  0.00    -0.069 SA
BRANCH  86  87
ATOM     87  C   UNL A   1      31.638  23.758  24.904  1.00  0.00     0.014 A 
ATOM     88  C   UNL A   1      31.270  23.362  23.608  1.00  0.00     0.015 A 
ATOM     89  C   UNL A   1      32.682  23.036  25.495  1.00  0.00     0.028 A 
ATOM     90  C   UNL A   1      31.947  22.360  22.909  1.00  0.00     0.002 A 
ATOM     91  C   UNL A   1      33.442  22.072  24.775  1.00  0.00     0.057 A 
ATOM     92  C   UNL A   1      33.050  21.745  23.474  1.00  0.00     0.013 A 
BRANCH  91  93
ATOM     93  C   UNL A   1      34.689  21.398  25.310  1.00  0.00     0.416 C 
ATOM     94  F   UNL A   1      34.739  21.386  26.681  1.00  0.00    -0.166 F 
ATOM     95  F   UNL A   1      34.765  20.084  24.955  1.00  0.00    -0.166 F 
ATOM     96  F   UNL A   1      35.852  21.977  24.943  1.00  0.00    -0.166 F 
ENDBRANCH  91  93
ENDBRANCH  86  87
ENDBRANCH  82  86
ENDBRANCH  78  80
ENDBRANCH  77  78
ENDBRANCH  76  77
ENDBRANCH  75  76
ENDBRANCH  74  75
ENDBRANCH  73  74
ENDBRANCH   1  73
TORSDOF 23
ENDMDL
