MODEL 1
REMARK VINA RESULT:      -9.7      0.000      0.000
REMARK SMILES O=C(OCCOCCOCCOC(=O)c1cccc(/C=N/NC(=S)Nc2ccccc2)c1O)c1ccc(-c2c3nc(c(-c4cc(S(=O)(=O)[O-])ccc4F)c4ccc([nH]4)c(-c4cc(S(=O)(=O)[O-])ccc4F)c4nc(c(-c5cc(S(=O)(=O)[O-])ccc5F)c5ccc2[nH]5)C=C4)C=C3)cc1
REMARK SMILES IDX 8 1 7 2 6 3 5 4 4 5 3 6 2 7 1 8 34 9 35 10 96 11 36 12 95 13
REMARK SMILES IDX 37 14 38 15 39 16 89 17 40 18 94 19 88 20 90 21 41 22 93 23
REMARK SMILES IDX 87 24 86 25 42 27 74 28 54 29 73 30 55 31 58 32 72 33 91 34
REMARK SMILES IDX 56 35 57 36 71 38 92 39 59 40 43 41 44 42 52 43 45 44 51 45
REMARK SMILES IDX 53 46 50 47 46 48 47 49 48 50 49 51 75 52 76 53 84 54 77 55
REMARK SMILES IDX 83 56 85 57 82 58 78 59 79 60 80 61 81 62 60 63 61 64 69 65
REMARK SMILES IDX 62 66 68 67 70 68 67 69 63 70 64 71 65 72 66 73 9 74 10 75
REMARK SMILES IDX 11 76 12 77 13 78 14 79 15 80 16 81 32 82 17 83 19 84 18 85
REMARK SMILES IDX 33 86 20 88 21 89 22 90 23 92 24 93 25 94 26 96 27 97 31 98
REMARK SMILES IDX 28 99 30 100 29 101
REMARK H PARENT 90 26 58 37 33 87 22 91 25 95
REMARK Flexibility Score: inf
ROOT
ATOM      1  C   UNL A   1      35.269  23.544  24.950  1.00  0.00     0.188 C 
ENDROOT
BRANCH   1   2
ATOM      2  C   UNL A   1      36.460  23.117  24.090  1.00  0.00     0.188 C 
BRANCH   2   3
ATOM      3  O   UNL A   1      37.534  22.685  24.935  1.00  0.00    -0.376 OA
BRANCH   3   4
ATOM      4  C   UNL A   1      37.835  21.296  24.809  1.00  0.00     0.202 C 
BRANCH   4   5
ATOM      5  C   UNL A   1      38.517  20.708  26.049  1.00  0.00     0.261 C 
BRANCH   5   6
ATOM      6  O   UNL A   1      39.727  20.013  25.697  1.00  0.00    -0.460 OA
BRANCH   6   7
ATOM      7  C   UNL A   1      40.970  20.230  26.198  1.00  0.00     0.338 C 
ATOM      8  O   UNL A   1      41.798  19.321  26.162  1.00  0.00    -0.246 OA
BRANCH   7   9
ATOM      9  C   UNL A   1      41.412  21.564  26.699  1.00  0.00     0.060 A 
ATOM     10  C   UNL A   1      41.556  21.894  28.048  1.00  0.00     0.016 A 
ATOM     11  C   UNL A   1      41.764  22.524  25.737  1.00  0.00     0.016 A 
ATOM     12  C   UNL A   1      41.892  23.193  28.432  1.00  0.00     0.010 A 
ATOM     13  C   UNL A   1      42.177  23.807  26.120  1.00  0.00     0.010 A 
ATOM     14  C   UNL A   1      42.197  24.166  27.474  1.00  0.00    -0.014 A 
BRANCH  14  15
ATOM     15  C   UNL A   1      42.461  25.563  27.903  1.00  0.00     0.031 A 
ATOM     16  C   UNL A   1      43.872  26.082  27.938  1.00  0.00     0.074 A 
ATOM     17  C   UNL A   1      41.443  26.396  28.185  1.00  0.00     0.049 A 
ATOM     18  N   UNL A   1      44.318  27.250  28.324  1.00  0.00    -0.248 NA
ATOM     19  C   UNL A   1      44.917  25.161  27.464  1.00  0.00     0.031 C 
ATOM     20  C   UNL A   1      40.023  26.048  28.138  1.00  0.00     0.029 A 
ATOM     21  N   UNL A   1      41.448  27.714  28.561  1.00  0.00    -0.354 N 
ATOM     22  C   UNL A   1      45.693  27.214  28.127  1.00  0.00     0.074 A 
ATOM     23  C   UNL A   1      46.011  25.886  27.640  1.00  0.00     0.031 C 
ATOM     24  C   UNL A   1      39.296  27.124  28.478  1.00  0.00     0.029 A 
ATOM     25  C   UNL A   1      40.196  28.214  28.818  1.00  0.00     0.049 A 
ATOM     26  H   UNL A   1      42.271  28.251  28.637  1.00  0.00     0.167 HD
ATOM     27  C   UNL A   1      46.608  28.198  28.310  1.00  0.00     0.034 A 
ATOM     28  C   UNL A   1      39.819  29.402  29.317  1.00  0.00     0.034 A 
ATOM     29  C   UNL A   1      46.299  29.511  28.822  1.00  0.00     0.049 A 
ATOM     30  C   UNL A   1      40.859  30.433  29.639  1.00  0.00     0.074 A 
ATOM     31  C   UNL A   1      47.156  30.568  29.081  1.00  0.00     0.029 A 
ATOM     32  N   UNL A   1      45.025  29.945  29.164  1.00  0.00    -0.354 N 
ATOM     33  N   UNL A   1      42.162  30.356  29.522  1.00  0.00    -0.248 NA
ATOM     34  C   UNL A   1      40.364  31.713  30.161  1.00  0.00     0.031 C 
ATOM     35  C   UNL A   1      46.406  31.623  29.620  1.00  0.00     0.029 A 
ATOM     36  C   UNL A   1      45.075  31.244  29.649  1.00  0.00     0.049 A 
ATOM     37  H   UNL A   1      44.205  29.408  29.075  1.00  0.00     0.167 HD
ATOM     38  C   UNL A   1      42.644  31.578  29.973  1.00  0.00     0.074 A 
ATOM     39  C   UNL A   1      41.493  32.379  30.337  1.00  0.00     0.031 C 
ATOM     40  C   UNL A   1      43.928  32.003  30.072  1.00  0.00     0.034 A 
BRANCH  27  41
ATOM     41  C   UNL A   1      48.037  27.851  27.987  1.00  0.00     0.023 A 
ATOM     42  C   UNL A   1      48.591  28.141  26.727  1.00  0.00     0.031 A 
ATOM     43  C   UNL A   1      48.825  27.143  28.910  1.00  0.00     0.131 A 
ATOM     44  C   UNL A   1      49.862  27.654  26.394  1.00  0.00     0.055 A 
ATOM     45  C   UNL A   1      50.120  26.725  28.599  1.00  0.00     0.041 A 
ATOM     46  F   UNL A   1      48.336  26.819  30.117  1.00  0.00    -0.206 F 
ATOM     47  C   UNL A   1      50.639  26.964  27.328  1.00  0.00     0.022 A 
BRANCH  44  48
ATOM     48  S   UNL A   1      50.423  27.800  24.675  1.00  0.00     0.124 S 
ATOM     49  O   UNL A   1      51.157  29.063  24.710  1.00  0.00    -0.237 OA
ATOM     50  O   UNL A   1      51.230  26.597  24.503  1.00  0.00    -0.237 OA
ATOM     51  O   UNL A   1      49.178  27.832  23.910  1.00  0.00    -0.744 OA
ENDBRANCH  44  48
ENDBRANCH  27  41
BRANCH  28  52
ATOM     52  C   UNL A   1      38.413  29.668  29.697  1.00  0.00     0.023 A 
ATOM     53  C   UNL A   1      37.548  30.376  28.853  1.00  0.00     0.031 A 
ATOM     54  C   UNL A   1      37.995  29.363  31.003  1.00  0.00     0.131 A 
ATOM     55  C   UNL A   1      36.323  30.830  29.357  1.00  0.00     0.055 A 
ATOM     56  C   UNL A   1      36.774  29.813  31.495  1.00  0.00     0.041 A 
ATOM     57  F   UNL A   1      38.795  28.667  31.825  1.00  0.00    -0.206 F 
ATOM     58  C   UNL A   1      35.941  30.571  30.676  1.00  0.00     0.022 A 
BRANCH  55  59
ATOM     59  S   UNL A   1      35.217  31.767  28.272  1.00  0.00     0.124 S 
ATOM     60  O   UNL A   1      34.250  32.305  29.221  1.00  0.00    -0.237 OA
ATOM     61  O   UNL A   1      36.129  32.732  27.664  1.00  0.00    -0.237 OA
ATOM     62  O   UNL A   1      34.712  30.751  27.353  1.00  0.00    -0.744 OA
ENDBRANCH  55  59
ENDBRANCH  28  52
BRANCH  40  63
ATOM     63  C   UNL A   1      44.113  33.399  30.597  1.00  0.00     0.023 A 
ATOM     64  C   UNL A   1      44.239  33.644  31.976  1.00  0.00     0.031 A 
ATOM     65  C   UNL A   1      44.054  34.497  29.724  1.00  0.00     0.131 A 
ATOM     66  C   UNL A   1      44.234  34.964  32.449  1.00  0.00     0.055 A 
ATOM     67  C   UNL A   1      44.100  35.807  30.197  1.00  0.00     0.041 A 
ATOM     68  F   UNL A   1      43.916  34.310  28.401  1.00  0.00    -0.206 F 
ATOM     69  C   UNL A   1      44.176  36.047  31.567  1.00  0.00     0.022 A 
BRANCH  66  70
ATOM     70  S   UNL A   1      44.200  35.246  34.240  1.00  0.00     0.124 S 
ATOM     71  O   UNL A   1      45.447  35.973  34.454  1.00  0.00    -0.237 OA
ATOM     72  O   UNL A   1      42.973  36.017  34.413  1.00  0.00    -0.237 OA
ATOM     73  O   UNL A   1      44.165  33.895  34.797  1.00  0.00    -0.744 OA
ENDBRANCH  66  70
ENDBRANCH  40  63
ENDBRANCH  14  15
ENDBRANCH   7   9
ENDBRANCH   6   7
ENDBRANCH   5   6
ENDBRANCH   4   5
ENDBRANCH   3   4
ENDBRANCH   2   3
ENDBRANCH   1   2
BRANCH   1  74
ATOM     74  O   UNL A   1      35.396  23.178  26.326  1.00  0.00    -0.376 OA
BRANCH  74  75
ATOM     75  C   UNL A   1      34.236  23.342  27.143  1.00  0.00     0.202 C 
BRANCH  75  76
ATOM     76  C   UNL A   1      33.207  22.210  27.045  1.00  0.00     0.261 C 
BRANCH  76  77
ATOM     77  O   UNL A   1      32.043  22.531  26.252  1.00  0.00    -0.460 OA
BRANCH  77  78
ATOM     78  C   UNL A   1      31.881  21.771  25.149  1.00  0.00     0.342 C 
ATOM     79  O   UNL A   1      31.745  20.541  25.121  1.00  0.00    -0.246 OA
BRANCH  78  80
ATOM     80  C   UNL A   1      31.901  22.567  23.914  1.00  0.00     0.102 A 
ATOM     81  C   UNL A   1      32.653  22.069  22.839  1.00  0.00     0.019 A 
ATOM     82  C   UNL A   1      31.495  23.904  23.931  1.00  0.00     0.138 A 
ATOM     83  C   UNL A   1      33.051  22.920  21.811  1.00  0.00     0.002 A 
ATOM     84  C   UNL A   1      32.044  24.780  22.991  1.00  0.00     0.037 A 
ATOM     85  C   UNL A   1      32.794  24.287  21.916  1.00  0.00     0.014 A 
BRANCH  82  86
ATOM     86  O   UNL A   1      30.628  24.394  24.862  1.00  0.00    -0.506 OA
ATOM     87  H   UNL A   1      30.890  25.098  25.421  1.00  0.00     0.293 HD
ENDBRANCH  82  86
BRANCH  84  88
ATOM     88  C   UNL A   1      32.092  26.228  23.301  1.00  0.00     0.145 C 
ATOM     89  N   UNL A   1      33.080  26.664  24.015  1.00  0.00    -0.181 NA
BRANCH  89  90
ATOM     90  N   UNL A   1      33.084  27.923  24.529  1.00  0.00    -0.254 N 
ATOM     91  H   UNL A   1      33.990  28.295  24.624  1.00  0.00     0.193 HD
BRANCH  90  92
ATOM     92  C   UNL A   1      32.114  28.781  24.940  1.00  0.00     0.191 C 
ATOM     93  S   UNL A   1      31.699  28.721  26.568  1.00  0.00    -0.039 S 
BRANCH  92  94
ATOM     94  N   UNL A   1      31.486  29.670  24.139  1.00  0.00    -0.331 N 
ATOM     95  H   UNL A   1      32.054  30.394  23.789  1.00  0.00     0.169 HD
BRANCH  94  96
ATOM     96  C   UNL A   1      30.137  29.714  23.730  1.00  0.00     0.040 A 
ATOM     97  C   UNL A   1      29.456  30.930  23.862  1.00  0.00     0.026 A 
ATOM     98  C   UNL A   1      29.451  28.596  23.251  1.00  0.00     0.026 A 
ATOM     99  C   UNL A   1      28.116  31.035  23.470  1.00  0.00     0.002 A 
ATOM    100  C   UNL A   1      28.112  28.701  22.861  1.00  0.00     0.002 A 
ATOM    101  C   UNL A   1      27.446  29.921  22.966  1.00  0.00     0.000 A 
ENDBRANCH  94  96
ENDBRANCH  92  94
ENDBRANCH  90  92
ENDBRANCH  89  90
ENDBRANCH  84  88
ENDBRANCH  78  80
ENDBRANCH  77  78
ENDBRANCH  76  77
ENDBRANCH  75  76
ENDBRANCH  74  75
ENDBRANCH   1  74
TORSDOF 26
ENDMDL
MODEL 2
REMARK VINA RESULT:      -9.4      2.799      7.806
REMARK SMILES O=C(OCCOCCOCCOC(=O)c1cccc(/C=N/NC(=S)Nc2ccccc2)c1O)c1ccc(-c2c3nc(c(-c4cc(S(=O)(=O)[O-])ccc4F)c4ccc([nH]4)c(-c4cc(S(=O)(=O)[O-])ccc4F)c4nc(c(-c5cc(S(=O)(=O)[O-])ccc5F)c5ccc2[nH]5)C=C4)C=C3)cc1
REMARK SMILES IDX 8 1 7 2 6 3 5 4 4 5 3 6 2 7 1 8 34 9 35 10 96 11 36 12 95 13
REMARK SMILES IDX 37 14 38 15 39 16 89 17 40 18 94 19 88 20 90 21 41 22 93 23
REMARK SMILES IDX 87 24 86 25 42 27 74 28 54 29 73 30 55 31 58 32 72 33 91 34
REMARK SMILES IDX 56 35 57 36 71 38 92 39 59 40 43 41 44 42 52 43 45 44 51 45
REMARK SMILES IDX 53 46 50 47 46 48 47 49 48 50 49 51 75 52 76 53 84 54 77 55
REMARK SMILES IDX 83 56 85 57 82 58 78 59 79 60 80 61 81 62 60 63 61 64 69 65
REMARK SMILES IDX 62 66 68 67 70 68 67 69 63 70 64 71 65 72 66 73 9 74 10 75
REMARK SMILES IDX 11 76 12 77 13 78 14 79 15 80 16 81 32 82 17 83 19 84 18 85
REMARK SMILES IDX 33 86 20 88 21 89 22 90 23 92 24 93 25 94 26 96 27 97 31 98
REMARK SMILES IDX 28 99 30 100 29 101
REMARK H PARENT 90 26 58 37 33 87 22 91 25 95
REMARK Flexibility Score: inf
ROOT
ATOM      1  C   UNL A   1      35.735  22.081  24.683  1.00  0.00     0.188 C 
ENDROOT
BRANCH   1   2
ATOM      2  C   UNL A   1      37.189  21.832  24.280  1.00  0.00     0.188 C 
BRANCH   2   3
ATOM      3  O   UNL A   1      37.996  21.685  25.455  1.00  0.00    -0.376 OA
BRANCH   3   4
ATOM      4  C   UNL A   1      38.847  20.539  25.422  1.00  0.00     0.202 C 
BRANCH   4   5
ATOM      5  C   UNL A   1      39.885  20.523  26.549  1.00  0.00     0.261 C 
BRANCH   5   6
ATOM      6  O   UNL A   1      40.963  19.618  26.250  1.00  0.00    -0.460 OA
BRANCH   6   7
ATOM      7  C   UNL A   1      42.211  19.946  25.825  1.00  0.00     0.338 C 
ATOM      8  O   UNL A   1      42.798  19.193  25.049  1.00  0.00    -0.246 OA
BRANCH   7   9
ATOM      9  C   UNL A   1      42.865  21.240  26.177  1.00  0.00     0.060 A 
ATOM     10  C   UNL A   1      43.266  21.599  27.465  1.00  0.00     0.016 A 
ATOM     11  C   UNL A   1      43.146  22.123  25.122  1.00  0.00     0.016 A 
ATOM     12  C   UNL A   1      43.793  22.866  27.721  1.00  0.00     0.010 A 
ATOM     13  C   UNL A   1      43.746  23.365  25.364  1.00  0.00     0.010 A 
ATOM     14  C   UNL A   1      44.030  23.766  26.676  1.00  0.00    -0.014 A 
BRANCH  14  15
ATOM     15  C   UNL A   1      44.503  25.140  26.983  1.00  0.00     0.031 A 
ATOM     16  C   UNL A   1      43.545  26.152  27.550  1.00  0.00     0.074 A 
ATOM     17  C   UNL A   1      45.799  25.467  26.835  1.00  0.00     0.049 A 
ATOM     18  N   UNL A   1      43.745  27.412  27.842  1.00  0.00    -0.248 NA
ATOM     19  C   UNL A   1      42.183  25.674  27.832  1.00  0.00     0.031 C 
ATOM     20  C   UNL A   1      46.851  24.572  26.351  1.00  0.00     0.029 A 
ATOM     21  N   UNL A   1      46.456  26.644  27.086  1.00  0.00    -0.354 N 
ATOM     22  C   UNL A   1      42.542  27.876  28.357  1.00  0.00     0.074 A 
ATOM     23  C   UNL A   1      41.602  26.775  28.283  1.00  0.00     0.031 C 
ATOM     24  C   UNL A   1      48.018  25.236  26.334  1.00  0.00     0.029 A 
ATOM     25  C   UNL A   1      47.787  26.609  26.752  1.00  0.00     0.049 A 
ATOM     26  H   UNL A   1      46.015  27.437  27.469  1.00  0.00     0.167 HD
ATOM     27  C   UNL A   1      42.246  29.098  28.868  1.00  0.00     0.034 A 
ATOM     28  C   UNL A   1      48.706  27.587  26.739  1.00  0.00     0.034 A 
ATOM     29  C   UNL A   1      43.170  30.205  28.916  1.00  0.00     0.049 A 
ATOM     30  C   UNL A   1      48.325  28.967  27.184  1.00  0.00     0.074 A 
ATOM     31  C   UNL A   1      42.961  31.493  29.378  1.00  0.00     0.029 A 
ATOM     32  N   UNL A   1      44.486  30.154  28.475  1.00  0.00    -0.354 N 
ATOM     33  N   UNL A   1      47.162  29.411  27.594  1.00  0.00    -0.248 NA
ATOM     34  C   UNL A   1      49.393  29.974  27.161  1.00  0.00     0.031 C 
ATOM     35  C   UNL A   1      44.135  32.232  29.175  1.00  0.00     0.029 A 
ATOM     36  C   UNL A   1      45.093  31.391  28.635  1.00  0.00     0.049 A 
ATOM     37  H   UNL A   1      44.924  29.355  28.103  1.00  0.00     0.167 HD
ATOM     38  C   UNL A   1      47.358  30.759  27.863  1.00  0.00     0.074 A 
ATOM     39  C   UNL A   1      48.753  31.046  27.595  1.00  0.00     0.031 C 
ATOM     40  C   UNL A   1      46.463  31.679  28.300  1.00  0.00     0.034 A 
BRANCH  27  41
ATOM     41  C   UNL A   1      40.840  29.289  29.371  1.00  0.00     0.023 A 
ATOM     42  C   UNL A   1      40.543  29.230  30.744  1.00  0.00     0.031 A 
ATOM     43  C   UNL A   1      39.774  29.441  28.468  1.00  0.00     0.131 A 
ATOM     44  C   UNL A   1      39.208  29.239  31.171  1.00  0.00     0.055 A 
ATOM     45  C   UNL A   1      38.451  29.524  28.904  1.00  0.00     0.041 A 
ATOM     46  F   UNL A   1      40.001  29.478  27.146  1.00  0.00    -0.206 F 
ATOM     47  C   UNL A   1      38.160  29.405  30.262  1.00  0.00     0.022 A 
BRANCH  44  48
ATOM     48  S   UNL A   1      38.852  28.875  32.912  1.00  0.00     0.124 S 
ATOM     49  O   UNL A   1      38.968  30.198  33.520  1.00  0.00    -0.237 OA
ATOM     50  O   UNL A   1      37.506  28.317  32.849  1.00  0.00    -0.237 OA
ATOM     51  O   UNL A   1      39.902  27.930  33.286  1.00  0.00    -0.744 OA
ENDBRANCH  44  48
ENDBRANCH  27  41
BRANCH  28  52
ATOM     52  C   UNL A   1      50.052  27.373  26.158  1.00  0.00     0.023 A 
ATOM     53  C   UNL A   1      50.287  27.515  24.785  1.00  0.00     0.031 A 
ATOM     54  C   UNL A   1      51.065  26.841  26.973  1.00  0.00     0.131 A 
ATOM     55  C   UNL A   1      51.494  27.051  24.247  1.00  0.00     0.055 A 
ATOM     56  C   UNL A   1      52.264  26.387  26.434  1.00  0.00     0.041 A 
ATOM     57  F   UNL A   1      50.874  26.715  28.295  1.00  0.00    -0.206 F 
ATOM     58  C   UNL A   1      52.472  26.470  25.059  1.00  0.00     0.022 A 
BRANCH  55  59
ATOM     59  S   UNL A   1      51.786  27.212  22.468  1.00  0.00     0.124 S 
ATOM     60  O   UNL A   1      50.460  26.952  21.921  1.00  0.00    -0.237 OA
ATOM     61  O   UNL A   1      52.271  28.585  22.360  1.00  0.00    -0.237 OA
ATOM     62  O   UNL A   1      52.797  26.192  22.203  1.00  0.00    -0.744 OA
ENDBRANCH  55  59
ENDBRANCH  28  52
BRANCH  40  63
ATOM     63  C   UNL A   1      47.002  33.067  28.502  1.00  0.00     0.023 A 
ATOM     64  C   UNL A   1      46.994  34.008  27.458  1.00  0.00     0.031 A 
ATOM     65  C   UNL A   1      47.624  33.414  29.713  1.00  0.00     0.131 A 
ATOM     66  C   UNL A   1      47.660  35.231  27.621  1.00  0.00     0.055 A 
ATOM     67  C   UNL A   1      48.241  34.652  29.885  1.00  0.00     0.041 A 
ATOM     68  F   UNL A   1      47.671  32.540  30.731  1.00  0.00    -0.206 F 
ATOM     69  C   UNL A   1      48.273  35.563  28.832  1.00  0.00     0.022 A 
BRANCH  66  70
ATOM     70  S   UNL A   1      47.801  36.341  26.194  1.00  0.00     0.124 S 
ATOM     71  O   UNL A   1      48.486  35.497  25.222  1.00  0.00    -0.237 OA
ATOM     72  O   UNL A   1      46.406  36.652  25.899  1.00  0.00    -0.237 OA
ATOM     73  O   UNL A   1      48.588  37.460  26.709  1.00  0.00    -0.744 OA
ENDBRANCH  66  70
ENDBRANCH  40  63
ENDBRANCH  14  15
ENDBRANCH   7   9
ENDBRANCH   6   7
ENDBRANCH   5   6
ENDBRANCH   4   5
ENDBRANCH   3   4
ENDBRANCH   2   3
ENDBRANCH   1   2
BRANCH   1  74
ATOM     74  O   UNL A   1      35.557  22.286  26.087  1.00  0.00    -0.376 OA
BRANCH  74  75
ATOM     75  C   UNL A   1      34.596  23.270  26.475  1.00  0.00     0.202 C 
BRANCH  75  76
ATOM     76  C   UNL A   1      33.269  22.709  26.998  1.00  0.00     0.261 C 
BRANCH  76  77
ATOM     77  O   UNL A   1      32.121  23.044  26.187  1.00  0.00    -0.460 OA
BRANCH  77  78
ATOM     78  C   UNL A   1      31.870  22.184  25.178  1.00  0.00     0.342 C 
ATOM     79  O   UNL A   1      31.663  20.968  25.286  1.00  0.00    -0.246 OA
BRANCH  78  80
ATOM     80  C   UNL A   1      31.882  22.844  23.866  1.00  0.00     0.102 A 
ATOM     81  C   UNL A   1      32.855  22.428  22.945  1.00  0.00     0.019 A 
ATOM     82  C   UNL A   1      31.206  24.053  23.679  1.00  0.00     0.138 A 
ATOM     83  C   UNL A   1      33.195  23.245  21.869  1.00  0.00     0.002 A 
ATOM     84  C   UNL A   1      31.675  24.937  22.704  1.00  0.00     0.037 A 
ATOM     85  C   UNL A   1      32.646  24.524  21.782  1.00  0.00     0.014 A 
BRANCH  82  86
ATOM     86  O   UNL A   1      30.141  24.423  24.447  1.00  0.00    -0.506 OA
ATOM     87  H   UNL A   1      29.561  25.096  24.150  1.00  0.00     0.293 HD
ENDBRANCH  82  86
BRANCH  84  88
ATOM     88  C   UNL A   1      31.378  26.382  22.841  1.00  0.00     0.145 C 
ATOM     89  N   UNL A   1      32.357  27.219  22.708  1.00  0.00    -0.181 NA
BRANCH  89  90
ATOM     90  N   UNL A   1      32.218  28.531  23.036  1.00  0.00    -0.254 N 
ATOM     91  H   UNL A   1      32.385  29.136  22.277  1.00  0.00     0.193 HD
BRANCH  90  92
ATOM     92  C   UNL A   1      31.901  29.193  24.179  1.00  0.00     0.191 C 
ATOM     93  S   UNL A   1      33.123  29.346  25.322  1.00  0.00    -0.039 S 
BRANCH  92  94
ATOM     94  N   UNL A   1      30.692  29.736  24.440  1.00  0.00    -0.331 N 
ATOM     95  H   UNL A   1      30.449  29.783  25.393  1.00  0.00     0.169 HD
BRANCH  94  96
ATOM     96  C   UNL A   1      29.724  30.245  23.549  1.00  0.00     0.040 A 
ATOM     97  C   UNL A   1      29.124  31.469  23.868  1.00  0.00     0.026 A 
ATOM     98  C   UNL A   1      29.315  29.563  22.401  1.00  0.00     0.026 A 
ATOM     99  C   UNL A   1      28.160  32.025  23.019  1.00  0.00     0.002 A 
ATOM    100  C   UNL A   1      28.350  30.117  21.554  1.00  0.00     0.002 A 
ATOM    101  C   UNL A   1      27.776  31.350  21.860  1.00  0.00     0.000 A 
ENDBRANCH  94  96
ENDBRANCH  92  94
ENDBRANCH  90  92
ENDBRANCH  89  90
ENDBRANCH  84  88
ENDBRANCH  78  80
ENDBRANCH  77  78
ENDBRANCH  76  77
ENDBRANCH  75  76
ENDBRANCH  74  75
ENDBRANCH   1  74
TORSDOF 26
ENDMDL
MODEL 3
REMARK VINA RESULT:      -9.0      5.593     10.244
REMARK SMILES O=C(OCCOCCOCCOC(=O)c1cccc(/C=N/NC(=S)Nc2ccccc2)c1O)c1ccc(-c2c3nc(c(-c4cc(S(=O)(=O)[O-])ccc4F)c4ccc([nH]4)c(-c4cc(S(=O)(=O)[O-])ccc4F)c4nc(c(-c5cc(S(=O)(=O)[O-])ccc5F)c5ccc2[nH]5)C=C4)C=C3)cc1
REMARK SMILES IDX 8 1 7 2 6 3 5 4 4 5 3 6 2 7 1 8 34 9 35 10 96 11 36 12 95 13
REMARK SMILES IDX 37 14 38 15 39 16 89 17 40 18 94 19 88 20 90 21 41 22 93 23
REMARK SMILES IDX 87 24 86 25 42 27 74 28 54 29 73 30 55 31 58 32 72 33 91 34
REMARK SMILES IDX 56 35 57 36 71 38 92 39 59 40 43 41 44 42 52 43 45 44 51 45
REMARK SMILES IDX 53 46 50 47 46 48 47 49 48 50 49 51 75 52 76 53 84 54 77 55
REMARK SMILES IDX 83 56 85 57 82 58 78 59 79 60 80 61 81 62 60 63 61 64 69 65
REMARK SMILES IDX 62 66 68 67 70 68 67 69 63 70 64 71 65 72 66 73 9 74 10 75
REMARK SMILES IDX 11 76 12 77 13 78 14 79 15 80 16 81 32 82 17 83 19 84 18 85
REMARK SMILES IDX 33 86 20 88 21 89 22 90 23 92 24 93 25 94 26 96 27 97 31 98
REMARK SMILES IDX 28 99 30 100 29 101
REMARK H PARENT 90 26 58 37 33 87 22 91 25 95
REMARK Flexibility Score: inf
ROOT
ATOM      1  C   UNL A   1      32.746  36.913  31.456  1.00  0.00     0.188 C 
ENDROOT
BRANCH   1   2
ATOM      2  C   UNL A   1      33.961  36.981  32.383  1.00  0.00     0.188 C 
BRANCH   2   3
ATOM      3  O   UNL A   1      33.923  35.886  33.306  1.00  0.00    -0.376 OA
BRANCH   3   4
ATOM      4  C   UNL A   1      35.149  35.157  33.376  1.00  0.00     0.202 C 
BRANCH   4   5
ATOM      5  C   UNL A   1      35.337  34.174  32.216  1.00  0.00     0.261 C 
BRANCH   5   6
ATOM      6  O   UNL A   1      36.518  34.487  31.455  1.00  0.00    -0.460 OA
BRANCH   6   7
ATOM      7  C   UNL A   1      37.486  33.623  31.056  1.00  0.00     0.338 C 
ATOM      8  O   UNL A   1      37.269  32.413  31.111  1.00  0.00    -0.246 OA
BRANCH   7   9
ATOM      9  C   UNL A   1      38.771  34.079  30.452  1.00  0.00     0.060 A 
ATOM     10  C   UNL A   1      38.910  34.531  29.138  1.00  0.00     0.016 A 
ATOM     11  C   UNL A   1      39.897  34.108  31.289  1.00  0.00     0.016 A 
ATOM     12  C   UNL A   1      40.167  34.857  28.626  1.00  0.00     0.010 A 
ATOM     13  C   UNL A   1      41.147  34.510  30.800  1.00  0.00     0.010 A 
ATOM     14  C   UNL A   1      41.300  34.842  29.447  1.00  0.00    -0.014 A 
BRANCH  14  15
ATOM     15  C   UNL A   1      42.638  35.103  28.858  1.00  0.00     0.031 A 
ATOM     16  C   UNL A   1      43.613  33.970  28.685  1.00  0.00     0.074 A 
ATOM     17  C   UNL A   1      42.960  36.327  28.404  1.00  0.00     0.049 A 
ATOM     18  N   UNL A   1      44.842  33.994  28.236  1.00  0.00    -0.248 NA
ATOM     19  C   UNL A   1      43.131  32.632  29.059  1.00  0.00     0.031 C 
ATOM     20  C   UNL A   1      42.094  37.506  28.454  1.00  0.00     0.029 A 
ATOM     21  N   UNL A   1      44.103  36.782  27.802  1.00  0.00    -0.354 N 
ATOM     22  C   UNL A   1      45.279  32.676  28.258  1.00  0.00     0.074 A 
ATOM     23  C   UNL A   1      44.199  31.887  28.819  1.00  0.00     0.031 C 
ATOM     24  C   UNL A   1      42.742  38.549  27.911  1.00  0.00     0.029 A 
ATOM     25  C   UNL A   1      44.079  38.127  27.528  1.00  0.00     0.049 A 
ATOM     26  H   UNL A   1      44.869  36.201  27.586  1.00  0.00     0.167 HD
ATOM     27  C   UNL A   1      46.458  32.159  27.831  1.00  0.00     0.034 A 
ATOM     28  C   UNL A   1      45.043  38.938  27.063  1.00  0.00     0.034 A 
ATOM     29  C   UNL A   1      47.545  32.945  27.300  1.00  0.00     0.049 A 
ATOM     30  C   UNL A   1      46.387  38.369  26.720  1.00  0.00     0.074 A 
ATOM     31  C   UNL A   1      48.794  32.525  26.874  1.00  0.00     0.029 A 
ATOM     32  N   UNL A   1      47.514  34.322  27.130  1.00  0.00    -0.354 N 
ATOM     33  N   UNL A   1      46.811  37.133  26.821  1.00  0.00    -0.248 NA
ATOM     34  C   UNL A   1      47.379  39.318  26.199  1.00  0.00     0.031 C 
ATOM     35  C   UNL A   1      49.532  33.654  26.490  1.00  0.00     0.029 A 
ATOM     36  C   UNL A   1      48.726  34.770  26.626  1.00  0.00     0.049 A 
ATOM     37  H   UNL A   1      46.742  34.897  27.337  1.00  0.00     0.167 HD
ATOM     38  C   UNL A   1      48.130  37.161  26.388  1.00  0.00     0.074 A 
ATOM     39  C   UNL A   1      48.421  38.527  26.002  1.00  0.00     0.031 C 
ATOM     40  C   UNL A   1      49.022  36.144  26.311  1.00  0.00     0.034 A 
BRANCH  27  41
ATOM     41  C   UNL A   1      46.626  30.669  27.974  1.00  0.00     0.023 A 
ATOM     42  C   UNL A   1      46.321  29.797  26.913  1.00  0.00     0.031 A 
ATOM     43  C   UNL A   1      47.005  30.109  29.205  1.00  0.00     0.131 A 
ATOM     44  C   UNL A   1      46.320  28.412  27.127  1.00  0.00     0.055 A 
ATOM     45  C   UNL A   1      47.075  28.727  29.391  1.00  0.00     0.041 A 
ATOM     46  F   UNL A   1      47.282  30.897  30.256  1.00  0.00    -0.206 F 
ATOM     47  C   UNL A   1      46.714  27.870  28.354  1.00  0.00     0.022 A 
BRANCH  44  48
ATOM     48  S   UNL A   1      45.650  27.336  25.830  1.00  0.00     0.124 S 
ATOM     49  O   UNL A   1      46.679  27.439  24.799  1.00  0.00    -0.237 OA
ATOM     50  O   UNL A   1      45.553  26.047  26.508  1.00  0.00    -0.237 OA
ATOM     51  O   UNL A   1      44.373  27.960  25.492  1.00  0.00    -0.744 OA
ENDBRANCH  44  48
ENDBRANCH  27  41
BRANCH  28  52
ATOM     52  C   UNL A   1      44.860  40.407  27.019  1.00  0.00     0.023 A 
ATOM     53  C   UNL A   1      44.636  41.081  25.812  1.00  0.00     0.031 A 
ATOM     54  C   UNL A   1      45.097  41.155  28.184  1.00  0.00     0.131 A 
ATOM     55  C   UNL A   1      44.732  42.478  25.782  1.00  0.00     0.055 A 
ATOM     56  C   UNL A   1      45.187  42.542  28.149  1.00  0.00     0.041 A 
ATOM     57  F   UNL A   1      45.293  40.535  29.358  1.00  0.00    -0.206 F 
ATOM     58  C   UNL A   1      45.027  43.209  26.937  1.00  0.00     0.022 A 
BRANCH  55  59
ATOM     59  S   UNL A   1      44.467  43.346  24.216  1.00  0.00     0.124 S 
ATOM     60  O   UNL A   1      44.952  42.371  23.246  1.00  0.00    -0.237 OA
ATOM     61  O   UNL A   1      43.025  43.577  24.233  1.00  0.00    -0.237 OA
ATOM     62  O   UNL A   1      45.274  44.554  24.363  1.00  0.00    -0.744 OA
ENDBRANCH  55  59
ENDBRANCH  28  52
BRANCH  40  63
ATOM     63  C   UNL A   1      50.382  36.509  25.786  1.00  0.00     0.023 A 
ATOM     64  C   UNL A   1      51.391  36.976  26.647  1.00  0.00     0.031 A 
ATOM     65  C   UNL A   1      50.635  36.491  24.405  1.00  0.00     0.131 A 
ATOM     66  C   UNL A   1      52.586  37.474  26.109  1.00  0.00     0.055 A 
ATOM     67  C   UNL A   1      51.846  36.941  23.880  1.00  0.00     0.041 A 
ATOM     68  F   UNL A   1      49.695  36.069  23.544  1.00  0.00    -0.206 F 
ATOM     69  C   UNL A   1      52.824  37.448  24.732  1.00  0.00     0.022 A 
BRANCH  66  70
ATOM     70  S   UNL A   1      53.786  38.250  27.226  1.00  0.00     0.124 S 
ATOM     71  O   UNL A   1      53.398  37.694  28.518  1.00  0.00    -0.237 OA
ATOM     72  O   UNL A   1      55.061  37.785  26.688  1.00  0.00    -0.237 OA
ATOM     73  O   UNL A   1      53.529  39.679  27.062  1.00  0.00    -0.744 OA
ENDBRANCH  66  70
ENDBRANCH  40  63
ENDBRANCH  14  15
ENDBRANCH   7   9
ENDBRANCH   6   7
ENDBRANCH   5   6
ENDBRANCH   4   5
ENDBRANCH   3   4
ENDBRANCH   2   3
ENDBRANCH   1   2
BRANCH   1  74
ATOM     74  O   UNL A   1      33.087  36.817  30.071  1.00  0.00    -0.376 OA
BRANCH  74  75
ATOM     75  C   UNL A   1      33.215  35.500  29.531  1.00  0.00     0.202 C 
BRANCH  75  76
ATOM     76  C   UNL A   1      34.277  35.349  28.436  1.00  0.00     0.261 C 
BRANCH  76  77
ATOM     77  O   UNL A   1      34.590  33.980  28.097  1.00  0.00    -0.460 OA
BRANCH  77  78
ATOM     78  C   UNL A   1      33.519  33.192  27.868  1.00  0.00     0.342 C 
ATOM     79  O   UNL A   1      32.365  33.575  27.636  1.00  0.00    -0.246 OA
BRANCH  78  80
ATOM     80  C   UNL A   1      33.851  31.763  27.942  1.00  0.00     0.102 A 
ATOM     81  C   UNL A   1      35.031  31.410  28.613  1.00  0.00     0.019 A 
ATOM     82  C   UNL A   1      33.224  30.849  27.090  1.00  0.00     0.138 A 
ATOM     83  C   UNL A   1      35.618  30.166  28.388  1.00  0.00     0.002 A 
ATOM     84  C   UNL A   1      33.909  29.683  26.741  1.00  0.00     0.037 A 
ATOM     85  C   UNL A   1      35.087  29.326  27.409  1.00  0.00     0.014 A 
BRANCH  82  86
ATOM     86  O   UNL A   1      31.994  31.080  26.547  1.00  0.00    -0.506 OA
ATOM     87  H   UNL A   1      31.274  30.520  26.764  1.00  0.00     0.293 HD
ENDBRANCH  82  86
BRANCH  84  88
ATOM     88  C   UNL A   1      33.563  28.999  25.473  1.00  0.00     0.145 C 
ATOM     89  N   UNL A   1      32.435  29.295  24.911  1.00  0.00    -0.181 NA
BRANCH  89  90
ATOM     90  N   UNL A   1      31.942  28.560  23.878  1.00  0.00    -0.254 N 
ATOM     91  H   UNL A   1      32.613  28.383  23.179  1.00  0.00     0.193 HD
BRANCH  90  92
ATOM     92  C   UNL A   1      30.730  28.016  23.597  1.00  0.00     0.191 C 
ATOM     93  S   UNL A   1      30.258  26.706  24.538  1.00  0.00    -0.039 S 
BRANCH  92  94
ATOM     94  N   UNL A   1      29.893  28.463  22.635  1.00  0.00    -0.331 N 
ATOM     95  H   UNL A   1      29.767  27.855  21.871  1.00  0.00     0.169 HD
BRANCH  94  96
ATOM     96  C   UNL A   1      29.173  29.675  22.563  1.00  0.00     0.040 A 
ATOM     97  C   UNL A   1      29.323  30.455  21.410  1.00  0.00     0.026 A 
ATOM     98  C   UNL A   1      28.366  30.142  23.603  1.00  0.00     0.026 A 
ATOM     99  C   UNL A   1      28.631  31.665  21.281  1.00  0.00     0.002 A 
ATOM    100  C   UNL A   1      27.677  31.351  23.475  1.00  0.00     0.002 A 
ATOM    101  C   UNL A   1      27.805  32.111  22.313  1.00  0.00     0.000 A 
ENDBRANCH  94  96
ENDBRANCH  92  94
ENDBRANCH  90  92
ENDBRANCH  89  90
ENDBRANCH  84  88
ENDBRANCH  78  80
ENDBRANCH  77  78
ENDBRANCH  76  77
ENDBRANCH  75  76
ENDBRANCH  74  75
ENDBRANCH   1  74
TORSDOF 26
ENDMDL
