MODEL 1
REMARK VINA RESULT:     -10.2      0.000      0.000
REMARK SMILES CCC[C@H](CNC(=O)N1C[C@H]2CCC[N@H+]2C[C@@H]1C)C(=O)OCCOCCOCCOC(=O)c1ccc(-c2c3nc(c(-c4cc(S(=O)(=O)[O-])ccc4F)c4ccc([nH]4)c(-c4cc(S(=O)(=O)[O-])ccc4F)c4nc(c(-c5cc(S(=O)(=O)[O-])ccc5F)c5ccc2[nH]5)C=C4)C=C3)cc1
REMARK SMILES IDX 25 1 24 2 23 3 22 4 21 5 19 6 20 7 4 8 3 9 2 10 1 11 5 12
REMARK SMILES IDX 6 13 7 14 8 16 9 17 10 18 17 19 11 20 16 21 18 22 12 23
REMARK SMILES IDX 15 24 13 25 14 26 26 28 27 29 28 30 29 31 30 32 31 33 32 34
REMARK SMILES IDX 33 35 34 36 95 37 35 38 94 39 36 40 37 41 38 42 88 43 39 44
REMARK SMILES IDX 93 45 87 46 89 47 40 48 92 49 86 50 85 51 41 53 73 54 53 55
REMARK SMILES IDX 72 56 54 57 57 58 71 59 90 60 55 61 56 62 70 64 91 65 58 66
REMARK SMILES IDX 42 67 43 68 51 69 44 70 50 71 52 72 49 73 45 74 46 75 47 76
REMARK SMILES IDX 48 77 74 78 75 79 83 80 76 81 82 82 84 83 81 84 77 85 78 86
REMARK SMILES IDX 79 87 80 88 59 89 60 90 68 91 61 92 67 93 69 94 66 95 62 96
REMARK SMILES IDX 63 97 64 98 65 99
REMARK H PARENT 6 15 15 27 89 52 57 63
REMARK Flexibility Score: inf
ROOT
ATOM      1  C   UNL A   1      36.986  23.646  25.311  1.00  0.00     0.188 C 
ENDROOT
BRANCH   1   2
ATOM      2  O   UNL A   1      35.718  23.756  25.939  1.00  0.00    -0.376 OA
BRANCH   2   3
ATOM      3  C   UNL A   1      35.131  22.634  26.584  1.00  0.00     0.202 C 
BRANCH   3   4
ATOM      4  C   UNL A   1      33.857  21.969  26.028  1.00  0.00     0.261 C 
BRANCH   4   5
ATOM      5  O   UNL A   1      33.910  21.458  24.676  1.00  0.00    -0.463 OA
BRANCH   5   6
ATOM      6  C   UNL A   1      32.713  21.362  24.046  1.00  0.00     0.310 C 
ATOM      7  O   UNL A   1      31.976  20.390  24.187  1.00  0.00    -0.252 OA
BRANCH   6   8
ATOM      8  C   UNL A   1      32.310  22.573  23.183  1.00  0.00     0.118 C 
BRANCH   8   9
ATOM      9  C   UNL A   1      33.554  23.369  22.740  1.00  0.00     0.017 C 
BRANCH   9  10
ATOM     10  C   UNL A   1      33.439  24.901  22.765  1.00  0.00    -0.002 C 
ATOM     11  C   UNL A   1      32.848  25.516  21.503  1.00  0.00     0.004 C 
ENDBRANCH   9  10
ENDBRANCH   8   9
BRANCH   8  12
ATOM     12  C   UNL A   1      31.150  23.459  23.728  1.00  0.00     0.133 C 
BRANCH  12  13
ATOM     13  N   UNL A   1      30.734  23.230  25.101  1.00  0.00    -0.337 N 
ATOM     14  C   UNL A   1      30.633  24.035  26.179  1.00  0.00     0.318 C 
ATOM     15  H   UNL A   1      30.473  22.299  25.281  1.00  0.00     0.165 HD
ATOM     16  O   UNL A   1      30.646  23.470  27.276  1.00  0.00    -0.249 OA
BRANCH  14  17
ATOM     17  N   UNL A   1      30.597  25.394  26.064  1.00  0.00    -0.311 N 
ATOM     18  C   UNL A   1      29.474  25.955  25.319  1.00  0.00     0.186 C 
ATOM     19  C   UNL A   1      31.681  26.368  26.379  1.00  0.00     0.139 C 
ATOM     20  C   UNL A   1      29.935  26.656  24.036  1.00  0.00     0.204 C 
ATOM     21  C   UNL A   1      31.485  27.737  25.615  1.00  0.00     0.287 C 
ATOM     22  C   UNL A   1      33.097  25.844  26.111  1.00  0.00     0.037 C 
ATOM     23  C   UNL A   1      28.801  27.445  23.385  1.00  0.00     0.073 C 
ATOM     24  N   UNL A   1      31.058  27.609  24.206  1.00  0.00    -0.329 N 
ATOM     25  C   UNL A   1      29.521  28.563  22.665  1.00  0.00     0.068 C 
ATOM     26  C   UNL A   1      30.651  28.899  23.624  1.00  0.00     0.262 C 
ATOM     27  H   UNL A   1      31.881  27.256  23.717  1.00  0.00     0.348 HD
ENDBRANCH  14  17
ENDBRANCH  12  13
ENDBRANCH   8  12
ENDBRANCH   6   8
ENDBRANCH   5   6
ENDBRANCH   4   5
ENDBRANCH   3   4
ENDBRANCH   2   3
ENDBRANCH   1   2
BRANCH   1  28
ATOM     28  C   UNL A   1      37.451  22.287  24.772  1.00  0.00     0.188 C 
BRANCH  28  29
ATOM     29  O   UNL A   1      38.649  21.798  25.323  1.00  0.00    -0.376 OA
BRANCH  29  30
ATOM     30  C   UNL A   1      38.650  20.492  25.875  1.00  0.00     0.202 C 
BRANCH  30  31
ATOM     31  C   UNL A   1      39.847  19.540  25.670  1.00  0.00     0.261 C 
BRANCH  31  32
ATOM     32  O   UNL A   1      40.796  19.421  26.743  1.00  0.00    -0.460 OA
BRANCH  32  33
ATOM     33  C   UNL A   1      42.031  19.934  26.535  1.00  0.00     0.338 C 
ATOM     34  O   UNL A   1      42.958  19.379  25.959  1.00  0.00    -0.246 OA
BRANCH  33  35
ATOM     35  C   UNL A   1      41.990  21.376  26.878  1.00  0.00     0.060 A 
ATOM     36  C   UNL A   1      41.787  22.311  25.851  1.00  0.00     0.016 A 
ATOM     37  C   UNL A   1      42.131  21.806  28.199  1.00  0.00     0.016 A 
ATOM     38  C   UNL A   1      41.760  23.678  26.137  1.00  0.00     0.010 A 
ATOM     39  C   UNL A   1      42.131  23.177  28.481  1.00  0.00     0.010 A 
ATOM     40  C   UNL A   1      41.982  24.121  27.447  1.00  0.00    -0.014 A 
BRANCH  40  41
ATOM     41  C   UNL A   1      42.286  25.557  27.694  1.00  0.00     0.031 A 
ATOM     42  C   UNL A   1      43.627  26.080  27.247  1.00  0.00     0.074 A 
ATOM     43  C   UNL A   1      41.394  26.385  28.267  1.00  0.00     0.049 A 
ATOM     44  N   UNL A   1      44.151  27.268  27.400  1.00  0.00    -0.248 NA
ATOM     45  C   UNL A   1      44.493  25.126  26.536  1.00  0.00     0.031 C 
ATOM     46  C   UNL A   1      40.046  26.013  28.694  1.00  0.00     0.029 A 
ATOM     47  N   UNL A   1      41.496  27.715  28.598  1.00  0.00    -0.354 N 
ATOM     48  C   UNL A   1      45.414  27.201  26.819  1.00  0.00     0.074 A 
ATOM     49  C   UNL A   1      45.585  25.847  26.339  1.00  0.00     0.031 C 
ATOM     50  C   UNL A   1      39.453  27.088  29.245  1.00  0.00     0.029 A 
ATOM     51  C   UNL A   1      40.389  28.210  29.250  1.00  0.00     0.049 A 
ATOM     52  H   UNL A   1      42.287  28.263  28.388  1.00  0.00     0.167 HD
ATOM     53  C   UNL A   1      46.343  28.180  26.694  1.00  0.00     0.034 A 
ATOM     54  C   UNL A   1      40.173  29.419  29.813  1.00  0.00     0.034 A 
ATOM     55  C   UNL A   1      46.161  29.524  27.185  1.00  0.00     0.049 A 
ATOM     56  C   UNL A   1      41.257  30.472  29.730  1.00  0.00     0.074 A 
ATOM     57  C   UNL A   1      47.032  30.596  27.093  1.00  0.00     0.029 A 
ATOM     58  N   UNL A   1      45.043  29.979  27.869  1.00  0.00    -0.354 N 
ATOM     59  N   UNL A   1      42.443  30.400  29.169  1.00  0.00    -0.248 NA
ATOM     60  C   UNL A   1      40.965  31.774  30.344  1.00  0.00     0.031 C 
ATOM     61  C   UNL A   1      46.479  31.671  27.796  1.00  0.00     0.029 A 
ATOM     62  C   UNL A   1      45.217  31.305  28.239  1.00  0.00     0.049 A 
ATOM     63  H   UNL A   1      44.242  29.439  28.065  1.00  0.00     0.167 HD
ATOM     64  C   UNL A   1      43.018  31.661  29.329  1.00  0.00     0.074 A 
ATOM     65  C   UNL A   1      42.042  32.474  30.022  1.00  0.00     0.031 C 
ATOM     66  C   UNL A   1      44.238  32.109  28.934  1.00  0.00     0.034 A 
BRANCH  53  67
ATOM     67  C   UNL A   1      47.663  27.812  26.058  1.00  0.00     0.023 A 
ATOM     68  C   UNL A   1      47.863  27.871  24.668  1.00  0.00     0.031 A 
ATOM     69  C   UNL A   1      48.733  27.378  26.859  1.00  0.00     0.131 A 
ATOM     70  C   UNL A   1      49.082  27.445  24.119  1.00  0.00     0.055 A 
ATOM     71  C   UNL A   1      49.972  27.035  26.314  1.00  0.00     0.041 A 
ATOM     72  F   UNL A   1      48.592  27.274  28.190  1.00  0.00    -0.206 F 
ATOM     73  C   UNL A   1      50.148  27.055  24.934  1.00  0.00     0.022 A 
BRANCH  70  74
ATOM     74  S   UNL A   1      49.211  27.275  22.318  1.00  0.00     0.124 S 
ATOM     75  O   UNL A   1      48.526  26.003  22.092  1.00  0.00    -0.237 OA
ATOM     76  O   UNL A   1      48.520  28.466  21.838  1.00  0.00    -0.237 OA
ATOM     77  O   UNL A   1      50.652  27.249  22.077  1.00  0.00    -0.744 OA
ENDBRANCH  70  74
ENDBRANCH  53  67
BRANCH  54  78
ATOM     78  C   UNL A   1      38.906  29.699  30.555  1.00  0.00     0.023 A 
ATOM     79  C   UNL A   1      37.892  30.494  29.997  1.00  0.00     0.031 A 
ATOM     80  C   UNL A   1      38.730  29.242  31.874  1.00  0.00     0.131 A 
ATOM     81  C   UNL A   1      36.779  30.857  30.773  1.00  0.00     0.055 A 
ATOM     82  C   UNL A   1      37.590  29.552  32.619  1.00  0.00     0.041 A 
ATOM     83  F   UNL A   1      39.670  28.487  32.463  1.00  0.00    -0.206 F 
ATOM     84  C   UNL A   1      36.612  30.377  32.074  1.00  0.00     0.022 A 
BRANCH  81  85
ATOM     85  S   UNL A   1      35.602  32.061  30.095  1.00  0.00     0.124 S 
ATOM     86  O   UNL A   1      35.058  31.332  28.956  1.00  0.00    -0.237 OA
ATOM     87  O   UNL A   1      34.696  32.265  31.220  1.00  0.00    -0.237 OA
ATOM     88  O   UNL A   1      36.443  33.208  29.759  1.00  0.00    -0.744 OA
ENDBRANCH  81  85
ENDBRANCH  54  78
BRANCH  66  89
ATOM     89  C   UNL A   1      44.557  33.566  29.184  1.00  0.00     0.023 A 
ATOM     90  C   UNL A   1      43.995  34.598  28.411  1.00  0.00     0.031 A 
ATOM     91  C   UNL A   1      45.461  33.927  30.201  1.00  0.00     0.131 A 
ATOM     92  C   UNL A   1      44.401  35.926  28.615  1.00  0.00     0.055 A 
ATOM     93  C   UNL A   1      45.800  35.257  30.451  1.00  0.00     0.041 A 
ATOM     94  F   UNL A   1      46.032  32.987  30.972  1.00  0.00    -0.206 F 
ATOM     95  C   UNL A   1      45.285  36.265  29.642  1.00  0.00     0.022 A 
BRANCH  92  96
ATOM     96  S   UNL A   1      43.863  37.192  27.431  1.00  0.00     0.124 S 
ATOM     97  O   UNL A   1      43.088  36.405  26.478  1.00  0.00    -0.237 OA
ATOM     98  O   UNL A   1      43.097  38.103  28.277  1.00  0.00    -0.237 OA
ATOM     99  O   UNL A   1      45.118  37.734  26.914  1.00  0.00    -0.744 OA
ENDBRANCH  92  96
ENDBRANCH  66  89
ENDBRANCH  40  41
ENDBRANCH  33  35
ENDBRANCH  32  33
ENDBRANCH  31  32
ENDBRANCH  30  31
ENDBRANCH  29  30
ENDBRANCH  28  29
ENDBRANCH   1  28
TORSDOF 25
ENDMDL
MODEL 2
REMARK VINA RESULT:      -9.9      1.767      7.646
REMARK SMILES CCC[C@H](CNC(=O)N1C[C@H]2CCC[N@H+]2C[C@@H]1C)C(=O)OCCOCCOCCOC(=O)c1ccc(-c2c3nc(c(-c4cc(S(=O)(=O)[O-])ccc4F)c4ccc([nH]4)c(-c4cc(S(=O)(=O)[O-])ccc4F)c4nc(c(-c5cc(S(=O)(=O)[O-])ccc5F)c5ccc2[nH]5)C=C4)C=C3)cc1
REMARK SMILES IDX 25 1 24 2 23 3 22 4 21 5 19 6 20 7 4 8 3 9 2 10 1 11 5 12
REMARK SMILES IDX 6 13 7 14 8 16 9 17 10 18 17 19 11 20 16 21 18 22 12 23
REMARK SMILES IDX 15 24 13 25 14 26 26 28 27 29 28 30 29 31 30 32 31 33 32 34
REMARK SMILES IDX 33 35 34 36 95 37 35 38 94 39 36 40 37 41 38 42 88 43 39 44
REMARK SMILES IDX 93 45 87 46 89 47 40 48 92 49 86 50 85 51 41 53 73 54 53 55
REMARK SMILES IDX 72 56 54 57 57 58 71 59 90 60 55 61 56 62 70 64 91 65 58 66
REMARK SMILES IDX 42 67 43 68 51 69 44 70 50 71 52 72 49 73 45 74 46 75 47 76
REMARK SMILES IDX 48 77 74 78 75 79 83 80 76 81 82 82 84 83 81 84 77 85 78 86
REMARK SMILES IDX 79 87 80 88 59 89 60 90 68 91 61 92 67 93 69 94 66 95 62 96
REMARK SMILES IDX 63 97 64 98 65 99
REMARK H PARENT 6 15 15 27 89 52 57 63
REMARK Flexibility Score: inf
ROOT
ATOM      1  C   UNL A   1      37.024  23.512  25.489  1.00  0.00     0.188 C 
ENDROOT
BRANCH   1   2
ATOM      2  O   UNL A   1      35.809  23.597  26.219  1.00  0.00    -0.376 OA
BRANCH   2   3
ATOM      3  C   UNL A   1      35.179  22.423  26.711  1.00  0.00     0.202 C 
BRANCH   3   4
ATOM      4  C   UNL A   1      33.742  22.052  26.293  1.00  0.00     0.261 C 
BRANCH   4   5
ATOM      5  O   UNL A   1      33.529  21.666  24.916  1.00  0.00    -0.463 OA
BRANCH   5   6
ATOM      6  C   UNL A   1      32.231  21.583  24.533  1.00  0.00     0.310 C 
ATOM      7  O   UNL A   1      31.404  20.932  25.164  1.00  0.00    -0.252 OA
BRANCH   6   8
ATOM      8  C   UNL A   1      31.847  22.397  23.282  1.00  0.00     0.118 C 
BRANCH   8   9
ATOM      9  C   UNL A   1      33.105  22.900  22.547  1.00  0.00     0.017 C 
BRANCH   9  10
ATOM     10  C   UNL A   1      33.583  24.321  22.885  1.00  0.00    -0.002 C 
ATOM     11  C   UNL A   1      33.290  25.363  21.813  1.00  0.00     0.004 C 
ENDBRANCH   9  10
ENDBRANCH   8   9
BRANCH   8  12
ATOM     12  C   UNL A   1      30.746  23.484  23.473  1.00  0.00     0.133 C 
BRANCH  12  13
ATOM     13  N   UNL A   1      30.375  23.814  24.838  1.00  0.00    -0.337 N 
ATOM     14  C   UNL A   1      30.732  24.812  25.674  1.00  0.00     0.318 C 
ATOM     15  H   UNL A   1      29.733  23.182  25.234  1.00  0.00     0.165 HD
ATOM     16  O   UNL A   1      30.568  24.592  26.877  1.00  0.00    -0.249 OA
BRANCH  14  17
ATOM     17  N   UNL A   1      31.310  25.962  25.220  1.00  0.00    -0.311 N 
ATOM     18  C   UNL A   1      32.357  26.539  26.059  1.00  0.00     0.186 C 
ATOM     19  C   UNL A   1      30.845  26.845  24.113  1.00  0.00     0.139 C 
ATOM     20  C   UNL A   1      31.949  27.907  26.617  1.00  0.00     0.204 C 
ATOM     21  C   UNL A   1      31.416  28.311  24.247  1.00  0.00     0.287 C 
ATOM     22  C   UNL A   1      29.320  26.913  23.958  1.00  0.00     0.037 C 
ATOM     23  C   UNL A   1      33.123  28.615  27.289  1.00  0.00     0.073 C 
ATOM     24  N   UNL A   1      31.407  28.860  25.619  1.00  0.00    -0.329 N 
ATOM     25  C   UNL A   1      32.796  30.081  27.112  1.00  0.00     0.068 C 
ATOM     26  C   UNL A   1      32.171  30.114  25.727  1.00  0.00     0.262 C 
ATOM     27  H   UNL A   1      30.423  29.040  25.820  1.00  0.00     0.348 HD
ENDBRANCH  14  17
ENDBRANCH  12  13
ENDBRANCH   8  12
ENDBRANCH   6   8
ENDBRANCH   5   6
ENDBRANCH   4   5
ENDBRANCH   3   4
ENDBRANCH   2   3
ENDBRANCH   1   2
BRANCH   1  28
ATOM     28  C   UNL A   1      37.594  22.137  25.121  1.00  0.00     0.188 C 
BRANCH  28  29
ATOM     29  O   UNL A   1      38.956  21.950  25.421  1.00  0.00    -0.376 OA
BRANCH  29  30
ATOM     30  C   UNL A   1      39.312  20.880  26.281  1.00  0.00     0.202 C 
BRANCH  30  31
ATOM     31  C   UNL A   1      40.079  19.651  25.751  1.00  0.00     0.261 C 
BRANCH  31  32
ATOM     32  O   UNL A   1      41.301  19.290  26.415  1.00  0.00    -0.460 OA
BRANCH  32  33
ATOM     33  C   UNL A   1      42.459  19.695  25.843  1.00  0.00     0.338 C 
ATOM     34  O   UNL A   1      43.103  19.082  25.002  1.00  0.00    -0.246 OA
BRANCH  33  35
ATOM     35  C   UNL A   1      42.672  21.118  26.200  1.00  0.00     0.060 A 
ATOM     36  C   UNL A   1      42.754  22.069  25.171  1.00  0.00     0.016 A 
ATOM     37  C   UNL A   1      42.771  21.518  27.534  1.00  0.00     0.016 A 
ATOM     38  C   UNL A   1      42.970  23.416  25.472  1.00  0.00     0.010 A 
ATOM     39  C   UNL A   1      43.017  22.864  27.833  1.00  0.00     0.010 A 
ATOM     40  C   UNL A   1      43.153  23.813  26.803  1.00  0.00    -0.014 A 
BRANCH  40  41
ATOM     41  C   UNL A   1      43.710  25.161  27.095  1.00  0.00     0.031 A 
ATOM     42  C   UNL A   1      42.787  26.191  27.694  1.00  0.00     0.074 A 
ATOM     43  C   UNL A   1      45.001  25.463  26.867  1.00  0.00     0.049 A 
ATOM     44  N   UNL A   1      43.013  27.446  27.982  1.00  0.00    -0.248 NA
ATOM     45  C   UNL A   1      41.422  25.737  28.005  1.00  0.00     0.031 C 
ATOM     46  C   UNL A   1      46.006  24.540  26.341  1.00  0.00     0.029 A 
ATOM     47  N   UNL A   1      45.687  26.641  27.043  1.00  0.00    -0.354 N 
ATOM     48  C   UNL A   1      41.815  27.937  28.493  1.00  0.00     0.074 A 
ATOM     49  C   UNL A   1      40.861  26.851  28.445  1.00  0.00     0.031 C 
ATOM     50  C   UNL A   1      47.176  25.194  26.222  1.00  0.00     0.029 A 
ATOM     51  C   UNL A   1      46.997  26.588  26.621  1.00  0.00     0.049 A 
ATOM     52  H   UNL A   1      45.280  27.448  27.433  1.00  0.00     0.167 HD
ATOM     53  C   UNL A   1      41.538  29.178  28.961  1.00  0.00     0.034 A 
ATOM     54  C   UNL A   1      47.929  27.562  26.538  1.00  0.00     0.034 A 
ATOM     55  C   UNL A   1      42.499  30.255  28.995  1.00  0.00     0.049 A 
ATOM     56  C   UNL A   1      47.573  28.961  26.993  1.00  0.00     0.074 A 
ATOM     57  C   UNL A   1      42.327  31.545  29.466  1.00  0.00     0.029 A 
ATOM     58  N   UNL A   1      43.804  30.174  28.528  1.00  0.00    -0.354 N 
ATOM     59  N   UNL A   1      46.440  29.411  27.484  1.00  0.00    -0.248 NA
ATOM     60  C   UNL A   1      48.628  29.978  26.897  1.00  0.00     0.031 C 
ATOM     61  C   UNL A   1      43.496  32.266  29.205  1.00  0.00     0.029 A 
ATOM     62  C   UNL A   1      44.435  31.401  28.666  1.00  0.00     0.049 A 
ATOM     63  H   UNL A   1      44.220  29.364  28.154  1.00  0.00     0.167 HD
ATOM     64  C   UNL A   1      46.664  30.752  27.792  1.00  0.00     0.074 A 
ATOM     65  C   UNL A   1      48.042  31.030  27.447  1.00  0.00     0.031 C 
ATOM     66  C   UNL A   1      45.811  31.671  28.316  1.00  0.00     0.034 A 
BRANCH  53  67
ATOM     67  C   UNL A   1      40.124  29.455  29.413  1.00  0.00     0.023 A 
ATOM     68  C   UNL A   1      39.777  29.534  30.773  1.00  0.00     0.031 A 
ATOM     69  C   UNL A   1      39.102  29.625  28.462  1.00  0.00     0.131 A 
ATOM     70  C   UNL A   1      38.435  29.715  31.142  1.00  0.00     0.055 A 
ATOM     71  C   UNL A   1      37.783  29.888  28.836  1.00  0.00     0.041 A 
ATOM     72  F   UNL A   1      39.368  29.532  27.150  1.00  0.00    -0.206 F 
ATOM     73  C   UNL A   1      37.440  29.921  30.183  1.00  0.00     0.022 A 
BRANCH  70  74
ATOM     74  S   UNL A   1      37.985  29.538  32.890  1.00  0.00     0.124 S 
ATOM     75  O   UNL A   1      39.284  29.679  33.545  1.00  0.00    -0.237 OA
ATOM     76  O   UNL A   1      37.047  30.638  33.088  1.00  0.00    -0.237 OA
ATOM     77  O   UNL A   1      37.401  28.199  32.961  1.00  0.00    -0.744 OA
ENDBRANCH  70  74
ENDBRANCH  53  67
BRANCH  54  78
ATOM     78  C   UNL A   1      49.276  27.280  25.956  1.00  0.00     0.023 A 
ATOM     79  C   UNL A   1      49.577  27.593  24.620  1.00  0.00     0.031 A 
ATOM     80  C   UNL A   1      50.260  26.611  26.708  1.00  0.00     0.131 A 
ATOM     81  C   UNL A   1      50.800  27.187  24.062  1.00  0.00     0.055 A 
ATOM     82  C   UNL A   1      51.500  26.268  26.168  1.00  0.00     0.041 A 
ATOM     83  F   UNL A   1      50.025  26.277  27.987  1.00  0.00    -0.206 F 
ATOM     84  C   UNL A   1      51.770  26.542  24.831  1.00  0.00     0.022 A 
BRANCH  81  85
ATOM     85  S   UNL A   1      51.061  27.415  22.280  1.00  0.00     0.124 S 
ATOM     86  O   UNL A   1      52.207  26.547  22.037  1.00  0.00    -0.237 OA
ATOM     87  O   UNL A   1      49.787  26.967  21.728  1.00  0.00    -0.237 OA
ATOM     88  O   UNL A   1      51.323  28.847  22.155  1.00  0.00    -0.744 OA
ENDBRANCH  81  85
ENDBRANCH  54  78
BRANCH  66  89
ATOM     89  C   UNL A   1      46.368  33.046  28.613  1.00  0.00     0.023 A 
ATOM     90  C   UNL A   1      46.318  34.091  27.675  1.00  0.00     0.031 A 
ATOM     91  C   UNL A   1      46.983  33.305  29.852  1.00  0.00     0.131 A 
ATOM     92  C   UNL A   1      46.940  35.318  27.959  1.00  0.00     0.055 A 
ATOM     93  C   UNL A   1      47.530  34.552  30.159  1.00  0.00     0.041 A 
ATOM     94  F   UNL A   1      47.064  32.346  30.789  1.00  0.00    -0.206 F 
ATOM     95  C   UNL A   1      47.528  35.561  29.202  1.00  0.00     0.022 A 
BRANCH  92  96
ATOM     96  S   UNL A   1      47.088  36.546  26.632  1.00  0.00     0.124 S 
ATOM     97  O   UNL A   1      48.152  37.409  27.136  1.00  0.00    -0.237 OA
ATOM     98  O   UNL A   1      47.431  35.720  25.479  1.00  0.00    -0.237 OA
ATOM     99  O   UNL A   1      45.763  37.160  26.583  1.00  0.00    -0.744 OA
ENDBRANCH  92  96
ENDBRANCH  66  89
ENDBRANCH  40  41
ENDBRANCH  33  35
ENDBRANCH  32  33
ENDBRANCH  31  32
ENDBRANCH  30  31
ENDBRANCH  29  30
ENDBRANCH  28  29
ENDBRANCH   1  28
TORSDOF 25
ENDMDL
MODEL 3
REMARK VINA RESULT:      -9.9      1.508      2.479
REMARK SMILES CCC[C@H](CNC(=O)N1C[C@H]2CCC[N@H+]2C[C@@H]1C)C(=O)OCCOCCOCCOC(=O)c1ccc(-c2c3nc(c(-c4cc(S(=O)(=O)[O-])ccc4F)c4ccc([nH]4)c(-c4cc(S(=O)(=O)[O-])ccc4F)c4nc(c(-c5cc(S(=O)(=O)[O-])ccc5F)c5ccc2[nH]5)C=C4)C=C3)cc1
REMARK SMILES IDX 25 1 24 2 23 3 22 4 21 5 19 6 20 7 4 8 3 9 2 10 1 11 5 12
REMARK SMILES IDX 6 13 7 14 8 16 9 17 10 18 17 19 11 20 16 21 18 22 12 23
REMARK SMILES IDX 15 24 13 25 14 26 26 28 27 29 28 30 29 31 30 32 31 33 32 34
REMARK SMILES IDX 33 35 34 36 95 37 35 38 94 39 36 40 37 41 38 42 88 43 39 44
REMARK SMILES IDX 93 45 87 46 89 47 40 48 92 49 86 50 85 51 41 53 73 54 53 55
REMARK SMILES IDX 72 56 54 57 57 58 71 59 90 60 55 61 56 62 70 64 91 65 58 66
REMARK SMILES IDX 42 67 43 68 51 69 44 70 50 71 52 72 49 73 45 74 46 75 47 76
REMARK SMILES IDX 48 77 74 78 75 79 83 80 76 81 82 82 84 83 81 84 77 85 78 86
REMARK SMILES IDX 79 87 80 88 59 89 60 90 68 91 61 92 67 93 69 94 66 95 62 96
REMARK SMILES IDX 63 97 64 98 65 99
REMARK H PARENT 6 15 15 27 89 52 57 63
REMARK Flexibility Score: inf
ROOT
ATOM      1  C   UNL A   1      34.011  20.689  26.157  1.00  0.00     0.188 C 
ENDROOT
BRANCH   1   2
ATOM      2  O   UNL A   1      34.399  21.395  27.326  1.00  0.00    -0.376 OA
BRANCH   2   3
ATOM      3  C   UNL A   1      33.660  22.526  27.766  1.00  0.00     0.202 C 
BRANCH   3   4
ATOM      4  C   UNL A   1      32.352  22.947  27.067  1.00  0.00     0.261 C 
BRANCH   4   5
ATOM      5  O   UNL A   1      32.343  24.223  26.387  1.00  0.00    -0.463 OA
BRANCH   5   6
ATOM      6  C   UNL A   1      32.914  24.227  25.158  1.00  0.00     0.310 C 
ATOM      7  O   UNL A   1      34.119  24.396  24.997  1.00  0.00    -0.252 OA
BRANCH   6   8
ATOM      8  C   UNL A   1      31.964  23.956  23.975  1.00  0.00     0.118 C 
BRANCH   8   9
ATOM      9  C   UNL A   1      32.425  22.724  23.172  1.00  0.00     0.017 C 
BRANCH   9  10
ATOM     10  C   UNL A   1      31.830  21.368  23.584  1.00  0.00    -0.002 C 
ATOM     11  C   UNL A   1      32.224  20.201  22.687  1.00  0.00     0.004 C 
ENDBRANCH   9  10
ENDBRANCH   8   9
BRANCH   8  12
ATOM     12  C   UNL A   1      31.584  25.184  23.094  1.00  0.00     0.133 C 
BRANCH  12  13
ATOM     13  N   UNL A   1      32.638  25.759  22.276  1.00  0.00    -0.337 N 
ATOM     14  C   UNL A   1      33.102  27.016  22.121  1.00  0.00     0.318 C 
ATOM     15  H   UNL A   1      33.111  25.096  21.724  1.00  0.00     0.165 HD
ATOM     16  O   UNL A   1      33.713  27.240  21.073  1.00  0.00    -0.249 OA
BRANCH  14  17
ATOM     17  N   UNL A   1      32.842  27.998  23.032  1.00  0.00    -0.311 N 
ATOM     18  C   UNL A   1      33.645  27.983  24.252  1.00  0.00     0.186 C 
ATOM     19  C   UNL A   1      31.681  28.932  23.066  1.00  0.00     0.139 C 
ATOM     20  C   UNL A   1      32.789  27.709  25.494  1.00  0.00     0.204 C 
ATOM     21  C   UNL A   1      31.433  29.515  24.512  1.00  0.00     0.287 C 
ATOM     22  C   UNL A   1      30.372  28.331  22.537  1.00  0.00     0.037 C 
ATOM     23  C   UNL A   1      33.577  27.931  26.783  1.00  0.00     0.073 C 
ATOM     24  N   UNL A   1      31.563  28.535  25.611  1.00  0.00    -0.329 N 
ATOM     25  C   UNL A   1      32.512  28.330  27.780  1.00  0.00     0.068 C 
ATOM     26  C   UNL A   1      31.571  29.175  26.936  1.00  0.00     0.262 C 
ATOM     27  H   UNL A   1      30.741  27.937  25.523  1.00  0.00     0.348 HD
ENDBRANCH  14  17
ENDBRANCH  12  13
ENDBRANCH   8  12
ENDBRANCH   6   8
ENDBRANCH   5   6
ENDBRANCH   4   5
ENDBRANCH   3   4
ENDBRANCH   2   3
ENDBRANCH   1   2
BRANCH   1  28
ATOM     28  C   UNL A   1      35.034  20.449  25.040  1.00  0.00     0.188 C 
BRANCH  28  29
ATOM     29  O   UNL A   1      35.686  21.601  24.563  1.00  0.00    -0.376 OA
BRANCH  29  30
ATOM     30  C   UNL A   1      37.095  21.556  24.403  1.00  0.00     0.202 C 
BRANCH  30  31
ATOM     31  C   UNL A   1      37.989  20.802  25.410  1.00  0.00     0.261 C 
BRANCH  31  32
ATOM     32  O   UNL A   1      39.388  21.132  25.437  1.00  0.00    -0.460 OA
BRANCH  32  33
ATOM     33  C   UNL A   1      40.028  21.014  26.623  1.00  0.00     0.338 C 
ATOM     34  O   UNL A   1      40.478  19.981  27.104  1.00  0.00    -0.246 OA
BRANCH  33  35
ATOM     35  C   UNL A   1      40.333  22.379  27.115  1.00  0.00     0.060 A 
ATOM     36  C   UNL A   1      39.617  23.465  26.586  1.00  0.00     0.016 A 
ATOM     37  C   UNL A   1      41.299  22.590  28.100  1.00  0.00     0.016 A 
ATOM     38  C   UNL A   1      39.891  24.765  27.015  1.00  0.00     0.010 A 
ATOM     39  C   UNL A   1      41.593  23.897  28.509  1.00  0.00     0.010 A 
ATOM     40  C   UNL A   1      40.916  24.993  27.942  1.00  0.00    -0.014 A 
BRANCH  40  41
ATOM     41  C   UNL A   1      41.429  26.375  28.143  1.00  0.00     0.031 A 
ATOM     42  C   UNL A   1      42.797  26.705  27.604  1.00  0.00     0.074 A 
ATOM     43  C   UNL A   1      40.698  27.324  28.756  1.00  0.00     0.049 A 
ATOM     44  N   UNL A   1      43.488  27.810  27.702  1.00  0.00    -0.248 NA
ATOM     45  C   UNL A   1      43.477  25.633  26.858  1.00  0.00     0.031 C 
ATOM     46  C   UNL A   1      39.342  27.146  29.272  1.00  0.00     0.029 A 
ATOM     47  N   UNL A   1      41.002  28.630  29.055  1.00  0.00    -0.354 N 
ATOM     48  C   UNL A   1      44.690  27.564  27.045  1.00  0.00     0.074 A 
ATOM     49  C   UNL A   1      44.642  26.195  26.580  1.00  0.00     0.031 C 
ATOM     50  C   UNL A   1      38.938  28.297  29.840  1.00  0.00     0.029 A 
ATOM     51  C   UNL A   1      40.018  29.280  29.766  1.00  0.00     0.049 A 
ATOM     52  H   UNL A   1      41.846  29.062  28.786  1.00  0.00     0.167 HD
ATOM     53  C   UNL A   1      45.734  28.404  26.844  1.00  0.00     0.034 A 
ATOM     54  C   UNL A   1      40.007  30.512  30.319  1.00  0.00     0.034 A 
ATOM     55  C   UNL A   1      45.771  29.766  27.320  1.00  0.00     0.049 A 
ATOM     56  C   UNL A   1      41.217  31.405  30.149  1.00  0.00     0.074 A 
ATOM     57  C   UNL A   1      46.772  30.706  27.155  1.00  0.00     0.029 A 
ATOM     58  N   UNL A   1      44.771  30.377  28.065  1.00  0.00    -0.354 N 
ATOM     59  N   UNL A   1      42.343  31.165  29.516  1.00  0.00    -0.248 NA
ATOM     60  C   UNL A   1      41.146  32.740  30.757  1.00  0.00     0.031 C 
ATOM     61  C   UNL A   1      46.418  31.854  27.872  1.00  0.00     0.029 A 
ATOM     62  C   UNL A   1      45.149  31.669  28.398  1.00  0.00     0.049 A 
ATOM     63  H   UNL A   1      43.918  29.955  28.320  1.00  0.00     0.167 HD
ATOM     64  C   UNL A   1      43.094  32.335  29.617  1.00  0.00     0.074 A 
ATOM     65  C   UNL A   1      42.285  33.282  30.355  1.00  0.00     0.031 C 
ATOM     66  C   UNL A   1      44.336  32.607  29.139  1.00  0.00     0.034 A 
BRANCH  53  67
ATOM     67  C   UNL A   1      46.947  27.852  26.134  1.00  0.00     0.023 A 
ATOM     68  C   UNL A   1      47.183  28.086  24.768  1.00  0.00     0.031 A 
ATOM     69  C   UNL A   1      47.875  27.062  26.836  1.00  0.00     0.131 A 
ATOM     70  C   UNL A   1      48.284  27.486  24.136  1.00  0.00     0.055 A 
ATOM     71  C   UNL A   1      49.013  26.538  26.220  1.00  0.00     0.041 A 
ATOM     72  F   UNL A   1      47.688  26.781  28.135  1.00  0.00    -0.206 F 
ATOM     73  C   UNL A   1      49.216  26.738  24.858  1.00  0.00     0.022 A 
BRANCH  70  74
ATOM     74  S   UNL A   1      48.405  27.582  22.329  1.00  0.00     0.124 S 
ATOM     75  O   UNL A   1      48.585  26.177  21.970  1.00  0.00    -0.237 OA
ATOM     76  O   UNL A   1      47.125  28.177  21.957  1.00  0.00    -0.237 OA
ATOM     77  O   UNL A   1      49.575  28.429  22.107  1.00  0.00    -0.744 OA
ENDBRANCH  70  74
ENDBRANCH  53  67
BRANCH  54  78
ATOM     78  C   UNL A   1      38.840  30.972  31.133  1.00  0.00     0.023 A 
ATOM     79  C   UNL A   1      37.793  31.710  30.560  1.00  0.00     0.031 A 
ATOM     80  C   UNL A   1      38.801  30.749  32.522  1.00  0.00     0.131 A 
ATOM     81  C   UNL A   1      36.785  32.250  31.376  1.00  0.00     0.055 A 
ATOM     82  C   UNL A   1      37.763  31.231  33.321  1.00  0.00     0.041 A 
ATOM     83  F   UNL A   1      39.780  30.058  33.127  1.00  0.00    -0.206 F 
ATOM     84  C   UNL A   1      36.754  32.001  32.750  1.00  0.00     0.022 A 
BRANCH  81  85
ATOM     85  S   UNL A   1      35.574  33.379  30.633  1.00  0.00     0.124 S 
ATOM     86  O   UNL A   1      36.354  33.982  29.559  1.00  0.00    -0.237 OA
ATOM     87  O   UNL A   1      34.518  32.460  30.222  1.00  0.00    -0.237 OA
ATOM     88  O   UNL A   1      35.226  34.275  31.732  1.00  0.00    -0.744 OA
ENDBRANCH  81  85
ENDBRANCH  54  78
BRANCH  66  89
ATOM     89  C   UNL A   1      44.867  34.009  29.342  1.00  0.00     0.023 A 
ATOM     90  C   UNL A   1      44.572  35.056  28.452  1.00  0.00     0.031 A 
ATOM     91  C   UNL A   1      45.706  34.295  30.436  1.00  0.00     0.131 A 
ATOM     92  C   UNL A   1      45.172  36.314  28.626  1.00  0.00     0.055 A 
ATOM     93  C   UNL A   1      46.236  35.568  30.647  1.00  0.00     0.041 A 
ATOM     94  F   UNL A   1      46.027  33.336  31.320  1.00  0.00    -0.206 F 
ATOM     95  C   UNL A   1      45.986  36.582  29.729  1.00  0.00     0.022 A 
BRANCH  92  96
ATOM     96  S   UNL A   1      44.982  37.558  27.319  1.00  0.00     0.124 S 
ATOM     97  O   UNL A   1      43.697  37.189  26.734  1.00  0.00    -0.237 OA
ATOM     98  O   UNL A   1      45.004  38.807  28.072  1.00  0.00    -0.237 OA
ATOM     99  O   UNL A   1      46.142  37.332  26.459  1.00  0.00    -0.744 OA
ENDBRANCH  92  96
ENDBRANCH  66  89
ENDBRANCH  40  41
ENDBRANCH  33  35
ENDBRANCH  32  33
ENDBRANCH  31  32
ENDBRANCH  30  31
ENDBRANCH  29  30
ENDBRANCH  28  29
ENDBRANCH   1  28
TORSDOF 25
ENDMDL
