MODEL 1
REMARK VINA RESULT:      -9.8      0.000      0.000
REMARK SMILES Cc1cscc1-c1noc(SCC(=O)OCCOCCOCCOC(=O)c2ccc(-c3c4nc(c(-c5cc(S(=O)(=O)[O-])ccc5F)c5ccc([nH]5)c(-c5cc(S(=O)(=O)[O-])ccc5F)c5nc(c(-c6cc(S(=O)(=O)[O-])ccc6F)c6ccc3[nH]6)C=C5)C=C4)cc2)n1
REMARK SMILES IDX 19 1 18 2 17 3 16 4 15 5 13 6 14 7 12 8 11 9 10 10 7 11 8 12
REMARK SMILES IDX 90 13 9 14 6 15 1 16 2 17 3 18 4 19 5 20 20 21 21 22 22 23
REMARK SMILES IDX 23 24 24 25 25 26 26 27 27 28 28 29 89 30 29 31 88 32 30 33
REMARK SMILES IDX 31 34 32 35 82 36 33 37 87 38 81 39 83 40 34 41 86 42 80 43
REMARK SMILES IDX 79 44 35 46 67 47 47 48 66 49 48 50 51 51 65 52 84 53 49 54
REMARK SMILES IDX 50 55 64 57 85 58 52 59 36 60 37 61 45 62 38 63 44 64 46 65
REMARK SMILES IDX 43 66 39 67 40 68 41 69 42 70 68 71 69 72 77 73 70 74 76 75
REMARK SMILES IDX 78 76 75 77 71 78 72 79 73 80 74 81 53 82 54 83 62 84 55 85
REMARK SMILES IDX 61 86 63 87 60 88 56 89 57 90 58 91 59 92
REMARK H PARENT 83 45 51 56
REMARK Flexibility Score: inf
ROOT
ATOM      1  C   UNL A   1      30.476  24.772  25.932  1.00  0.00     0.188 C 
ENDROOT
BRANCH   1   2
ATOM      2  O   UNL A   1      30.864  23.596  25.223  1.00  0.00    -0.376 OA
BRANCH   2   3
ATOM      3  C   UNL A   1      31.581  22.624  25.982  1.00  0.00     0.202 C 
BRANCH   3   4
ATOM      4  C   UNL A   1      32.157  21.466  25.142  1.00  0.00     0.261 C 
BRANCH   4   5
ATOM      5  O   UNL A   1      33.485  21.093  25.606  1.00  0.00    -0.463 OA
BRANCH   5   6
ATOM      6  C   UNL A   1      34.144  21.932  26.453  1.00  0.00     0.316 C 
ATOM      7  O   UNL A   1      33.875  22.019  27.646  1.00  0.00    -0.251 OA
BRANCH   6   8
ATOM      8  C   UNL A   1      35.378  22.609  25.820  1.00  0.00     0.202 C 
BRANCH   8   9
ATOM      9  S   UNL A   1      35.433  22.529  24.018  1.00  0.00    -0.053 SA
BRANCH   9  10
ATOM     10  C   UNL A   1      34.314  23.697  23.312  1.00  0.00     0.286 A 
ATOM     11  C   UNL A   1      33.180  25.406  22.721  1.00  0.00     0.204 A 
ATOM     12  N   UNL A   1      33.282  24.694  21.592  1.00  0.00    -0.056 NA
ATOM     13  N   UNL A   1      33.737  24.763  23.842  1.00  0.00    -0.181 NA
ATOM     14  O   UNL A   1      34.018  23.582  21.974  1.00  0.00    -0.327 OA
BRANCH  11  15
ATOM     15  C   UNL A   1      32.386  26.669  22.755  1.00  0.00     0.036 A 
ATOM     16  C   UNL A   1      34.280  28.578  22.638  1.00  0.00     0.046 C 
ATOM     17  C   UNL A   1      32.883  28.049  22.714  1.00  0.00    -0.029 A 
ATOM     18  C   UNL A   1      31.830  28.953  22.752  1.00  0.00     0.069 A 
ATOM     19  S   UNL A   1      30.331  28.216  22.460  1.00  0.00    -0.151 S 
ATOM     20  C   UNL A   1      31.009  26.654  22.630  1.00  0.00     0.077 A 
ENDBRANCH  11  15
ENDBRANCH   9  10
ENDBRANCH   8   9
ENDBRANCH   6   8
ENDBRANCH   5   6
ENDBRANCH   4   5
ENDBRANCH   3   4
ENDBRANCH   2   3
ENDBRANCH   1   2
BRANCH   1  21
ATOM     21  C   UNL A   1      31.631  25.657  26.410  1.00  0.00     0.188 C 
BRANCH  21  22
ATOM     22  O   UNL A   1      31.393  27.017  26.067  1.00  0.00    -0.376 OA
BRANCH  22  23
ATOM     23  C   UNL A   1      32.502  27.859  26.337  1.00  0.00     0.202 C 
BRANCH  23  24
ATOM     24  C   UNL A   1      32.082  29.343  26.299  1.00  0.00     0.261 C 
BRANCH  24  25
ATOM     25  O   UNL A   1      33.090  30.361  26.036  1.00  0.00    -0.460 OA
BRANCH  25  26
ATOM     26  C   UNL A   1      33.272  31.258  27.023  1.00  0.00     0.338 C 
ATOM     27  O   UNL A   1      32.542  32.210  27.217  1.00  0.00    -0.246 OA
BRANCH  26  28
ATOM     28  C   UNL A   1      34.434  31.051  27.901  1.00  0.00     0.060 A 
ATOM     29  C   UNL A   1      35.422  32.042  27.894  1.00  0.00     0.016 A 
ATOM     30  C   UNL A   1      34.699  29.810  28.471  1.00  0.00     0.016 A 
ATOM     31  C   UNL A   1      36.693  31.791  28.405  1.00  0.00     0.010 A 
ATOM     32  C   UNL A   1      35.969  29.565  29.014  1.00  0.00     0.010 A 
ATOM     33  C   UNL A   1      36.976  30.547  28.977  1.00  0.00    -0.014 A 
BRANCH  33  34
ATOM     34  C   UNL A   1      38.282  30.302  29.641  1.00  0.00     0.031 A 
ATOM     35  C   UNL A   1      39.296  29.346  29.090  1.00  0.00     0.074 A 
ATOM     36  C   UNL A   1      38.516  30.917  30.812  1.00  0.00     0.049 A 
ATOM     37  N   UNL A   1      40.340  28.798  29.654  1.00  0.00    -0.248 NA
ATOM     38  C   UNL A   1      39.101  28.957  27.696  1.00  0.00     0.031 C 
ATOM     39  C   UNL A   1      37.647  31.923  31.423  1.00  0.00     0.029 A 
ATOM     40  N   UNL A   1      39.530  30.745  31.713  1.00  0.00    -0.354 N 
ATOM     41  C   UNL A   1      40.904  27.962  28.691  1.00  0.00     0.074 A 
ATOM     42  C   UNL A   1      40.075  28.078  27.508  1.00  0.00     0.031 C 
ATOM     43  C   UNL A   1      38.137  32.238  32.629  1.00  0.00     0.029 A 
ATOM     44  C   UNL A   1      39.307  31.409  32.892  1.00  0.00     0.049 A 
ATOM     45  H   UNL A   1      40.334  30.206  31.534  1.00  0.00     0.167 HD
ATOM     46  C   UNL A   1      42.008  27.178  28.795  1.00  0.00     0.034 A 
ATOM     47  C   UNL A   1      39.927  31.304  34.079  1.00  0.00     0.034 A 
ATOM     48  C   UNL A   1      42.832  27.121  29.984  1.00  0.00     0.049 A 
ATOM     49  C   UNL A   1      41.099  30.377  34.214  1.00  0.00     0.074 A 
ATOM     50  C   UNL A   1      44.003  26.412  30.193  1.00  0.00     0.029 A 
ATOM     51  N   UNL A   1      42.567  27.801  31.167  1.00  0.00    -0.354 N 
ATOM     52  N   UNL A   1      41.612  29.560  33.324  1.00  0.00    -0.248 NA
ATOM     53  C   UNL A   1      41.782  30.372  35.510  1.00  0.00     0.031 C 
ATOM     54  C   UNL A   1      44.405  26.608  31.520  1.00  0.00     0.029 A 
ATOM     55  C   UNL A   1      43.531  27.500  32.118  1.00  0.00     0.049 A 
ATOM     56  H   UNL A   1      41.806  28.407  31.309  1.00  0.00     0.167 HD
ATOM     57  C   UNL A   1      42.702  28.963  33.947  1.00  0.00     0.074 A 
ATOM     58  C   UNL A   1      42.772  29.522  35.283  1.00  0.00     0.031 C 
ATOM     59  C   UNL A   1      43.575  28.045  33.456  1.00  0.00     0.034 A 
BRANCH  46  60
ATOM     60  C   UNL A   1      42.366  26.278  27.630  1.00  0.00     0.023 A 
ATOM     61  C   UNL A   1      41.936  24.943  27.541  1.00  0.00     0.031 A 
ATOM     62  C   UNL A   1      43.141  26.785  26.568  1.00  0.00     0.131 A 
ATOM     63  C   UNL A   1      42.320  24.151  26.444  1.00  0.00     0.055 A 
ATOM     64  C   UNL A   1      43.462  26.015  25.448  1.00  0.00     0.041 A 
ATOM     65  F   UNL A   1      43.600  28.047  26.599  1.00  0.00    -0.206 F 
ATOM     66  C   UNL A   1      43.060  24.684  25.386  1.00  0.00     0.022 A 
BRANCH  63  67
ATOM     67  S   UNL A   1      41.935  22.377  26.468  1.00  0.00     0.124 S 
ATOM     68  O   UNL A   1      42.771  21.875  25.380  1.00  0.00    -0.237 OA
ATOM     69  O   UNL A   1      42.336  21.987  27.814  1.00  0.00    -0.237 OA
ATOM     70  O   UNL A   1      40.497  22.334  26.207  1.00  0.00    -0.744 OA
ENDBRANCH  63  67
ENDBRANCH  46  60
BRANCH  47  71
ATOM     71  C   UNL A   1      39.406  32.078  35.233  1.00  0.00     0.023 A 
ATOM     72  C   UNL A   1      39.865  33.375  35.485  1.00  0.00     0.031 A 
ATOM     73  C   UNL A   1      38.408  31.544  36.068  1.00  0.00     0.131 A 
ATOM     74  C   UNL A   1      39.341  34.097  36.565  1.00  0.00     0.055 A 
ATOM     75  C   UNL A   1      37.857  32.282  37.114  1.00  0.00     0.041 A 
ATOM     76  F   UNL A   1      37.925  30.310  35.848  1.00  0.00    -0.206 F 
ATOM     77  C   UNL A   1      38.330  33.566  37.372  1.00  0.00     0.022 A 
BRANCH  74  78
ATOM     78  S   UNL A   1      40.032  35.732  36.920  1.00  0.00     0.124 S 
ATOM     79  O   UNL A   1      39.664  36.478  35.722  1.00  0.00    -0.237 OA
ATOM     80  O   UNL A   1      39.327  36.097  38.144  1.00  0.00    -0.237 OA
ATOM     81  O   UNL A   1      41.460  35.469  37.079  1.00  0.00    -0.744 OA
ENDBRANCH  74  78
ENDBRANCH  47  71
BRANCH  59  82
ATOM     82  C   UNL A   1      44.701  27.632  34.368  1.00  0.00     0.023 A 
ATOM     83  C   UNL A   1      44.554  26.581  35.291  1.00  0.00     0.031 A 
ATOM     84  C   UNL A   1      45.920  28.332  34.347  1.00  0.00     0.131 A 
ATOM     85  C   UNL A   1      45.584  26.307  36.203  1.00  0.00     0.055 A 
ATOM     86  C   UNL A   1      46.964  28.013  35.216  1.00  0.00     0.041 A 
ATOM     87  F   UNL A   1      46.112  29.346  33.489  1.00  0.00    -0.206 F 
ATOM     88  C   UNL A   1      46.793  27.005  36.162  1.00  0.00     0.022 A 
BRANCH  85  89
ATOM     89  S   UNL A   1      45.280  25.093  37.516  1.00  0.00     0.124 S 
ATOM     90  O   UNL A   1      45.840  23.876  36.937  1.00  0.00    -0.237 OA
ATOM     91  O   UNL A   1      46.012  25.659  38.642  1.00  0.00    -0.237 OA
ATOM     92  O   UNL A   1      43.824  25.098  37.657  1.00  0.00    -0.744 OA
ENDBRANCH  85  89
ENDBRANCH  59  82
ENDBRANCH  33  34
ENDBRANCH  26  28
ENDBRANCH  25  26
ENDBRANCH  24  25
ENDBRANCH  23  24
ENDBRANCH  22  23
ENDBRANCH  21  22
ENDBRANCH   1  21
TORSDOF 23
ENDMDL
MODEL 2
REMARK VINA RESULT:      -9.2      6.071     10.070
REMARK SMILES Cc1cscc1-c1noc(SCC(=O)OCCOCCOCCOC(=O)c2ccc(-c3c4nc(c(-c5cc(S(=O)(=O)[O-])ccc5F)c5ccc([nH]5)c(-c5cc(S(=O)(=O)[O-])ccc5F)c5nc(c(-c6cc(S(=O)(=O)[O-])ccc6F)c6ccc3[nH]6)C=C5)C=C4)cc2)n1
REMARK SMILES IDX 19 1 18 2 17 3 16 4 15 5 13 6 14 7 12 8 11 9 10 10 7 11 8 12
REMARK SMILES IDX 90 13 9 14 6 15 1 16 2 17 3 18 4 19 5 20 20 21 21 22 22 23
REMARK SMILES IDX 23 24 24 25 25 26 26 27 27 28 28 29 89 30 29 31 88 32 30 33
REMARK SMILES IDX 31 34 32 35 82 36 33 37 87 38 81 39 83 40 34 41 86 42 80 43
REMARK SMILES IDX 79 44 35 46 67 47 47 48 66 49 48 50 51 51 65 52 84 53 49 54
REMARK SMILES IDX 50 55 64 57 85 58 52 59 36 60 37 61 45 62 38 63 44 64 46 65
REMARK SMILES IDX 43 66 39 67 40 68 41 69 42 70 68 71 69 72 77 73 70 74 76 75
REMARK SMILES IDX 78 76 75 77 71 78 72 79 73 80 74 81 53 82 54 83 62 84 55 85
REMARK SMILES IDX 61 86 63 87 60 88 56 89 57 90 58 91 59 92
REMARK H PARENT 83 45 51 56
REMARK Flexibility Score: inf
ROOT
ATOM      1  C   UNL A   1      40.034  22.626  26.999  1.00  0.00     0.188 C 
ENDROOT
BRANCH   1   2
ATOM      2  O   UNL A   1      39.460  23.658  26.198  1.00  0.00    -0.376 OA
BRANCH   2   3
ATOM      3  C   UNL A   1      38.117  24.017  26.520  1.00  0.00     0.202 C 
BRANCH   3   4
ATOM      4  C   UNL A   1      37.069  23.509  25.510  1.00  0.00     0.261 C 
BRANCH   4   5
ATOM      5  O   UNL A   1      35.968  24.451  25.378  1.00  0.00    -0.463 OA
BRANCH   5   6
ATOM      6  C   UNL A   1      34.717  24.054  25.742  1.00  0.00     0.316 C 
ATOM      7  O   UNL A   1      34.512  23.223  26.620  1.00  0.00    -0.251 OA
BRANCH   6   8
ATOM      8  C   UNL A   1      33.589  24.883  25.094  1.00  0.00     0.202 C 
BRANCH   8   9
ATOM      9  S   UNL A   1      32.674  24.018  23.801  1.00  0.00    -0.053 SA
BRANCH   9  10
ATOM     10  C   UNL A   1      32.549  22.298  24.177  1.00  0.00     0.286 A 
ATOM     11  C   UNL A   1      32.848  20.229  24.609  1.00  0.00     0.204 A 
ATOM     12  N   UNL A   1      31.805  20.561  25.380  1.00  0.00    -0.056 NA
ATOM     13  N   UNL A   1      33.280  21.273  23.771  1.00  0.00    -0.181 NA
ATOM     14  O   UNL A   1      31.607  21.905  25.100  1.00  0.00    -0.327 OA
BRANCH  11  15
ATOM     15  C   UNL A   1      33.343  18.822  24.563  1.00  0.00     0.036 A 
ATOM     16  C   UNL A   1      36.016  19.117  24.676  1.00  0.00     0.046 C 
ATOM     17  C   UNL A   1      34.732  18.352  24.597  1.00  0.00    -0.029 A 
ATOM     18  C   UNL A   1      34.786  16.967  24.547  1.00  0.00     0.069 A 
ATOM     19  S   UNL A   1      33.277  16.248  24.837  1.00  0.00    -0.151 S 
ATOM     20  C   UNL A   1      32.475  17.752  24.681  1.00  0.00     0.077 A 
ENDBRANCH  11  15
ENDBRANCH   9  10
ENDBRANCH   8   9
ENDBRANCH   6   8
ENDBRANCH   5   6
ENDBRANCH   4   5
ENDBRANCH   3   4
ENDBRANCH   2   3
ENDBRANCH   1   2
BRANCH   1  21
ATOM     21  C   UNL A   1      41.132  21.804  26.317  1.00  0.00     0.188 C 
BRANCH  21  22
ATOM     22  O   UNL A   1      40.843  20.414  26.405  1.00  0.00    -0.376 OA
BRANCH  22  23
ATOM     23  C   UNL A   1      41.810  19.693  27.154  1.00  0.00     0.202 C 
BRANCH  23  24
ATOM     24  C   UNL A   1      42.605  18.738  26.241  1.00  0.00     0.261 C 
BRANCH  24  25
ATOM     25  O   UNL A   1      43.030  19.200  24.927  1.00  0.00    -0.460 OA
BRANCH  25  26
ATOM     26  C   UNL A   1      44.352  19.421  24.795  1.00  0.00     0.338 C 
ATOM     27  O   UNL A   1      45.172  18.541  24.624  1.00  0.00    -0.246 OA
BRANCH  26  28
ATOM     28  C   UNL A   1      44.801  20.820  24.872  1.00  0.00     0.060 A 
ATOM     29  C   UNL A   1      45.186  21.297  26.130  1.00  0.00     0.016 A 
ATOM     30  C   UNL A   1      44.567  21.713  23.831  1.00  0.00     0.016 A 
ATOM     31  C   UNL A   1      45.291  22.664  26.376  1.00  0.00     0.010 A 
ATOM     32  C   UNL A   1      44.703  23.088  24.068  1.00  0.00     0.010 A 
ATOM     33  C   UNL A   1      45.055  23.574  25.342  1.00  0.00    -0.014 A 
BRANCH  33  34
ATOM     34  C   UNL A   1      45.286  25.027  25.549  1.00  0.00     0.031 A 
ATOM     35  C   UNL A   1      46.654  25.637  25.502  1.00  0.00     0.074 A 
ATOM     36  C   UNL A   1      44.227  25.794  25.854  1.00  0.00     0.049 A 
ATOM     37  N   UNL A   1      47.081  26.798  25.925  1.00  0.00    -0.248 NA
ATOM     38  C   UNL A   1      47.688  24.814  24.882  1.00  0.00     0.031 C 
ATOM     39  C   UNL A   1      42.835  25.342  25.864  1.00  0.00     0.029 A 
ATOM     40  N   UNL A   1      44.168  27.098  26.262  1.00  0.00    -0.354 N 
ATOM     41  C   UNL A   1      48.450  26.826  25.660  1.00  0.00     0.074 A 
ATOM     42  C   UNL A   1      48.775  25.557  25.042  1.00  0.00     0.031 C 
ATOM     43  C   UNL A   1      42.063  26.339  26.314  1.00  0.00     0.029 A 
ATOM     44  C   UNL A   1      42.915  27.463  26.684  1.00  0.00     0.049 A 
ATOM     45  H   UNL A   1      44.940  27.708  26.254  1.00  0.00     0.167 HD
ATOM     46  C   UNL A   1      49.339  27.821  25.913  1.00  0.00     0.034 A 
ATOM     47  C   UNL A   1      42.509  28.549  27.361  1.00  0.00     0.034 A 
ATOM     48  C   UNL A   1      48.963  29.091  26.497  1.00  0.00     0.049 A 
ATOM     49  C   UNL A   1      43.508  29.612  27.709  1.00  0.00     0.074 A 
ATOM     50  C   UNL A   1      49.758  30.197  26.749  1.00  0.00     0.029 A 
ATOM     51  N   UNL A   1      47.683  29.422  26.922  1.00  0.00    -0.354 N 
ATOM     52  N   UNL A   1      44.803  29.628  27.497  1.00  0.00    -0.248 NA
ATOM     53  C   UNL A   1      42.985  30.807  28.375  1.00  0.00     0.031 C 
ATOM     54  C   UNL A   1      48.975  31.166  27.389  1.00  0.00     0.029 A 
ATOM     55  C   UNL A   1      47.673  30.698  27.467  1.00  0.00     0.049 A 
ATOM     56  H   UNL A   1      46.896  28.836  26.849  1.00  0.00     0.167 HD
ATOM     57  C   UNL A   1      45.247  30.855  27.978  1.00  0.00     0.074 A 
ATOM     58  C   UNL A   1      44.078  31.548  28.484  1.00  0.00     0.031 C 
ATOM     59  C   UNL A   1      46.505  31.368  27.991  1.00  0.00     0.034 A 
BRANCH  46  60
ATOM     60  C   UNL A   1      50.803  27.571  25.617  1.00  0.00     0.023 A 
ATOM     61  C   UNL A   1      51.702  27.089  26.585  1.00  0.00     0.031 A 
ATOM     62  C   UNL A   1      51.304  27.801  24.321  1.00  0.00     0.131 A 
ATOM     63  C   UNL A   1      53.055  26.899  26.256  1.00  0.00     0.055 A 
ATOM     64  C   UNL A   1      52.634  27.544  23.981  1.00  0.00     0.041 A 
ATOM     65  F   UNL A   1      50.503  28.279  23.354  1.00  0.00    -0.206 F 
ATOM     66  C   UNL A   1      53.523  27.100  24.955  1.00  0.00     0.022 A 
BRANCH  63  67
ATOM     67  S   UNL A   1      54.229  26.489  27.580  1.00  0.00     0.124 S 
ATOM     68  O   UNL A   1      53.355  26.438  28.750  1.00  0.00    -0.237 OA
ATOM     69  O   UNL A   1      54.772  25.212  27.133  1.00  0.00    -0.237 OA
ATOM     70  O   UNL A   1      55.169  27.608  27.564  1.00  0.00    -0.744 OA
ENDBRANCH  63  67
ENDBRANCH  46  60
BRANCH  47  71
ATOM     71  C   UNL A   1      41.089  28.643  27.784  1.00  0.00     0.023 A 
ATOM     72  C   UNL A   1      40.722  28.378  29.108  1.00  0.00     0.031 A 
ATOM     73  C   UNL A   1      40.091  29.045  26.877  1.00  0.00     0.131 A 
ATOM     74  C   UNL A   1      39.380  28.497  29.490  1.00  0.00     0.055 A 
ATOM     75  C   UNL A   1      38.765  29.205  27.273  1.00  0.00     0.041 A 
ATOM     76  F   UNL A   1      40.405  29.329  25.602  1.00  0.00    -0.206 F 
ATOM     77  C   UNL A   1      38.401  28.923  28.587  1.00  0.00     0.022 A 
BRANCH  74  78
ATOM     78  S   UNL A   1      38.929  28.047  31.185  1.00  0.00     0.124 S 
ATOM     79  O   UNL A   1      37.857  28.994  31.469  1.00  0.00    -0.237 OA
ATOM     80  O   UNL A   1      38.528  26.653  31.029  1.00  0.00    -0.237 OA
ATOM     81  O   UNL A   1      40.166  28.259  31.933  1.00  0.00    -0.744 OA
ENDBRANCH  74  78
ENDBRANCH  47  71
BRANCH  59  82
ATOM     82  C   UNL A   1      46.656  32.766  28.533  1.00  0.00     0.023 A 
ATOM     83  C   UNL A   1      46.518  33.896  27.707  1.00  0.00     0.031 A 
ATOM     84  C   UNL A   1      46.990  32.968  29.883  1.00  0.00     0.131 A 
ATOM     85  C   UNL A   1      46.782  35.173  28.223  1.00  0.00     0.055 A 
ATOM     86  C   UNL A   1      47.192  34.247  30.406  1.00  0.00     0.041 A 
ATOM     87  F   UNL A   1      47.138  31.925  30.715  1.00  0.00    -0.206 F 
ATOM     88  C   UNL A   1      47.103  35.357  29.570  1.00  0.00     0.022 A 
BRANCH  85  89
ATOM     89  S   UNL A   1      46.805  36.583  27.082  1.00  0.00     0.124 S 
ATOM     90  O   UNL A   1      45.609  37.316  27.485  1.00  0.00    -0.237 OA
ATOM     91  O   UNL A   1      48.079  37.218  27.395  1.00  0.00    -0.237 OA
ATOM     92  O   UNL A   1      46.731  35.957  25.762  1.00  0.00    -0.744 OA
ENDBRANCH  85  89
ENDBRANCH  59  82
ENDBRANCH  33  34
ENDBRANCH  26  28
ENDBRANCH  25  26
ENDBRANCH  24  25
ENDBRANCH  23  24
ENDBRANCH  22  23
ENDBRANCH  21  22
ENDBRANCH   1  21
TORSDOF 23
ENDMDL
MODEL 3
REMARK VINA RESULT:      -9.1      5.923      9.578
REMARK SMILES Cc1cscc1-c1noc(SCC(=O)OCCOCCOCCOC(=O)c2ccc(-c3c4nc(c(-c5cc(S(=O)(=O)[O-])ccc5F)c5ccc([nH]5)c(-c5cc(S(=O)(=O)[O-])ccc5F)c5nc(c(-c6cc(S(=O)(=O)[O-])ccc6F)c6ccc3[nH]6)C=C5)C=C4)cc2)n1
REMARK SMILES IDX 19 1 18 2 17 3 16 4 15 5 13 6 14 7 12 8 11 9 10 10 7 11 8 12
REMARK SMILES IDX 90 13 9 14 6 15 1 16 2 17 3 18 4 19 5 20 20 21 21 22 22 23
REMARK SMILES IDX 23 24 24 25 25 26 26 27 27 28 28 29 89 30 29 31 88 32 30 33
REMARK SMILES IDX 31 34 32 35 82 36 33 37 87 38 81 39 83 40 34 41 86 42 80 43
REMARK SMILES IDX 79 44 35 46 67 47 47 48 66 49 48 50 51 51 65 52 84 53 49 54
REMARK SMILES IDX 50 55 64 57 85 58 52 59 36 60 37 61 45 62 38 63 44 64 46 65
REMARK SMILES IDX 43 66 39 67 40 68 41 69 42 70 68 71 69 72 77 73 70 74 76 75
REMARK SMILES IDX 78 76 75 77 71 78 72 79 73 80 74 81 53 82 54 83 62 84 55 85
REMARK SMILES IDX 61 86 63 87 60 88 56 89 57 90 58 91 59 92
REMARK H PARENT 83 45 51 56
REMARK Flexibility Score: inf
ROOT
ATOM      1  C   UNL A   1      39.704  22.772  27.026  1.00  0.00     0.188 C 
ENDROOT
BRANCH   1   2
ATOM      2  O   UNL A   1      38.949  23.689  26.235  1.00  0.00    -0.376 OA
BRANCH   2   3
ATOM      3  C   UNL A   1      37.950  23.107  25.398  1.00  0.00     0.202 C 
BRANCH   3   4
ATOM      4  C   UNL A   1      36.571  22.959  26.071  1.00  0.00     0.261 C 
BRANCH   4   5
ATOM      5  O   UNL A   1      35.588  23.834  25.449  1.00  0.00    -0.463 OA
BRANCH   5   6
ATOM      6  C   UNL A   1      34.969  23.420  24.308  1.00  0.00     0.316 C 
ATOM      7  O   UNL A   1      35.345  23.753  23.190  1.00  0.00    -0.251 OA
BRANCH   6   8
ATOM      8  C   UNL A   1      33.886  22.346  24.544  1.00  0.00     0.202 C 
BRANCH   8   9
ATOM      9  S   UNL A   1      32.861  22.627  26.002  1.00  0.00    -0.053 SA
BRANCH   9  10
ATOM     10  C   UNL A   1      32.038  24.184  25.890  1.00  0.00     0.286 A 
ATOM     11  C   UNL A   1      30.992  25.956  25.320  1.00  0.00     0.204 A 
ATOM     12  N   UNL A   1      30.534  25.706  26.552  1.00  0.00    -0.056 NA
ATOM     13  N   UNL A   1      32.008  25.072  24.910  1.00  0.00    -0.181 NA
ATOM     14  O   UNL A   1      31.213  24.555  26.926  1.00  0.00    -0.327 OA
BRANCH  11  15
ATOM     15  C   UNL A   1      30.553  27.172  24.577  1.00  0.00     0.036 A 
ATOM     16  C   UNL A   1      32.591  28.887  24.967  1.00  0.00     0.046 C 
ATOM     17  C   UNL A   1      31.267  28.446  24.428  1.00  0.00    -0.029 A 
ATOM     18  C   UNL A   1      30.537  29.332  23.649  1.00  0.00     0.069 A 
ATOM     19  S   UNL A   1      29.267  28.573  22.819  1.00  0.00    -0.151 S 
ATOM     20  C   UNL A   1      29.447  27.147  23.746  1.00  0.00     0.077 A 
ENDBRANCH  11  15
ENDBRANCH   9  10
ENDBRANCH   8   9
ENDBRANCH   6   8
ENDBRANCH   5   6
ENDBRANCH   4   5
ENDBRANCH   3   4
ENDBRANCH   2   3
ENDBRANCH   1   2
BRANCH   1  21
ATOM     21  C   UNL A   1      40.990  22.252  26.375  1.00  0.00     0.188 C 
BRANCH  21  22
ATOM     22  O   UNL A   1      40.857  20.877  26.037  1.00  0.00    -0.376 OA
BRANCH  22  23
ATOM     23  C   UNL A   1      41.501  20.015  26.962  1.00  0.00     0.202 C 
BRANCH  23  24
ATOM     24  C   UNL A   1      42.435  19.030  26.230  1.00  0.00     0.261 C 
BRANCH  24  25
ATOM     25  O   UNL A   1      42.914  19.362  24.896  1.00  0.00    -0.460 OA
BRANCH  25  26
ATOM     26  C   UNL A   1      44.241  19.569  24.797  1.00  0.00     0.338 C 
ATOM     27  O   UNL A   1      45.055  18.682  24.636  1.00  0.00    -0.246 OA
BRANCH  26  28
ATOM     28  C   UNL A   1      44.704  20.962  24.896  1.00  0.00     0.060 A 
ATOM     29  C   UNL A   1      45.125  21.405  26.156  1.00  0.00     0.016 A 
ATOM     30  C   UNL A   1      44.452  21.883  23.885  1.00  0.00     0.016 A 
ATOM     31  C   UNL A   1      45.248  22.764  26.433  1.00  0.00     0.010 A 
ATOM     32  C   UNL A   1      44.605  23.251  24.153  1.00  0.00     0.010 A 
ATOM     33  C   UNL A   1      44.994  23.702  25.428  1.00  0.00    -0.014 A 
BRANCH  33  34
ATOM     34  C   UNL A   1      45.243  25.147  25.665  1.00  0.00     0.031 A 
ATOM     35  C   UNL A   1      46.614  25.748  25.596  1.00  0.00     0.074 A 
ATOM     36  C   UNL A   1      44.198  25.914  26.018  1.00  0.00     0.049 A 
ATOM     37  N   UNL A   1      47.062  26.894  26.037  1.00  0.00    -0.248 NA
ATOM     38  C   UNL A   1      47.624  24.932  24.928  1.00  0.00     0.031 C 
ATOM     39  C   UNL A   1      42.804  25.473  26.055  1.00  0.00     0.029 A 
ATOM     40  N   UNL A   1      44.162  27.207  26.461  1.00  0.00    -0.354 N 
ATOM     41  C   UNL A   1      48.423  26.918  25.735  1.00  0.00     0.074 A 
ATOM     42  C   UNL A   1      48.721  25.662  25.077  1.00  0.00     0.031 C 
ATOM     43  C   UNL A   1      42.052  26.464  26.551  1.00  0.00     0.029 A 
ATOM     44  C   UNL A   1      42.924  27.572  26.926  1.00  0.00     0.049 A 
ATOM     45  H   UNL A   1      44.939  27.812  26.446  1.00  0.00     0.167 HD
ATOM     46  C   UNL A   1      49.327  27.899  25.988  1.00  0.00     0.034 A 
ATOM     47  C   UNL A   1      42.545  28.643  27.641  1.00  0.00     0.034 A 
ATOM     48  C   UNL A   1      48.978  29.157  26.614  1.00  0.00     0.049 A 
ATOM     49  C   UNL A   1      43.563  29.689  27.988  1.00  0.00     0.074 A 
ATOM     50  C   UNL A   1      49.789  30.250  26.872  1.00  0.00     0.029 A 
ATOM     51  N   UNL A   1      47.713  29.487  27.083  1.00  0.00    -0.354 N 
ATOM     52  N   UNL A   1      44.852  29.701  27.741  1.00  0.00    -0.248 NA
ATOM     53  C   UNL A   1      43.068  30.872  28.698  1.00  0.00     0.031 C 
ATOM     54  C   UNL A   1      49.032  31.208  27.557  1.00  0.00     0.029 A 
ATOM     55  C   UNL A   1      47.728  30.749  27.659  1.00  0.00     0.049 A 
ATOM     56  H   UNL A   1      46.919  28.909  27.016  1.00  0.00     0.167 HD
ATOM     57  C   UNL A   1      45.319  30.912  28.240  1.00  0.00     0.074 A 
ATOM     58  C   UNL A   1      44.170  31.601  28.796  1.00  0.00     0.031 C 
ATOM     59  C   UNL A   1      46.581  31.414  28.231  1.00  0.00     0.034 A 
BRANCH  46  60
ATOM     60  C   UNL A   1      50.781  27.646  25.646  1.00  0.00     0.023 A 
ATOM     61  C   UNL A   1      51.311  27.879  24.366  1.00  0.00     0.031 A 
ATOM     62  C   UNL A   1      51.662  27.181  26.642  1.00  0.00     0.131 A 
ATOM     63  C   UNL A   1      52.665  27.603  24.103  1.00  0.00     0.055 A 
ATOM     64  C   UNL A   1      53.021  26.974  26.394  1.00  0.00     0.041 A 
ATOM     65  F   UNL A   1      51.217  26.921  27.882  1.00  0.00    -0.206 F 
ATOM     66  C   UNL A   1      53.529  27.175  25.114  1.00  0.00     0.022 A 
BRANCH  63  67
ATOM     67  S   UNL A   1      53.263  27.703  22.392  1.00  0.00     0.124 S 
ATOM     68  O   UNL A   1      52.018  27.889  21.650  1.00  0.00    -0.237 OA
ATOM     69  O   UNL A   1      54.156  28.855  22.439  1.00  0.00    -0.237 OA
ATOM     70  O   UNL A   1      53.918  26.413  22.181  1.00  0.00    -0.744 OA
ENDBRANCH  63  67
ENDBRANCH  46  60
BRANCH  47  71
ATOM     71  C   UNL A   1      41.139  28.737  28.105  1.00  0.00     0.023 A 
ATOM     72  C   UNL A   1      40.817  28.525  29.450  1.00  0.00     0.031 A 
ATOM     73  C   UNL A   1      40.107  29.087  27.214  1.00  0.00     0.131 A 
ATOM     74  C   UNL A   1      39.487  28.644  29.870  1.00  0.00     0.055 A 
ATOM     75  C   UNL A   1      38.792  29.248  27.645  1.00  0.00     0.041 A 
ATOM     76  F   UNL A   1      40.376  29.320  25.919  1.00  0.00    -0.206 F 
ATOM     77  C   UNL A   1      38.474  29.018  28.981  1.00  0.00     0.022 A 
BRANCH  74  78
ATOM     78  S   UNL A   1      39.095  28.262  31.595  1.00  0.00     0.124 S 
ATOM     79  O   UNL A   1      40.413  28.316  32.219  1.00  0.00    -0.237 OA
ATOM     80  O   UNL A   1      38.178  29.343  31.942  1.00  0.00    -0.237 OA
ATOM     81  O   UNL A   1      38.491  26.934  31.521  1.00  0.00    -0.744 OA
ENDBRANCH  74  78
ENDBRANCH  47  71
BRANCH  59  82
ATOM     82  C   UNL A   1      46.758  32.797  28.804  1.00  0.00     0.023 A 
ATOM     83  C   UNL A   1      46.579  33.949  28.018  1.00  0.00     0.031 A 
ATOM     84  C   UNL A   1      47.159  32.962  30.142  1.00  0.00     0.131 A 
ATOM     85  C   UNL A   1      46.868  35.212  28.556  1.00  0.00     0.055 A 
ATOM     86  C   UNL A   1      47.386  34.226  30.689  1.00  0.00     0.041 A 
ATOM     87  F   UNL A   1      47.349  31.897  30.935  1.00  0.00    -0.206 F 
ATOM     88  C   UNL A   1      47.256  35.359  29.890  1.00  0.00     0.022 A 
BRANCH  85  89
ATOM     89  S   UNL A   1      46.834  36.653  27.455  1.00  0.00     0.124 S 
ATOM     90  O   UNL A   1      48.203  37.147  27.561  1.00  0.00    -0.237 OA
ATOM     91  O   UNL A   1      46.467  36.060  26.174  1.00  0.00    -0.237 OA
ATOM     92  O   UNL A   1      45.817  37.516  28.053  1.00  0.00    -0.744 OA
ENDBRANCH  85  89
ENDBRANCH  59  82
ENDBRANCH  33  34
ENDBRANCH  26  28
ENDBRANCH  25  26
ENDBRANCH  24  25
ENDBRANCH  23  24
ENDBRANCH  22  23
ENDBRANCH  21  22
ENDBRANCH   1  21
TORSDOF 23
ENDMDL
