MODEL 1
REMARK VINA RESULT:      -9.9      0.000      0.000
REMARK SMILES O=C(OCCOCCOCCOC(=O)c1cccc(Oc2ncc([N+](=O)[O-])cc2Br)c1)c1ccc(-c2c3nc(c(-c4cc(S(=O)(=O)[O-])ccc4F)c4ccc([nH]4)c(-c4cc(S(=O)(=O)[O-])ccc4F)c4nc(c(-c5cc(S(=O)(=O)[O-])ccc5F)c5ccc2[nH]5)C=C4)C=C3)cc1
REMARK SMILES IDX 7 1 6 2 5 3 4 4 3 5 2 6 1 7 32 8 33 9 94 10 34 11 93 12
REMARK SMILES IDX 35 13 36 14 37 15 87 16 38 17 92 18 86 19 88 20 39 21 91 22
REMARK SMILES IDX 85 23 84 24 40 26 72 27 52 28 71 29 53 30 56 31 70 32 89 33
REMARK SMILES IDX 54 34 55 35 69 37 90 38 57 39 41 40 42 41 50 42 43 43 49 44
REMARK SMILES IDX 51 45 48 46 44 47 45 48 46 49 47 50 73 51 74 52 82 53 75 54
REMARK SMILES IDX 81 55 83 56 80 57 76 58 77 59 78 60 79 61 58 62 59 63 67 64
REMARK SMILES IDX 60 65 66 66 68 67 65 68 61 69 62 70 63 71 64 72 8 73 9 74
REMARK SMILES IDX 10 75 11 76 12 77 13 78 14 79 15 80 16 81 31 82 17 83 19 84
REMARK SMILES IDX 18 85 20 86 21 87 22 88 29 89 23 90 28 91 30 92 24 93 25 94
REMARK SMILES IDX 26 95 27 96
REMARK H PARENT 88 25 56 36
REMARK Flexibility Score: inf
ROOT
ATOM      1  C   UNL A   1      33.545  22.671  26.934  1.00  0.00     0.188 C 
ENDROOT
BRANCH   1   2
ATOM      2  O   UNL A   1      34.580  22.717  25.943  1.00  0.00    -0.376 OA
BRANCH   2   3
ATOM      3  C   UNL A   1      35.785  22.062  26.339  1.00  0.00     0.202 C 
BRANCH   3   4
ATOM      4  C   UNL A   1      36.298  21.038  25.320  1.00  0.00     0.261 C 
BRANCH   4   5
ATOM      5  O   UNL A   1      37.651  21.322  24.920  1.00  0.00    -0.460 OA
BRANCH   5   6
ATOM      6  C   UNL A   1      38.758  21.295  25.708  1.00  0.00     0.338 C 
ATOM      7  O   UNL A   1      39.366  20.235  25.854  1.00  0.00    -0.246 OA
BRANCH   6   8
ATOM      8  C   UNL A   1      39.323  22.524  26.332  1.00  0.00     0.060 A 
ATOM      9  C   UNL A   1      38.871  23.814  26.054  1.00  0.00     0.016 A 
ATOM     10  C   UNL A   1      40.328  22.360  27.298  1.00  0.00     0.016 A 
ATOM     11  C   UNL A   1      39.518  24.924  26.594  1.00  0.00     0.010 A 
ATOM     12  C   UNL A   1      40.921  23.472  27.909  1.00  0.00     0.010 A 
ATOM     13  C   UNL A   1      40.554  24.767  27.519  1.00  0.00    -0.014 A 
BRANCH  13  14
ATOM     14  C   UNL A   1      41.274  25.974  27.998  1.00  0.00     0.031 A 
ATOM     15  C   UNL A   1      42.681  26.234  27.535  1.00  0.00     0.074 A 
ATOM     16  C   UNL A   1      40.626  26.881  28.754  1.00  0.00     0.049 A 
ATOM     17  N   UNL A   1      43.473  27.238  27.811  1.00  0.00    -0.248 NA
ATOM     18  C   UNL A   1      43.278  25.225  26.645  1.00  0.00     0.031 C 
ATOM     19  C   UNL A   1      39.251  26.741  29.239  1.00  0.00     0.029 A 
ATOM     20  N   UNL A   1      41.017  28.110  29.218  1.00  0.00    -0.354 N 
ATOM     21  C   UNL A   1      44.664  26.978  27.142  1.00  0.00     0.074 A 
ATOM     22  C   UNL A   1      44.501  25.705  26.472  1.00  0.00     0.031 C 
ATOM     23  C   UNL A   1      38.905  27.857  29.898  1.00  0.00     0.029 A 
ATOM     24  C   UNL A   1      40.037  28.772  29.922  1.00  0.00     0.049 A 
ATOM     25  H   UNL A   1      41.914  28.486  29.063  1.00  0.00     0.167 HD
ATOM     26  C   UNL A   1      45.789  27.733  27.089  1.00  0.00     0.034 A 
ATOM     27  C   UNL A   1      40.051  29.975  30.529  1.00  0.00     0.034 A 
ATOM     28  C   UNL A   1      45.938  28.993  27.774  1.00  0.00     0.049 A 
ATOM     29  C   UNL A   1      41.311  30.793  30.449  1.00  0.00     0.074 A 
ATOM     30  C   UNL A   1      47.054  29.806  27.868  1.00  0.00     0.029 A 
ATOM     31  N   UNL A   1      44.925  29.628  28.484  1.00  0.00    -0.354 N 
ATOM     32  N   UNL A   1      42.448  30.502  29.859  1.00  0.00    -0.248 NA
ATOM     33  C   UNL A   1      41.291  32.099  31.117  1.00  0.00     0.031 C 
ATOM     34  C   UNL A   1      46.726  30.913  28.662  1.00  0.00     0.029 A 
ATOM     35  C   UNL A   1      45.391  30.817  29.022  1.00  0.00     0.049 A 
ATOM     36  H   UNL A   1      44.010  29.283  28.588  1.00  0.00     0.167 HD
ATOM     37  C   UNL A   1      43.287  31.582  30.106  1.00  0.00     0.074 A 
ATOM     38  C   UNL A   1      42.504  32.555  30.843  1.00  0.00     0.031 C 
ATOM     39  C   UNL A   1      44.595  31.748  29.782  1.00  0.00     0.034 A 
BRANCH  26  40
ATOM     40  C   UNL A   1      46.952  27.162  26.316  1.00  0.00     0.023 A 
ATOM     41  C   UNL A   1      47.993  26.467  26.959  1.00  0.00     0.031 A 
ATOM     42  C   UNL A   1      47.062  27.386  24.934  1.00  0.00     0.131 A 
ATOM     43  C   UNL A   1      49.133  26.090  26.233  1.00  0.00     0.055 A 
ATOM     44  C   UNL A   1      48.167  26.945  24.203  1.00  0.00     0.041 A 
ATOM     45  F   UNL A   1      46.112  28.066  24.273  1.00  0.00    -0.206 F 
ATOM     46  C   UNL A   1      49.219  26.306  24.856  1.00  0.00     0.022 A 
BRANCH  43  47
ATOM     47  S   UNL A   1      50.566  25.441  27.139  1.00  0.00     0.124 S 
ATOM     48  O   UNL A   1      51.530  25.241  26.059  1.00  0.00    -0.237 OA
ATOM     49  O   UNL A   1      50.867  26.521  28.071  1.00  0.00    -0.237 OA
ATOM     50  O   UNL A   1      50.059  24.213  27.748  1.00  0.00    -0.744 OA
ENDBRANCH  43  47
ENDBRANCH  26  40
BRANCH  27  51
ATOM     51  C   UNL A   1      38.877  30.455  31.314  1.00  0.00     0.023 A 
ATOM     52  C   UNL A   1      37.971  31.393  30.791  1.00  0.00     0.031 A 
ATOM     53  C   UNL A   1      38.675  30.009  32.634  1.00  0.00     0.131 A 
ATOM     54  C   UNL A   1      36.922  31.876  31.595  1.00  0.00     0.055 A 
ATOM     55  C   UNL A   1      37.619  30.474  33.418  1.00  0.00     0.041 A 
ATOM     56  F   UNL A   1      39.507  29.110  33.181  1.00  0.00    -0.206 F 
ATOM     57  C   UNL A   1      36.742  31.423  32.904  1.00  0.00     0.022 A 
BRANCH  54  58
ATOM     58  S   UNL A   1      35.795  33.126  30.916  1.00  0.00     0.124 S 
ATOM     59  O   UNL A   1      36.075  34.283  31.756  1.00  0.00    -0.237 OA
ATOM     60  O   UNL A   1      36.250  33.210  29.529  1.00  0.00    -0.237 OA
ATOM     61  O   UNL A   1      34.475  32.525  31.088  1.00  0.00    -0.744 OA
ENDBRANCH  54  58
ENDBRANCH  27  51
BRANCH  39  62
ATOM     62  C   UNL A   1      45.232  33.028  30.253  1.00  0.00     0.023 A 
ATOM     63  C   UNL A   1      45.736  33.143  31.561  1.00  0.00     0.031 A 
ATOM     64  C   UNL A   1      45.281  34.154  29.416  1.00  0.00     0.131 A 
ATOM     65  C   UNL A   1      46.204  34.382  32.019  1.00  0.00     0.055 A 
ATOM     66  C   UNL A   1      45.799  35.371  29.861  1.00  0.00     0.041 A 
ATOM     67  F   UNL A   1      44.809  34.094  28.160  1.00  0.00    -0.206 F 
ATOM     68  C   UNL A   1      46.249  35.493  31.174  1.00  0.00     0.022 A 
BRANCH  65  69
ATOM     69  S   UNL A   1      46.651  34.544  33.768  1.00  0.00     0.124 S 
ATOM     70  O   UNL A   1      45.856  35.696  34.181  1.00  0.00    -0.237 OA
ATOM     71  O   UNL A   1      46.239  33.255  34.317  1.00  0.00    -0.237 OA
ATOM     72  O   UNL A   1      48.096  34.768  33.733  1.00  0.00    -0.744 OA
ENDBRANCH  65  69
ENDBRANCH  39  62
ENDBRANCH  13  14
ENDBRANCH   6   8
ENDBRANCH   5   6
ENDBRANCH   4   5
ENDBRANCH   3   4
ENDBRANCH   2   3
ENDBRANCH   1   2
BRANCH   1  73
ATOM     73  C   UNL A   1      32.225  23.149  26.327  1.00  0.00     0.188 C 
BRANCH  73  74
ATOM     74  O   UNL A   1      31.638  22.230  25.399  1.00  0.00    -0.376 OA
BRANCH  74  75
ATOM     75  C   UNL A   1      31.545  22.653  24.041  1.00  0.00     0.202 C 
BRANCH  75  76
ATOM     76  C   UNL A   1      32.780  22.402  23.171  1.00  0.00     0.261 C 
BRANCH  76  77
ATOM     77  O   UNL A   1      33.701  23.501  23.097  1.00  0.00    -0.460 OA
BRANCH  77  78
ATOM     78  C   UNL A   1      33.440  24.390  22.120  1.00  0.00     0.338 C 
ATOM     79  O   UNL A   1      33.298  24.159  20.912  1.00  0.00    -0.246 OA
BRANCH  78  80
ATOM     80  C   UNL A   1      33.425  25.755  22.641  1.00  0.00     0.063 A 
ATOM     81  C   UNL A   1      33.634  26.847  21.796  1.00  0.00     0.016 A 
ATOM     82  C   UNL A   1      33.471  25.902  24.026  1.00  0.00     0.062 A 
ATOM     83  C   UNL A   1      33.901  28.097  22.354  1.00  0.00     0.005 A 
ATOM     84  C   UNL A   1      33.841  27.129  24.580  1.00  0.00     0.130 A 
ATOM     85  C   UNL A   1      34.028  28.233  23.741  1.00  0.00     0.047 A 
BRANCH  84  86
ATOM     86  O   UNL A   1      34.132  27.327  25.919  1.00  0.00    -0.438 OA
BRANCH  86  87
ATOM     87  C   UNL A   1      33.697  28.511  26.473  1.00  0.00     0.234 A 
ATOM     88  N   UNL A   1      34.684  29.378  26.799  1.00  0.00    -0.214 NA
ATOM     89  C   UNL A   1      32.338  28.822  26.568  1.00  0.00     0.087 A 
ATOM     90  C   UNL A   1      34.317  30.616  27.216  1.00  0.00     0.200 A 
ATOM     91  C   UNL A   1      31.982  30.114  26.951  1.00  0.00     0.108 A 
ATOM     92  Br  UNL A   1      30.971  27.608  26.072  1.00  0.00    -0.045 Br
ATOM     93  C   UNL A   1      32.996  31.024  27.273  1.00  0.00     0.288 A 
BRANCH  93  94
ATOM     94  N   UNL A   1      32.680  32.418  27.533  1.00  0.00     0.064 N 
ATOM     95  O   UNL A   1      33.613  33.177  27.828  1.00  0.00    -0.258 OA
ATOM     96  O   UNL A   1      31.521  32.792  27.287  1.00  0.00    -0.258 OA
ENDBRANCH  93  94
ENDBRANCH  86  87
ENDBRANCH  84  86
ENDBRANCH  78  80
ENDBRANCH  77  78
ENDBRANCH  76  77
ENDBRANCH  75  76
ENDBRANCH  74  75
ENDBRANCH  73  74
ENDBRANCH   1  73
TORSDOF 23
ENDMDL
MODEL 2
REMARK VINA RESULT:      -9.9      2.145      3.017
REMARK SMILES O=C(OCCOCCOCCOC(=O)c1cccc(Oc2ncc([N+](=O)[O-])cc2Br)c1)c1ccc(-c2c3nc(c(-c4cc(S(=O)(=O)[O-])ccc4F)c4ccc([nH]4)c(-c4cc(S(=O)(=O)[O-])ccc4F)c4nc(c(-c5cc(S(=O)(=O)[O-])ccc5F)c5ccc2[nH]5)C=C4)C=C3)cc1
REMARK SMILES IDX 7 1 6 2 5 3 4 4 3 5 2 6 1 7 32 8 33 9 94 10 34 11 93 12
REMARK SMILES IDX 35 13 36 14 37 15 87 16 38 17 92 18 86 19 88 20 39 21 91 22
REMARK SMILES IDX 85 23 84 24 40 26 72 27 52 28 71 29 53 30 56 31 70 32 89 33
REMARK SMILES IDX 54 34 55 35 69 37 90 38 57 39 41 40 42 41 50 42 43 43 49 44
REMARK SMILES IDX 51 45 48 46 44 47 45 48 46 49 47 50 73 51 74 52 82 53 75 54
REMARK SMILES IDX 81 55 83 56 80 57 76 58 77 59 78 60 79 61 58 62 59 63 67 64
REMARK SMILES IDX 60 65 66 66 68 67 65 68 61 69 62 70 63 71 64 72 8 73 9 74
REMARK SMILES IDX 10 75 11 76 12 77 13 78 14 79 15 80 16 81 31 82 17 83 19 84
REMARK SMILES IDX 18 85 20 86 21 87 22 88 29 89 23 90 28 91 30 92 24 93 25 94
REMARK SMILES IDX 26 95 27 96
REMARK H PARENT 88 25 56 36
REMARK Flexibility Score: inf
ROOT
ATOM      1  C   UNL A   1      35.938  24.059  25.665  1.00  0.00     0.188 C 
ENDROOT
BRANCH   1   2
ATOM      2  O   UNL A   1      35.995  23.475  24.357  1.00  0.00    -0.376 OA
BRANCH   2   3
ATOM      3  C   UNL A   1      37.140  22.648  24.145  1.00  0.00     0.202 C 
BRANCH   3   4
ATOM      4  C   UNL A   1      37.581  21.868  25.389  1.00  0.00     0.261 C 
BRANCH   4   5
ATOM      5  O   UNL A   1      39.012  21.728  25.445  1.00  0.00    -0.460 OA
BRANCH   5   6
ATOM      6  C   UNL A   1      39.800  21.839  26.547  1.00  0.00     0.338 C 
ATOM      7  O   UNL A   1      40.121  20.823  27.162  1.00  0.00    -0.246 OA
BRANCH   6   8
ATOM      8  C   UNL A   1      40.371  23.141  26.991  1.00  0.00     0.060 A 
ATOM      9  C   UNL A   1      41.239  23.280  28.073  1.00  0.00     0.016 A 
ATOM     10  C   UNL A   1      40.057  24.281  26.234  1.00  0.00     0.016 A 
ATOM     11  C   UNL A   1      41.648  24.543  28.497  1.00  0.00     0.010 A 
ATOM     12  C   UNL A   1      40.539  25.542  26.606  1.00  0.00     0.010 A 
ATOM     13  C   UNL A   1      41.297  25.688  27.775  1.00  0.00    -0.014 A 
BRANCH  13  14
ATOM     14  C   UNL A   1      41.678  27.017  28.314  1.00  0.00     0.031 A 
ATOM     15  C   UNL A   1      43.112  27.463  28.250  1.00  0.00     0.074 A 
ATOM     16  C   UNL A   1      40.721  27.858  28.756  1.00  0.00     0.049 A 
ATOM     17  N   UNL A   1      43.648  28.592  28.637  1.00  0.00    -0.248 NA
ATOM     18  C   UNL A   1      44.074  26.508  27.677  1.00  0.00     0.031 C 
ATOM     19  C   UNL A   1      39.295  27.536  28.838  1.00  0.00     0.029 A 
ATOM     20  N   UNL A   1      40.793  29.158  29.185  1.00  0.00    -0.354 N 
ATOM     21  C   UNL A   1      45.008  28.480  28.368  1.00  0.00     0.074 A 
ATOM     22  C   UNL A   1      45.219  27.160  27.814  1.00  0.00     0.031 C 
ATOM     23  C   UNL A   1      38.626  28.622  29.253  1.00  0.00     0.029 A 
ATOM     24  C   UNL A   1      39.570  29.701  29.506  1.00  0.00     0.049 A 
ATOM     25  H   UNL A   1      41.638  29.657  29.255  1.00  0.00     0.167 HD
ATOM     26  C   UNL A   1      45.989  29.395  28.563  1.00  0.00     0.034 A 
ATOM     27  C   UNL A   1      39.246  30.926  29.965  1.00  0.00     0.034 A 
ATOM     28  C   UNL A   1      45.762  30.701  29.130  1.00  0.00     0.049 A 
ATOM     29  C   UNL A   1      40.355  31.922  30.167  1.00  0.00     0.074 A 
ATOM     30  C   UNL A   1      46.683  31.681  29.456  1.00  0.00     0.029 A 
ATOM     31  N   UNL A   1      44.510  31.213  29.451  1.00  0.00    -0.354 N 
ATOM     32  N   UNL A   1      41.644  31.775  29.961  1.00  0.00    -0.248 NA
ATOM     33  C   UNL A   1      39.967  33.247  30.664  1.00  0.00     0.031 C 
ATOM     34  C   UNL A   1      45.993  32.769  30.005  1.00  0.00     0.029 A 
ATOM     35  C   UNL A   1      44.635  32.490  29.975  1.00  0.00     0.049 A 
ATOM     36  H   UNL A   1      43.658  30.738  29.323  1.00  0.00     0.167 HD
ATOM     37  C   UNL A   1      42.223  32.984  30.327  1.00  0.00     0.074 A 
ATOM     38  C   UNL A   1      41.137  33.867  30.704  1.00  0.00     0.031 C 
ATOM     39  C   UNL A   1      43.534  33.331  30.375  1.00  0.00     0.034 A 
BRANCH  26  40
ATOM     40  C   UNL A   1      47.393  28.965  28.219  1.00  0.00     0.023 A 
ATOM     41  C   UNL A   1      47.804  28.792  26.884  1.00  0.00     0.031 A 
ATOM     42  C   UNL A   1      48.307  28.645  29.238  1.00  0.00     0.131 A 
ATOM     43  C   UNL A   1      49.064  28.239  26.608  1.00  0.00     0.055 A 
ATOM     44  C   UNL A   1      49.586  28.163  28.954  1.00  0.00     0.041 A 
ATOM     45  F   UNL A   1      47.960  28.766  30.528  1.00  0.00    -0.206 F 
ATOM     46  C   UNL A   1      49.965  27.942  27.632  1.00  0.00     0.022 A 
BRANCH  43  47
ATOM     47  S   UNL A   1      49.455  27.779  24.896  1.00  0.00     0.124 S 
ATOM     48  O   UNL A   1      48.205  28.102  24.211  1.00  0.00    -0.237 OA
ATOM     49  O   UNL A   1      50.591  28.640  24.589  1.00  0.00    -0.237 OA
ATOM     50  O   UNL A   1      49.759  26.352  24.984  1.00  0.00    -0.744 OA
ENDBRANCH  43  47
ENDBRANCH  26  40
BRANCH  27  51
ATOM     51  C   UNL A   1      37.839  31.265  30.328  1.00  0.00     0.023 A 
ATOM     52  C   UNL A   1      36.993  31.956  29.444  1.00  0.00     0.031 A 
ATOM     53  C   UNL A   1      37.335  30.937  31.601  1.00  0.00     0.131 A 
ATOM     54  C   UNL A   1      35.700  32.323  29.856  1.00  0.00     0.055 A 
ATOM     55  C   UNL A   1      36.042  31.283  31.995  1.00  0.00     0.041 A 
ATOM     56  F   UNL A   1      38.098  30.272  32.482  1.00  0.00    -0.206 F 
ATOM     57  C   UNL A   1      35.220  31.992  31.126  1.00  0.00     0.022 A 
BRANCH  54  58
ATOM     58  S   UNL A   1      34.645  33.261  28.717  1.00  0.00     0.124 S 
ATOM     59  O   UNL A   1      35.558  33.554  27.620  1.00  0.00    -0.237 OA
ATOM     60  O   UNL A   1      33.585  32.295  28.434  1.00  0.00    -0.237 OA
ATOM     61  O   UNL A   1      34.223  34.412  29.511  1.00  0.00    -0.744 OA
ENDBRANCH  54  58
ENDBRANCH  27  51
BRANCH  39  62
ATOM     62  C   UNL A   1      43.830  34.719  30.876  1.00  0.00     0.023 A 
ATOM     63  C   UNL A   1      43.881  34.993  32.254  1.00  0.00     0.031 A 
ATOM     64  C   UNL A   1      44.001  35.784  29.976  1.00  0.00     0.131 A 
ATOM     65  C   UNL A   1      44.026  36.315  32.696  1.00  0.00     0.055 A 
ATOM     66  C   UNL A   1      44.200  37.091  30.424  1.00  0.00     0.041 A 
ATOM     67  F   UNL A   1      43.957  35.573  28.651  1.00  0.00    -0.206 F 
ATOM     68  C   UNL A   1      44.198  37.364  31.790  1.00  0.00     0.022 A 
BRANCH  65  69
ATOM     69  S   UNL A   1      43.880  36.654  34.471  1.00  0.00     0.124 S 
ATOM     70  O   UNL A   1      44.022  35.321  35.048  1.00  0.00    -0.237 OA
ATOM     71  O   UNL A   1      44.989  37.572  34.706  1.00  0.00    -0.237 OA
ATOM     72  O   UNL A   1      42.548  37.245  34.598  1.00  0.00    -0.744 OA
ENDBRANCH  65  69
ENDBRANCH  39  62
ENDBRANCH  13  14
ENDBRANCH   6   8
ENDBRANCH   5   6
ENDBRANCH   4   5
ENDBRANCH   3   4
ENDBRANCH   2   3
ENDBRANCH   1   2
BRANCH   1  73
ATOM     73  C   UNL A   1      34.513  23.966  26.212  1.00  0.00     0.188 C 
BRANCH  73  74
ATOM     74  O   UNL A   1      34.364  23.065  27.314  1.00  0.00    -0.376 OA
BRANCH  74  75
ATOM     75  C   UNL A   1      33.614  21.875  27.080  1.00  0.00     0.202 C 
BRANCH  75  76
ATOM     76  C   UNL A   1      34.193  20.906  26.047  1.00  0.00     0.261 C 
BRANCH  76  77
ATOM     77  O   UNL A   1      33.904  21.235  24.679  1.00  0.00    -0.460 OA
BRANCH  77  78
ATOM     78  C   UNL A   1      32.594  21.237  24.365  1.00  0.00     0.338 C 
ATOM     79  O   UNL A   1      31.754  20.371  24.640  1.00  0.00    -0.246 OA
BRANCH  78  80
ATOM     80  C   UNL A   1      32.254  22.394  23.541  1.00  0.00     0.063 A 
ATOM     81  C   UNL A   1      33.121  22.844  22.543  1.00  0.00     0.016 A 
ATOM     82  C   UNL A   1      31.184  23.180  23.967  1.00  0.00     0.062 A 
ATOM     83  C   UNL A   1      32.913  24.101  21.977  1.00  0.00     0.005 A 
ATOM     84  C   UNL A   1      31.039  24.478  23.474  1.00  0.00     0.130 A 
ATOM     85  C   UNL A   1      31.889  24.926  22.458  1.00  0.00     0.047 A 
BRANCH  84  86
ATOM     86  O   UNL A   1      30.157  25.414  23.985  1.00  0.00    -0.438 OA
BRANCH  86  87
ATOM     87  C   UNL A   1      30.710  26.446  24.713  1.00  0.00     0.234 A 
ATOM     88  N   UNL A   1      31.414  26.056  25.800  1.00  0.00    -0.214 NA
ATOM     89  C   UNL A   1      30.642  27.772  24.275  1.00  0.00     0.087 A 
ATOM     90  C   UNL A   1      32.102  27.011  26.476  1.00  0.00     0.200 A 
ATOM     91  C   UNL A   1      31.394  28.729  24.953  1.00  0.00     0.108 A 
ATOM     92  Br  UNL A   1      29.681  28.293  22.728  1.00  0.00    -0.045 Br
ATOM     93  C   UNL A   1      32.140  28.332  26.069  1.00  0.00     0.288 A 
BRANCH  93  94
ATOM     94  N   UNL A   1      33.052  29.262  26.715  1.00  0.00     0.064 N 
ATOM     95  O   UNL A   1      33.722  28.846  27.670  1.00  0.00    -0.258 OA
ATOM     96  O   UNL A   1      33.217  30.365  26.168  1.00  0.00    -0.258 OA
ENDBRANCH  93  94
ENDBRANCH  86  87
ENDBRANCH  84  86
ENDBRANCH  78  80
ENDBRANCH  77  78
ENDBRANCH  76  77
ENDBRANCH  75  76
ENDBRANCH  74  75
ENDBRANCH  73  74
ENDBRANCH   1  73
TORSDOF 23
ENDMDL
MODEL 3
REMARK VINA RESULT:      -9.8      5.404     10.961
REMARK SMILES O=C(OCCOCCOCCOC(=O)c1cccc(Oc2ncc([N+](=O)[O-])cc2Br)c1)c1ccc(-c2c3nc(c(-c4cc(S(=O)(=O)[O-])ccc4F)c4ccc([nH]4)c(-c4cc(S(=O)(=O)[O-])ccc4F)c4nc(c(-c5cc(S(=O)(=O)[O-])ccc5F)c5ccc2[nH]5)C=C4)C=C3)cc1
REMARK SMILES IDX 7 1 6 2 5 3 4 4 3 5 2 6 1 7 32 8 33 9 94 10 34 11 93 12
REMARK SMILES IDX 35 13 36 14 37 15 87 16 38 17 92 18 86 19 88 20 39 21 91 22
REMARK SMILES IDX 85 23 84 24 40 26 72 27 52 28 71 29 53 30 56 31 70 32 89 33
REMARK SMILES IDX 54 34 55 35 69 37 90 38 57 39 41 40 42 41 50 42 43 43 49 44
REMARK SMILES IDX 51 45 48 46 44 47 45 48 46 49 47 50 73 51 74 52 82 53 75 54
REMARK SMILES IDX 81 55 83 56 80 57 76 58 77 59 78 60 79 61 58 62 59 63 67 64
REMARK SMILES IDX 60 65 66 66 68 67 65 68 61 69 62 70 63 71 64 72 8 73 9 74
REMARK SMILES IDX 10 75 11 76 12 77 13 78 14 79 15 80 16 81 31 82 17 83 19 84
REMARK SMILES IDX 18 85 20 86 21 87 22 88 29 89 23 90 28 91 30 92 24 93 25 94
REMARK SMILES IDX 26 95 27 96
REMARK H PARENT 88 25 56 36
REMARK Flexibility Score: inf
ROOT
ATOM      1  C   UNL A   1      35.134  33.627  28.630  1.00  0.00     0.188 C 
ENDROOT
BRANCH   1   2
ATOM      2  O   UNL A   1      34.696  34.684  27.766  1.00  0.00    -0.376 OA
BRANCH   2   3
ATOM      3  C   UNL A   1      34.015  35.739  28.447  1.00  0.00     0.202 C 
BRANCH   3   4
ATOM      4  C   UNL A   1      32.766  35.281  29.207  1.00  0.00     0.261 C 
BRANCH   4   5
ATOM      5  O   UNL A   1      32.702  35.866  30.521  1.00  0.00    -0.460 OA
BRANCH   5   6
ATOM      6  C   UNL A   1      33.001  35.259  31.699  1.00  0.00     0.338 C 
ATOM      7  O   UNL A   1      32.171  35.267  32.608  1.00  0.00    -0.246 OA
BRANCH   6   8
ATOM      8  C   UNL A   1      34.264  34.497  31.906  1.00  0.00     0.060 A 
ATOM      9  C   UNL A   1      34.314  33.124  32.146  1.00  0.00     0.016 A 
ATOM     10  C   UNL A   1      35.474  35.201  31.794  1.00  0.00     0.016 A 
ATOM     11  C   UNL A   1      35.523  32.497  32.437  1.00  0.00     0.010 A 
ATOM     12  C   UNL A   1      36.699  34.554  31.999  1.00  0.00     0.010 A 
ATOM     13  C   UNL A   1      36.728  33.205  32.375  1.00  0.00    -0.014 A 
BRANCH  13  14
ATOM     14  C   UNL A   1      37.981  32.521  32.782  1.00  0.00     0.031 A 
ATOM     15  C   UNL A   1      38.553  32.765  34.151  1.00  0.00     0.074 A 
ATOM     16  C   UNL A   1      38.536  31.605  31.964  1.00  0.00     0.049 A 
ATOM     17  N   UNL A   1      39.616  32.249  34.710  1.00  0.00    -0.248 NA
ATOM     18  C   UNL A   1      37.831  33.723  35.004  1.00  0.00     0.031 C 
ATOM     19  C   UNL A   1      38.049  31.272  30.624  1.00  0.00     0.029 A 
ATOM     20  N   UNL A   1      39.603  30.764  32.147  1.00  0.00    -0.354 N 
ATOM     21  C   UNL A   1      39.701  32.826  35.972  1.00  0.00     0.074 A 
ATOM     22  C   UNL A   1      38.598  33.756  36.084  1.00  0.00     0.031 C 
ATOM     23  C   UNL A   1      38.793  30.273  30.125  1.00  0.00     0.029 A 
ATOM     24  C   UNL A   1      39.831  29.922  31.083  1.00  0.00     0.049 A 
ATOM     25  H   UNL A   1      40.155  30.762  32.962  1.00  0.00     0.167 HD
ATOM     26  C   UNL A   1      40.614  32.599  36.949  1.00  0.00     0.034 A 
ATOM     27  C   UNL A   1      40.777  28.981  30.894  1.00  0.00     0.034 A 
ATOM     28  C   UNL A   1      41.715  31.679  36.814  1.00  0.00     0.049 A 
ATOM     29  C   UNL A   1      41.773  28.747  31.997  1.00  0.00     0.074 A 
ATOM     30  C   UNL A   1      42.752  31.426  37.696  1.00  0.00     0.029 A 
ATOM     31  N   UNL A   1      41.918  30.848  35.718  1.00  0.00    -0.354 N 
ATOM     32  N   UNL A   1      41.871  29.347  33.162  1.00  0.00    -0.248 NA
ATOM     33  C   UNL A   1      42.786  27.713  31.761  1.00  0.00     0.031 C 
ATOM     34  C   UNL A   1      43.598  30.470  37.118  1.00  0.00     0.029 A 
ATOM     35  C   UNL A   1      43.062  30.088  35.899  1.00  0.00     0.049 A 
ATOM     36  H   UNL A   1      41.332  30.805  34.929  1.00  0.00     0.167 HD
ATOM     37  C   UNL A   1      42.972  28.776  33.787  1.00  0.00     0.074 A 
ATOM     38  C   UNL A   1      43.465  27.743  32.897  1.00  0.00     0.031 C 
ATOM     39  C   UNL A   1      43.547  29.092  34.976  1.00  0.00     0.034 A 
BRANCH  26  40
ATOM     40  C   UNL A   1      40.478  33.421  38.206  1.00  0.00     0.023 A 
ATOM     41  C   UNL A   1      39.534  33.097  39.200  1.00  0.00     0.031 A 
ATOM     42  C   UNL A   1      41.241  34.588  38.376  1.00  0.00     0.131 A 
ATOM     43  C   UNL A   1      39.327  33.972  40.276  1.00  0.00     0.055 A 
ATOM     44  C   UNL A   1      41.080  35.418  39.488  1.00  0.00     0.041 A 
ATOM     45  F   UNL A   1      42.137  34.960  37.449  1.00  0.00    -0.206 F 
ATOM     46  C   UNL A   1      40.107  35.119  40.439  1.00  0.00     0.022 A 
BRANCH  43  47
ATOM     47  S   UNL A   1      37.925  33.665  41.388  1.00  0.00     0.124 S 
ATOM     48  O   UNL A   1      36.997  32.962  40.505  1.00  0.00    -0.237 OA
ATOM     49  O   UNL A   1      38.529  32.864  42.446  1.00  0.00    -0.237 OA
ATOM     50  O   UNL A   1      37.502  35.006  41.785  1.00  0.00    -0.744 OA
ENDBRANCH  43  47
ENDBRANCH  26  40
BRANCH  27  51
ATOM     51  C   UNL A   1      40.878  28.238  29.604  1.00  0.00     0.023 A 
ATOM     52  C   UNL A   1      41.784  28.619  28.600  1.00  0.00     0.031 A 
ATOM     53  C   UNL A   1      40.022  27.152  29.341  1.00  0.00     0.131 A 
ATOM     54  C   UNL A   1      41.792  27.939  27.369  1.00  0.00     0.055 A 
ATOM     55  C   UNL A   1      40.051  26.465  28.127  1.00  0.00     0.041 A 
ATOM     56  F   UNL A   1      39.142  26.742  30.267  1.00  0.00    -0.206 F 
ATOM     57  C   UNL A   1      40.930  26.866  27.127  1.00  0.00     0.022 A 
BRANCH  54  58
ATOM     58  S   UNL A   1      42.934  28.482  26.069  1.00  0.00     0.124 S 
ATOM     59  O   UNL A   1      43.135  29.887  26.402  1.00  0.00    -0.237 OA
ATOM     60  O   UNL A   1      44.075  27.597  26.289  1.00  0.00    -0.237 OA
ATOM     61  O   UNL A   1      42.194  28.227  24.836  1.00  0.00    -0.744 OA
ENDBRANCH  54  58
ENDBRANCH  27  51
BRANCH  39  62
ATOM     62  C   UNL A   1      44.779  28.307  35.340  1.00  0.00     0.023 A 
ATOM     63  C   UNL A   1      44.682  27.116  36.081  1.00  0.00     0.031 A 
ATOM     64  C   UNL A   1      46.056  28.780  34.999  1.00  0.00     0.131 A 
ATOM     65  C   UNL A   1      45.847  26.474  36.521  1.00  0.00     0.055 A 
ATOM     66  C   UNL A   1      47.212  28.106  35.393  1.00  0.00     0.041 A 
ATOM     67  F   UNL A   1      46.200  29.915  34.295  1.00  0.00    -0.206 F 
ATOM     68  C   UNL A   1      47.111  26.955  36.172  1.00  0.00     0.022 A 
BRANCH  65  69
ATOM     69  S   UNL A   1      45.684  25.062  37.645  1.00  0.00     0.124 S 
ATOM     70  O   UNL A   1      44.267  25.111  37.992  1.00  0.00    -0.237 OA
ATOM     71  O   UNL A   1      46.097  23.943  36.804  1.00  0.00    -0.237 OA
ATOM     72  O   UNL A   1      46.600  25.386  38.738  1.00  0.00    -0.744 OA
ENDBRANCH  65  69
ENDBRANCH  39  62
ENDBRANCH  13  14
ENDBRANCH   6   8
ENDBRANCH   5   6
ENDBRANCH   4   5
ENDBRANCH   3   4
ENDBRANCH   2   3
ENDBRANCH   1   2
BRANCH   1  73
ATOM     73  C   UNL A   1      35.055  32.290  27.893  1.00  0.00     0.188 C 
BRANCH  73  74
ATOM     74  O   UNL A   1      33.753  31.969  27.393  1.00  0.00    -0.376 OA
BRANCH  74  75
ATOM     75  C   UNL A   1      33.442  30.587  27.238  1.00  0.00     0.202 C 
BRANCH  75  76
ATOM     76  C   UNL A   1      31.988  30.259  26.885  1.00  0.00     0.261 C 
BRANCH  76  77
ATOM     77  O   UNL A   1      31.807  29.056  26.121  1.00  0.00    -0.460 OA
BRANCH  77  78
ATOM     78  C   UNL A   1      31.512  27.964  26.851  1.00  0.00     0.338 C 
ATOM     79  O   UNL A   1      31.154  27.925  28.035  1.00  0.00    -0.246 OA
BRANCH  78  80
ATOM     80  C   UNL A   1      31.753  26.741  26.088  1.00  0.00     0.063 A 
ATOM     81  C   UNL A   1      30.699  26.058  25.476  1.00  0.00     0.016 A 
ATOM     82  C   UNL A   1      33.005  26.146  26.228  1.00  0.00     0.062 A 
ATOM     83  C   UNL A   1      30.909  24.761  25.010  1.00  0.00     0.005 A 
ATOM     84  C   UNL A   1      33.184  24.813  25.855  1.00  0.00     0.130 A 
ATOM     85  C   UNL A   1      32.141  24.131  25.221  1.00  0.00     0.047 A 
BRANCH  84  86
ATOM     86  O   UNL A   1      34.309  24.062  26.151  1.00  0.00    -0.438 OA
BRANCH  86  87
ATOM     87  C   UNL A   1      34.233  22.711  25.887  1.00  0.00     0.234 A 
ATOM     88  N   UNL A   1      33.561  21.992  26.816  1.00  0.00    -0.214 NA
ATOM     89  C   UNL A   1      34.709  22.169  24.690  1.00  0.00     0.087 A 
ATOM     90  C   UNL A   1      33.327  20.683  26.545  1.00  0.00     0.200 A 
ATOM     91  C   UNL A   1      34.416  20.836  24.408  1.00  0.00     0.108 A 
ATOM     92  Br  UNL A   1      35.615  23.201  23.386  1.00  0.00    -0.045 Br
ATOM     93  C   UNL A   1      33.706  20.088  25.355  1.00  0.00     0.288 A 
BRANCH  93  94
ATOM     94  N   UNL A   1      33.252  18.743  25.042  1.00  0.00     0.064 N 
ATOM     95  O   UNL A   1      34.028  18.001  24.423  1.00  0.00    -0.258 OA
ATOM     96  O   UNL A   1      32.182  18.373  25.552  1.00  0.00    -0.258 OA
ENDBRANCH  93  94
ENDBRANCH  86  87
ENDBRANCH  84  86
ENDBRANCH  78  80
ENDBRANCH  77  78
ENDBRANCH  76  77
ENDBRANCH  75  76
ENDBRANCH  74  75
ENDBRANCH  73  74
ENDBRANCH   1  73
TORSDOF 23
ENDMDL
