MODEL 1
REMARK VINA RESULT:      -9.0      0.000      0.000
REMARK SMILES C[C@@H](C(=O)OCCOCCOCCOC(=O)c1ccc(-c2c3nc(c(-c4cc(S(=O)(=O)[O-])ccc4F)c4ccc([nH]4)c(-c4cc(S(=O)(=O)[O-])ccc4F)c4nc(c(-c5cc(S(=O)(=O)[O-])ccc5F)c5ccc2[nH]5)C=C4)C=C3)cc1)c1ccc(-c2ccccc2)c(F)c1
REMARK SMILES IDX 10 1 9 2 8 3 7 4 6 5 5 6 3 7 4 8 2 9 1 10 80 11 81 12 92 13
REMARK SMILES IDX 82 14 90 15 83 16 91 17 84 18 85 19 89 20 86 21 88 22 87 23
REMARK SMILES IDX 11 24 12 25 13 26 14 27 15 28 16 29 17 30 18 31 79 32 19 33
REMARK SMILES IDX 78 34 20 35 21 36 22 37 72 38 23 39 77 40 71 41 73 42 24 43
REMARK SMILES IDX 76 44 70 45 69 46 25 48 57 49 37 50 56 51 38 52 41 53 55 54
REMARK SMILES IDX 74 55 39 56 40 57 54 59 75 60 42 61 26 62 27 63 35 64 28 65
REMARK SMILES IDX 34 66 36 67 33 68 29 69 30 70 31 71 32 72 58 73 59 74 67 75
REMARK SMILES IDX 60 76 66 77 68 78 65 79 61 80 62 81 63 82 64 83 43 84 44 85
REMARK SMILES IDX 52 86 45 87 51 88 53 89 50 90 46 91 47 92 48 93 49 94
REMARK H PARENT 73 47 41 58
REMARK Flexibility Score: inf
ROOT
ATOM      1  C   UNL A   1      45.464  21.380  25.556  1.00  0.00     0.188 C 
ENDROOT
BRANCH   1   2
ATOM      2  C   UNL A   1      45.344  20.145  24.648  1.00  0.00     0.188 C 
BRANCH   2   3
ATOM      3  O   UNL A   1      44.054  19.576  24.448  1.00  0.00    -0.376 OA
BRANCH   3   4
ATOM      4  C   UNL A   1      43.353  19.070  25.583  1.00  0.00     0.202 C 
BRANCH   4   5
ATOM      5  C   UNL A   1      41.943  19.606  25.901  1.00  0.00     0.261 C 
BRANCH   5   6
ATOM      6  O   UNL A   1      41.878  21.032  26.109  1.00  0.00    -0.463 OA
BRANCH   6   7
ATOM      7  C   UNL A   1      41.632  21.459  27.377  1.00  0.00     0.313 C 
ATOM      8  O   UNL A   1      40.806  20.935  28.120  1.00  0.00    -0.252 OA
BRANCH   7   9
ATOM      9  C   UNL A   1      42.520  22.634  27.825  1.00  0.00     0.126 C 
ATOM     10  C   UNL A   1      43.446  22.292  29.007  1.00  0.00     0.025 C 
BRANCH   9  11
ATOM     11  C   UNL A   1      41.811  23.996  27.921  1.00  0.00    -0.031 A 
ATOM     12  C   UNL A   1      40.500  24.173  27.444  1.00  0.00     0.005 A 
ATOM     13  C   UNL A   1      42.375  25.076  28.621  1.00  0.00     0.044 A 
ATOM     14  C   UNL A   1      39.775  25.350  27.702  1.00  0.00     0.012 A 
ATOM     15  C   UNL A   1      41.648  26.252  28.867  1.00  0.00     0.131 A 
ATOM     16  C   UNL A   1      40.321  26.399  28.453  1.00  0.00     0.017 A 
ATOM     17  F   UNL A   1      42.257  27.227  29.559  1.00  0.00    -0.206 F 
BRANCH  16  18
ATOM     18  C   UNL A   1      39.496  27.568  28.804  1.00  0.00    -0.015 A 
ATOM     19  C   UNL A   1      38.850  27.657  30.051  1.00  0.00     0.009 A 
ATOM     20  C   UNL A   1      39.303  28.621  27.906  1.00  0.00     0.009 A 
ATOM     21  C   UNL A   1      38.039  28.752  30.376  1.00  0.00     0.001 A 
ATOM     22  C   UNL A   1      38.475  29.702  28.221  1.00  0.00     0.001 A 
ATOM     23  C   UNL A   1      37.848  29.774  29.457  1.00  0.00     0.000 A 
ENDBRANCH  16  18
ENDBRANCH   9  11
ENDBRANCH   7   9
ENDBRANCH   6   7
ENDBRANCH   5   6
ENDBRANCH   4   5
ENDBRANCH   3   4
ENDBRANCH   2   3
ENDBRANCH   1   2
BRANCH   1  24
ATOM     24  O   UNL A   1      46.247  22.426  25.031  1.00  0.00    -0.376 OA
BRANCH  24  25
ATOM     25  C   UNL A   1      45.616  23.537  24.422  1.00  0.00     0.202 C 
BRANCH  25  26
ATOM     26  C   UNL A   1      44.259  24.097  24.893  1.00  0.00     0.261 C 
BRANCH  26  27
ATOM     27  O   UNL A   1      44.234  25.399  25.490  1.00  0.00    -0.460 OA
BRANCH  27  28
ATOM     28  C   UNL A   1      43.136  26.161  25.268  1.00  0.00     0.338 C 
ATOM     29  O   UNL A   1      42.097  25.803  24.735  1.00  0.00    -0.246 OA
BRANCH  28  30
ATOM     30  C   UNL A   1      43.331  27.431  26.006  1.00  0.00     0.060 A 
ATOM     31  C   UNL A   1      44.479  27.606  26.793  1.00  0.00     0.016 A 
ATOM     32  C   UNL A   1      42.393  28.459  25.888  1.00  0.00     0.016 A 
ATOM     33  C   UNL A   1      44.683  28.809  27.475  1.00  0.00     0.010 A 
ATOM     34  C   UNL A   1      42.584  29.648  26.595  1.00  0.00     0.010 A 
ATOM     35  C   UNL A   1      43.715  29.822  27.411  1.00  0.00    -0.014 A 
BRANCH  35  36
ATOM     36  C   UNL A   1      43.775  30.973  28.346  1.00  0.00     0.031 A 
ATOM     37  C   UNL A   1      44.693  32.113  27.999  1.00  0.00     0.074 A 
ATOM     38  C   UNL A   1      43.049  30.995  29.480  1.00  0.00     0.049 A 
ATOM     39  N   UNL A   1      44.913  33.230  28.638  1.00  0.00    -0.248 NA
ATOM     40  C   UNL A   1      45.495  31.949  26.776  1.00  0.00     0.031 C 
ATOM     41  C   UNL A   1      42.118  29.948  29.892  1.00  0.00     0.029 A 
ATOM     42  N   UNL A   1      42.933  31.952  30.460  1.00  0.00    -0.354 N 
ATOM     43  C   UNL A   1      45.929  33.872  27.935  1.00  0.00     0.074 A 
ATOM     44  C   UNL A   1      46.263  33.025  26.810  1.00  0.00     0.031 C 
ATOM     45  C   UNL A   1      41.446  30.369  30.979  1.00  0.00     0.029 A 
ATOM     46  C   UNL A   1      41.928  31.693  31.371  1.00  0.00     0.049 A 
ATOM     47  H   UNL A   1      43.511  32.748  30.507  1.00  0.00     0.167 HD
ATOM     48  C   UNL A   1      46.547  35.044  28.227  1.00  0.00     0.034 A 
ATOM     49  C   UNL A   1      41.416  32.480  32.345  1.00  0.00     0.034 A 
ATOM     50  C   UNL A   1      46.189  35.871  29.353  1.00  0.00     0.049 A 
ATOM     51  C   UNL A   1      42.062  33.830  32.592  1.00  0.00     0.074 A 
ATOM     52  C   UNL A   1      46.754  37.066  29.758  1.00  0.00     0.029 A 
ATOM     53  N   UNL A   1      45.175  35.584  30.258  1.00  0.00    -0.354 N 
ATOM     54  N   UNL A   1      43.013  34.434  31.915  1.00  0.00    -0.248 NA
ATOM     55  C   UNL A   1      41.570  34.598  33.744  1.00  0.00     0.031 C 
ATOM     56  C   UNL A   1      46.140  37.458  30.952  1.00  0.00     0.029 A 
ATOM     57  C   UNL A   1      45.125  36.561  31.241  1.00  0.00     0.049 A 
ATOM     58  H   UNL A   1      44.578  34.803  30.209  1.00  0.00     0.167 HD
ATOM     59  C   UNL A   1      43.232  35.648  32.565  1.00  0.00     0.074 A 
ATOM     60  C   UNL A   1      42.266  35.722  33.640  1.00  0.00     0.031 C 
ATOM     61  C   UNL A   1      44.165  36.606  32.320  1.00  0.00     0.034 A 
BRANCH  48  62
ATOM     62  C   UNL A   1      47.738  35.431  27.384  1.00  0.00     0.023 A 
ATOM     63  C   UNL A   1      49.053  35.062  27.717  1.00  0.00     0.031 A 
ATOM     64  C   UNL A   1      47.551  36.231  26.241  1.00  0.00     0.131 A 
ATOM     65  C   UNL A   1      50.129  35.551  26.960  1.00  0.00     0.055 A 
ATOM     66  C   UNL A   1      48.619  36.641  25.441  1.00  0.00     0.041 A 
ATOM     67  F   UNL A   1      46.323  36.646  25.890  1.00  0.00    -0.206 F 
ATOM     68  C   UNL A   1      49.920  36.313  25.808  1.00  0.00     0.022 A 
BRANCH  65  69
ATOM     69  S   UNL A   1      51.813  35.311  27.590  1.00  0.00     0.124 S 
ATOM     70  O   UNL A   1      51.644  35.621  29.009  1.00  0.00    -0.237 OA
ATOM     71  O   UNL A   1      52.075  33.913  27.268  1.00  0.00    -0.237 OA
ATOM     72  O   UNL A   1      52.604  36.285  26.838  1.00  0.00    -0.744 OA
ENDBRANCH  65  69
ENDBRANCH  48  62
BRANCH  49  73
ATOM     73  C   UNL A   1      40.184  32.083  33.105  1.00  0.00     0.023 A 
ATOM     74  C   UNL A   1      38.904  32.336  32.574  1.00  0.00     0.031 A 
ATOM     75  C   UNL A   1      40.245  31.497  34.380  1.00  0.00     0.131 A 
ATOM     76  C   UNL A   1      37.752  32.062  33.329  1.00  0.00     0.055 A 
ATOM     77  C   UNL A   1      39.095  31.144  35.092  1.00  0.00     0.041 A 
ATOM     78  F   UNL A   1      41.431  31.253  34.962  1.00  0.00    -0.206 F 
ATOM     79  C   UNL A   1      37.839  31.441  34.574  1.00  0.00     0.022 A 
BRANCH  76  80
ATOM     80  S   UNL A   1      36.147  32.671  32.733  1.00  0.00     0.124 S 
ATOM     81  O   UNL A   1      35.461  32.972  33.985  1.00  0.00    -0.237 OA
ATOM     82  O   UNL A   1      36.532  33.820  31.922  1.00  0.00    -0.237 OA
ATOM     83  O   UNL A   1      35.608  31.534  31.987  1.00  0.00    -0.744 OA
ENDBRANCH  76  80
ENDBRANCH  49  73
BRANCH  61  84
ATOM     84  C   UNL A   1      44.196  37.803  33.246  1.00  0.00     0.023 A 
ATOM     85  C   UNL A   1      43.600  39.026  32.886  1.00  0.00     0.031 A 
ATOM     86  C   UNL A   1      44.806  37.718  34.511  1.00  0.00     0.131 A 
ATOM     87  C   UNL A   1      43.677  40.128  33.751  1.00  0.00     0.055 A 
ATOM     88  C   UNL A   1      44.820  38.797  35.397  1.00  0.00     0.041 A 
ATOM     89  F   UNL A   1      45.389  36.577  34.913  1.00  0.00    -0.206 F 
ATOM     90  C   UNL A   1      44.265  40.015  35.013  1.00  0.00     0.022 A 
BRANCH  87  91
ATOM     91  S   UNL A   1      43.080  41.737  33.167  1.00  0.00     0.124 S 
ATOM     92  O   UNL A   1      44.003  42.660  33.820  1.00  0.00    -0.237 OA
ATOM     93  O   UNL A   1      43.217  41.616  31.719  1.00  0.00    -0.237 OA
ATOM     94  O   UNL A   1      41.702  41.790  33.655  1.00  0.00    -0.744 OA
ENDBRANCH  87  91
ENDBRANCH  61  84
ENDBRANCH  35  36
ENDBRANCH  28  30
ENDBRANCH  27  28
ENDBRANCH  26  27
ENDBRANCH  25  26
ENDBRANCH  24  25
ENDBRANCH   1  24
TORSDOF 22
ENDMDL
MODEL 2
REMARK VINA RESULT:      -8.5      5.387     11.304
REMARK SMILES C[C@@H](C(=O)OCCOCCOCCOC(=O)c1ccc(-c2c3nc(c(-c4cc(S(=O)(=O)[O-])ccc4F)c4ccc([nH]4)c(-c4cc(S(=O)(=O)[O-])ccc4F)c4nc(c(-c5cc(S(=O)(=O)[O-])ccc5F)c5ccc2[nH]5)C=C4)C=C3)cc1)c1ccc(-c2ccccc2)c(F)c1
REMARK SMILES IDX 10 1 9 2 8 3 7 4 6 5 5 6 3 7 4 8 2 9 1 10 80 11 81 12 92 13
REMARK SMILES IDX 82 14 90 15 83 16 91 17 84 18 85 19 89 20 86 21 88 22 87 23
REMARK SMILES IDX 11 24 12 25 13 26 14 27 15 28 16 29 17 30 18 31 79 32 19 33
REMARK SMILES IDX 78 34 20 35 21 36 22 37 72 38 23 39 77 40 71 41 73 42 24 43
REMARK SMILES IDX 76 44 70 45 69 46 25 48 57 49 37 50 56 51 38 52 41 53 55 54
REMARK SMILES IDX 74 55 39 56 40 57 54 59 75 60 42 61 26 62 27 63 35 64 28 65
REMARK SMILES IDX 34 66 36 67 33 68 29 69 30 70 31 71 32 72 58 73 59 74 67 75
REMARK SMILES IDX 60 76 66 77 68 78 65 79 61 80 62 81 63 82 64 83 43 84 44 85
REMARK SMILES IDX 52 86 45 87 51 88 53 89 50 90 46 91 47 92 48 93 49 94
REMARK H PARENT 73 47 41 58
REMARK Flexibility Score: inf
ROOT
ATOM      1  C   UNL A   1      34.761  32.485  28.262  1.00  0.00     0.188 C 
ENDROOT
BRANCH   1   2
ATOM      2  C   UNL A   1      33.371  32.200  27.672  1.00  0.00     0.188 C 
BRANCH   2   3
ATOM      3  O   UNL A   1      33.148  30.943  27.044  1.00  0.00    -0.376 OA
BRANCH   3   4
ATOM      4  C   UNL A   1      31.802  30.535  26.801  1.00  0.00     0.202 C 
BRANCH   4   5
ATOM      5  C   UNL A   1      31.395  30.070  25.388  1.00  0.00     0.261 C 
BRANCH   5   6
ATOM      6  O   UNL A   1      31.696  28.688  25.104  1.00  0.00    -0.463 OA
BRANCH   6   7
ATOM      7  C   UNL A   1      31.830  28.343  23.795  1.00  0.00     0.313 C 
ATOM      8  O   UNL A   1      31.040  28.686  22.920  1.00  0.00    -0.252 OA
BRANCH   7   9
ATOM      9  C   UNL A   1      33.096  27.521  23.492  1.00  0.00     0.126 C 
ATOM     10  C   UNL A   1      33.984  28.138  22.395  1.00  0.00     0.025 C 
BRANCH   9  11
ATOM     11  C   UNL A   1      32.884  26.001  23.385  1.00  0.00    -0.031 A 
ATOM     12  C   UNL A   1      33.828  25.173  22.752  1.00  0.00     0.005 A 
ATOM     13  C   UNL A   1      31.822  25.354  24.040  1.00  0.00     0.044 A 
ATOM     14  C   UNL A   1      33.742  23.772  22.820  1.00  0.00     0.012 A 
ATOM     15  C   UNL A   1      31.738  23.954  24.096  1.00  0.00     0.131 A 
ATOM     16  C   UNL A   1      32.716  23.132  23.527  1.00  0.00     0.017 A 
ATOM     17  F   UNL A   1      30.701  23.418  24.759  1.00  0.00    -0.206 F 
BRANCH  16  18
ATOM     18  C   UNL A   1      32.718  21.666  23.677  1.00  0.00    -0.015 A 
ATOM     19  C   UNL A   1      33.339  21.047  24.777  1.00  0.00     0.009 A 
ATOM     20  C   UNL A   1      32.128  20.835  22.722  1.00  0.00     0.009 A 
ATOM     21  C   UNL A   1      33.372  19.653  24.907  1.00  0.00     0.001 A 
ATOM     22  C   UNL A   1      32.181  19.443  22.840  1.00  0.00     0.001 A 
ATOM     23  C   UNL A   1      32.796  18.849  23.933  1.00  0.00     0.000 A 
ENDBRANCH  16  18
ENDBRANCH   9  11
ENDBRANCH   7   9
ENDBRANCH   6   7
ENDBRANCH   5   6
ENDBRANCH   4   5
ENDBRANCH   3   4
ENDBRANCH   2   3
ENDBRANCH   1   2
BRANCH   1  24
ATOM     24  O   UNL A   1      34.899  33.750  28.867  1.00  0.00    -0.376 OA
BRANCH  24  25
ATOM     25  C   UNL A   1      34.055  34.107  29.946  1.00  0.00     0.202 C 
BRANCH  25  26
ATOM     26  C   UNL A   1      34.400  33.812  31.419  1.00  0.00     0.261 C 
BRANCH  26  27
ATOM     27  O   UNL A   1      34.738  32.467  31.780  1.00  0.00    -0.460 OA
BRANCH  27  28
ATOM     28  C   UNL A   1      35.782  32.297  32.627  1.00  0.00     0.338 C 
ATOM     29  O   UNL A   1      35.786  32.508  33.829  1.00  0.00    -0.246 OA
BRANCH  28  30
ATOM     30  C   UNL A   1      36.838  31.579  31.876  1.00  0.00     0.060 A 
ATOM     31  C   UNL A   1      37.761  30.782  32.570  1.00  0.00     0.016 A 
ATOM     32  C   UNL A   1      36.890  31.669  30.484  1.00  0.00     0.016 A 
ATOM     33  C   UNL A   1      38.747  30.082  31.869  1.00  0.00     0.010 A 
ATOM     34  C   UNL A   1      37.895  30.993  29.788  1.00  0.00     0.010 A 
ATOM     35  C   UNL A   1      38.844  30.216  30.477  1.00  0.00    -0.014 A 
BRANCH  35  36
ATOM     36  C   UNL A   1      40.044  29.719  29.758  1.00  0.00     0.031 A 
ATOM     37  C   UNL A   1      41.282  30.574  29.784  1.00  0.00     0.074 A 
ATOM     38  C   UNL A   1      40.028  28.553  29.087  1.00  0.00     0.049 A 
ATOM     39  N   UNL A   1      42.454  30.360  29.251  1.00  0.00    -0.248 NA
ATOM     40  C   UNL A   1      41.163  31.864  30.483  1.00  0.00     0.031 C 
ATOM     41  C   UNL A   1      38.884  27.647  29.020  1.00  0.00     0.029 A 
ATOM     42  N   UNL A   1      41.014  27.900  28.385  1.00  0.00    -0.354 N 
ATOM     43  C   UNL A   1      43.192  31.516  29.489  1.00  0.00     0.074 A 
ATOM     44  C   UNL A   1      42.338  32.416  30.233  1.00  0.00     0.031 C 
ATOM     45  C   UNL A   1      39.267  26.509  28.413  1.00  0.00     0.029 A 
ATOM     46  C   UNL A   1      40.667  26.619  28.004  1.00  0.00     0.049 A 
ATOM     47  H   UNL A   1      41.885  28.308  28.175  1.00  0.00     0.167 HD
ATOM     48  C   UNL A   1      44.455  31.807  29.089  1.00  0.00     0.034 A 
ATOM     49  C   UNL A   1      41.427  25.638  27.467  1.00  0.00     0.034 A 
ATOM     50  C   UNL A   1      45.287  30.887  28.352  1.00  0.00     0.049 A 
ATOM     51  C   UNL A   1      42.868  25.956  27.114  1.00  0.00     0.074 A 
ATOM     52  C   UNL A   1      46.572  31.077  27.879  1.00  0.00     0.029 A 
ATOM     53  N   UNL A   1      44.911  29.603  27.977  1.00  0.00    -0.354 N 
ATOM     54  N   UNL A   1      43.562  27.047  27.354  1.00  0.00    -0.248 NA
ATOM     55  C   UNL A   1      43.624  24.913  26.409  1.00  0.00     0.031 C 
ATOM     56  C   UNL A   1      46.941  29.944  27.147  1.00  0.00     0.029 A 
ATOM     57  C   UNL A   1      45.926  29.006  27.245  1.00  0.00     0.049 A 
ATOM     58  H   UNL A   1      44.051  29.179  28.198  1.00  0.00     0.167 HD
ATOM     59  C   UNL A   1      44.831  26.817  26.824  1.00  0.00     0.074 A 
ATOM     60  C   UNL A   1      44.827  25.461  26.318  1.00  0.00     0.031 C 
ATOM     61  C   UNL A   1      45.896  27.656  26.730  1.00  0.00     0.034 A 
BRANCH  48  62
ATOM     62  C   UNL A   1      44.960  33.208  29.340  1.00  0.00     0.023 A 
ATOM     63  C   UNL A   1      44.648  34.287  28.496  1.00  0.00     0.031 A 
ATOM     64  C   UNL A   1      45.813  33.454  30.433  1.00  0.00     0.131 A 
ATOM     65  C   UNL A   1      45.242  35.540  28.716  1.00  0.00     0.055 A 
ATOM     66  C   UNL A   1      46.330  34.724  30.697  1.00  0.00     0.041 A 
ATOM     67  F   UNL A   1      46.175  32.457  31.256  1.00  0.00    -0.206 F 
ATOM     68  C   UNL A   1      46.057  35.774  29.826  1.00  0.00     0.022 A 
BRANCH  65  69
ATOM     69  S   UNL A   1      45.064  36.820  27.443  1.00  0.00     0.124 S 
ATOM     70  O   UNL A   1      44.965  38.032  28.254  1.00  0.00    -0.237 OA
ATOM     71  O   UNL A   1      46.291  36.669  26.669  1.00  0.00    -0.237 OA
ATOM     72  O   UNL A   1      43.835  36.444  26.746  1.00  0.00    -0.744 OA
ENDBRANCH  65  69
ENDBRANCH  48  62
BRANCH  49  73
ATOM     73  C   UNL A   1      40.903  24.241  27.305  1.00  0.00     0.023 A 
ATOM     74  C   UNL A   1      39.832  23.976  26.428  1.00  0.00     0.031 A 
ATOM     75  C   UNL A   1      41.410  23.159  28.045  1.00  0.00     0.131 A 
ATOM     76  C   UNL A   1      39.272  22.690  26.355  1.00  0.00     0.055 A 
ATOM     77  C   UNL A   1      40.907  21.862  27.903  1.00  0.00     0.041 A 
ATOM     78  F   UNL A   1      42.410  23.342  28.922  1.00  0.00    -0.206 F 
ATOM     79  C   UNL A   1      39.821  21.625  27.067  1.00  0.00     0.022 A 
BRANCH  76  80
ATOM     80  S   UNL A   1      37.719  22.461  25.441  1.00  0.00     0.124 S 
ATOM     81  O   UNL A   1      36.753  22.329  26.526  1.00  0.00    -0.237 OA
ATOM     82  O   UNL A   1      37.637  23.687  24.655  1.00  0.00    -0.237 OA
ATOM     83  O   UNL A   1      37.956  21.242  24.669  1.00  0.00    -0.744 OA
ENDBRANCH  76  80
ENDBRANCH  49  73
BRANCH  61  84
ATOM     84  C   UNL A   1      47.137  27.134  26.038  1.00  0.00     0.023 A 
ATOM     85  C   UNL A   1      48.148  26.462  26.751  1.00  0.00     0.031 A 
ATOM     86  C   UNL A   1      47.304  27.288  24.650  1.00  0.00     0.131 A 
ATOM     87  C   UNL A   1      49.303  26.022  26.086  1.00  0.00     0.055 A 
ATOM     88  C   UNL A   1      48.423  26.787  23.982  1.00  0.00     0.041 A 
ATOM     89  F   UNL A   1      46.373  27.917  23.915  1.00  0.00    -0.206 F 
ATOM     90  C   UNL A   1      49.437  26.162  24.704  1.00  0.00     0.022 A 
BRANCH  87  91
ATOM     91  S   UNL A   1      50.669  25.347  27.070  1.00  0.00     0.124 S 
ATOM     92  O   UNL A   1      50.010  24.274  27.809  1.00  0.00    -0.237 OA
ATOM     93  O   UNL A   1      51.616  24.926  26.043  1.00  0.00    -0.237 OA
ATOM     94  O   UNL A   1      51.101  26.483  27.882  1.00  0.00    -0.744 OA
ENDBRANCH  87  91
ENDBRANCH  61  84
ENDBRANCH  35  36
ENDBRANCH  28  30
ENDBRANCH  27  28
ENDBRANCH  26  27
ENDBRANCH  25  26
ENDBRANCH  24  25
ENDBRANCH   1  24
TORSDOF 22
ENDMDL
MODEL 3
REMARK VINA RESULT:      -8.4      0.540      7.590
REMARK SMILES C[C@@H](C(=O)OCCOCCOCCOC(=O)c1ccc(-c2c3nc(c(-c4cc(S(=O)(=O)[O-])ccc4F)c4ccc([nH]4)c(-c4cc(S(=O)(=O)[O-])ccc4F)c4nc(c(-c5cc(S(=O)(=O)[O-])ccc5F)c5ccc2[nH]5)C=C4)C=C3)cc1)c1ccc(-c2ccccc2)c(F)c1
REMARK SMILES IDX 10 1 9 2 8 3 7 4 6 5 5 6 3 7 4 8 2 9 1 10 80 11 81 12 92 13
REMARK SMILES IDX 82 14 90 15 83 16 91 17 84 18 85 19 89 20 86 21 88 22 87 23
REMARK SMILES IDX 11 24 12 25 13 26 14 27 15 28 16 29 17 30 18 31 79 32 19 33
REMARK SMILES IDX 78 34 20 35 21 36 22 37 72 38 23 39 77 40 71 41 73 42 24 43
REMARK SMILES IDX 76 44 70 45 69 46 25 48 57 49 37 50 56 51 38 52 41 53 55 54
REMARK SMILES IDX 74 55 39 56 40 57 54 59 75 60 42 61 26 62 27 63 35 64 28 65
REMARK SMILES IDX 34 66 36 67 33 68 29 69 30 70 31 71 32 72 58 73 59 74 67 75
REMARK SMILES IDX 60 76 66 77 68 78 65 79 61 80 62 81 63 82 64 83 43 84 44 85
REMARK SMILES IDX 52 86 45 87 51 88 53 89 50 90 46 91 47 92 48 93 49 94
REMARK H PARENT 73 47 41 58
REMARK Flexibility Score: inf
ROOT
ATOM      1  C   UNL A   1      45.428  21.440  25.567  1.00  0.00     0.188 C 
ENDROOT
BRANCH   1   2
ATOM      2  C   UNL A   1      45.343  20.274  24.569  1.00  0.00     0.188 C 
BRANCH   2   3
ATOM      3  O   UNL A   1      44.069  19.690  24.318  1.00  0.00    -0.376 OA
BRANCH   3   4
ATOM      4  C   UNL A   1      43.304  19.228  25.430  1.00  0.00     0.202 C 
BRANCH   4   5
ATOM      5  C   UNL A   1      42.176  20.116  25.993  1.00  0.00     0.261 C 
BRANCH   5   6
ATOM      6  O   UNL A   1      42.626  21.361  26.567  1.00  0.00    -0.463 OA
BRANCH   6   7
ATOM      7  C   UNL A   1      41.933  21.832  27.639  1.00  0.00     0.313 C 
ATOM      8  O   UNL A   1      40.885  21.333  28.039  1.00  0.00    -0.252 OA
BRANCH   7   9
ATOM      9  C   UNL A   1      42.606  23.024  28.344  1.00  0.00     0.126 C 
ATOM     10  C   UNL A   1      43.242  22.659  29.699  1.00  0.00     0.025 C 
BRANCH   9  11
ATOM     11  C   UNL A   1      41.803  24.336  28.330  1.00  0.00    -0.031 A 
ATOM     12  C   UNL A   1      40.438  24.354  27.993  1.00  0.00     0.005 A 
ATOM     13  C   UNL A   1      42.351  25.544  28.795  1.00  0.00     0.044 A 
ATOM     14  C   UNL A   1      39.652  25.507  28.166  1.00  0.00     0.012 A 
ATOM     15  C   UNL A   1      41.562  26.694  28.956  1.00  0.00     0.131 A 
ATOM     16  C   UNL A   1      40.190  26.691  28.688  1.00  0.00     0.017 A 
ATOM     17  F   UNL A   1      42.161  27.800  29.423  1.00  0.00    -0.206 F 
BRANCH  16  18
ATOM     18  C   UNL A   1      39.316  27.845  28.965  1.00  0.00    -0.015 A 
ATOM     19  C   UNL A   1      38.603  27.946  30.174  1.00  0.00     0.009 A 
ATOM     20  C   UNL A   1      39.141  28.868  28.030  1.00  0.00     0.009 A 
ATOM     21  C   UNL A   1      37.746  29.025  30.428  1.00  0.00     0.001 A 
ATOM     22  C   UNL A   1      38.268  29.933  28.274  1.00  0.00     0.001 A 
ATOM     23  C   UNL A   1      37.575  30.017  29.473  1.00  0.00     0.000 A 
ENDBRANCH  16  18
ENDBRANCH   9  11
ENDBRANCH   7   9
ENDBRANCH   6   7
ENDBRANCH   5   6
ENDBRANCH   4   5
ENDBRANCH   3   4
ENDBRANCH   2   3
ENDBRANCH   1   2
BRANCH   1  24
ATOM     24  O   UNL A   1      46.180  22.545  25.123  1.00  0.00    -0.376 OA
BRANCH  24  25
ATOM     25  C   UNL A   1      45.516  23.674  24.584  1.00  0.00     0.202 C 
BRANCH  25  26
ATOM     26  C   UNL A   1      44.149  24.170  25.095  1.00  0.00     0.261 C 
BRANCH  26  27
ATOM     27  O   UNL A   1      44.079  25.469  25.695  1.00  0.00    -0.460 OA
BRANCH  27  28
ATOM     28  C   UNL A   1      43.018  26.246  25.370  1.00  0.00     0.338 C 
ATOM     29  O   UNL A   1      41.974  25.873  24.859  1.00  0.00    -0.246 OA
BRANCH  28  30
ATOM     30  C   UNL A   1      43.256  27.579  25.968  1.00  0.00     0.060 A 
ATOM     31  C   UNL A   1      44.497  27.863  26.559  1.00  0.00     0.016 A 
ATOM     32  C   UNL A   1      42.262  28.558  25.911  1.00  0.00     0.016 A 
ATOM     33  C   UNL A   1      44.739  29.126  27.106  1.00  0.00     0.010 A 
ATOM     34  C   UNL A   1      42.495  29.810  26.485  1.00  0.00     0.010 A 
ATOM     35  C   UNL A   1      43.723  30.094  27.107  1.00  0.00    -0.014 A 
BRANCH  35  36
ATOM     36  C   UNL A   1      43.862  31.322  27.930  1.00  0.00     0.031 A 
ATOM     37  C   UNL A   1      43.020  31.435  29.171  1.00  0.00     0.074 A 
ATOM     38  C   UNL A   1      44.695  32.316  27.571  1.00  0.00     0.049 A 
ATOM     39  N   UNL A   1      42.966  32.391  30.058  1.00  0.00    -0.248 NA
ATOM     40  C   UNL A   1      42.089  30.324  29.425  1.00  0.00     0.031 C 
ATOM     41  C   UNL A   1      45.565  32.291  26.398  1.00  0.00     0.029 A 
ATOM     42  N   UNL A   1      44.995  33.510  28.185  1.00  0.00    -0.354 N 
ATOM     43  C   UNL A   1      41.947  32.033  30.937  1.00  0.00     0.074 A 
ATOM     44  C   UNL A   1      41.428  30.761  30.484  1.00  0.00     0.031 C 
ATOM     45  C   UNL A   1      46.377  33.363  26.437  1.00  0.00     0.029 A 
ATOM     46  C   UNL A   1      46.058  34.177  27.609  1.00  0.00     0.049 A 
ATOM     47  H   UNL A   1      44.498  33.856  28.961  1.00  0.00     0.167 HD
ATOM     48  C   UNL A   1      41.470  32.725  32.001  1.00  0.00     0.034 A 
ATOM     49  C   UNL A   1      46.733  35.267  28.040  1.00  0.00     0.034 A 
ATOM     50  C   UNL A   1      42.011  33.990  32.433  1.00  0.00     0.049 A 
ATOM     51  C   UNL A   1      46.240  35.972  29.289  1.00  0.00     0.074 A 
ATOM     52  C   UNL A   1      41.599  34.790  33.484  1.00  0.00     0.029 A 
ATOM     53  N   UNL A   1      43.081  34.643  31.833  1.00  0.00    -0.354 N 
ATOM     54  N   UNL A   1      45.284  35.620  30.121  1.00  0.00    -0.248 NA
ATOM     55  C   UNL A   1      46.911  37.228  29.651  1.00  0.00     0.031 C 
ATOM     56  C   UNL A   1      42.362  35.962  33.467  1.00  0.00     0.029 A 
ATOM     57  C   UNL A   1      43.316  35.853  32.468  1.00  0.00     0.049 A 
ATOM     58  H   UNL A   1      43.597  34.297  31.070  1.00  0.00     0.167 HD
ATOM     59  C   UNL A   1      45.241  36.615  31.097  1.00  0.00     0.074 A 
ATOM     60  C   UNL A   1      46.312  37.539  30.791  1.00  0.00     0.031 C 
ATOM     61  C   UNL A   1      44.379  36.773  32.135  1.00  0.00     0.034 A 
BRANCH  48  62
ATOM     62  C   UNL A   1      40.240  32.182  32.689  1.00  0.00     0.023 A 
ATOM     63  C   UNL A   1      38.947  32.658  32.413  1.00  0.00     0.031 A 
ATOM     64  C   UNL A   1      40.378  31.193  33.681  1.00  0.00     0.131 A 
ATOM     65  C   UNL A   1      37.857  32.198  33.169  1.00  0.00     0.055 A 
ATOM     66  C   UNL A   1      39.278  30.675  34.367  1.00  0.00     0.041 A 
ATOM     67  F   UNL A   1      41.590  30.722  34.014  1.00  0.00    -0.206 F 
ATOM     68  C   UNL A   1      38.009  31.188  34.124  1.00  0.00     0.022 A 
BRANCH  65  69
ATOM     69  S   UNL A   1      36.263  33.048  33.001  1.00  0.00     0.124 S 
ATOM     70  O   UNL A   1      36.684  34.381  32.572  1.00  0.00    -0.237 OA
ATOM     71  O   UNL A   1      35.579  32.240  31.997  1.00  0.00    -0.237 OA
ATOM     72  O   UNL A   1      35.696  32.985  34.347  1.00  0.00    -0.744 OA
ENDBRANCH  65  69
ENDBRANCH  48  62
BRANCH  49  73
ATOM     73  C   UNL A   1      47.994  35.724  27.365  1.00  0.00     0.023 A 
ATOM     74  C   UNL A   1      49.247  35.236  27.786  1.00  0.00     0.031 A 
ATOM     75  C   UNL A   1      47.990  36.680  26.336  1.00  0.00     0.131 A 
ATOM     76  C   UNL A   1      50.433  35.740  27.228  1.00  0.00     0.055 A 
ATOM     77  C   UNL A   1      49.168  37.115  25.721  1.00  0.00     0.041 A 
ATOM     78  F   UNL A   1      46.835  37.212  25.903  1.00  0.00    -0.206 F 
ATOM     79  C   UNL A   1      50.400  36.657  26.178  1.00  0.00     0.022 A 
BRANCH  76  80
ATOM     80  S   UNL A   1      52.020  35.304  27.997  1.00  0.00     0.124 S 
ATOM     81  O   UNL A   1      52.629  36.616  28.185  1.00  0.00    -0.237 OA
ATOM     82  O   UNL A   1      51.598  34.614  29.210  1.00  0.00    -0.237 OA
ATOM     83  O   UNL A   1      52.663  34.459  26.991  1.00  0.00    -0.744 OA
ENDBRANCH  76  80
ENDBRANCH  49  73
BRANCH  61  84
ATOM     84  C   UNL A   1      44.548  38.003  33.002  1.00  0.00     0.023 A 
ATOM     85  C   UNL A   1      43.736  39.140  32.830  1.00  0.00     0.031 A 
ATOM     86  C   UNL A   1      45.512  38.034  34.026  1.00  0.00     0.131 A 
ATOM     87  C   UNL A   1      43.942  40.277  33.626  1.00  0.00     0.055 A 
ATOM     88  C   UNL A   1      45.665  39.143  34.860  1.00  0.00     0.041 A 
ATOM     89  F   UNL A   1      46.314  36.979  34.242  1.00  0.00    -0.206 F 
ATOM     90  C   UNL A   1      44.887  40.278  34.653  1.00  0.00     0.022 A 
BRANCH  87  91
ATOM     91  S   UNL A   1      43.019  41.789  33.238  1.00  0.00     0.124 S 
ATOM     92  O   UNL A   1      43.671  42.773  34.096  1.00  0.00    -0.237 OA
ATOM     93  O   UNL A   1      43.250  41.939  31.805  1.00  0.00    -0.237 OA
ATOM     94  O   UNL A   1      41.644  41.457  33.610  1.00  0.00    -0.744 OA
ENDBRANCH  87  91
ENDBRANCH  61  84
ENDBRANCH  35  36
ENDBRANCH  28  30
ENDBRANCH  27  28
ENDBRANCH  26  27
ENDBRANCH  25  26
ENDBRANCH  24  25
ENDBRANCH   1  24
TORSDOF 22
ENDMDL
