MODEL 1
REMARK VINA RESULT:     -10.7      0.000      0.000
REMARK SMILES COc1ccc(CCC(=O)Nc2ccc(N3CCCC3)cc2C(=O)OCCOCCOCCOC(=O)c2ccc(-c3c4nc(c(-c5cc(S(=O)(=O)[O-])ccc5F)c5ccc([nH]5)c(-c5cc(S(=O)(=O)[O-])ccc5F)c5nc(c(-c6cc(S(=O)(=O)[O-])ccc6F)c6ccc3[nH]6)C=C5)C=C4)cc2)cc1
REMARK SMILES IDX 29 1 28 2 27 3 26 4 25 5 23 6 24 7 22 8 12 9 13 10 14 11
REMARK SMILES IDX 21 12 15 13 11 14 9 15 10 16 8 18 7 19 6 20 3 21 4 22 101 23
REMARK SMILES IDX 5 24 100 25 2 26 1 27 16 28 17 29 20 30 18 31 19 32 30 33
REMARK SMILES IDX 31 34 32 35 33 36 34 37 35 38 36 39 37 40 38 41 99 42 39 43
REMARK SMILES IDX 98 44 40 45 41 46 42 47 92 48 43 49 97 50 91 51 93 52 44 53
REMARK SMILES IDX 96 54 90 55 89 56 45 58 77 59 57 60 76 61 58 62 61 63 75 64
REMARK SMILES IDX 94 65 59 66 60 67 74 69 95 70 62 71 46 72 47 73 55 74 48 75
REMARK SMILES IDX 54 76 56 77 53 78 49 79 50 80 51 81 52 82 78 83 79 84 87 85
REMARK SMILES IDX 80 86 86 87 88 88 85 89 81 90 82 91 83 92 84 93 63 94 64 95
REMARK SMILES IDX 72 96 65 97 71 98 73 99 70 100 66 101 67 102 68 103 69 104
REMARK H PARENT 11 17 93 57 61 68
REMARK Flexibility Score: inf
ROOT
ATOM      1  C   UNL A   1      41.054  21.728  27.596  1.00  0.00     0.188 C 
ENDROOT
BRANCH   1   2
ATOM      2  O   UNL A   1      40.291  22.328  26.567  1.00  0.00    -0.376 OA
BRANCH   2   3
ATOM      3  C   UNL A   1      39.232  21.529  26.057  1.00  0.00     0.202 C 
BRANCH   3   4
ATOM      4  C   UNL A   1      37.967  22.287  25.543  1.00  0.00     0.261 C 
BRANCH   4   5
ATOM      5  O   UNL A   1      36.602  21.929  26.008  1.00  0.00    -0.460 OA
BRANCH   5   6
ATOM      6  C   UNL A   1      35.878  21.151  25.152  1.00  0.00     0.340 C 
ATOM      7  O   UNL A   1      36.291  20.015  24.977  1.00  0.00    -0.246 OA
BRANCH   6   8
ATOM      8  C   UNL A   1      34.607  21.839  24.413  1.00  0.00     0.085 A 
ATOM      9  C   UNL A   1      33.474  21.319  24.923  1.00  0.00     0.055 A 
ATOM     10  C   UNL A   1      32.259  21.458  24.228  1.00  0.00     0.029 A 
ATOM     11  C   UNL A   1      32.072  22.572  23.382  1.00  0.00     0.028 A 
ATOM     12  C   UNL A   1      34.271  23.140  23.902  1.00  0.00     0.043 A 
ATOM     13  C   UNL A   1      33.035  23.558  23.358  1.00  0.00     0.038 A 
BRANCH   9  14
ATOM     14  N   UNL A   1      33.494  21.262  26.331  1.00  0.00    -0.325 N 
ATOM     15  C   UNL A   1      33.104  22.300  27.208  1.00  0.00     0.224 C 
ATOM     16  O   UNL A   1      33.509  22.167  28.374  1.00  0.00    -0.275 OA
ATOM     17  H   UNL A   1      33.808  20.423  26.741  1.00  0.00     0.169 HD
BRANCH  15  18
ATOM     18  C   UNL A   1      32.020  23.584  26.824  1.00  0.00     0.105 C 
BRANCH  18  19
ATOM     19  C   UNL A   1      32.017  25.280  26.343  1.00  0.00     0.045 C 
BRANCH  19  20
ATOM     20  C   UNL A   1      30.958  26.244  25.608  1.00  0.00    -0.047 A 
ATOM     21  C   UNL A   1      29.805  27.770  23.433  1.00  0.00     0.118 A 
ATOM     22  C   UNL A   1      30.765  28.296  24.255  1.00  0.00     0.046 A 
ATOM     23  C   UNL A   1      29.200  26.597  23.870  1.00  0.00     0.046 A 
ATOM     24  C   UNL A   1      31.207  27.594  25.385  1.00  0.00     0.007 A 
ATOM     25  C   UNL A   1      29.800  25.817  24.934  1.00  0.00     0.007 A 
BRANCH  21  26
ATOM     26  O   UNL A   1      29.765  28.419  22.236  1.00  0.00    -0.497 OA
ATOM     27  C   UNL A   1      30.384  29.664  21.973  1.00  0.00     0.278 C 
ENDBRANCH  21  26
ENDBRANCH  19  20
ENDBRANCH  18  19
ENDBRANCH  15  18
ENDBRANCH   9  14
BRANCH  13  28
ATOM     28  N   UNL A   1      32.772  24.848  22.919  1.00  0.00    -0.372 N 
ATOM     29  C   UNL A   1      31.865  25.134  21.802  1.00  0.00     0.116 C 
ATOM     30  C   UNL A   1      33.746  25.954  23.025  1.00  0.00     0.116 C 
ATOM     31  C   UNL A   1      32.582  26.186  20.953  1.00  0.00     0.023 C 
ATOM     32  C   UNL A   1      33.269  27.019  22.011  1.00  0.00     0.023 C 
ENDBRANCH  13  28
ENDBRANCH   6   8
ENDBRANCH   5   6
ENDBRANCH   4   5
ENDBRANCH   3   4
ENDBRANCH   2   3
ENDBRANCH   1   2
BRANCH   1  33
ATOM     33  C   UNL A   1      41.000  20.189  27.570  1.00  0.00     0.188 C 
BRANCH  33  34
ATOM     34  O   UNL A   1      42.234  19.496  27.412  1.00  0.00    -0.376 OA
BRANCH  34  35
ATOM     35  C   UNL A   1      42.329  18.595  26.320  1.00  0.00     0.202 C 
BRANCH  35  36
ATOM     36  C   UNL A   1      43.632  18.606  25.502  1.00  0.00     0.261 C 
BRANCH  36  37
ATOM     37  O   UNL A   1      43.712  19.566  24.424  1.00  0.00    -0.460 OA
BRANCH  37  38
ATOM     38  C   UNL A   1      44.874  20.272  24.336  1.00  0.00     0.338 C 
ATOM     39  O   UNL A   1      45.877  19.932  23.748  1.00  0.00    -0.246 OA
BRANCH  38  40
ATOM     40  C   UNL A   1      44.728  21.624  24.941  1.00  0.00     0.060 A 
ATOM     41  C   UNL A   1      45.044  22.734  24.158  1.00  0.00     0.016 A 
ATOM     42  C   UNL A   1      44.454  21.810  26.297  1.00  0.00     0.016 A 
ATOM     43  C   UNL A   1      45.068  24.014  24.721  1.00  0.00     0.010 A 
ATOM     44  C   UNL A   1      44.535  23.100  26.864  1.00  0.00     0.010 A 
ATOM     45  C   UNL A   1      44.860  24.217  26.081  1.00  0.00    -0.014 A 
BRANCH  45  46
ATOM     46  C   UNL A   1      45.221  25.535  26.682  1.00  0.00     0.031 A 
ATOM     47  C   UNL A   1      44.115  26.369  27.273  1.00  0.00     0.074 A 
ATOM     48  C   UNL A   1      46.491  25.977  26.784  1.00  0.00     0.049 A 
ATOM     49  N   UNL A   1      44.116  27.627  27.629  1.00  0.00    -0.248 NA
ATOM     50  C   UNL A   1      42.838  25.676  27.500  1.00  0.00     0.031 C 
ATOM     51  C   UNL A   1      47.689  25.213  26.444  1.00  0.00     0.029 A 
ATOM     52  N   UNL A   1      46.981  27.200  27.191  1.00  0.00    -0.354 N 
ATOM     53  C   UNL A   1      42.823  27.894  28.072  1.00  0.00     0.074 A 
ATOM     54  C   UNL A   1      42.075  26.659  27.953  1.00  0.00     0.031 C 
ATOM     55  C   UNL A   1      48.769  26.001  26.604  1.00  0.00     0.029 A 
ATOM     56  C   UNL A   1      48.336  27.346  26.990  1.00  0.00     0.049 A 
ATOM     57  H   UNL A   1      46.415  27.902  27.586  1.00  0.00     0.167 HD
ATOM     58  C   UNL A   1      42.305  29.066  28.516  1.00  0.00     0.034 A 
ATOM     59  C   UNL A   1      49.120  28.446  27.041  1.00  0.00     0.034 A 
ATOM     60  C   UNL A   1      43.063  30.289  28.623  1.00  0.00     0.049 A 
ATOM     61  C   UNL A   1      48.492  29.787  27.373  1.00  0.00     0.074 A 
ATOM     62  C   UNL A   1      42.627  31.540  29.020  1.00  0.00     0.029 A 
ATOM     63  N   UNL A   1      44.413  30.415  28.327  1.00  0.00    -0.354 N 
ATOM     64  N   UNL A   1      47.248  30.064  27.694  1.00  0.00    -0.248 NA
ATOM     65  C   UNL A   1      49.371  30.966  27.340  1.00  0.00     0.031 C 
ATOM     66  C   UNL A   1      43.690  32.438  28.888  1.00  0.00     0.029 A 
ATOM     67  C   UNL A   1      44.816  31.729  28.501  1.00  0.00     0.049 A 
ATOM     68  H   UNL A   1      44.998  29.680  28.036  1.00  0.00     0.167 HD
ATOM     69  C   UNL A   1      47.211  31.437  27.939  1.00  0.00     0.074 A 
ATOM     70  C   UNL A   1      48.555  31.932  27.735  1.00  0.00     0.031 C 
ATOM     71  C   UNL A   1      46.162  32.216  28.309  1.00  0.00     0.034 A 
BRANCH  58  72
ATOM     72  C   UNL A   1      40.829  29.098  28.823  1.00  0.00     0.023 A 
ATOM     73  C   UNL A   1      40.339  29.030  30.138  1.00  0.00     0.031 A 
ATOM     74  C   UNL A   1      39.894  29.161  27.773  1.00  0.00     0.131 A 
ATOM     75  C   UNL A   1      38.956  28.954  30.363  1.00  0.00     0.055 A 
ATOM     76  C   UNL A   1      38.519  29.171  28.009  1.00  0.00     0.041 A 
ATOM     77  F   UNL A   1      40.303  29.201  26.495  1.00  0.00    -0.206 F 
ATOM     78  C   UNL A   1      38.043  29.051  29.311  1.00  0.00     0.022 A 
BRANCH  75  79
ATOM     79  S   UNL A   1      38.374  28.572  32.037  1.00  0.00     0.124 S 
ATOM     80  O   UNL A   1      37.003  29.076  31.994  1.00  0.00    -0.237 OA
ATOM     81  O   UNL A   1      38.517  27.121  32.098  1.00  0.00    -0.237 OA
ATOM     82  O   UNL A   1      39.282  29.326  32.897  1.00  0.00    -0.744 OA
ENDBRANCH  75  79
ENDBRANCH  58  72
BRANCH  59  83
ATOM     83  C   UNL A   1      50.570  28.380  26.673  1.00  0.00     0.023 A 
ATOM     84  C   UNL A   1      50.988  28.489  25.336  1.00  0.00     0.031 A 
ATOM     85  C   UNL A   1      51.551  28.100  27.642  1.00  0.00     0.131 A 
ATOM     86  C   UNL A   1      52.335  28.266  25.000  1.00  0.00     0.055 A 
ATOM     87  C   UNL A   1      52.900  27.944  27.312  1.00  0.00     0.041 A 
ATOM     88  F   UNL A   1      51.211  27.961  28.934  1.00  0.00    -0.206 F 
ATOM     89  C   UNL A   1      53.295  28.012  25.981  1.00  0.00     0.022 A 
BRANCH  86  90
ATOM     90  S   UNL A   1      52.794  28.202  23.246  1.00  0.00     0.124 S 
ATOM     91  O   UNL A   1      54.162  27.700  23.318  1.00  0.00    -0.237 OA
ATOM     92  O   UNL A   1      51.800  27.281  22.707  1.00  0.00    -0.237 OA
ATOM     93  O   UNL A   1      52.660  29.590  22.807  1.00  0.00    -0.744 OA
ENDBRANCH  86  90
ENDBRANCH  59  83
BRANCH  71  94
ATOM     94  C   UNL A   1      46.434  33.674  28.604  1.00  0.00     0.023 A 
ATOM     95  C   UNL A   1      46.792  34.129  29.885  1.00  0.00     0.031 A 
ATOM     96  C   UNL A   1      46.358  34.621  27.564  1.00  0.00     0.131 A 
ATOM     97  C   UNL A   1      47.023  35.499  30.100  1.00  0.00     0.055 A 
ATOM     98  C   UNL A   1      46.649  35.970  27.772  1.00  0.00     0.041 A 
ATOM     99  F   UNL A   1      46.015  34.245  26.322  1.00  0.00    -0.206 F 
ATOM    100  C   UNL A   1      46.973  36.417  29.048  1.00  0.00     0.022 A 
BRANCH  97 101
ATOM    101  S   UNL A   1      47.317  36.081  31.793  1.00  0.00     0.124 S 
ATOM    102  O   UNL A   1      46.998  37.500  31.686  1.00  0.00    -0.237 OA
ATOM    103  O   UNL A   1      46.381  35.274  32.569  1.00  0.00    -0.237 OA
ATOM    104  O   UNL A   1      48.729  35.779  32.020  1.00  0.00    -0.744 OA
ENDBRANCH  97 101
ENDBRANCH  71  94
ENDBRANCH  45  46
ENDBRANCH  38  40
ENDBRANCH  37  38
ENDBRANCH  36  37
ENDBRANCH  35  36
ENDBRANCH  34  35
ENDBRANCH  33  34
ENDBRANCH   1  33
TORSDOF 26
ENDMDL
MODEL 2
REMARK VINA RESULT:     -10.0      5.473      9.261
REMARK SMILES COc1ccc(CCC(=O)Nc2ccc(N3CCCC3)cc2C(=O)OCCOCCOCCOC(=O)c2ccc(-c3c4nc(c(-c5cc(S(=O)(=O)[O-])ccc5F)c5ccc([nH]5)c(-c5cc(S(=O)(=O)[O-])ccc5F)c5nc(c(-c6cc(S(=O)(=O)[O-])ccc6F)c6ccc3[nH]6)C=C5)C=C4)cc2)cc1
REMARK SMILES IDX 29 1 28 2 27 3 26 4 25 5 23 6 24 7 22 8 12 9 13 10 14 11
REMARK SMILES IDX 21 12 15 13 11 14 9 15 10 16 8 18 7 19 6 20 3 21 4 22 101 23
REMARK SMILES IDX 5 24 100 25 2 26 1 27 16 28 17 29 20 30 18 31 19 32 30 33
REMARK SMILES IDX 31 34 32 35 33 36 34 37 35 38 36 39 37 40 38 41 99 42 39 43
REMARK SMILES IDX 98 44 40 45 41 46 42 47 92 48 43 49 97 50 91 51 93 52 44 53
REMARK SMILES IDX 96 54 90 55 89 56 45 58 77 59 57 60 76 61 58 62 61 63 75 64
REMARK SMILES IDX 94 65 59 66 60 67 74 69 95 70 62 71 46 72 47 73 55 74 48 75
REMARK SMILES IDX 54 76 56 77 53 78 49 79 50 80 51 81 52 82 78 83 79 84 87 85
REMARK SMILES IDX 80 86 86 87 88 88 85 89 81 90 82 91 83 92 84 93 63 94 64 95
REMARK SMILES IDX 72 96 65 97 71 98 73 99 70 100 66 101 67 102 68 103 69 104
REMARK H PARENT 11 17 93 57 61 68
REMARK Flexibility Score: inf
ROOT
ATOM      1  C   UNL A   1      41.789  22.985  27.532  1.00  0.00     0.188 C 
ENDROOT
BRANCH   1   2
ATOM      2  O   UNL A   1      40.530  23.499  27.926  1.00  0.00    -0.376 OA
BRANCH   2   3
ATOM      3  C   UNL A   1      40.053  24.587  27.146  1.00  0.00     0.202 C 
BRANCH   3   4
ATOM      4  C   UNL A   1      40.045  25.990  27.834  1.00  0.00     0.261 C 
BRANCH   4   5
ATOM      5  O   UNL A   1      38.873  26.899  27.735  1.00  0.00    -0.460 OA
BRANCH   5   6
ATOM      6  C   UNL A   1      39.125  28.209  28.020  1.00  0.00     0.340 C 
ATOM      7  O   UNL A   1      40.281  28.578  27.881  1.00  0.00    -0.246 OA
BRANCH   6   8
ATOM      8  C   UNL A   1      37.889  29.101  28.578  1.00  0.00     0.085 A 
ATOM      9  C   UNL A   1      37.968  29.163  29.921  1.00  0.00     0.055 A 
ATOM     10  C   UNL A   1      36.846  29.550  30.676  1.00  0.00     0.029 A 
ATOM     11  C   UNL A   1      35.891  30.412  30.098  1.00  0.00     0.028 A 
ATOM     12  C   UNL A   1      37.164  30.267  28.153  1.00  0.00     0.043 A 
ATOM     13  C   UNL A   1      36.146  30.952  28.855  1.00  0.00     0.038 A 
BRANCH   9  14
ATOM     14  N   UNL A   1      39.272  29.450  30.372  1.00  0.00    -0.325 N 
ATOM     15  C   UNL A   1      39.814  30.740  30.571  1.00  0.00     0.224 C 
ATOM     16  O   UNL A   1      41.053  30.772  30.642  1.00  0.00    -0.275 OA
ATOM     17  H   UNL A   1      39.859  28.683  30.565  1.00  0.00     0.169 HD
BRANCH  15  18
ATOM     18  C   UNL A   1      38.906  32.174  30.870  1.00  0.00     0.105 C 
BRANCH  18  19
ATOM     19  C   UNL A   1      38.350  33.196  32.195  1.00  0.00     0.045 C 
BRANCH  19  20
ATOM     20  C   UNL A   1      36.906  33.592  32.786  1.00  0.00    -0.047 A 
ATOM     21  C   UNL A   1      34.117  34.371  32.710  1.00  0.00     0.118 A 
ATOM     22  C   UNL A   1      35.126  35.295  32.671  1.00  0.00     0.046 A 
ATOM     23  C   UNL A   1      34.479  33.083  33.089  1.00  0.00     0.046 A 
ATOM     24  C   UNL A   1      36.461  34.909  32.851  1.00  0.00     0.007 A 
ATOM     25  C   UNL A   1      35.874  32.686  33.090  1.00  0.00     0.007 A 
BRANCH  21  26
ATOM     26  O   UNL A   1      32.966  34.869  32.180  1.00  0.00    -0.497 OA
ATOM     27  C   UNL A   1      32.772  36.217  31.795  1.00  0.00     0.278 C 
ENDBRANCH  21  26
ENDBRANCH  19  20
ENDBRANCH  18  19
ENDBRANCH  15  18
ENDBRANCH   9  14
BRANCH  13  28
ATOM     28  N   UNL A   1      35.517  32.100  28.396  1.00  0.00    -0.372 N 
ATOM     29  C   UNL A   1      35.878  33.442  28.864  1.00  0.00     0.116 C 
ATOM     30  C   UNL A   1      34.111  32.126  27.942  1.00  0.00     0.116 C 
ATOM     31  C   UNL A   1      34.549  34.157  29.118  1.00  0.00     0.023 C 
ATOM     32  C   UNL A   1      33.689  33.612  28.001  1.00  0.00     0.023 C 
ENDBRANCH  13  28
ENDBRANCH   6   8
ENDBRANCH   5   6
ENDBRANCH   4   5
ENDBRANCH   3   4
ENDBRANCH   2   3
ENDBRANCH   1   2
BRANCH   1  33
ATOM     33  C   UNL A   1      41.682  21.849  26.499  1.00  0.00     0.188 C 
BRANCH  33  34
ATOM     34  O   UNL A   1      42.546  21.913  25.368  1.00  0.00    -0.376 OA
BRANCH  34  35
ATOM     35  C   UNL A   1      43.018  23.197  24.993  1.00  0.00     0.202 C 
BRANCH  35  36
ATOM     36  C   UNL A   1      44.539  23.381  24.851  1.00  0.00     0.261 C 
BRANCH  36  37
ATOM     37  O   UNL A   1      45.207  24.097  25.915  1.00  0.00    -0.460 OA
BRANCH  37  38
ATOM     38  C   UNL A   1      45.866  25.232  25.550  1.00  0.00     0.338 C 
ATOM     39  O   UNL A   1      46.635  25.348  24.621  1.00  0.00    -0.246 OA
BRANCH  38  40
ATOM     40  C   UNL A   1      45.414  26.399  26.356  1.00  0.00     0.060 A 
ATOM     41  C   UNL A   1      46.378  27.144  27.036  1.00  0.00     0.016 A 
ATOM     42  C   UNL A   1      44.064  26.668  26.589  1.00  0.00     0.016 A 
ATOM     43  C   UNL A   1      45.995  28.156  27.923  1.00  0.00     0.010 A 
ATOM     44  C   UNL A   1      43.692  27.654  27.529  1.00  0.00     0.010 A 
ATOM     45  C   UNL A   1      44.658  28.400  28.219  1.00  0.00    -0.014 A 
BRANCH  45  46
ATOM     46  C   UNL A   1      44.319  29.244  29.402  1.00  0.00     0.031 A 
ATOM     47  C   UNL A   1      44.102  28.555  30.723  1.00  0.00     0.074 A 
ATOM     48  C   UNL A   1      44.271  30.591  29.358  1.00  0.00     0.049 A 
ATOM     49  N   UNL A   1      43.570  29.011  31.827  1.00  0.00    -0.248 NA
ATOM     50  C   UNL A   1      44.560  27.159  30.804  1.00  0.00     0.031 C 
ATOM     51  C   UNL A   1      44.646  31.421  28.216  1.00  0.00     0.029 A 
ATOM     52  N   UNL A   1      43.860  31.501  30.310  1.00  0.00    -0.354 N 
ATOM     53  C   UNL A   1      43.578  27.943  32.719  1.00  0.00     0.074 A 
ATOM     54  C   UNL A   1      44.183  26.823  32.028  1.00  0.00     0.031 C 
ATOM     55  C   UNL A   1      44.397  32.710  28.513  1.00  0.00     0.029 A 
ATOM     56  C   UNL A   1      43.780  32.793  29.838  1.00  0.00     0.049 A 
ATOM     57  H   UNL A   1      43.643  31.249  31.237  1.00  0.00     0.167 HD
ATOM     58  C   UNL A   1      43.105  27.897  33.989  1.00  0.00     0.034 A 
ATOM     59  C   UNL A   1      43.213  33.894  30.381  1.00  0.00     0.034 A 
ATOM     60  C   UNL A   1      42.499  29.020  34.661  1.00  0.00     0.049 A 
ATOM     61  C   UNL A   1      42.533  33.786  31.734  1.00  0.00     0.074 A 
ATOM     62  C   UNL A   1      41.949  29.070  35.930  1.00  0.00     0.029 A 
ATOM     63  N   UNL A   1      42.358  30.290  34.117  1.00  0.00    -0.354 N 
ATOM     64  N   UNL A   1      42.448  32.751  32.539  1.00  0.00    -0.248 NA
ATOM     65  C   UNL A   1      41.863  34.991  32.246  1.00  0.00     0.031 C 
ATOM     66  C   UNL A   1      41.406  30.345  36.122  1.00  0.00     0.029 A 
ATOM     67  C   UNL A   1      41.702  31.119  35.013  1.00  0.00     0.049 A 
ATOM     68  H   UNL A   1      42.677  30.561  33.227  1.00  0.00     0.167 HD
ATOM     69  C   UNL A   1      41.754  33.197  33.665  1.00  0.00     0.074 A 
ATOM     70  C   UNL A   1      41.448  34.592  33.439  1.00  0.00     0.031 C 
ATOM     71  C   UNL A   1      41.411  32.515  34.788  1.00  0.00     0.034 A 
BRANCH  58  72
ATOM     72  C   UNL A   1      43.137  26.562  34.692  1.00  0.00     0.023 A 
ATOM     73  C   UNL A   1      44.337  25.983  35.138  1.00  0.00     0.031 A 
ATOM     74  C   UNL A   1      41.944  25.841  34.885  1.00  0.00     0.131 A 
ATOM     75  C   UNL A   1      44.325  24.692  35.687  1.00  0.00     0.055 A 
ATOM     76  C   UNL A   1      41.930  24.593  35.510  1.00  0.00     0.041 A 
ATOM     77  F   UNL A   1      40.771  26.332  34.455  1.00  0.00    -0.206 F 
ATOM     78  C   UNL A   1      43.128  24.005  35.901  1.00  0.00     0.022 A 
BRANCH  75  79
ATOM     79  S   UNL A   1      45.911  23.863  35.977  1.00  0.00     0.124 S 
ATOM     80  O   UNL A   1      45.877  22.803  34.970  1.00  0.00    -0.237 OA
ATOM     81  O   UNL A   1      46.874  24.933  35.742  1.00  0.00    -0.237 OA
ATOM     82  O   UNL A   1      45.811  23.403  37.359  1.00  0.00    -0.744 OA
ENDBRANCH  75  79
ENDBRANCH  58  72
BRANCH  59  83
ATOM     83  C   UNL A   1      43.153  35.185  29.625  1.00  0.00     0.023 A 
ATOM     84  C   UNL A   1      44.175  36.143  29.737  1.00  0.00     0.031 A 
ATOM     85  C   UNL A   1      42.021  35.525  28.861  1.00  0.00     0.131 A 
ATOM     86  C   UNL A   1      44.020  37.408  29.143  1.00  0.00     0.055 A 
ATOM     87  C   UNL A   1      41.901  36.760  28.219  1.00  0.00     0.041 A 
ATOM     88  F   UNL A   1      41.000  34.661  28.735  1.00  0.00    -0.206 F 
ATOM     89  C   UNL A   1      42.899  37.716  28.371  1.00  0.00     0.022 A 
BRANCH  86  90
ATOM     90  S   UNL A   1      45.259  38.688  29.490  1.00  0.00     0.124 S 
ATOM     91  O   UNL A   1      45.132  39.546  28.317  1.00  0.00    -0.237 OA
ATOM     92  O   UNL A   1      44.774  39.245  30.748  1.00  0.00    -0.237 OA
ATOM     93  O   UNL A   1      46.509  37.937  29.583  1.00  0.00    -0.744 OA
ENDBRANCH  86  90
ENDBRANCH  59  83
BRANCH  71  94
ATOM     94  C   UNL A   1      40.738  33.284  35.903  1.00  0.00     0.023 A 
ATOM     95  C   UNL A   1      41.454  34.109  36.787  1.00  0.00     0.031 A 
ATOM     96  C   UNL A   1      39.341  33.205  36.059  1.00  0.00     0.131 A 
ATOM     97  C   UNL A   1      40.775  34.791  37.811  1.00  0.00     0.055 A 
ATOM     98  C   UNL A   1      38.665  33.933  37.039  1.00  0.00     0.041 A 
ATOM     99  F   UNL A   1      38.605  32.429  35.247  1.00  0.00    -0.206 F 
ATOM    100  C   UNL A   1      39.384  34.724  37.929  1.00  0.00     0.022 A 
BRANCH  97 101
ATOM    101  S   UNL A   1      41.741  35.713  39.040  1.00  0.00     0.124 S 
ATOM    102  O   UNL A   1      42.598  34.671  39.595  1.00  0.00    -0.237 OA
ATOM    103  O   UNL A   1      42.409  36.719  38.222  1.00  0.00    -0.237 OA
ATOM    104  O   UNL A   1      40.727  36.233  39.954  1.00  0.00    -0.744 OA
ENDBRANCH  97 101
ENDBRANCH  71  94
ENDBRANCH  45  46
ENDBRANCH  38  40
ENDBRANCH  37  38
ENDBRANCH  36  37
ENDBRANCH  35  36
ENDBRANCH  34  35
ENDBRANCH  33  34
ENDBRANCH   1  33
TORSDOF 26
ENDMDL
MODEL 3
REMARK VINA RESULT:      -9.0      3.381      8.514
REMARK SMILES COc1ccc(CCC(=O)Nc2ccc(N3CCCC3)cc2C(=O)OCCOCCOCCOC(=O)c2ccc(-c3c4nc(c(-c5cc(S(=O)(=O)[O-])ccc5F)c5ccc([nH]5)c(-c5cc(S(=O)(=O)[O-])ccc5F)c5nc(c(-c6cc(S(=O)(=O)[O-])ccc6F)c6ccc3[nH]6)C=C5)C=C4)cc2)cc1
REMARK SMILES IDX 29 1 28 2 27 3 26 4 25 5 23 6 24 7 22 8 12 9 13 10 14 11
REMARK SMILES IDX 21 12 15 13 11 14 9 15 10 16 8 18 7 19 6 20 3 21 4 22 101 23
REMARK SMILES IDX 5 24 100 25 2 26 1 27 16 28 17 29 20 30 18 31 19 32 30 33
REMARK SMILES IDX 31 34 32 35 33 36 34 37 35 38 36 39 37 40 38 41 99 42 39 43
REMARK SMILES IDX 98 44 40 45 41 46 42 47 92 48 43 49 97 50 91 51 93 52 44 53
REMARK SMILES IDX 96 54 90 55 89 56 45 58 77 59 57 60 76 61 58 62 61 63 75 64
REMARK SMILES IDX 94 65 59 66 60 67 74 69 95 70 62 71 46 72 47 73 55 74 48 75
REMARK SMILES IDX 54 76 56 77 53 78 49 79 50 80 51 81 52 82 78 83 79 84 87 85
REMARK SMILES IDX 80 86 86 87 88 88 85 89 81 90 82 91 83 92 84 93 63 94 64 95
REMARK SMILES IDX 72 96 65 97 71 98 73 99 70 100 66 101 67 102 68 103 69 104
REMARK H PARENT 11 17 93 57 61 68
REMARK Flexibility Score: inf
ROOT
ATOM      1  C   UNL A   1      41.035  22.576  26.464  1.00  0.00     0.188 C 
ENDROOT
BRANCH   1   2
ATOM      2  O   UNL A   1      39.782  22.000  26.782  1.00  0.00    -0.376 OA
BRANCH   2   3
ATOM      3  C   UNL A   1      38.822  22.028  25.734  1.00  0.00     0.202 C 
BRANCH   3   4
ATOM      4  C   UNL A   1      37.368  22.443  26.127  1.00  0.00     0.261 C 
BRANCH   4   5
ATOM      5  O   UNL A   1      36.339  22.744  25.098  1.00  0.00    -0.460 OA
BRANCH   5   6
ATOM      6  C   UNL A   1      35.127  23.140  25.583  1.00  0.00     0.340 C 
ATOM      7  O   UNL A   1      34.481  22.290  26.177  1.00  0.00    -0.246 OA
BRANCH   6   8
ATOM      8  C   UNL A   1      34.653  24.657  25.256  1.00  0.00     0.085 A 
ATOM      9  C   UNL A   1      34.167  24.700  24.001  1.00  0.00     0.055 A 
ATOM     10  C   UNL A   1      34.031  25.933  23.339  1.00  0.00     0.029 A 
ATOM     11  C   UNL A   1      33.816  27.103  24.098  1.00  0.00     0.028 A 
ATOM     12  C   UNL A   1      34.039  25.740  25.973  1.00  0.00     0.043 A 
ATOM     13  C   UNL A   1      33.620  26.987  25.458  1.00  0.00     0.038 A 
BRANCH   9  14
ATOM     14  N   UNL A   1      33.282  23.637  23.729  1.00  0.00    -0.325 N 
ATOM     15  C   UNL A   1      31.871  23.693  23.812  1.00  0.00     0.224 C 
ATOM     16  O   UNL A   1      31.316  22.583  23.861  1.00  0.00    -0.275 OA
ATOM     17  H   UNL A   1      33.681  22.779  23.458  1.00  0.00     0.169 HD
BRANCH  15  18
ATOM     18  C   UNL A   1      30.914  25.120  23.689  1.00  0.00     0.105 C 
BRANCH  18  19
ATOM     19  C   UNL A   1      30.637  26.500  22.626  1.00  0.00     0.045 C 
BRANCH  19  20
ATOM     20  C   UNL A   1      29.866  27.905  22.777  1.00  0.00    -0.047 A 
ATOM     21  C   UNL A   1      28.283  30.181  21.938  1.00  0.00     0.118 A 
ATOM     22  C   UNL A   1      29.643  30.151  21.783  1.00  0.00     0.046 A 
ATOM     23  C   UNL A   1      27.740  29.215  22.778  1.00  0.00     0.046 A 
ATOM     24  C   UNL A   1      30.404  29.105  22.323  1.00  0.00     0.007 A 
ATOM     25  C   UNL A   1      28.524  28.059  23.166  1.00  0.00     0.007 A 
BRANCH  21  26
ATOM     26  O   UNL A   1      27.704  31.057  21.071  1.00  0.00    -0.497 OA
ATOM     27  C   UNL A   1      28.050  32.424  20.954  1.00  0.00     0.278 C 
ENDBRANCH  21  26
ENDBRANCH  19  20
ENDBRANCH  18  19
ENDBRANCH  15  18
ENDBRANCH   9  14
BRANCH  13  28
ATOM     28  N   UNL A   1      32.995  27.973  26.208  1.00  0.00    -0.372 N 
ATOM     29  C   UNL A   1      31.674  28.510  25.867  1.00  0.00     0.116 C 
ATOM     30  C   UNL A   1      33.734  29.000  26.971  1.00  0.00     0.116 C 
ATOM     31  C   UNL A   1      31.796  30.027  26.029  1.00  0.00     0.023 C 
ATOM     32  C   UNL A   1      32.716  30.135  27.223  1.00  0.00     0.023 C 
ENDBRANCH  13  28
ENDBRANCH   6   8
ENDBRANCH   5   6
ENDBRANCH   4   5
ENDBRANCH   3   4
ENDBRANCH   2   3
ENDBRANCH   1   2
BRANCH   1  33
ATOM     33  C   UNL A   1      42.176  21.545  26.404  1.00  0.00     0.188 C 
BRANCH  33  34
ATOM     34  O   UNL A   1      43.439  21.997  25.925  1.00  0.00    -0.376 OA
BRANCH  34  35
ATOM     35  C   UNL A   1      43.432  22.795  24.751  1.00  0.00     0.202 C 
BRANCH  35  36
ATOM     36  C   UNL A   1      44.664  23.677  24.485  1.00  0.00     0.261 C 
BRANCH  36  37
ATOM     37  O   UNL A   1      45.298  24.271  25.640  1.00  0.00    -0.460 OA
BRANCH  37  38
ATOM     38  C   UNL A   1      45.986  25.426  25.418  1.00  0.00     0.338 C 
ATOM     39  O   UNL A   1      46.821  25.609  24.559  1.00  0.00    -0.246 OA
BRANCH  38  40
ATOM     40  C   UNL A   1      45.481  26.528  26.282  1.00  0.00     0.060 A 
ATOM     41  C   UNL A   1      44.471  27.348  25.780  1.00  0.00     0.016 A 
ATOM     42  C   UNL A   1      46.092  26.869  27.490  1.00  0.00     0.016 A 
ATOM     43  C   UNL A   1      44.065  28.485  26.488  1.00  0.00     0.010 A 
ATOM     44  C   UNL A   1      45.711  28.049  28.166  1.00  0.00     0.010 A 
ATOM     45  C   UNL A   1      44.700  28.879  27.661  1.00  0.00    -0.014 A 
BRANCH  45  46
ATOM     46  C   UNL A   1      44.460  30.255  28.188  1.00  0.00     0.031 A 
ATOM     47  C   UNL A   1      45.425  31.341  27.791  1.00  0.00     0.074 A 
ATOM     48  C   UNL A   1      43.388  30.582  28.938  1.00  0.00     0.049 A 
ATOM     49  N   UNL A   1      45.587  32.538  28.291  1.00  0.00    -0.248 NA
ATOM     50  C   UNL A   1      46.320  31.028  26.667  1.00  0.00     0.031 C 
ATOM     51  C   UNL A   1      42.263  29.703  29.246  1.00  0.00     0.029 A 
ATOM     52  N   UNL A   1      43.085  31.755  29.598  1.00  0.00    -0.354 N 
ATOM     53  C   UNL A   1      46.641  33.104  27.579  1.00  0.00     0.074 A 
ATOM     54  C   UNL A   1      47.065  32.121  26.604  1.00  0.00     0.031 C 
ATOM     55  C   UNL A   1      41.422  30.346  30.076  1.00  0.00     0.029 A 
ATOM     56  C   UNL A   1      41.981  31.657  30.417  1.00  0.00     0.049 A 
ATOM     57  H   UNL A   1      43.609  32.582  29.494  1.00  0.00     0.167 HD
ATOM     58  C   UNL A   1      47.214  34.323  27.740  1.00  0.00     0.034 A 
ATOM     59  C   UNL A   1      41.520  32.491  31.374  1.00  0.00     0.034 A 
ATOM     60  C   UNL A   1      46.784  35.289  28.721  1.00  0.00     0.049 A 
ATOM     61  C   UNL A   1      42.273  33.777  31.662  1.00  0.00     0.074 A 
ATOM     62  C   UNL A   1      47.320  36.534  28.997  1.00  0.00     0.029 A 
ATOM     63  N   UNL A   1      45.716  35.116  29.591  1.00  0.00    -0.354 N 
ATOM     64  N   UNL A   1      43.332  34.270  31.061  1.00  0.00    -0.248 NA
ATOM     65  C   UNL A   1      41.776  34.612  32.766  1.00  0.00     0.031 C 
ATOM     66  C   UNL A   1      46.629  37.079  30.083  1.00  0.00     0.029 A 
ATOM     67  C   UNL A   1      45.599  36.217  30.423  1.00  0.00     0.049 A 
ATOM     68  H   UNL A   1      45.128  34.328  29.613  1.00  0.00     0.167 HD
ATOM     69  C   UNL A   1      43.596  35.488  31.687  1.00  0.00     0.074 A 
ATOM     70  C   UNL A   1      42.586  35.659  32.708  1.00  0.00     0.031 C 
ATOM     71  C   UNL A   1      44.580  36.389  31.432  1.00  0.00     0.034 A 
BRANCH  58  72
ATOM     72  C   UNL A   1      48.429  34.633  26.901  1.00  0.00     0.023 A 
ATOM     73  C   UNL A   1      49.732  34.343  27.339  1.00  0.00     0.031 A 
ATOM     74  C   UNL A   1      48.278  35.266  25.653  1.00  0.00     0.131 A 
ATOM     75  C   UNL A   1      50.832  34.749  26.569  1.00  0.00     0.055 A 
ATOM     76  C   UNL A   1      49.374  35.591  24.853  1.00  0.00     0.041 A 
ATOM     77  F   UNL A   1      47.059  35.592  25.195  1.00  0.00    -0.206 F 
ATOM     78  C   UNL A   1      50.662  35.346  25.318  1.00  0.00     0.022 A 
BRANCH  75  79
ATOM     79  S   UNL A   1      52.488  34.624  27.297  1.00  0.00     0.124 S 
ATOM     80  O   UNL A   1      52.328  35.397  28.528  1.00  0.00    -0.237 OA
ATOM     81  O   UNL A   1      52.651  33.185  27.467  1.00  0.00    -0.237 OA
ATOM     82  O   UNL A   1      53.352  35.237  26.292  1.00  0.00    -0.744 OA
ENDBRANCH  75  79
ENDBRANCH  58  72
BRANCH  59  83
ATOM     83  C   UNL A   1      40.343  32.118  32.223  1.00  0.00     0.023 A 
ATOM     84  C   UNL A   1      40.513  31.642  33.534  1.00  0.00     0.031 A 
ATOM     85  C   UNL A   1      39.038  32.131  31.698  1.00  0.00     0.131 A 
ATOM     86  C   UNL A   1      39.409  31.151  34.252  1.00  0.00     0.055 A 
ATOM     87  C   UNL A   1      37.934  31.703  32.440  1.00  0.00     0.041 A 
ATOM     88  F   UNL A   1      38.813  32.553  30.443  1.00  0.00    -0.206 F 
ATOM     89  C   UNL A   1      38.119  31.195  33.720  1.00  0.00     0.022 A 
BRANCH  86  90
ATOM     90  S   UNL A   1      39.700  30.348  35.854  1.00  0.00     0.124 S 
ATOM     91  O   UNL A   1      38.342  30.218  36.369  1.00  0.00    -0.237 OA
ATOM     92  O   UNL A   1      40.357  29.108  35.455  1.00  0.00    -0.237 OA
ATOM     93  O   UNL A   1      40.550  31.301  36.564  1.00  0.00    -0.744 OA
ENDBRANCH  86  90
ENDBRANCH  59  83
BRANCH  71  94
ATOM     94  C   UNL A   1      44.570  37.686  32.211  1.00  0.00     0.023 A 
ATOM     95  C   UNL A   1      45.144  37.801  33.489  1.00  0.00     0.031 A 
ATOM     96  C   UNL A   1      43.995  38.837  31.639  1.00  0.00     0.131 A 
ATOM     97  C   UNL A   1      45.096  39.030  34.168  1.00  0.00     0.055 A 
ATOM     98  C   UNL A   1      44.005  40.070  32.293  1.00  0.00     0.041 A 
ATOM     99  F   UNL A   1      43.428  38.785  30.423  1.00  0.00    -0.206 F 
ATOM    100  C   UNL A   1      44.548  40.168  33.570  1.00  0.00     0.022 A 
BRANCH  97 101
ATOM    101  S   UNL A   1      45.691  39.109  35.880  1.00  0.00     0.124 S 
ATOM    102  O   UNL A   1      44.474  38.838  36.638  1.00  0.00    -0.237 OA
ATOM    103  O   UNL A   1      46.705  38.060  35.907  1.00  0.00    -0.237 OA
ATOM    104  O   UNL A   1      46.207  40.471  36.002  1.00  0.00    -0.744 OA
ENDBRANCH  97 101
ENDBRANCH  71  94
ENDBRANCH  45  46
ENDBRANCH  38  40
ENDBRANCH  37  38
ENDBRANCH  36  37
ENDBRANCH  35  36
ENDBRANCH  34  35
ENDBRANCH  33  34
ENDBRANCH   1  33
TORSDOF 26
ENDMDL
