MODEL 1
REMARK VINA RESULT:      -9.3      0.000      0.000
REMARK SMILES C[NH2+][C@@]1(C(=O)OCCOCCOCCOC(=O)c2ccc(-c3c4nc(c(-c5cc(S(=O)(=O)[O-])ccc5F)c5ccc([nH]5)c(-c5cc(S(=O)(=O)[O-])ccc5F)c5nc(c(-c6cc(S(=O)(=O)[O-])ccc6F)c6ccc3[nH]6)C=C5)C=C4)cc2)CC[C@H]([NH+]2CC[NH+](C)CC2)C1
REMARK SMILES IDX 11 1 10 2 9 3 8 4 7 5 6 6 4 7 5 8 3 9 81 10 91 11 82 12
REMARK SMILES IDX 83 13 2 14 1 15 84 18 85 19 90 20 86 22 89 23 87 24 88 25
REMARK SMILES IDX 12 27 13 28 14 29 15 30 16 31 17 32 18 33 19 34 80 35 20 36
REMARK SMILES IDX 79 37 21 38 22 39 23 40 73 41 24 42 78 43 72 44 74 45 25 46
REMARK SMILES IDX 77 47 71 48 70 49 26 51 58 52 38 53 57 54 39 55 42 56 56 57
REMARK SMILES IDX 75 58 40 59 41 60 55 62 76 63 43 64 27 65 28 66 36 67 29 68
REMARK SMILES IDX 35 69 37 70 34 71 30 72 31 73 32 74 33 75 59 76 60 77 68 78
REMARK SMILES IDX 61 79 67 80 69 81 66 82 62 83 63 84 64 85 65 86 44 87 45 88
REMARK SMILES IDX 53 89 46 90 52 91 54 92 51 93 47 94 48 95 49 96 50 97
REMARK H PARENT 2 16 2 17 84 21 87 26 74 50 42 61
REMARK Flexibility Score: inf
ROOT
ATOM      1  C   UNL A   1      31.714  32.540  26.497  1.00  0.00     0.188 C 
ENDROOT
BRANCH   1   2
ATOM      2  C   UNL A   1      31.808  31.048  26.826  1.00  0.00     0.188 C 
BRANCH   2   3
ATOM      3  O   UNL A   1      32.611  30.238  25.978  1.00  0.00    -0.376 OA
BRANCH   3   4
ATOM      4  C   UNL A   1      33.755  29.608  26.557  1.00  0.00     0.202 C 
BRANCH   4   5
ATOM      5  C   UNL A   1      33.895  28.086  26.388  1.00  0.00     0.261 C 
BRANCH   5   6
ATOM      6  O   UNL A   1      33.811  27.682  25.003  1.00  0.00    -0.459 OA
BRANCH   6   7
ATOM      7  C   UNL A   1      32.651  27.079  24.633  1.00  0.00     0.368 C 
ATOM      8  O   UNL A   1      31.793  26.752  25.448  1.00  0.00    -0.245 OA
BRANCH   7   9
ATOM      9  C   UNL A   1      32.463  26.985  23.064  1.00  0.00     0.200 C 
ATOM     10  C   UNL A   1      33.122  28.247  22.473  1.00  0.00     0.087 C 
ATOM     11  C   UNL A   1      31.025  27.154  22.511  1.00  0.00     0.146 C 
ATOM     12  C   UNL A   1      32.076  29.344  22.702  1.00  0.00     0.072 C 
ATOM     13  C   UNL A   1      30.722  28.665  22.446  1.00  0.00     0.191 C 
BRANCH   9  14
ATOM     14  N   UNL A   1      33.204  25.766  22.645  1.00  0.00    -0.334 N 
ATOM     15  C   UNL A   1      32.577  24.893  21.668  1.00  0.00     0.331 C 
ATOM     16  H   UNL A   1      34.095  26.072  22.253  1.00  0.00     0.347 HD
ATOM     17  H   UNL A   1      33.267  25.201  23.492  1.00  0.00     0.347 HD
ENDBRANCH   9  14
BRANCH  13  18
ATOM     18  N   UNL A   1      29.498  29.081  23.142  1.00  0.00    -0.323 N 
ATOM     19  C   UNL A   1      28.247  28.901  22.396  1.00  0.00     0.324 C 
ATOM     20  C   UNL A   1      29.472  30.407  23.769  1.00  0.00     0.324 C 
ATOM     21  H   UNL A   1      29.547  28.401  23.902  1.00  0.00     0.348 HD
ATOM     22  C   UNL A   1      27.889  30.052  21.424  1.00  0.00     0.324 C 
ATOM     23  C   UNL A   1      29.235  31.571  22.797  1.00  0.00     0.324 C 
ATOM     24  N   UNL A   1      28.018  31.415  21.983  1.00  0.00    -0.328 N 
ATOM     25  C   UNL A   1      28.018  32.408  20.908  1.00  0.00     0.333 C 
ATOM     26  H   UNL A   1      27.214  31.565  22.592  1.00  0.00     0.348 HD
ENDBRANCH  13  18
ENDBRANCH   7   9
ENDBRANCH   6   7
ENDBRANCH   5   6
ENDBRANCH   4   5
ENDBRANCH   3   4
ENDBRANCH   2   3
ENDBRANCH   1   2
BRANCH   1  27
ATOM     27  O   UNL A   1      31.826  33.442  27.567  1.00  0.00    -0.376 OA
BRANCH  27  28
ATOM     28  C   UNL A   1      33.076  33.911  28.037  1.00  0.00     0.202 C 
BRANCH  28  29
ATOM     29  C   UNL A   1      34.406  33.131  28.053  1.00  0.00     0.261 C 
BRANCH  29  30
ATOM     30  O   UNL A   1      34.486  31.953  28.852  1.00  0.00    -0.460 OA
BRANCH  30  31
ATOM     31  C   UNL A   1      35.011  32.110  30.095  1.00  0.00     0.338 C 
ATOM     32  O   UNL A   1      34.445  32.558  31.078  1.00  0.00    -0.246 OA
BRANCH  31  33
ATOM     33  C   UNL A   1      36.285  31.354  30.113  1.00  0.00     0.060 A 
ATOM     34  C   UNL A   1      36.344  30.166  30.859  1.00  0.00     0.016 A 
ATOM     35  C   UNL A   1      37.362  31.749  29.320  1.00  0.00     0.016 A 
ATOM     36  C   UNL A   1      37.488  29.371  30.819  1.00  0.00     0.010 A 
ATOM     37  C   UNL A   1      38.522  30.973  29.310  1.00  0.00     0.010 A 
ATOM     38  C   UNL A   1      38.599  29.796  30.079  1.00  0.00    -0.014 A 
BRANCH  38  39
ATOM     39  C   UNL A   1      39.919  29.170  30.318  1.00  0.00     0.031 A 
ATOM     40  C   UNL A   1      40.795  29.797  31.368  1.00  0.00     0.074 A 
ATOM     41  C   UNL A   1      40.331  28.084  29.642  1.00  0.00     0.049 A 
ATOM     42  N   UNL A   1      42.029  29.524  31.697  1.00  0.00    -0.248 NA
ATOM     43  C   UNL A   1      40.188  30.890  32.146  1.00  0.00     0.031 C 
ATOM     44  C   UNL A   1      39.542  27.349  28.654  1.00  0.00     0.029 A 
ATOM     45  N   UNL A   1      41.530  27.416  29.681  1.00  0.00    -0.354 N 
ATOM     46  C   UNL A   1      42.350  30.417  32.712  1.00  0.00     0.074 A 
ATOM     47  C   UNL A   1      41.194  31.261  32.920  1.00  0.00     0.031 C 
ATOM     48  C   UNL A   1      40.288  26.340  28.169  1.00  0.00     0.029 A 
ATOM     49  C   UNL A   1      41.620  26.387  28.773  1.00  0.00     0.049 A 
ATOM     50  H   UNL A   1      42.257  27.651  30.302  1.00  0.00     0.167 HD
ATOM     51  C   UNL A   1      43.506  30.522  33.411  1.00  0.00     0.034 A 
ATOM     52  C   UNL A   1      42.669  25.604  28.446  1.00  0.00     0.034 A 
ATOM     53  C   UNL A   1      44.656  29.687  33.176  1.00  0.00     0.049 A 
ATOM     54  C   UNL A   1      43.988  25.814  29.159  1.00  0.00     0.074 A 
ATOM     55  C   UNL A   1      45.881  29.708  33.817  1.00  0.00     0.029 A 
ATOM     56  N   UNL A   1      44.729  28.690  32.211  1.00  0.00    -0.354 N 
ATOM     57  N   UNL A   1      44.290  26.669  30.110  1.00  0.00    -0.248 NA
ATOM     58  C   UNL A   1      45.106  24.951  28.755  1.00  0.00     0.031 C 
ATOM     59  C   UNL A   1      46.719  28.781  33.189  1.00  0.00     0.029 A 
ATOM     60  C   UNL A   1      45.989  28.114  32.217  1.00  0.00     0.049 A 
ATOM     61  H   UNL A   1      43.993  28.430  31.612  1.00  0.00     0.167 HD
ATOM     62  C   UNL A   1      45.622  26.418  30.441  1.00  0.00     0.074 A 
ATOM     63  C   UNL A   1      46.059  25.327  29.596  1.00  0.00     0.031 C 
ATOM     64  C   UNL A   1      46.411  27.027  31.364  1.00  0.00     0.034 A 
BRANCH  51  65
ATOM     65  C   UNL A   1      43.591  31.622  34.440  1.00  0.00     0.023 A 
ATOM     66  C   UNL A   1      43.218  31.415  35.779  1.00  0.00     0.031 A 
ATOM     67  C   UNL A   1      44.004  32.912  34.062  1.00  0.00     0.131 A 
ATOM     68  C   UNL A   1      43.193  32.496  36.673  1.00  0.00     0.055 A 
ATOM     69  C   UNL A   1      44.060  33.963  34.978  1.00  0.00     0.041 A 
ATOM     70  F   UNL A   1      44.341  33.176  32.790  1.00  0.00    -0.206 F 
ATOM     71  C   UNL A   1      43.638  33.763  36.288  1.00  0.00     0.022 A 
BRANCH  68  72
ATOM     72  S   UNL A   1      42.424  32.260  38.299  1.00  0.00     0.124 S 
ATOM     73  O   UNL A   1      42.628  33.570  38.913  1.00  0.00    -0.237 OA
ATOM     74  O   UNL A   1      41.049  31.924  37.952  1.00  0.00    -0.237 OA
ATOM     75  O   UNL A   1      43.202  31.174  38.891  1.00  0.00    -0.744 OA
ENDBRANCH  68  72
ENDBRANCH  51  65
BRANCH  52  76
ATOM     76  C   UNL A   1      42.554  24.588  27.358  1.00  0.00     0.023 A 
ATOM     77  C   UNL A   1      41.869  23.378  27.560  1.00  0.00     0.031 A 
ATOM     78  C   UNL A   1      43.196  24.779  26.120  1.00  0.00     0.131 A 
ATOM     79  C   UNL A   1      41.885  22.389  26.563  1.00  0.00     0.055 A 
ATOM     80  C   UNL A   1      43.157  23.817  25.109  1.00  0.00     0.041 A 
ATOM     81  F   UNL A   1      43.874  25.912  25.874  1.00  0.00    -0.206 F 
ATOM     82  C   UNL A   1      42.511  22.606  25.334  1.00  0.00     0.022 A 
BRANCH  79  83
ATOM     83  S   UNL A   1      41.161  20.767  26.936  1.00  0.00     0.124 S 
ATOM     84  O   UNL A   1      39.981  20.765  26.081  1.00  0.00    -0.237 OA
ATOM     85  O   UNL A   1      42.237  19.859  26.548  1.00  0.00    -0.237 OA
ATOM     86  O   UNL A   1      40.894  20.836  28.371  1.00  0.00    -0.744 OA
ENDBRANCH  79  83
ENDBRANCH  52  76
BRANCH  64  87
ATOM     87  C   UNL A   1      47.810  26.486  31.548  1.00  0.00     0.023 A 
ATOM     88  C   UNL A   1      48.101  25.468  32.472  1.00  0.00     0.031 A 
ATOM     89  C   UNL A   1      48.869  27.002  30.778  1.00  0.00     0.131 A 
ATOM     90  C   UNL A   1      49.427  25.036  32.640  1.00  0.00     0.055 A 
ATOM     91  C   UNL A   1      50.173  26.521  30.903  1.00  0.00     0.041 A 
ATOM     92  F   UNL A   1      48.651  27.977  29.880  1.00  0.00    -0.206 F 
ATOM     93  C   UNL A   1      50.460  25.542  31.848  1.00  0.00     0.022 A 
BRANCH  90  94
ATOM     94  S   UNL A   1      49.799  23.869  33.978  1.00  0.00     0.124 S 
ATOM     95  O   UNL A   1      50.075  22.641  33.242  1.00  0.00    -0.237 OA
ATOM     96  O   UNL A   1      50.946  24.494  34.629  1.00  0.00    -0.237 OA
ATOM     97  O   UNL A   1      48.571  23.853  34.772  1.00  0.00    -0.744 OA
ENDBRANCH  90  94
ENDBRANCH  64  87
ENDBRANCH  38  39
ENDBRANCH  31  33
ENDBRANCH  30  31
ENDBRANCH  29  30
ENDBRANCH  28  29
ENDBRANCH  27  28
ENDBRANCH   1  27
TORSDOF 22
ENDMDL
MODEL 2
REMARK VINA RESULT:      -9.0      2.255      3.780
REMARK SMILES C[NH2+][C@@]1(C(=O)OCCOCCOCCOC(=O)c2ccc(-c3c4nc(c(-c5cc(S(=O)(=O)[O-])ccc5F)c5ccc([nH]5)c(-c5cc(S(=O)(=O)[O-])ccc5F)c5nc(c(-c6cc(S(=O)(=O)[O-])ccc6F)c6ccc3[nH]6)C=C5)C=C4)cc2)CC[C@H]([NH+]2CC[NH+](C)CC2)C1
REMARK SMILES IDX 11 1 10 2 9 3 8 4 7 5 6 6 4 7 5 8 3 9 81 10 91 11 82 12
REMARK SMILES IDX 83 13 2 14 1 15 84 18 85 19 90 20 86 22 89 23 87 24 88 25
REMARK SMILES IDX 12 27 13 28 14 29 15 30 16 31 17 32 18 33 19 34 80 35 20 36
REMARK SMILES IDX 79 37 21 38 22 39 23 40 73 41 24 42 78 43 72 44 74 45 25 46
REMARK SMILES IDX 77 47 71 48 70 49 26 51 58 52 38 53 57 54 39 55 42 56 56 57
REMARK SMILES IDX 75 58 40 59 41 60 55 62 76 63 43 64 27 65 28 66 36 67 29 68
REMARK SMILES IDX 35 69 37 70 34 71 30 72 31 73 32 74 33 75 59 76 60 77 68 78
REMARK SMILES IDX 61 79 67 80 69 81 66 82 62 83 63 84 64 85 65 86 44 87 45 88
REMARK SMILES IDX 53 89 46 90 52 91 54 92 51 93 47 94 48 95 49 96 50 97
REMARK H PARENT 2 16 2 17 84 21 87 26 74 50 42 61
REMARK Flexibility Score: inf
ROOT
ATOM      1  C   UNL A   1      31.862  32.250  26.407  1.00  0.00     0.188 C 
ENDROOT
BRANCH   1   2
ATOM      2  C   UNL A   1      32.017  30.838  26.976  1.00  0.00     0.188 C 
BRANCH   2   3
ATOM      3  O   UNL A   1      32.838  29.926  26.259  1.00  0.00    -0.376 OA
BRANCH   3   4
ATOM      4  C   UNL A   1      33.141  28.677  26.884  1.00  0.00     0.202 C 
BRANCH   4   5
ATOM      5  C   UNL A   1      31.967  27.747  27.228  1.00  0.00     0.261 C 
BRANCH   5   6
ATOM      6  O   UNL A   1      31.124  27.486  26.083  1.00  0.00    -0.459 OA
BRANCH   6   7
ATOM      7  C   UNL A   1      31.520  26.463  25.280  1.00  0.00     0.368 C 
ATOM      8  O   UNL A   1      32.683  26.330  24.913  1.00  0.00    -0.245 OA
BRANCH   7   9
ATOM      9  C   UNL A   1      30.376  25.405  25.000  1.00  0.00     0.200 C 
ATOM     10  C   UNL A   1      30.063  24.738  26.355  1.00  0.00     0.087 C 
ATOM     11  C   UNL A   1      30.757  24.152  24.171  1.00  0.00     0.146 C 
ATOM     12  C   UNL A   1      31.196  23.720  26.528  1.00  0.00     0.072 C 
ATOM     13  C   UNL A   1      31.439  23.149  25.124  1.00  0.00     0.191 C 
BRANCH   9  14
ATOM     14  N   UNL A   1      29.208  26.194  24.527  1.00  0.00    -0.334 N 
ATOM     15  C   UNL A   1      29.402  27.076  23.390  1.00  0.00     0.331 C 
ATOM     16  H   UNL A   1      28.475  25.530  24.276  1.00  0.00     0.347 HD
ATOM     17  H   UNL A   1      28.989  26.819  25.303  1.00  0.00     0.347 HD
ENDBRANCH   9  14
BRANCH  13  18
ATOM     18  N   UNL A   1      32.763  22.685  24.689  1.00  0.00    -0.323 N 
ATOM     19  C   UNL A   1      32.774  21.771  23.540  1.00  0.00     0.324 C 
ATOM     20  C   UNL A   1      33.682  22.158  25.703  1.00  0.00     0.324 C 
ATOM     21  H   UNL A   1      33.130  23.595  24.408  1.00  0.00     0.348 HD
ATOM     22  C   UNL A   1      32.546  20.279  23.885  1.00  0.00     0.324 C 
ATOM     23  C   UNL A   1      33.395  20.716  26.141  1.00  0.00     0.324 C 
ATOM     24  N   UNL A   1      33.341  19.763  25.020  1.00  0.00    -0.328 N 
ATOM     25  C   UNL A   1      32.795  18.489  25.486  1.00  0.00     0.333 C 
ATOM     26  H   UNL A   1      34.293  19.628  24.680  1.00  0.00     0.348 HD
ENDBRANCH  13  18
ENDBRANCH   7   9
ENDBRANCH   6   7
ENDBRANCH   5   6
ENDBRANCH   4   5
ENDBRANCH   3   4
ENDBRANCH   2   3
ENDBRANCH   1   2
BRANCH   1  27
ATOM     27  O   UNL A   1      31.764  33.306  27.326  1.00  0.00    -0.376 OA
BRANCH  27  28
ATOM     28  C   UNL A   1      32.882  33.791  28.047  1.00  0.00     0.202 C 
BRANCH  28  29
ATOM     29  C   UNL A   1      34.347  33.334  27.892  1.00  0.00     0.261 C 
BRANCH  29  30
ATOM     30  O   UNL A   1      34.723  32.078  28.452  1.00  0.00    -0.460 OA
BRANCH  30  31
ATOM     31  C   UNL A   1      35.131  32.101  29.748  1.00  0.00     0.338 C 
ATOM     32  O   UNL A   1      34.476  32.446  30.716  1.00  0.00    -0.246 OA
BRANCH  31  33
ATOM     33  C   UNL A   1      36.400  31.338  29.803  1.00  0.00     0.060 A 
ATOM     34  C   UNL A   1      36.449  30.183  30.599  1.00  0.00     0.016 A 
ATOM     35  C   UNL A   1      37.482  31.692  28.997  1.00  0.00     0.016 A 
ATOM     36  C   UNL A   1      37.588  29.381  30.597  1.00  0.00     0.010 A 
ATOM     37  C   UNL A   1      38.637  30.910  29.025  1.00  0.00     0.010 A 
ATOM     38  C   UNL A   1      38.704  29.767  29.844  1.00  0.00    -0.014 A 
BRANCH  38  39
ATOM     39  C   UNL A   1      40.020  29.144  30.114  1.00  0.00     0.031 A 
ATOM     40  C   UNL A   1      40.856  29.754  31.205  1.00  0.00     0.074 A 
ATOM     41  C   UNL A   1      40.461  28.073  29.431  1.00  0.00     0.049 A 
ATOM     42  N   UNL A   1      42.080  29.482  31.570  1.00  0.00    -0.248 NA
ATOM     43  C   UNL A   1      40.217  30.828  31.984  1.00  0.00     0.031 C 
ATOM     44  C   UNL A   1      39.710  27.354  28.403  1.00  0.00     0.029 A 
ATOM     45  N   UNL A   1      41.662  27.412  29.496  1.00  0.00    -0.354 N 
ATOM     46  C   UNL A   1      42.362  30.356  32.613  1.00  0.00     0.074 A 
ATOM     47  C   UNL A   1      41.194  31.189  32.798  1.00  0.00     0.031 C 
ATOM     48  C   UNL A   1      40.478  26.360  27.922  1.00  0.00     0.029 A 
ATOM     49  C   UNL A   1      41.788  26.402  28.571  1.00  0.00     0.049 A 
ATOM     50  H   UNL A   1      42.367  27.639  30.146  1.00  0.00     0.167 HD
ATOM     51  C   UNL A   1      43.493  30.453  33.352  1.00  0.00     0.034 A 
ATOM     52  C   UNL A   1      42.853  25.632  28.264  1.00  0.00     0.034 A 
ATOM     53  C   UNL A   1      44.656  29.630  33.138  1.00  0.00     0.049 A 
ATOM     54  C   UNL A   1      44.146  25.835  29.025  1.00  0.00     0.074 A 
ATOM     55  C   UNL A   1      45.859  29.645  33.820  1.00  0.00     0.029 A 
ATOM     56  N   UNL A   1      44.767  28.653  32.156  1.00  0.00    -0.354 N 
ATOM     57  N   UNL A   1      44.411  26.673  30.003  1.00  0.00    -0.248 NA
ATOM     58  C   UNL A   1      45.283  24.987  28.641  1.00  0.00     0.031 C 
ATOM     59  C   UNL A   1      46.723  28.736  33.202  1.00  0.00     0.029 A 
ATOM     60  C   UNL A   1      46.030  28.084  32.193  1.00  0.00     0.049 A 
ATOM     61  H   UNL A   1      44.053  28.401  31.528  1.00  0.00     0.167 HD
ATOM     62  C   UNL A   1      45.733  26.423  30.372  1.00  0.00     0.074 A 
ATOM     63  C   UNL A   1      46.204  25.351  29.521  1.00  0.00     0.031 C 
ATOM     64  C   UNL A   1      46.487  27.017  31.333  1.00  0.00     0.034 A 
BRANCH  51  65
ATOM     65  C   UNL A   1      43.537  31.533  34.404  1.00  0.00     0.023 A 
ATOM     66  C   UNL A   1      42.854  31.405  35.627  1.00  0.00     0.031 A 
ATOM     67  C   UNL A   1      44.231  32.731  34.159  1.00  0.00     0.131 A 
ATOM     68  C   UNL A   1      42.818  32.483  36.524  1.00  0.00     0.055 A 
ATOM     69  C   UNL A   1      44.263  33.767  35.093  1.00  0.00     0.041 A 
ATOM     70  F   UNL A   1      44.874  32.923  32.996  1.00  0.00    -0.206 F 
ATOM     71  C   UNL A   1      43.541  33.653  36.277  1.00  0.00     0.022 A 
BRANCH  68  72
ATOM     72  S   UNL A   1      41.689  32.395  37.940  1.00  0.00     0.124 S 
ATOM     73  O   UNL A   1      41.581  33.803  38.317  1.00  0.00    -0.237 OA
ATOM     74  O   UNL A   1      40.495  31.797  37.355  1.00  0.00    -0.237 OA
ATOM     75  O   UNL A   1      42.404  31.555  38.897  1.00  0.00    -0.744 OA
ENDBRANCH  68  72
ENDBRANCH  51  65
BRANCH  52  76
ATOM     76  C   UNL A   1      42.781  24.637  27.153  1.00  0.00     0.023 A 
ATOM     77  C   UNL A   1      42.154  23.393  27.328  1.00  0.00     0.031 A 
ATOM     78  C   UNL A   1      43.408  24.887  25.918  1.00  0.00     0.131 A 
ATOM     79  C   UNL A   1      42.211  22.428  26.308  1.00  0.00     0.055 A 
ATOM     80  C   UNL A   1      43.409  23.948  24.885  1.00  0.00     0.041 A 
ATOM     81  F   UNL A   1      44.031  26.056  25.697  1.00  0.00    -0.206 F 
ATOM     82  C   UNL A   1      42.822  22.703  25.083  1.00  0.00     0.022 A 
BRANCH  79  83
ATOM     83  S   UNL A   1      41.565  20.766  26.646  1.00  0.00     0.124 S 
ATOM     84  O   UNL A   1      40.126  20.994  26.606  1.00  0.00    -0.237 OA
ATOM     85  O   UNL A   1      42.125  19.994  25.540  1.00  0.00    -0.237 OA
ATOM     86  O   UNL A   1      42.112  20.450  27.963  1.00  0.00    -0.744 OA
ENDBRANCH  79  83
ENDBRANCH  52  76
BRANCH  64  87
ATOM     87  C   UNL A   1      47.883  26.481  31.553  1.00  0.00     0.023 A 
ATOM     88  C   UNL A   1      48.978  26.912  30.785  1.00  0.00     0.031 A 
ATOM     89  C   UNL A   1      48.116  25.521  32.555  1.00  0.00     0.131 A 
ATOM     90  C   UNL A   1      50.246  26.345  30.996  1.00  0.00     0.055 A 
ATOM     91  C   UNL A   1      49.390  25.010  32.803  1.00  0.00     0.041 A 
ATOM     92  F   UNL A   1      47.108  25.070  33.319  1.00  0.00    -0.206 F 
ATOM     93  C   UNL A   1      50.462  25.412  32.013  1.00  0.00     0.022 A 
BRANCH  90  94
ATOM     94  S   UNL A   1      51.592  26.773  29.858  1.00  0.00     0.124 S 
ATOM     95  O   UNL A   1      51.600  28.230  29.931  1.00  0.00    -0.237 OA
ATOM     96  O   UNL A   1      52.737  26.098  30.459  1.00  0.00    -0.237 OA
ATOM     97  O   UNL A   1      51.149  26.220  28.579  1.00  0.00    -0.744 OA
ENDBRANCH  90  94
ENDBRANCH  64  87
ENDBRANCH  38  39
ENDBRANCH  31  33
ENDBRANCH  30  31
ENDBRANCH  29  30
ENDBRANCH  28  29
ENDBRANCH  27  28
ENDBRANCH   1  27
TORSDOF 22
ENDMDL
MODEL 3
REMARK VINA RESULT:      -8.9      2.035      3.518
REMARK SMILES C[NH2+][C@@]1(C(=O)OCCOCCOCCOC(=O)c2ccc(-c3c4nc(c(-c5cc(S(=O)(=O)[O-])ccc5F)c5ccc([nH]5)c(-c5cc(S(=O)(=O)[O-])ccc5F)c5nc(c(-c6cc(S(=O)(=O)[O-])ccc6F)c6ccc3[nH]6)C=C5)C=C4)cc2)CC[C@H]([NH+]2CC[NH+](C)CC2)C1
REMARK SMILES IDX 11 1 10 2 9 3 8 4 7 5 6 6 4 7 5 8 3 9 81 10 91 11 82 12
REMARK SMILES IDX 83 13 2 14 1 15 84 18 85 19 90 20 86 22 89 23 87 24 88 25
REMARK SMILES IDX 12 27 13 28 14 29 15 30 16 31 17 32 18 33 19 34 80 35 20 36
REMARK SMILES IDX 79 37 21 38 22 39 23 40 73 41 24 42 78 43 72 44 74 45 25 46
REMARK SMILES IDX 77 47 71 48 70 49 26 51 58 52 38 53 57 54 39 55 42 56 56 57
REMARK SMILES IDX 75 58 40 59 41 60 55 62 76 63 43 64 27 65 28 66 36 67 29 68
REMARK SMILES IDX 35 69 37 70 34 71 30 72 31 73 32 74 33 75 59 76 60 77 68 78
REMARK SMILES IDX 61 79 67 80 69 81 66 82 62 83 63 84 64 85 65 86 44 87 45 88
REMARK SMILES IDX 53 89 46 90 52 91 54 92 51 93 47 94 48 95 49 96 50 97
REMARK H PARENT 2 16 2 17 84 21 87 26 74 50 42 61
REMARK Flexibility Score: inf
ROOT
ATOM      1  C   UNL A   1      33.082  33.873  27.895  1.00  0.00     0.188 C 
ENDROOT
BRANCH   1   2
ATOM      2  C   UNL A   1      32.112  32.872  27.261  1.00  0.00     0.188 C 
BRANCH   2   3
ATOM      3  O   UNL A   1      32.582  31.548  27.047  1.00  0.00    -0.376 OA
BRANCH   3   4
ATOM      4  C   UNL A   1      31.831  30.716  26.161  1.00  0.00     0.202 C 
BRANCH   4   5
ATOM      5  C   UNL A   1      32.610  29.743  25.261  1.00  0.00     0.261 C 
BRANCH   5   6
ATOM      6  O   UNL A   1      31.778  28.666  24.775  1.00  0.00    -0.459 OA
BRANCH   6   7
ATOM      7  C   UNL A   1      32.438  27.559  24.344  1.00  0.00     0.368 C 
ATOM      8  O   UNL A   1      33.567  27.275  24.733  1.00  0.00    -0.245 OA
BRANCH   7   9
ATOM      9  C   UNL A   1      31.555  26.618  23.426  1.00  0.00     0.200 C 
ATOM     10  C   UNL A   1      30.085  26.947  23.756  1.00  0.00     0.087 C 
ATOM     11  C   UNL A   1      31.565  25.102  23.749  1.00  0.00     0.146 C 
ATOM     12  C   UNL A   1      29.830  26.193  25.067  1.00  0.00     0.072 C 
ATOM     13  C   UNL A   1      30.586  24.865  24.917  1.00  0.00     0.191 C 
BRANCH   9  14
ATOM     14  N   UNL A   1      31.874  27.009  22.028  1.00  0.00    -0.334 N 
ATOM     15  C   UNL A   1      32.947  26.300  21.354  1.00  0.00     0.331 C 
ATOM     16  H   UNL A   1      31.027  26.878  21.475  1.00  0.00     0.347 HD
ATOM     17  H   UNL A   1      32.208  27.971  22.100  1.00  0.00     0.347 HD
ENDBRANCH   9  14
BRANCH  13  18
ATOM     18  N   UNL A   1      31.159  24.160  26.071  1.00  0.00    -0.323 N 
ATOM     19  C   UNL A   1      32.610  24.299  26.247  1.00  0.00     0.324 C 
ATOM     20  C   UNL A   1      30.805  22.750  26.270  1.00  0.00     0.324 C 
ATOM     21  H   UNL A   1      30.672  24.688  26.796  1.00  0.00     0.348 HD
ATOM     22  C   UNL A   1      33.469  23.308  25.424  1.00  0.00     0.324 C 
ATOM     23  C   UNL A   1      31.567  21.765  25.374  1.00  0.00     0.324 C 
ATOM     24  N   UNL A   1      33.030  21.897  25.472  1.00  0.00    -0.328 N 
ATOM     25  C   UNL A   1      33.664  21.131  24.398  1.00  0.00     0.333 C 
ATOM     26  H   UNL A   1      33.317  21.526  26.378  1.00  0.00     0.348 HD
ENDBRANCH  13  18
ENDBRANCH   7   9
ENDBRANCH   6   7
ENDBRANCH   5   6
ENDBRANCH   4   5
ENDBRANCH   3   4
ENDBRANCH   2   3
ENDBRANCH   1   2
BRANCH   1  27
ATOM     27  O   UNL A   1      34.386  33.425  28.156  1.00  0.00    -0.376 OA
BRANCH  27  28
ATOM     28  C   UNL A   1      34.843  33.140  29.466  1.00  0.00     0.202 C 
BRANCH  28  29
ATOM     29  C   UNL A   1      35.993  32.188  29.853  1.00  0.00     0.261 C 
BRANCH  29  30
ATOM     30  O   UNL A   1      35.757  30.785  29.786  1.00  0.00    -0.460 OA
BRANCH  30  31
ATOM     31  C   UNL A   1      35.993  30.196  28.585  1.00  0.00     0.338 C 
ATOM     32  O   UNL A   1      35.368  30.363  27.551  1.00  0.00    -0.246 OA
BRANCH  31  33
ATOM     33  C   UNL A   1      37.328  29.562  28.683  1.00  0.00     0.060 A 
ATOM     34  C   UNL A   1      37.587  28.718  29.774  1.00  0.00     0.016 A 
ATOM     35  C   UNL A   1      38.266  29.708  27.660  1.00  0.00     0.016 A 
ATOM     36  C   UNL A   1      38.791  28.021  29.849  1.00  0.00     0.010 A 
ATOM     37  C   UNL A   1      39.488  29.040  27.754  1.00  0.00     0.010 A 
ATOM     38  C   UNL A   1      39.765  28.215  28.861  1.00  0.00    -0.014 A 
BRANCH  38  39
ATOM     39  C   UNL A   1      41.158  27.783  29.112  1.00  0.00     0.031 A 
ATOM     40  C   UNL A   1      41.921  28.515  30.182  1.00  0.00     0.074 A 
ATOM     41  C   UNL A   1      41.731  26.775  28.431  1.00  0.00     0.049 A 
ATOM     42  N   UNL A   1      43.177  28.419  30.526  1.00  0.00    -0.248 NA
ATOM     43  C   UNL A   1      41.153  29.500  30.962  1.00  0.00     0.031 C 
ATOM     44  C   UNL A   1      41.069  25.947  27.425  1.00  0.00     0.029 A 
ATOM     45  N   UNL A   1      43.013  26.287  28.481  1.00  0.00    -0.354 N 
ATOM     46  C   UNL A   1      43.353  29.337  31.555  1.00  0.00     0.074 A 
ATOM     47  C   UNL A   1      42.085  30.002  31.754  1.00  0.00     0.031 C 
ATOM     48  C   UNL A   1      41.959  25.062  26.939  1.00  0.00     0.029 A 
ATOM     49  C   UNL A   1      43.262  25.293  27.563  1.00  0.00     0.049 A 
ATOM     50  H   UNL A   1      43.691  26.616  29.114  1.00  0.00     0.167 HD
ATOM     51  C   UNL A   1      44.473  29.598  32.272  1.00  0.00     0.034 A 
ATOM     52  C   UNL A   1      44.417  24.673  27.243  1.00  0.00     0.034 A 
ATOM     53  C   UNL A   1      45.734  28.940  32.044  1.00  0.00     0.049 A 
ATOM     54  C   UNL A   1      45.683  25.061  27.978  1.00  0.00     0.074 A 
ATOM     55  C   UNL A   1      46.935  29.129  32.703  1.00  0.00     0.029 A 
ATOM     56  N   UNL A   1      45.962  27.976  31.070  1.00  0.00    -0.354 N 
ATOM     57  N   UNL A   1      45.846  25.940  28.943  1.00  0.00    -0.248 NA
ATOM     58  C   UNL A   1      46.919  24.373  27.581  1.00  0.00     0.031 C 
ATOM     59  C   UNL A   1      47.905  28.340  32.078  1.00  0.00     0.029 A 
ATOM     60  C   UNL A   1      47.292  27.587  31.089  1.00  0.00     0.049 A 
ATOM     61  H   UNL A   1      45.279  27.621  30.458  1.00  0.00     0.167 HD
ATOM     62  C   UNL A   1      47.196  25.879  29.290  1.00  0.00     0.074 A 
ATOM     63  C   UNL A   1      47.796  24.872  28.440  1.00  0.00     0.031 C 
ATOM     64  C   UNL A   1      47.877  26.583  30.230  1.00  0.00     0.034 A 
BRANCH  51  65
ATOM     65  C   UNL A   1      44.385  30.686  33.313  1.00  0.00     0.023 A 
ATOM     66  C   UNL A   1      43.995  30.416  34.636  1.00  0.00     0.031 A 
ATOM     67  C   UNL A   1      44.647  32.022  32.962  1.00  0.00     0.131 A 
ATOM     68  C   UNL A   1      43.805  31.473  35.539  1.00  0.00     0.055 A 
ATOM     69  C   UNL A   1      44.541  33.060  33.889  1.00  0.00     0.041 A 
ATOM     70  F   UNL A   1      44.992  32.344  31.706  1.00  0.00    -0.206 F 
ATOM     71  C   UNL A   1      44.102  32.791  35.181  1.00  0.00     0.022 A 
BRANCH  68  72
ATOM     72  S   UNL A   1      43.017  31.121  37.134  1.00  0.00     0.124 S 
ATOM     73  O   UNL A   1      43.269  32.361  37.866  1.00  0.00    -0.237 OA
ATOM     74  O   UNL A   1      41.631  30.876  36.753  1.00  0.00    -0.237 OA
ATOM     75  O   UNL A   1      43.746  29.955  37.627  1.00  0.00    -0.744 OA
ENDBRANCH  68  72
ENDBRANCH  51  65
BRANCH  52  76
ATOM     76  C   UNL A   1      44.463  23.665  26.143  1.00  0.00     0.023 A 
ATOM     77  C   UNL A   1      44.016  22.348  26.342  1.00  0.00     0.031 A 
ATOM     78  C   UNL A   1      45.031  23.983  24.895  1.00  0.00     0.131 A 
ATOM     79  C   UNL A   1      44.188  21.388  25.330  1.00  0.00     0.055 A 
ATOM     80  C   UNL A   1      45.144  23.040  23.872  1.00  0.00     0.041 A 
ATOM     81  F   UNL A   1      45.485  25.223  24.652  1.00  0.00    -0.206 F 
ATOM     82  C   UNL A   1      44.735  21.730  24.092  1.00  0.00     0.022 A 
BRANCH  79  83
ATOM     83  S   UNL A   1      43.781  19.658  25.695  1.00  0.00     0.124 S 
ATOM     84  O   UNL A   1      43.078  19.257  24.483  1.00  0.00    -0.237 OA
ATOM     85  O   UNL A   1      45.103  19.072  25.894  1.00  0.00    -0.237 OA
ATOM     86  O   UNL A   1      42.955  19.749  26.896  1.00  0.00    -0.744 OA
ENDBRANCH  79  83
ENDBRANCH  52  76
BRANCH  64  87
ATOM     87  C   UNL A   1      49.337  26.247  30.429  1.00  0.00     0.023 A 
ATOM     88  C   UNL A   1      49.760  25.275  31.351  1.00  0.00     0.031 A 
ATOM     89  C   UNL A   1      50.320  26.914  29.675  1.00  0.00     0.131 A 
ATOM     90  C   UNL A   1      51.132  25.036  31.535  1.00  0.00     0.055 A 
ATOM     91  C   UNL A   1      51.677  26.624  29.814  1.00  0.00     0.041 A 
ATOM     92  F   UNL A   1      49.975  27.853  28.779  1.00  0.00    -0.206 F 
ATOM     93  C   UNL A   1      52.091  25.690  30.758  1.00  0.00     0.022 A 
BRANCH  90  94
ATOM     94  S   UNL A   1      51.652  23.925  32.871  1.00  0.00     0.124 S 
ATOM     95  O   UNL A   1      51.478  24.766  34.050  1.00  0.00    -0.237 OA
ATOM     96  O   UNL A   1      50.716  22.813  32.737  1.00  0.00    -0.237 OA
ATOM     97  O   UNL A   1      53.039  23.610  32.535  1.00  0.00    -0.744 OA
ENDBRANCH  90  94
ENDBRANCH  64  87
ENDBRANCH  38  39
ENDBRANCH  31  33
ENDBRANCH  30  31
ENDBRANCH  29  30
ENDBRANCH  28  29
ENDBRANCH  27  28
ENDBRANCH   1  27
TORSDOF 22
ENDMDL
