MODEL 1
REMARK VINA RESULT:     -10.9      0.000      0.000
REMARK SMILES Cc1cc(C(=O)Nc2ccn(C)n2)sc1/C=C/C(=O)OCCOCCOCCOC(=O)c1ccc(-c2c3nc(c(-c4cc(S(=O)(=O)[O-])ccc4F)c4ccc([nH]4)c(-c4cc(S(=O)(=O)[O-])ccc4F)c4nc(c(-c5cc(S(=O)(=O)[O-])ccc5F)c5ccc2[nH]5)C=C4)C=C3)cc1
REMARK SMILES IDX 24 1 23 2 22 3 21 4 20 5 18 6 19 7 17 8 16 9 15 10 1 11 2 12
REMARK SMILES IDX 3 13 4 14 14 15 5 16 6 17 7 18 8 20 9 21 13 22 10 23 11 24
REMARK SMILES IDX 12 25 25 26 26 27 27 28 28 29 29 30 30 31 31 32 32 33 33 34
REMARK SMILES IDX 94 35 34 36 93 37 35 38 36 39 37 40 87 41 38 42 92 43 86 44
REMARK SMILES IDX 88 45 39 46 91 47 85 48 84 49 40 51 72 52 52 53 71 54 53 55
REMARK SMILES IDX 56 56 70 57 89 58 54 59 55 60 69 62 90 63 57 64 41 65 42 66
REMARK SMILES IDX 50 67 43 68 49 69 51 70 48 71 44 72 45 73 46 74 47 75 73 76
REMARK SMILES IDX 74 77 82 78 75 79 81 80 83 81 80 82 76 83 77 84 78 85 79 86
REMARK SMILES IDX 58 87 59 88 67 89 60 90 66 91 68 92 65 93 61 94 62 95 63 96
REMARK SMILES IDX 64 97
REMARK H PARENT 7 19 88 50 56 61
REMARK Flexibility Score: inf
ROOT
ATOM      1  C   UNL A   1      41.735  19.972  27.439  1.00  0.00     0.188 C 
ENDROOT
BRANCH   1   2
ATOM      2  O   UNL A   1      40.842  21.082  27.416  1.00  0.00    -0.376 OA
BRANCH   2   3
ATOM      3  C   UNL A   1      40.257  21.496  26.188  1.00  0.00     0.202 C 
BRANCH   3   4
ATOM      4  C   UNL A   1      38.889  22.196  26.186  1.00  0.00     0.261 C 
BRANCH   4   5
ATOM      5  O   UNL A   1      38.109  22.041  24.989  1.00  0.00    -0.460 OA
BRANCH   5   6
ATOM      6  C   UNL A   1      37.334  20.929  24.950  1.00  0.00     0.330 C 
ATOM      7  O   UNL A   1      37.728  19.773  24.988  1.00  0.00    -0.247 OA
BRANCH   6   8
ATOM      8  C   UNL A   1      35.891  21.239  24.978  1.00  0.00     0.095 C 
ATOM      9  C   UNL A   1      35.110  21.278  26.071  1.00  0.00     0.027 C 
BRANCH   9  10
ATOM     10  C   UNL A   1      33.700  21.569  26.024  1.00  0.00     0.031 A 
ATOM     11  C   UNL A   1      32.881  19.912  24.222  1.00  0.00     0.046 C 
ATOM     12  C   UNL A   1      32.715  21.042  25.188  1.00  0.00    -0.032 A 
ATOM     13  C   UNL A   1      31.452  21.715  25.361  1.00  0.00     0.029 A 
ATOM     14  C   UNL A   1      31.469  22.694  26.336  1.00  0.00     0.093 A 
ATOM     15  S   UNL A   1      32.966  22.657  27.141  1.00  0.00    -0.130 S 
BRANCH  14  16
ATOM     16  C   UNL A   1      30.324  23.491  26.789  1.00  0.00     0.266 C 
ATOM     17  O   UNL A   1      29.533  23.037  27.623  1.00  0.00    -0.268 OA
ATOM     18  N   UNL A   1      30.154  24.801  26.408  1.00  0.00    -0.304 N 
ATOM     19  H   UNL A   1      29.645  25.357  27.042  1.00  0.00     0.171 HD
BRANCH  18  20
ATOM     20  C   UNL A   1      30.582  25.452  25.281  1.00  0.00     0.154 A 
ATOM     21  C   UNL A   1      30.678  24.983  23.951  1.00  0.00     0.068 A 
ATOM     22  N   UNL A   1      30.959  26.727  25.376  1.00  0.00    -0.155 NA
ATOM     23  C   UNL A   1      31.268  26.010  23.252  1.00  0.00     0.110 A 
ATOM     24  N   UNL A   1      31.478  27.004  24.164  1.00  0.00    -0.274 N 
ATOM     25  C   UNL A   1      32.256  28.206  23.974  1.00  0.00     0.173 C 
ENDBRANCH  18  20
ENDBRANCH  14  16
ENDBRANCH   9  10
ENDBRANCH   6   8
ENDBRANCH   5   6
ENDBRANCH   4   5
ENDBRANCH   3   4
ENDBRANCH   2   3
ENDBRANCH   1   2
BRANCH   1  26
ATOM     26  C   UNL A   1      42.069  19.226  26.130  1.00  0.00     0.188 C 
BRANCH  26  27
ATOM     27  O   UNL A   1      43.454  19.098  25.887  1.00  0.00    -0.376 OA
BRANCH  27  28
ATOM     28  C   UNL A   1      44.059  19.996  24.971  1.00  0.00     0.202 C 
BRANCH  28  29
ATOM     29  C   UNL A   1      44.564  21.385  25.409  1.00  0.00     0.261 C 
BRANCH  29  30
ATOM     30  O   UNL A   1      43.596  22.433  25.544  1.00  0.00    -0.460 OA
BRANCH  30  31
ATOM     31  C   UNL A   1      44.003  23.689  25.274  1.00  0.00     0.338 C 
ATOM     32  O   UNL A   1      44.459  24.098  24.207  1.00  0.00    -0.246 OA
BRANCH  31  33
ATOM     33  C   UNL A   1      43.660  24.543  26.425  1.00  0.00     0.060 A 
ATOM     34  C   UNL A   1      42.764  24.062  27.388  1.00  0.00     0.016 A 
ATOM     35  C   UNL A   1      44.220  25.817  26.556  1.00  0.00     0.016 A 
ATOM     36  C   UNL A   1      42.410  24.863  28.475  1.00  0.00     0.010 A 
ATOM     37  C   UNL A   1      43.852  26.624  27.639  1.00  0.00     0.010 A 
ATOM     38  C   UNL A   1      42.929  26.160  28.593  1.00  0.00    -0.014 A 
BRANCH  38  39
ATOM     39  C   UNL A   1      42.382  27.089  29.615  1.00  0.00     0.031 A 
ATOM     40  C   UNL A   1      43.068  27.171  30.952  1.00  0.00     0.074 A 
ATOM     41  C   UNL A   1      41.306  27.856  29.360  1.00  0.00     0.049 A 
ATOM     42  N   UNL A   1      42.738  27.855  32.017  1.00  0.00    -0.248 NA
ATOM     43  C   UNL A   1      44.290  26.367  31.103  1.00  0.00     0.031 C 
ATOM     44  C   UNL A   1      40.580  27.896  28.091  1.00  0.00     0.029 A 
ATOM     45  N   UNL A   1      40.627  28.738  30.163  1.00  0.00    -0.354 N 
ATOM     46  C   UNL A   1      43.712  27.565  32.968  1.00  0.00     0.074 A 
ATOM     47  C   UNL A   1      44.618  26.612  32.362  1.00  0.00     0.031 C 
ATOM     48  C   UNL A   1      39.545  28.746  28.209  1.00  0.00     0.029 A 
ATOM     49  C   UNL A   1      39.509  29.279  29.572  1.00  0.00     0.049 A 
ATOM     50  H   UNL A   1      40.914  28.963  31.078  1.00  0.00     0.167 HD
ATOM     51  C   UNL A   1      43.843  28.054  34.225  1.00  0.00     0.034 A 
ATOM     52  C   UNL A   1      38.552  30.080  30.082  1.00  0.00     0.034 A 
ATOM     53  C   UNL A   1      42.917  28.984  34.826  1.00  0.00     0.049 A 
ATOM     54  C   UNL A   1      38.658  30.533  31.520  1.00  0.00     0.074 A 
ATOM     55  C   UNL A   1      42.957  29.547  36.089  1.00  0.00     0.029 A 
ATOM     56  N   UNL A   1      41.774  29.478  34.209  1.00  0.00    -0.354 N 
ATOM     57  N   UNL A   1      39.589  30.260  32.408  1.00  0.00    -0.248 NA
ATOM     58  C   UNL A   1      37.591  31.408  32.023  1.00  0.00     0.031 C 
ATOM     59  C   UNL A   1      41.802  30.316  36.265  1.00  0.00     0.029 A 
ATOM     60  C   UNL A   1      41.083  30.308  35.080  1.00  0.00     0.049 A 
ATOM     61  H   UNL A   1      41.494  29.268  33.289  1.00  0.00     0.167 HD
ATOM     62  C   UNL A   1      39.233  30.958  33.560  1.00  0.00     0.074 A 
ATOM     63  C   UNL A   1      38.012  31.674  33.251  1.00  0.00     0.031 C 
ATOM     64  C   UNL A   1      39.862  31.011  34.763  1.00  0.00     0.034 A 
BRANCH  51  65
ATOM     65  C   UNL A   1      45.000  27.541  35.049  1.00  0.00     0.023 A 
ATOM     66  C   UNL A   1      44.882  26.398  35.859  1.00  0.00     0.031 A 
ATOM     67  C   UNL A   1      46.227  28.227  35.056  1.00  0.00     0.131 A 
ATOM     68  C   UNL A   1      45.943  26.018  36.695  1.00  0.00     0.055 A 
ATOM     69  C   UNL A   1      47.308  27.796  35.826  1.00  0.00     0.041 A 
ATOM     70  F   UNL A   1      46.392  29.340  34.323  1.00  0.00    -0.206 F 
ATOM     71  C   UNL A   1      47.165  26.695  36.664  1.00  0.00     0.022 A 
BRANCH  68  72
ATOM     72  S   UNL A   1      45.651  24.725  37.933  1.00  0.00     0.124 S 
ATOM     73  O   UNL A   1      46.089  23.528  37.218  1.00  0.00    -0.237 OA
ATOM     74  O   UNL A   1      46.494  25.153  39.041  1.00  0.00    -0.237 OA
ATOM     75  O   UNL A   1      44.212  24.803  38.175  1.00  0.00    -0.744 OA
ENDBRANCH  68  72
ENDBRANCH  51  65
BRANCH  52  76
ATOM     76  C   UNL A   1      37.376  30.478  29.253  1.00  0.00     0.023 A 
ATOM     77  C   UNL A   1      36.930  31.808  29.215  1.00  0.00     0.031 A 
ATOM     78  C   UNL A   1      36.642  29.518  28.533  1.00  0.00     0.131 A 
ATOM     79  C   UNL A   1      35.758  32.134  28.514  1.00  0.00     0.055 A 
ATOM     80  C   UNL A   1      35.509  29.856  27.792  1.00  0.00     0.041 A 
ATOM     81  F   UNL A   1      37.023  28.231  28.537  1.00  0.00    -0.206 F 
ATOM     82  C   UNL A   1      35.053  31.170  27.791  1.00  0.00     0.022 A 
BRANCH  79  83
ATOM     83  S   UNL A   1      35.121  33.829  28.632  1.00  0.00     0.124 S 
ATOM     84  O   UNL A   1      36.262  34.535  29.201  1.00  0.00    -0.237 OA
ATOM     85  O   UNL A   1      34.810  34.128  27.238  1.00  0.00    -0.237 OA
ATOM     86  O   UNL A   1      33.963  33.696  29.513  1.00  0.00    -0.744 OA
ENDBRANCH  79  83
ENDBRANCH  52  76
BRANCH  64  87
ATOM     87  C   UNL A   1      39.268  31.917  35.817  1.00  0.00     0.023 A 
ATOM     88  C   UNL A   1      38.515  31.418  36.894  1.00  0.00     0.031 A 
ATOM     89  C   UNL A   1      39.460  33.310  35.738  1.00  0.00     0.131 A 
ATOM     90  C   UNL A   1      37.937  32.304  37.815  1.00  0.00     0.055 A 
ATOM     91  C   UNL A   1      38.936  34.182  36.693  1.00  0.00     0.041 A 
ATOM     92  F   UNL A   1      40.167  33.845  34.731  1.00  0.00    -0.206 F 
ATOM     93  C   UNL A   1      38.158  33.681  37.732  1.00  0.00     0.022 A 
BRANCH  90  94
ATOM     94  S   UNL A   1      36.808  31.644  39.074  1.00  0.00     0.124 S 
ATOM     95  O   UNL A   1      36.663  30.255  38.651  1.00  0.00    -0.237 OA
ATOM     96  O   UNL A   1      37.557  31.860  40.307  1.00  0.00    -0.237 OA
ATOM     97  O   UNL A   1      35.609  32.466  38.926  1.00  0.00    -0.744 OA
ENDBRANCH  90  94
ENDBRANCH  64  87
ENDBRANCH  38  39
ENDBRANCH  31  33
ENDBRANCH  30  31
ENDBRANCH  29  30
ENDBRANCH  28  29
ENDBRANCH  27  28
ENDBRANCH  26  27
ENDBRANCH   1  26
TORSDOF 23
ENDMDL
MODEL 2
REMARK VINA RESULT:      -9.6      6.859     11.901
REMARK SMILES Cc1cc(C(=O)Nc2ccn(C)n2)sc1/C=C/C(=O)OCCOCCOCCOC(=O)c1ccc(-c2c3nc(c(-c4cc(S(=O)(=O)[O-])ccc4F)c4ccc([nH]4)c(-c4cc(S(=O)(=O)[O-])ccc4F)c4nc(c(-c5cc(S(=O)(=O)[O-])ccc5F)c5ccc2[nH]5)C=C4)C=C3)cc1
REMARK SMILES IDX 24 1 23 2 22 3 21 4 20 5 18 6 19 7 17 8 16 9 15 10 1 11 2 12
REMARK SMILES IDX 3 13 4 14 14 15 5 16 6 17 7 18 8 20 9 21 13 22 10 23 11 24
REMARK SMILES IDX 12 25 25 26 26 27 27 28 28 29 29 30 30 31 31 32 32 33 33 34
REMARK SMILES IDX 94 35 34 36 93 37 35 38 36 39 37 40 87 41 38 42 92 43 86 44
REMARK SMILES IDX 88 45 39 46 91 47 85 48 84 49 40 51 72 52 52 53 71 54 53 55
REMARK SMILES IDX 56 56 70 57 89 58 54 59 55 60 69 62 90 63 57 64 41 65 42 66
REMARK SMILES IDX 50 67 43 68 49 69 51 70 48 71 44 72 45 73 46 74 47 75 73 76
REMARK SMILES IDX 74 77 82 78 75 79 81 80 83 81 80 82 76 83 77 84 78 85 79 86
REMARK SMILES IDX 58 87 59 88 67 89 60 90 66 91 68 92 65 93 61 94 62 95 63 96
REMARK SMILES IDX 64 97
REMARK H PARENT 7 19 88 50 56 61
REMARK Flexibility Score: inf
ROOT
ATOM      1  C   UNL A   1      35.155  33.311  31.944  1.00  0.00     0.188 C 
ENDROOT
BRANCH   1   2
ATOM      2  O   UNL A   1      34.110  33.296  30.975  1.00  0.00    -0.376 OA
BRANCH   2   3
ATOM      3  C   UNL A   1      34.195  34.130  29.827  1.00  0.00     0.202 C 
BRANCH   3   4
ATOM      4  C   UNL A   1      34.907  33.625  28.562  1.00  0.00     0.261 C 
BRANCH   4   5
ATOM      5  O   UNL A   1      34.260  32.544  27.870  1.00  0.00    -0.460 OA
BRANCH   5   6
ATOM      6  C   UNL A   1      34.835  31.329  28.042  1.00  0.00     0.330 C 
ATOM      7  O   UNL A   1      35.750  31.064  28.808  1.00  0.00    -0.247 OA
BRANCH   6   8
ATOM      8  C   UNL A   1      34.156  30.264  27.278  1.00  0.00     0.095 C 
ATOM      9  C   UNL A   1      33.009  30.390  26.589  1.00  0.00     0.027 C 
BRANCH   9  10
ATOM     10  C   UNL A   1      32.390  29.301  25.878  1.00  0.00     0.031 A 
ATOM     11  C   UNL A   1      31.346  27.941  27.808  1.00  0.00     0.046 C 
ATOM     12  C   UNL A   1      31.716  28.187  26.380  1.00  0.00    -0.032 A 
ATOM     13  C   UNL A   1      31.382  27.251  25.336  1.00  0.00     0.029 A 
ATOM     14  C   UNL A   1      31.750  27.668  24.071  1.00  0.00     0.093 A 
ATOM     15  S   UNL A   1      32.336  29.262  24.156  1.00  0.00    -0.130 S 
BRANCH  14  16
ATOM     16  C   UNL A   1      31.476  26.971  22.811  1.00  0.00     0.266 C 
ATOM     17  O   UNL A   1      30.708  27.462  21.975  1.00  0.00    -0.268 OA
ATOM     18  N   UNL A   1      32.144  25.824  22.454  1.00  0.00    -0.304 N 
ATOM     19  H   UNL A   1      32.215  25.667  21.484  1.00  0.00     0.171 HD
BRANCH  18  20
ATOM     20  C   UNL A   1      32.727  24.865  23.240  1.00  0.00     0.154 A 
ATOM     21  C   UNL A   1      34.079  24.710  23.620  1.00  0.00     0.068 A 
ATOM     22  N   UNL A   1      31.959  23.916  23.778  1.00  0.00    -0.155 NA
ATOM     23  C   UNL A   1      34.121  23.525  24.317  1.00  0.00     0.110 A 
ATOM     24  N   UNL A   1      32.839  23.057  24.325  1.00  0.00    -0.274 N 
ATOM     25  C   UNL A   1      32.396  21.749  24.750  1.00  0.00     0.173 C 
ENDBRANCH  18  20
ENDBRANCH  14  16
ENDBRANCH   9  10
ENDBRANCH   6   8
ENDBRANCH   5   6
ENDBRANCH   4   5
ENDBRANCH   3   4
ENDBRANCH   2   3
ENDBRANCH   1   2
BRANCH   1  26
ATOM     26  C   UNL A   1      36.070  34.549  32.069  1.00  0.00     0.188 C 
BRANCH  26  27
ATOM     27  O   UNL A   1      35.963  35.210  33.313  1.00  0.00    -0.376 OA
BRANCH  27  28
ATOM     28  C   UNL A   1      35.417  34.492  34.407  1.00  0.00     0.202 C 
BRANCH  28  29
ATOM     29  C   UNL A   1      36.313  33.773  35.435  1.00  0.00     0.261 C 
BRANCH  29  30
ATOM     30  O   UNL A   1      36.725  32.434  35.136  1.00  0.00    -0.460 OA
BRANCH  30  31
ATOM     31  C   UNL A   1      37.841  31.982  35.741  1.00  0.00     0.338 C 
ATOM     32  O   UNL A   1      37.906  31.411  36.828  1.00  0.00    -0.246 OA
BRANCH  31  33
ATOM     33  C   UNL A   1      38.969  32.138  34.804  1.00  0.00     0.060 A 
ATOM     34  C   UNL A   1      40.278  32.039  35.291  1.00  0.00     0.016 A 
ATOM     35  C   UNL A   1      38.736  32.381  33.447  1.00  0.00     0.016 A 
ATOM     36  C   UNL A   1      41.359  32.203  34.423  1.00  0.00     0.010 A 
ATOM     37  C   UNL A   1      39.822  32.560  32.583  1.00  0.00     0.010 A 
ATOM     38  C   UNL A   1      41.140  32.493  33.070  1.00  0.00    -0.014 A 
BRANCH  38  39
ATOM     39  C   UNL A   1      42.277  32.892  32.201  1.00  0.00     0.031 A 
ATOM     40  C   UNL A   1      42.809  34.296  32.312  1.00  0.00     0.074 A 
ATOM     41  C   UNL A   1      42.839  32.023  31.341  1.00  0.00     0.049 A 
ATOM     42  N   UNL A   1      43.744  34.890  31.618  1.00  0.00    -0.248 NA
ATOM     43  C   UNL A   1      42.193  35.141  33.346  1.00  0.00     0.031 C 
ATOM     44  C   UNL A   1      42.442  30.626  31.171  1.00  0.00     0.029 A 
ATOM     45  N   UNL A   1      43.857  32.195  30.435  1.00  0.00    -0.354 N 
ATOM     46  C   UNL A   1      43.832  36.181  32.129  1.00  0.00     0.074 A 
ATOM     47  C   UNL A   1      42.825  36.290  33.164  1.00  0.00     0.031 C 
ATOM     48  C   UNL A   1      43.196  30.074  30.206  1.00  0.00     0.029 A 
ATOM     49  C   UNL A   1      44.101  31.086  29.659  1.00  0.00     0.049 A 
ATOM     50  H   UNL A   1      44.365  33.034  30.349  1.00  0.00     0.167 HD
ATOM     51  C   UNL A   1      44.679  37.178  31.776  1.00  0.00     0.034 A 
ATOM     52  C   UNL A   1      44.932  30.919  28.609  1.00  0.00     0.034 A 
ATOM     53  C   UNL A   1      45.661  37.063  30.725  1.00  0.00     0.049 A 
ATOM     54  C   UNL A   1      45.795  32.077  28.162  1.00  0.00     0.074 A 
ATOM     55  C   UNL A   1      46.572  38.009  30.289  1.00  0.00     0.029 A 
ATOM     56  N   UNL A   1      45.851  35.937  29.934  1.00  0.00    -0.354 N 
ATOM     57  N   UNL A   1      45.877  33.290  28.660  1.00  0.00    -0.248 NA
ATOM     58  C   UNL A   1      46.684  31.839  27.017  1.00  0.00     0.031 C 
ATOM     59  C   UNL A   1      47.256  37.485  29.187  1.00  0.00     0.029 A 
ATOM     60  C   UNL A   1      46.838  36.178  28.990  1.00  0.00     0.049 A 
ATOM     61  H   UNL A   1      45.357  35.091  30.029  1.00  0.00     0.167 HD
ATOM     62  C   UNL A   1      46.850  33.946  27.908  1.00  0.00     0.074 A 
ATOM     63  C   UNL A   1      47.335  32.990  26.933  1.00  0.00     0.031 C 
ATOM     64  C   UNL A   1      47.308  35.220  28.017  1.00  0.00     0.034 A 
BRANCH  51  65
ATOM     65  C   UNL A   1      44.533  38.496  32.498  1.00  0.00     0.023 A 
ATOM     66  C   UNL A   1      43.580  39.453  32.107  1.00  0.00     0.031 A 
ATOM     67  C   UNL A   1      45.385  38.818  33.569  1.00  0.00     0.131 A 
ATOM     68  C   UNL A   1      43.551  40.709  32.731  1.00  0.00     0.055 A 
ATOM     69  C   UNL A   1      45.296  40.038  34.242  1.00  0.00     0.041 A 
ATOM     70  F   UNL A   1      46.333  37.956  33.972  1.00  0.00    -0.206 F 
ATOM     71  C   UNL A   1      44.385  40.999  33.813  1.00  0.00     0.022 A 
BRANCH  68  72
ATOM     72  S   UNL A   1      42.516  42.011  32.007  1.00  0.00     0.124 S 
ATOM     73  O   UNL A   1      42.147  42.787  33.189  1.00  0.00    -0.237 OA
ATOM     74  O   UNL A   1      43.429  42.660  31.076  1.00  0.00    -0.237 OA
ATOM     75  O   UNL A   1      41.416  41.271  31.391  1.00  0.00    -0.744 OA
ENDBRANCH  68  72
ENDBRANCH  51  65
BRANCH  52  76
ATOM     76  C   UNL A   1      44.965  29.624  27.868  1.00  0.00     0.023 A 
ATOM     77  C   UNL A   1      43.911  29.242  27.024  1.00  0.00     0.031 A 
ATOM     78  C   UNL A   1      46.028  28.720  28.042  1.00  0.00     0.131 A 
ATOM     79  C   UNL A   1      43.918  27.973  26.424  1.00  0.00     0.055 A 
ATOM     80  C   UNL A   1      46.058  27.481  27.401  1.00  0.00     0.041 A 
ATOM     81  F   UNL A   1      47.061  29.033  28.841  1.00  0.00    -0.206 F 
ATOM     82  C   UNL A   1      44.991  27.095  26.596  1.00  0.00     0.022 A 
BRANCH  79  83
ATOM     83  S   UNL A   1      42.459  27.451  25.482  1.00  0.00     0.124 S 
ATOM     84  O   UNL A   1      42.933  26.222  24.858  1.00  0.00    -0.237 OA
ATOM     85  O   UNL A   1      41.464  27.294  26.537  1.00  0.00    -0.237 OA
ATOM     86  O   UNL A   1      42.227  28.568  24.569  1.00  0.00    -0.744 OA
ENDBRANCH  79  83
ENDBRANCH  52  76
BRANCH  64  87
ATOM     87  C   UNL A   1      48.430  35.635  27.093  1.00  0.00     0.023 A 
ATOM     88  C   UNL A   1      49.778  35.370  27.389  1.00  0.00     0.031 A 
ATOM     89  C   UNL A   1      48.140  36.311  25.892  1.00  0.00     0.131 A 
ATOM     90  C   UNL A   1      50.787  35.826  26.527  1.00  0.00     0.055 A 
ATOM     91  C   UNL A   1      49.144  36.706  25.007  1.00  0.00     0.041 A 
ATOM     92  F   UNL A   1      46.871  36.595  25.558  1.00  0.00    -0.206 F 
ATOM     93  C   UNL A   1      50.478  36.475  25.329  1.00  0.00     0.022 A 
BRANCH  90  94
ATOM     94  S   UNL A   1      52.520  35.645  27.036  1.00  0.00     0.124 S 
ATOM     95  O   UNL A   1      53.174  35.322  25.773  1.00  0.00    -0.237 OA
ATOM     96  O   UNL A   1      52.820  36.960  27.592  1.00  0.00    -0.237 OA
ATOM     97  O   UNL A   1      52.480  34.556  28.010  1.00  0.00    -0.744 OA
ENDBRANCH  90  94
ENDBRANCH  64  87
ENDBRANCH  38  39
ENDBRANCH  31  33
ENDBRANCH  30  31
ENDBRANCH  29  30
ENDBRANCH  28  29
ENDBRANCH  27  28
ENDBRANCH  26  27
ENDBRANCH   1  26
TORSDOF 23
ENDMDL
MODEL 3
REMARK VINA RESULT:      -9.5      2.305      2.780
REMARK SMILES Cc1cc(C(=O)Nc2ccn(C)n2)sc1/C=C/C(=O)OCCOCCOCCOC(=O)c1ccc(-c2c3nc(c(-c4cc(S(=O)(=O)[O-])ccc4F)c4ccc([nH]4)c(-c4cc(S(=O)(=O)[O-])ccc4F)c4nc(c(-c5cc(S(=O)(=O)[O-])ccc5F)c5ccc2[nH]5)C=C4)C=C3)cc1
REMARK SMILES IDX 24 1 23 2 22 3 21 4 20 5 18 6 19 7 17 8 16 9 15 10 1 11 2 12
REMARK SMILES IDX 3 13 4 14 14 15 5 16 6 17 7 18 8 20 9 21 13 22 10 23 11 24
REMARK SMILES IDX 12 25 25 26 26 27 27 28 28 29 29 30 30 31 31 32 32 33 33 34
REMARK SMILES IDX 94 35 34 36 93 37 35 38 36 39 37 40 87 41 38 42 92 43 86 44
REMARK SMILES IDX 88 45 39 46 91 47 85 48 84 49 40 51 72 52 52 53 71 54 53 55
REMARK SMILES IDX 56 56 70 57 89 58 54 59 55 60 69 62 90 63 57 64 41 65 42 66
REMARK SMILES IDX 50 67 43 68 49 69 51 70 48 71 44 72 45 73 46 74 47 75 73 76
REMARK SMILES IDX 74 77 82 78 75 79 81 80 83 81 80 82 76 83 77 84 78 85 79 86
REMARK SMILES IDX 58 87 59 88 67 89 60 90 66 91 68 92 65 93 61 94 62 95 63 96
REMARK SMILES IDX 64 97
REMARK H PARENT 7 19 88 50 56 61
REMARK Flexibility Score: inf
ROOT
ATOM      1  C   UNL A   1      41.874  19.978  27.408  1.00  0.00     0.188 C 
ENDROOT
BRANCH   1   2
ATOM      2  O   UNL A   1      40.908  21.015  27.260  1.00  0.00    -0.376 OA
BRANCH   2   3
ATOM      3  C   UNL A   1      39.991  20.980  26.174  1.00  0.00     0.202 C 
BRANCH   3   4
ATOM      4  C   UNL A   1      38.767  21.910  26.171  1.00  0.00     0.261 C 
BRANCH   4   5
ATOM      5  O   UNL A   1      38.078  22.031  24.915  1.00  0.00    -0.460 OA
BRANCH   5   6
ATOM      6  C   UNL A   1      37.013  21.206  24.764  1.00  0.00     0.330 C 
ATOM      7  O   UNL A   1      36.998  20.002  24.973  1.00  0.00    -0.247 OA
BRANCH   6   8
ATOM      8  C   UNL A   1      35.774  21.931  24.422  1.00  0.00     0.095 C 
ATOM      9  C   UNL A   1      35.192  22.896  25.154  1.00  0.00     0.027 C 
BRANCH   9  10
ATOM     10  C   UNL A   1      33.968  23.550  24.769  1.00  0.00     0.031 A 
ATOM     11  C   UNL A   1      32.201  21.784  25.418  1.00  0.00     0.046 C 
ATOM     12  C   UNL A   1      32.659  23.072  24.809  1.00  0.00    -0.032 A 
ATOM     13  C   UNL A   1      31.736  23.988  24.186  1.00  0.00     0.029 A 
ATOM     14  C   UNL A   1      32.326  25.152  23.730  1.00  0.00     0.093 A 
ATOM     15  S   UNL A   1      33.954  25.184  24.221  1.00  0.00    -0.130 S 
BRANCH  14  16
ATOM     16  C   UNL A   1      31.638  26.297  23.127  1.00  0.00     0.266 C 
ATOM     17  O   UNL A   1      31.447  26.344  21.906  1.00  0.00    -0.268 OA
ATOM     18  N   UNL A   1      31.076  27.293  23.890  1.00  0.00    -0.304 N 
ATOM     19  H   UNL A   1      30.320  27.764  23.471  1.00  0.00     0.171 HD
BRANCH  18  20
ATOM     20  C   UNL A   1      31.408  27.732  25.145  1.00  0.00     0.154 A 
ATOM     21  C   UNL A   1      31.116  27.162  26.405  1.00  0.00     0.068 A 
ATOM     22  N   UNL A   1      32.131  28.846  25.270  1.00  0.00    -0.155 NA
ATOM     23  C   UNL A   1      31.590  28.069  27.325  1.00  0.00     0.110 A 
ATOM     24  N   UNL A   1      32.127  29.089  26.595  1.00  0.00    -0.274 N 
ATOM     25  C   UNL A   1      32.565  30.373  27.090  1.00  0.00     0.173 C 
ENDBRANCH  18  20
ENDBRANCH  14  16
ENDBRANCH   9  10
ENDBRANCH   6   8
ENDBRANCH   5   6
ENDBRANCH   4   5
ENDBRANCH   3   4
ENDBRANCH   2   3
ENDBRANCH   1   2
BRANCH   1  26
ATOM     26  C   UNL A   1      42.050  18.926  26.293  1.00  0.00     0.188 C 
BRANCH  26  27
ATOM     27  O   UNL A   1      43.397  18.577  26.048  1.00  0.00    -0.376 OA
BRANCH  27  28
ATOM     28  C   UNL A   1      44.058  19.192  24.954  1.00  0.00     0.202 C 
BRANCH  28  29
ATOM     29  C   UNL A   1      44.689  20.594  25.069  1.00  0.00     0.261 C 
BRANCH  29  30
ATOM     30  O   UNL A   1      43.804  21.715  25.174  1.00  0.00    -0.460 OA
BRANCH  30  31
ATOM     31  C   UNL A   1      44.290  22.921  24.818  1.00  0.00     0.338 C 
ATOM     32  O   UNL A   1      44.669  23.256  23.697  1.00  0.00    -0.246 OA
BRANCH  31  33
ATOM     33  C   UNL A   1      44.140  23.836  25.964  1.00  0.00     0.060 A 
ATOM     34  C   UNL A   1      43.357  23.438  27.055  1.00  0.00     0.016 A 
ATOM     35  C   UNL A   1      44.769  25.084  25.963  1.00  0.00     0.016 A 
ATOM     36  C   UNL A   1      43.187  24.298  28.142  1.00  0.00     0.010 A 
ATOM     37  C   UNL A   1      44.585  25.950  27.047  1.00  0.00     0.010 A 
ATOM     38  C   UNL A   1      43.776  25.571  28.133  1.00  0.00    -0.014 A 
BRANCH  38  39
ATOM     39  C   UNL A   1      43.410  26.565  29.174  1.00  0.00     0.031 A 
ATOM     40  C   UNL A   1      44.293  26.694  30.387  1.00  0.00     0.074 A 
ATOM     41  C   UNL A   1      42.325  27.351  29.043  1.00  0.00     0.049 A 
ATOM     42  N   UNL A   1      44.144  27.439  31.451  1.00  0.00    -0.248 NA
ATOM     43  C   UNL A   1      45.505  25.862  30.395  1.00  0.00     0.031 C 
ATOM     44  C   UNL A   1      41.416  27.350  27.897  1.00  0.00     0.029 A 
ATOM     45  N   UNL A   1      41.795  28.292  29.891  1.00  0.00    -0.354 N 
ATOM     46  C   UNL A   1      45.243  27.168  32.259  1.00  0.00     0.074 A 
ATOM     47  C   UNL A   1      46.027  26.159  31.575  1.00  0.00     0.031 C 
ATOM     48  C   UNL A   1      40.430  28.235  28.124  1.00  0.00     0.029 A 
ATOM     49  C   UNL A   1      40.613  28.836  29.446  1.00  0.00     0.049 A 
ATOM     50  H   UNL A   1      42.223  28.553  30.739  1.00  0.00     0.167 HD
ATOM     51  C   UNL A   1      45.575  27.715  33.454  1.00  0.00     0.034 A 
ATOM     52  C   UNL A   1      39.762  29.690  30.050  1.00  0.00     0.034 A 
ATOM     53  C   UNL A   1      44.772  28.701  34.136  1.00  0.00     0.049 A 
ATOM     54  C   UNL A   1      40.096  30.210  31.430  1.00  0.00     0.074 A 
ATOM     55  C   UNL A   1      45.015  29.324  35.347  1.00  0.00     0.029 A 
ATOM     56  N   UNL A   1      43.559  29.198  33.672  1.00  0.00    -0.354 N 
ATOM     57  N   UNL A   1      41.144  29.954  32.181  1.00  0.00    -0.248 NA
ATOM     58  C   UNL A   1      39.137  31.141  32.040  1.00  0.00     0.031 C 
ATOM     59  C   UNL A   1      43.917  30.136  35.652  1.00  0.00     0.029 A 
ATOM     60  C   UNL A   1      43.027  30.090  34.591  1.00  0.00     0.049 A 
ATOM     61  H   UNL A   1      43.138  28.951  32.817  1.00  0.00     0.167 HD
ATOM     62  C   UNL A   1      40.982  30.719  33.334  1.00  0.00     0.074 A 
ATOM     63  C   UNL A   1      39.745  31.454  33.175  1.00  0.00     0.031 C 
ATOM     64  C   UNL A   1      41.787  30.813  34.425  1.00  0.00     0.034 A 
BRANCH  51  65
ATOM     65  C   UNL A   1      46.832  27.209  34.121  1.00  0.00     0.023 A 
ATOM     66  C   UNL A   1      48.091  27.774  33.851  1.00  0.00     0.031 A 
ATOM     67  C   UNL A   1      46.776  26.122  35.010  1.00  0.00     0.131 A 
ATOM     68  C   UNL A   1      49.247  27.204  34.405  1.00  0.00     0.055 A 
ATOM     69  C   UNL A   1      47.921  25.612  35.624  1.00  0.00     0.041 A 
ATOM     70  F   UNL A   1      45.606  25.524  35.287  1.00  0.00    -0.206 F 
ATOM     71  C   UNL A   1      49.169  26.143  35.309  1.00  0.00     0.022 A 
BRANCH  68  72
ATOM     72  S   UNL A   1      50.863  27.769  33.804  1.00  0.00     0.124 S 
ATOM     73  O   UNL A   1      50.741  29.218  33.947  1.00  0.00    -0.237 OA
ATOM     74  O   UNL A   1      51.787  27.112  34.719  1.00  0.00    -0.237 OA
ATOM     75  O   UNL A   1      50.902  27.289  32.424  1.00  0.00    -0.744 OA
ENDBRANCH  68  72
ENDBRANCH  51  65
BRANCH  52  76
ATOM     76  C   UNL A   1      38.483  30.081  29.388  1.00  0.00     0.023 A 
ATOM     77  C   UNL A   1      38.129  31.430  29.230  1.00  0.00     0.031 A 
ATOM     78  C   UNL A   1      37.566  29.106  28.957  1.00  0.00     0.131 A 
ATOM     79  C   UNL A   1      36.873  31.767  28.701  1.00  0.00     0.055 A 
ATOM     80  C   UNL A   1      36.340  29.445  28.382  1.00  0.00     0.041 A 
ATOM     81  F   UNL A   1      37.852  27.800  29.087  1.00  0.00    -0.206 F 
ATOM     82  C   UNL A   1      35.982  30.784  28.264  1.00  0.00     0.022 A 
BRANCH  79  83
ATOM     83  S   UNL A   1      36.385  33.514  28.674  1.00  0.00     0.124 S 
ATOM     84  O   UNL A   1      35.544  33.567  27.484  1.00  0.00    -0.237 OA
ATOM     85  O   UNL A   1      35.697  33.651  29.953  1.00  0.00    -0.237 OA
ATOM     86  O   UNL A   1      37.659  34.221  28.574  1.00  0.00    -0.744 OA
ENDBRANCH  79  83
ENDBRANCH  52  76
BRANCH  64  87
ATOM     87  C   UNL A   1      41.381  31.788  35.505  1.00  0.00     0.023 A 
ATOM     88  C   UNL A   1      40.242  31.585  36.304  1.00  0.00     0.031 A 
ATOM     89  C   UNL A   1      42.150  32.944  35.738  1.00  0.00     0.131 A 
ATOM     90  C   UNL A   1      39.874  32.548  37.256  1.00  0.00     0.055 A 
ATOM     91  C   UNL A   1      41.816  33.866  36.729  1.00  0.00     0.041 A 
ATOM     92  F   UNL A   1      43.247  33.192  35.004  1.00  0.00    -0.206 F 
ATOM     93  C   UNL A   1      40.664  33.678  37.487  1.00  0.00     0.022 A 
BRANCH  90  94
ATOM     94  S   UNL A   1      38.294  32.356  38.128  1.00  0.00     0.124 S 
ATOM     95  O   UNL A   1      37.680  33.665  37.934  1.00  0.00    -0.237 OA
ATOM     96  O   UNL A   1      37.674  31.248  37.408  1.00  0.00    -0.237 OA
ATOM     97  O   UNL A   1      38.693  32.056  39.502  1.00  0.00    -0.744 OA
ENDBRANCH  90  94
ENDBRANCH  64  87
ENDBRANCH  38  39
ENDBRANCH  31  33
ENDBRANCH  30  31
ENDBRANCH  29  30
ENDBRANCH  28  29
ENDBRANCH  27  28
ENDBRANCH  26  27
ENDBRANCH   1  26
TORSDOF 23
ENDMDL
