MODEL 1
REMARK VINA RESULT:     -10.7      0.000      0.000
REMARK SMILES O=C(OCCOCCOCCOC(=O)[C@@H]1c2ccccc2C(=O)N(C2CCCC2)C12CCCCC2)c1ccc(-c2c3nc(c(-c4cc(S(=O)(=O)[O-])ccc4F)c4ccc([nH]4)c(-c4cc(S(=O)(=O)[O-])ccc4F)c4nc(c(-c5cc(S(=O)(=O)[O-])ccc5F)c5ccc2[nH]5)C=C4)C=C3)cc1
REMARK SMILES IDX 7 1 6 2 5 3 4 4 3 5 2 6 1 7 36 8 37 9 98 10 38 11 97 12
REMARK SMILES IDX 39 13 40 14 41 15 91 16 42 17 96 18 90 19 92 20 43 21 95 22
REMARK SMILES IDX 89 23 88 24 44 26 76 27 56 28 75 29 57 30 60 31 74 32 93 33
REMARK SMILES IDX 58 34 59 35 73 37 94 38 61 39 45 40 46 41 54 42 47 43 53 44
REMARK SMILES IDX 55 45 52 46 48 47 49 48 50 49 51 50 77 51 78 52 86 53 79 54
REMARK SMILES IDX 85 55 87 56 84 57 80 58 81 59 82 60 83 61 62 62 63 63 71 64
REMARK SMILES IDX 64 65 70 66 72 67 69 68 65 69 66 70 67 71 68 72 8 73 9 74
REMARK SMILES IDX 10 75 11 76 12 77 13 78 14 79 15 80 16 81 30 82 17 83 21 84
REMARK SMILES IDX 24 85 31 86 35 87 18 88 20 89 22 90 32 91 34 92 19 93 23 94
REMARK SMILES IDX 33 95 25 96 26 97 29 98 27 99 28 100
REMARK H PARENT 92 25 60 36
REMARK Flexibility Score: inf
ROOT
ATOM      1  C   UNL A   1      33.794  31.673  28.010  1.00  0.00     0.188 C 
ENDROOT
BRANCH   1   2
ATOM      2  O   UNL A   1      34.154  33.035  28.213  1.00  0.00    -0.376 OA
BRANCH   2   3
ATOM      3  C   UNL A   1      33.141  33.999  27.969  1.00  0.00     0.202 C 
BRANCH   3   4
ATOM      4  C   UNL A   1      33.176  35.244  28.860  1.00  0.00     0.261 C 
BRANCH   4   5
ATOM      5  O   UNL A   1      32.791  35.027  30.223  1.00  0.00    -0.460 OA
BRANCH   5   6
ATOM      6  C   UNL A   1      33.547  35.099  31.346  1.00  0.00     0.338 C 
ATOM      7  O   UNL A   1      33.407  36.102  32.049  1.00  0.00    -0.246 OA
BRANCH   6   8
ATOM      8  C   UNL A   1      34.647  34.135  31.717  1.00  0.00     0.060 A 
ATOM      9  C   UNL A   1      35.915  34.395  31.154  1.00  0.00     0.016 A 
ATOM     10  C   UNL A   1      34.553  33.033  32.567  1.00  0.00     0.016 A 
ATOM     11  C   UNL A   1      37.038  33.596  31.437  1.00  0.00     0.010 A 
ATOM     12  C   UNL A   1      35.672  32.223  32.849  1.00  0.00     0.010 A 
ATOM     13  C   UNL A   1      36.932  32.503  32.302  1.00  0.00    -0.014 A 
BRANCH  13  14
ATOM     14  C   UNL A   1      38.144  31.776  32.791  1.00  0.00     0.031 A 
ATOM     15  C   UNL A   1      38.966  32.202  33.980  1.00  0.00     0.074 A 
ATOM     16  C   UNL A   1      38.591  30.754  32.050  1.00  0.00     0.049 A 
ATOM     17  N   UNL A   1      40.060  31.731  34.523  1.00  0.00    -0.248 NA
ATOM     18  C   UNL A   1      38.460  33.379  34.653  1.00  0.00     0.031 C 
ATOM     19  C   UNL A   1      37.976  30.274  30.815  1.00  0.00     0.029 A 
ATOM     20  N   UNL A   1      39.716  29.995  32.202  1.00  0.00    -0.354 N 
ATOM     21  C   UNL A   1      40.319  32.541  35.639  1.00  0.00     0.074 A 
ATOM     22  C   UNL A   1      39.342  33.573  35.622  1.00  0.00     0.031 C 
ATOM     23  C   UNL A   1      38.784  29.355  30.271  1.00  0.00     0.029 A 
ATOM     24  C   UNL A   1      39.966  29.198  31.119  1.00  0.00     0.049 A 
ATOM     25  H   UNL A   1      40.286  30.020  33.004  1.00  0.00     0.167 HD
ATOM     26  C   UNL A   1      41.247  32.436  36.620  1.00  0.00     0.034 A 
ATOM     27  C   UNL A   1      41.055  28.460  30.834  1.00  0.00     0.034 A 
ATOM     28  C   UNL A   1      42.256  31.438  36.571  1.00  0.00     0.049 A 
ATOM     29  C   UNL A   1      42.127  28.323  31.885  1.00  0.00     0.074 A 
ATOM     30  C   UNL A   1      43.252  31.182  37.485  1.00  0.00     0.029 A 
ATOM     31  N   UNL A   1      42.386  30.551  35.525  1.00  0.00    -0.354 N 
ATOM     32  N   UNL A   1      42.235  28.941  33.040  1.00  0.00    -0.248 NA
ATOM     33  C   UNL A   1      43.198  27.353  31.630  1.00  0.00     0.031 C 
ATOM     34  C   UNL A   1      44.001  30.124  36.980  1.00  0.00     0.029 A 
ATOM     35  C   UNL A   1      43.452  29.725  35.767  1.00  0.00     0.049 A 
ATOM     36  H   UNL A   1      41.806  30.515  34.731  1.00  0.00     0.167 HD
ATOM     37  C   UNL A   1      43.352  28.395  33.668  1.00  0.00     0.074 A 
ATOM     38  C   UNL A   1      43.890  27.403  32.763  1.00  0.00     0.031 C 
ATOM     39  C   UNL A   1      43.891  28.685  34.877  1.00  0.00     0.034 A 
BRANCH  26  40
ATOM     40  C   UNL A   1      41.218  33.302  37.869  1.00  0.00     0.023 A 
ATOM     41  C   UNL A   1      40.407  33.000  38.978  1.00  0.00     0.031 A 
ATOM     42  C   UNL A   1      41.816  34.579  37.837  1.00  0.00     0.131 A 
ATOM     43  C   UNL A   1      40.252  33.951  40.009  1.00  0.00     0.055 A 
ATOM     44  C   UNL A   1      41.730  35.481  38.899  1.00  0.00     0.041 A 
ATOM     45  F   UNL A   1      42.435  35.010  36.728  1.00  0.00    -0.206 F 
ATOM     46  C   UNL A   1      40.940  35.169  39.994  1.00  0.00     0.022 A 
BRANCH  43  47
ATOM     47  S   UNL A   1      39.016  33.735  41.326  1.00  0.00     0.124 S 
ATOM     48  O   UNL A   1      39.131  34.994  42.058  1.00  0.00    -0.237 OA
ATOM     49  O   UNL A   1      37.780  33.567  40.565  1.00  0.00    -0.237 OA
ATOM     50  O   UNL A   1      39.478  32.553  42.044  1.00  0.00    -0.744 OA
ENDBRANCH  43  47
ENDBRANCH  26  40
BRANCH  27  51
ATOM     51  C   UNL A   1      41.083  27.772  29.517  1.00  0.00     0.023 A 
ATOM     52  C   UNL A   1      42.034  28.145  28.545  1.00  0.00     0.031 A 
ATOM     53  C   UNL A   1      40.049  26.905  29.137  1.00  0.00     0.131 A 
ATOM     54  C   UNL A   1      41.881  27.718  27.222  1.00  0.00     0.055 A 
ATOM     55  C   UNL A   1      39.942  26.423  27.832  1.00  0.00     0.041 A 
ATOM     56  F   UNL A   1      39.101  26.556  30.020  1.00  0.00    -0.206 F 
ATOM     57  C   UNL A   1      40.847  26.848  26.862  1.00  0.00     0.022 A 
BRANCH  54  58
ATOM     58  S   UNL A   1      42.893  28.434  25.894  1.00  0.00     0.124 S 
ATOM     59  O   UNL A   1      42.747  29.865  26.141  1.00  0.00    -0.237 OA
ATOM     60  O   UNL A   1      44.213  27.876  26.181  1.00  0.00    -0.237 OA
ATOM     61  O   UNL A   1      42.267  27.934  24.675  1.00  0.00    -0.744 OA
ENDBRANCH  54  58
ENDBRANCH  27  51
BRANCH  39  62
ATOM     62  C   UNL A   1      45.094  27.938  35.370  1.00  0.00     0.023 A 
ATOM     63  C   UNL A   1      44.908  26.937  36.344  1.00  0.00     0.031 A 
ATOM     64  C   UNL A   1      46.372  28.482  35.180  1.00  0.00     0.131 A 
ATOM     65  C   UNL A   1      45.976  26.588  37.173  1.00  0.00     0.055 A 
ATOM     66  C   UNL A   1      47.446  28.085  35.972  1.00  0.00     0.041 A 
ATOM     67  F   UNL A   1      46.566  29.467  34.289  1.00  0.00    -0.206 F 
ATOM     68  C   UNL A   1      47.243  27.157  36.992  1.00  0.00     0.022 A 
BRANCH  65  69
ATOM     69  S   UNL A   1      45.707  25.553  38.641  1.00  0.00     0.124 S 
ATOM     70  O   UNL A   1      46.705  26.082  39.566  1.00  0.00    -0.237 OA
ATOM     71  O   UNL A   1      44.318  25.853  38.979  1.00  0.00    -0.237 OA
ATOM     72  O   UNL A   1      45.955  24.195  38.166  1.00  0.00    -0.744 OA
ENDBRANCH  65  69
ENDBRANCH  39  62
ENDBRANCH  13  14
ENDBRANCH   6   8
ENDBRANCH   5   6
ENDBRANCH   4   5
ENDBRANCH   3   4
ENDBRANCH   2   3
ENDBRANCH   1   2
BRANCH   1  73
ATOM     73  C   UNL A   1      32.680  31.381  26.994  1.00  0.00     0.188 C 
BRANCH  73  74
ATOM     74  O   UNL A   1      32.630  30.047  26.499  1.00  0.00    -0.376 OA
BRANCH  74  75
ATOM     75  C   UNL A   1      31.779  29.161  27.228  1.00  0.00     0.202 C 
BRANCH  75  76
ATOM     76  C   UNL A   1      32.437  27.823  27.546  1.00  0.00     0.261 C 
BRANCH  76  77
ATOM     77  O   UNL A   1      31.611  26.708  27.172  1.00  0.00    -0.463 OA
BRANCH  77  78
ATOM     78  C   UNL A   1      31.423  26.464  25.847  1.00  0.00     0.315 C 
ATOM     79  O   UNL A   1      30.401  26.716  25.245  1.00  0.00    -0.251 OA
BRANCH  78  80
ATOM     80  C   UNL A   1      32.706  25.885  25.245  1.00  0.00     0.156 C 
ATOM     81  C   UNL A   1      33.125  26.684  24.023  1.00  0.00    -0.019 A 
ATOM     82  C   UNL A   1      32.675  24.333  25.035  1.00  0.00     0.061 C 
ATOM     83  C   UNL A   1      33.374  28.061  24.140  1.00  0.00     0.005 A 
ATOM     84  C   UNL A   1      33.359  26.069  22.790  1.00  0.00     0.044 A 
ATOM     85  N   UNL A   1      33.713  24.000  23.936  1.00  0.00    -0.329 N 
ATOM     86  C   UNL A   1      31.307  23.742  24.561  1.00  0.00     0.030 C 
ATOM     87  C   UNL A   1      32.991  23.667  26.370  1.00  0.00     0.030 C 
ATOM     88  C   UNL A   1      33.782  28.810  23.040  1.00  0.00     0.000 A 
ATOM     89  C   UNL A   1      33.740  26.825  21.676  1.00  0.00     0.014 A 
ATOM     90  C   UNL A   1      33.500  24.601  22.696  1.00  0.00     0.254 C 
ATOM     91  C   UNL A   1      30.182  23.621  25.602  1.00  0.00     0.002 C 
ATOM     92  C   UNL A   1      31.912  23.473  27.439  1.00  0.00     0.002 C 
ATOM     93  C   UNL A   1      33.943  28.197  21.802  1.00  0.00     0.001 A 
ATOM     94  O   UNL A   1      33.674  24.052  21.615  1.00  0.00    -0.269 OA
ATOM     95  C   UNL A   1      30.600  22.949  26.898  1.00  0.00     0.000 C 
BRANCH  85  96
ATOM     96  C   UNL A   1      34.987  23.236  23.992  1.00  0.00     0.086 C 
ATOM     97  C   UNL A   1      36.198  23.856  24.688  1.00  0.00     0.025 C 
ATOM     98  C   UNL A   1      34.935  21.778  24.407  1.00  0.00     0.025 C 
ATOM     99  C   UNL A   1      37.177  22.702  24.890  1.00  0.00     0.002 C 
ATOM    100  C   UNL A   1      36.389  21.412  24.720  1.00  0.00     0.002 C 
ENDBRANCH  85  96
ENDBRANCH  78  80
ENDBRANCH  77  78
ENDBRANCH  76  77
ENDBRANCH  75  76
ENDBRANCH  74  75
ENDBRANCH  73  74
ENDBRANCH   1  73
TORSDOF 21
ENDMDL
MODEL 2
REMARK VINA RESULT:     -10.1      5.080      9.487
REMARK SMILES O=C(OCCOCCOCCOC(=O)[C@@H]1c2ccccc2C(=O)N(C2CCCC2)C12CCCCC2)c1ccc(-c2c3nc(c(-c4cc(S(=O)(=O)[O-])ccc4F)c4ccc([nH]4)c(-c4cc(S(=O)(=O)[O-])ccc4F)c4nc(c(-c5cc(S(=O)(=O)[O-])ccc5F)c5ccc2[nH]5)C=C4)C=C3)cc1
REMARK SMILES IDX 7 1 6 2 5 3 4 4 3 5 2 6 1 7 36 8 37 9 98 10 38 11 97 12
REMARK SMILES IDX 39 13 40 14 41 15 91 16 42 17 96 18 90 19 92 20 43 21 95 22
REMARK SMILES IDX 89 23 88 24 44 26 76 27 56 28 75 29 57 30 60 31 74 32 93 33
REMARK SMILES IDX 58 34 59 35 73 37 94 38 61 39 45 40 46 41 54 42 47 43 53 44
REMARK SMILES IDX 55 45 52 46 48 47 49 48 50 49 51 50 77 51 78 52 86 53 79 54
REMARK SMILES IDX 85 55 87 56 84 57 80 58 81 59 82 60 83 61 62 62 63 63 71 64
REMARK SMILES IDX 64 65 70 66 72 67 69 68 65 69 66 70 67 71 68 72 8 73 9 74
REMARK SMILES IDX 10 75 11 76 12 77 13 78 14 79 15 80 16 81 30 82 17 83 21 84
REMARK SMILES IDX 24 85 31 86 35 87 18 88 20 89 22 90 32 91 34 92 19 93 23 94
REMARK SMILES IDX 33 95 25 96 26 97 29 98 27 99 28 100
REMARK H PARENT 92 25 60 36
REMARK Flexibility Score: inf
ROOT
ATOM      1  C   UNL A   1      33.882  31.699  27.880  1.00  0.00     0.188 C 
ENDROOT
BRANCH   1   2
ATOM      2  O   UNL A   1      34.972  31.749  28.795  1.00  0.00    -0.376 OA
BRANCH   2   3
ATOM      3  C   UNL A   1      36.238  31.351  28.289  1.00  0.00     0.202 C 
BRANCH   3   4
ATOM      4  C   UNL A   1      36.796  30.039  28.846  1.00  0.00     0.261 C 
BRANCH   4   5
ATOM      5  O   UNL A   1      37.605  30.173  30.021  1.00  0.00    -0.460 OA
BRANCH   5   6
ATOM      6  C   UNL A   1      37.220  30.333  31.311  1.00  0.00     0.338 C 
ATOM      7  O   UNL A   1      36.137  29.841  31.635  1.00  0.00    -0.246 OA
BRANCH   6   8
ATOM      8  C   UNL A   1      37.930  31.191  32.330  1.00  0.00     0.060 A 
ATOM      9  C   UNL A   1      37.424  32.497  32.500  1.00  0.00     0.016 A 
ATOM     10  C   UNL A   1      39.014  30.828  33.131  1.00  0.00     0.016 A 
ATOM     11  C   UNL A   1      37.969  33.395  33.437  1.00  0.00     0.010 A 
ATOM     12  C   UNL A   1      39.570  31.725  34.066  1.00  0.00     0.010 A 
ATOM     13  C   UNL A   1      39.046  33.013  34.243  1.00  0.00    -0.014 A 
BRANCH  13  14
ATOM     14  C   UNL A   1      39.498  33.859  35.390  1.00  0.00     0.031 A 
ATOM     15  C   UNL A   1      40.706  34.758  35.356  1.00  0.00     0.074 A 
ATOM     16  C   UNL A   1      38.855  33.713  36.556  1.00  0.00     0.049 A 
ATOM     17  N   UNL A   1      41.274  35.526  36.253  1.00  0.00    -0.248 NA
ATOM     18  C   UNL A   1      41.395  34.769  34.083  1.00  0.00     0.031 C 
ATOM     19  C   UNL A   1      37.730  32.811  36.792  1.00  0.00     0.029 A 
ATOM     20  N   UNL A   1      39.120  34.272  37.773  1.00  0.00    -0.354 N 
ATOM     21  C   UNL A   1      42.354  36.146  35.606  1.00  0.00     0.074 A 
ATOM     22  C   UNL A   1      42.415  35.587  34.301  1.00  0.00     0.031 C 
ATOM     23  C   UNL A   1      37.457  32.813  38.103  1.00  0.00     0.029 A 
ATOM     24  C   UNL A   1      38.394  33.707  38.785  1.00  0.00     0.049 A 
ATOM     25  H   UNL A   1      39.766  35.002  37.908  1.00  0.00     0.167 HD
ATOM     26  C   UNL A   1      43.202  37.117  36.021  1.00  0.00     0.034 A 
ATOM     27  C   UNL A   1      38.511  33.869  40.115  1.00  0.00     0.034 A 
ATOM     28  C   UNL A   1      43.163  37.604  37.354  1.00  0.00     0.049 A 
ATOM     29  C   UNL A   1      39.453  34.926  40.631  1.00  0.00     0.074 A 
ATOM     30  C   UNL A   1      43.931  38.592  37.927  1.00  0.00     0.029 A 
ATOM     31  N   UNL A   1      42.308  37.106  38.312  1.00  0.00    -0.354 N 
ATOM     32  N   UNL A   1      40.315  35.661  39.965  1.00  0.00    -0.248 NA
ATOM     33  C   UNL A   1      39.410  35.222  42.068  1.00  0.00     0.031 C 
ATOM     34  C   UNL A   1      43.537  38.689  39.257  1.00  0.00     0.029 A 
ATOM     35  C   UNL A   1      42.518  37.772  39.490  1.00  0.00     0.049 A 
ATOM     36  H   UNL A   1      41.651  36.386  38.173  1.00  0.00     0.167 HD
ATOM     37  C   UNL A   1      40.873  36.539  40.890  1.00  0.00     0.074 A 
ATOM     38  C   UNL A   1      40.258  36.240  42.165  1.00  0.00     0.031 C 
ATOM     39  C   UNL A   1      41.809  37.503  40.712  1.00  0.00     0.034 A 
BRANCH  26  40
ATOM     40  C   UNL A   1      44.173  37.810  35.079  1.00  0.00     0.023 A 
ATOM     41  C   UNL A   1      43.770  38.825  34.191  1.00  0.00     0.031 A 
ATOM     42  C   UNL A   1      45.460  37.265  34.893  1.00  0.00     0.131 A 
ATOM     43  C   UNL A   1      44.660  39.271  33.192  1.00  0.00     0.055 A 
ATOM     44  C   UNL A   1      46.368  37.770  33.960  1.00  0.00     0.041 A 
ATOM     45  F   UNL A   1      45.836  36.168  35.566  1.00  0.00    -0.206 F 
ATOM     46  C   UNL A   1      45.967  38.779  33.099  1.00  0.00     0.022 A 
BRANCH  43  47
ATOM     47  S   UNL A   1      44.114  40.376  31.854  1.00  0.00     0.124 S 
ATOM     48  O   UNL A   1      44.457  39.602  30.663  1.00  0.00    -0.237 OA
ATOM     49  O   UNL A   1      42.684  40.504  32.124  1.00  0.00    -0.237 OA
ATOM     50  O   UNL A   1      44.903  41.585  32.059  1.00  0.00    -0.744 OA
ENDBRANCH  43  47
ENDBRANCH  26  40
BRANCH  27  51
ATOM     51  C   UNL A   1      37.638  33.032  40.981  1.00  0.00     0.023 A 
ATOM     52  C   UNL A   1      36.312  33.433  41.243  1.00  0.00     0.031 A 
ATOM     53  C   UNL A   1      38.169  31.964  41.718  1.00  0.00     0.131 A 
ATOM     54  C   UNL A   1      35.592  32.821  42.274  1.00  0.00     0.055 A 
ATOM     55  C   UNL A   1      37.420  31.309  42.696  1.00  0.00     0.041 A 
ATOM     56  F   UNL A   1      39.439  31.577  41.528  1.00  0.00    -0.206 F 
ATOM     57  C   UNL A   1      36.133  31.752  42.994  1.00  0.00     0.022 A 
BRANCH  54  58
ATOM     58  S   UNL A   1      34.016  33.522  42.845  1.00  0.00     0.124 S 
ATOM     59  O   UNL A   1      34.440  34.332  43.982  1.00  0.00    -0.237 OA
ATOM     60  O   UNL A   1      33.570  34.268  41.670  1.00  0.00    -0.237 OA
ATOM     61  O   UNL A   1      33.213  32.348  43.168  1.00  0.00    -0.744 OA
ENDBRANCH  54  58
ENDBRANCH  27  51
BRANCH  39  62
ATOM     62  C   UNL A   1      42.243  38.362  41.862  1.00  0.00     0.023 A 
ATOM     63  C   UNL A   1      41.732  39.672  41.949  1.00  0.00     0.031 A 
ATOM     64  C   UNL A   1      43.401  38.027  42.577  1.00  0.00     0.131 A 
ATOM     65  C   UNL A   1      42.453  40.637  42.656  1.00  0.00     0.055 A 
ATOM     66  C   UNL A   1      44.081  38.981  43.329  1.00  0.00     0.041 A 
ATOM     67  F   UNL A   1      43.931  36.798  42.477  1.00  0.00    -0.206 F 
ATOM     68  C   UNL A   1      43.624  40.299  43.346  1.00  0.00     0.022 A 
BRANCH  65  69
ATOM     69  S   UNL A   1      42.016  42.395  42.527  1.00  0.00     0.124 S 
ATOM     70  O   UNL A   1      43.031  42.886  41.600  1.00  0.00    -0.237 OA
ATOM     71  O   UNL A   1      40.657  42.337  41.995  1.00  0.00    -0.237 OA
ATOM     72  O   UNL A   1      42.131  42.889  43.896  1.00  0.00    -0.744 OA
ENDBRANCH  65  69
ENDBRANCH  39  62
ENDBRANCH  13  14
ENDBRANCH   6   8
ENDBRANCH   5   6
ENDBRANCH   4   5
ENDBRANCH   3   4
ENDBRANCH   2   3
ENDBRANCH   1   2
BRANCH   1  73
ATOM     73  C   UNL A   1      33.805  30.488  26.939  1.00  0.00     0.188 C 
BRANCH  73  74
ATOM     74  O   UNL A   1      33.201  29.320  27.484  1.00  0.00    -0.376 OA
BRANCH  74  75
ATOM     75  C   UNL A   1      31.821  29.144  27.164  1.00  0.00     0.202 C 
BRANCH  75  76
ATOM     76  C   UNL A   1      31.211  27.899  27.800  1.00  0.00     0.261 C 
BRANCH  76  77
ATOM     77  O   UNL A   1      31.777  26.687  27.275  1.00  0.00    -0.463 OA
BRANCH  77  78
ATOM     78  C   UNL A   1      31.529  26.373  25.975  1.00  0.00     0.315 C 
ATOM     79  O   UNL A   1      30.467  26.559  25.418  1.00  0.00    -0.251 OA
BRANCH  78  80
ATOM     80  C   UNL A   1      32.800  25.812  25.330  1.00  0.00     0.156 C 
ATOM     81  C   UNL A   1      33.188  26.641  24.118  1.00  0.00    -0.019 A 
ATOM     82  C   UNL A   1      32.768  24.266  25.085  1.00  0.00     0.061 C 
ATOM     83  C   UNL A   1      33.436  28.016  24.262  1.00  0.00     0.005 A 
ATOM     84  C   UNL A   1      33.396  26.056  22.866  1.00  0.00     0.044 A 
ATOM     85  N   UNL A   1      33.783  23.962  23.956  1.00  0.00    -0.329 N 
ATOM     86  C   UNL A   1      31.392  23.681  24.629  1.00  0.00     0.030 C 
ATOM     87  C   UNL A   1      33.117  23.570  26.397  1.00  0.00     0.030 C 
ATOM     88  C   UNL A   1      33.816  28.792  23.170  1.00  0.00     0.000 A 
ATOM     89  C   UNL A   1      33.751  26.839  21.762  1.00  0.00     0.014 A 
ATOM     90  C   UNL A   1      33.540  24.590  22.735  1.00  0.00     0.254 C 
ATOM     91  C   UNL A   1      30.292  23.532  25.691  1.00  0.00     0.002 C 
ATOM     92  C   UNL A   1      32.062  23.347  27.485  1.00  0.00     0.002 C 
ATOM     93  C   UNL A   1      33.952  28.208  21.915  1.00  0.00     0.001 A 
ATOM     94  O   UNL A   1      33.692  24.068  21.638  1.00  0.00    -0.269 OA
ATOM     95  C   UNL A   1      30.740  22.832  26.962  1.00  0.00     0.000 C 
BRANCH  85  96
ATOM     96  C   UNL A   1      35.061  23.202  23.966  1.00  0.00     0.086 C 
ATOM     97  C   UNL A   1      36.275  23.795  24.678  1.00  0.00     0.025 C 
ATOM     98  C   UNL A   1      35.017  21.726  24.315  1.00  0.00     0.025 C 
ATOM     99  C   UNL A   1      37.261  22.637  24.819  1.00  0.00     0.002 C 
ATOM    100  C   UNL A   1      36.476  21.352  24.598  1.00  0.00     0.002 C 
ENDBRANCH  85  96
ENDBRANCH  78  80
ENDBRANCH  77  78
ENDBRANCH  76  77
ENDBRANCH  75  76
ENDBRANCH  74  75
ENDBRANCH  73  74
ENDBRANCH   1  73
TORSDOF 21
ENDMDL
MODEL 3
REMARK VINA RESULT:     -10.1      3.221      3.731
REMARK SMILES O=C(OCCOCCOCCOC(=O)[C@@H]1c2ccccc2C(=O)N(C2CCCC2)C12CCCCC2)c1ccc(-c2c3nc(c(-c4cc(S(=O)(=O)[O-])ccc4F)c4ccc([nH]4)c(-c4cc(S(=O)(=O)[O-])ccc4F)c4nc(c(-c5cc(S(=O)(=O)[O-])ccc5F)c5ccc2[nH]5)C=C4)C=C3)cc1
REMARK SMILES IDX 7 1 6 2 5 3 4 4 3 5 2 6 1 7 36 8 37 9 98 10 38 11 97 12
REMARK SMILES IDX 39 13 40 14 41 15 91 16 42 17 96 18 90 19 92 20 43 21 95 22
REMARK SMILES IDX 89 23 88 24 44 26 76 27 56 28 75 29 57 30 60 31 74 32 93 33
REMARK SMILES IDX 58 34 59 35 73 37 94 38 61 39 45 40 46 41 54 42 47 43 53 44
REMARK SMILES IDX 55 45 52 46 48 47 49 48 50 49 51 50 77 51 78 52 86 53 79 54
REMARK SMILES IDX 85 55 87 56 84 57 80 58 81 59 82 60 83 61 62 62 63 63 71 64
REMARK SMILES IDX 64 65 70 66 72 67 69 68 65 69 66 70 67 71 68 72 8 73 9 74
REMARK SMILES IDX 10 75 11 76 12 77 13 78 14 79 15 80 16 81 30 82 17 83 21 84
REMARK SMILES IDX 24 85 31 86 35 87 18 88 20 89 22 90 32 91 34 92 19 93 23 94
REMARK SMILES IDX 33 95 25 96 26 97 29 98 27 99 28 100
REMARK H PARENT 92 25 60 36
REMARK Flexibility Score: inf
ROOT
ATOM      1  C   UNL A   1      34.537  31.780  27.656  1.00  0.00     0.188 C 
ENDROOT
BRANCH   1   2
ATOM      2  O   UNL A   1      34.652  33.199  27.635  1.00  0.00    -0.376 OA
BRANCH   2   3
ATOM      3  C   UNL A   1      33.547  33.930  28.145  1.00  0.00     0.202 C 
BRANCH   3   4
ATOM      4  C   UNL A   1      33.891  35.199  28.930  1.00  0.00     0.261 C 
BRANCH   4   5
ATOM      5  O   UNL A   1      34.667  34.987  30.116  1.00  0.00    -0.460 OA
BRANCH   5   6
ATOM      6  C   UNL A   1      34.648  33.937  30.974  1.00  0.00     0.338 C 
ATOM      7  O   UNL A   1      33.678  33.850  31.729  1.00  0.00    -0.246 OA
BRANCH   6   8
ATOM      8  C   UNL A   1      35.785  32.966  31.184  1.00  0.00     0.060 A 
ATOM      9  C   UNL A   1      36.933  33.175  30.391  1.00  0.00     0.016 A 
ATOM     10  C   UNL A   1      35.831  31.903  32.087  1.00  0.00     0.016 A 
ATOM     11  C   UNL A   1      38.079  32.365  30.503  1.00  0.00     0.010 A 
ATOM     12  C   UNL A   1      36.972  31.083  32.200  1.00  0.00     0.010 A 
ATOM     13  C   UNL A   1      38.116  31.312  31.423  1.00  0.00    -0.014 A 
BRANCH  13  14
ATOM     14  C   UNL A   1      39.388  30.582  31.718  1.00  0.00     0.031 A 
ATOM     15  C   UNL A   1      40.432  31.058  32.693  1.00  0.00     0.074 A 
ATOM     16  C   UNL A   1      39.663  29.499  30.979  1.00  0.00     0.049 A 
ATOM     17  N   UNL A   1      41.603  30.590  33.046  1.00  0.00    -0.248 NA
ATOM     18  C   UNL A   1      40.089  32.292  33.367  1.00  0.00     0.031 C 
ATOM     19  C   UNL A   1      38.810  28.959  29.923  1.00  0.00     0.029 A 
ATOM     20  N   UNL A   1      40.782  28.718  30.963  1.00  0.00    -0.354 N 
ATOM     21  C   UNL A   1      42.089  31.464  34.031  1.00  0.00     0.074 A 
ATOM     22  C   UNL A   1      41.146  32.522  34.130  1.00  0.00     0.031 C 
ATOM     23  C   UNL A   1      39.481  27.981  29.300  1.00  0.00     0.029 A 
ATOM     24  C   UNL A   1      40.802  27.843  29.912  1.00  0.00     0.049 A 
ATOM     25  H   UNL A   1      41.498  28.777  31.636  1.00  0.00     0.167 HD
ATOM     26  C   UNL A   1      43.189  31.394  34.820  1.00  0.00     0.034 A 
ATOM     27  C   UNL A   1      41.801  27.055  29.474  1.00  0.00     0.034 A 
ATOM     28  C   UNL A   1      44.150  30.364  34.646  1.00  0.00     0.049 A 
ATOM     29  C   UNL A   1      43.054  26.953  30.305  1.00  0.00     0.074 A 
ATOM     30  C   UNL A   1      45.300  30.137  35.367  1.00  0.00     0.029 A 
ATOM     31  N   UNL A   1      44.058  29.406  33.660  1.00  0.00    -0.354 N 
ATOM     32  N   UNL A   1      43.397  27.642  31.371  1.00  0.00    -0.248 NA
ATOM     33  C   UNL A   1      44.038  25.936  29.917  1.00  0.00     0.031 C 
ATOM     34  C   UNL A   1      45.918  29.026  34.803  1.00  0.00     0.029 A 
ATOM     35  C   UNL A   1      45.136  28.566  33.750  1.00  0.00     0.049 A 
ATOM     36  H   UNL A   1      43.334  29.337  32.998  1.00  0.00     0.167 HD
ATOM     37  C   UNL A   1      44.604  27.104  31.808  1.00  0.00     0.074 A 
ATOM     38  C   UNL A   1      44.938  26.039  30.889  1.00  0.00     0.031 C 
ATOM     39  C   UNL A   1      45.374  27.456  32.868  1.00  0.00     0.034 A 
BRANCH  26  40
ATOM     40  C   UNL A   1      43.419  32.341  35.986  1.00  0.00     0.023 A 
ATOM     41  C   UNL A   1      44.250  33.472  35.888  1.00  0.00     0.031 A 
ATOM     42  C   UNL A   1      43.002  31.958  37.278  1.00  0.00     0.131 A 
ATOM     43  C   UNL A   1      44.602  34.183  37.054  1.00  0.00     0.055 A 
ATOM     44  C   UNL A   1      43.281  32.715  38.417  1.00  0.00     0.041 A 
ATOM     45  F   UNL A   1      42.378  30.787  37.469  1.00  0.00    -0.206 F 
ATOM     46  C   UNL A   1      44.088  33.835  38.309  1.00  0.00     0.022 A 
BRANCH  43  47
ATOM     47  S   UNL A   1      45.878  35.478  37.032  1.00  0.00     0.124 S 
ATOM     48  O   UNL A   1      47.079  34.725  37.387  1.00  0.00    -0.237 OA
ATOM     49  O   UNL A   1      45.821  35.945  35.649  1.00  0.00    -0.237 OA
ATOM     50  O   UNL A   1      45.422  36.432  38.036  1.00  0.00    -0.744 OA
ENDBRANCH  43  47
ENDBRANCH  26  40
BRANCH  27  51
ATOM     51  C   UNL A   1      41.560  26.281  28.229  1.00  0.00     0.023 A 
ATOM     52  C   UNL A   1      41.346  24.888  28.293  1.00  0.00     0.031 A 
ATOM     53  C   UNL A   1      41.751  26.866  26.969  1.00  0.00     0.131 A 
ATOM     54  C   UNL A   1      41.413  24.120  27.126  1.00  0.00     0.055 A 
ATOM     55  C   UNL A   1      41.744  26.105  25.800  1.00  0.00     0.041 A 
ATOM     56  F   UNL A   1      41.996  28.181  26.866  1.00  0.00    -0.206 F 
ATOM     57  C   UNL A   1      41.597  24.722  25.878  1.00  0.00     0.022 A 
BRANCH  54  58
ATOM     58  S   UNL A   1      41.463  22.306  27.214  1.00  0.00     0.124 S 
ATOM     59  O   UNL A   1      40.097  21.985  27.613  1.00  0.00    -0.237 OA
ATOM     60  O   UNL A   1      41.822  21.944  25.844  1.00  0.00    -0.237 OA
ATOM     61  O   UNL A   1      42.495  22.037  28.210  1.00  0.00    -0.744 OA
ENDBRANCH  54  58
ENDBRANCH  27  51
BRANCH  39  62
ATOM     62  C   UNL A   1      46.636  26.706  33.170  1.00  0.00     0.023 A 
ATOM     63  C   UNL A   1      47.694  26.771  32.242  1.00  0.00     0.031 A 
ATOM     64  C   UNL A   1      46.616  25.671  34.116  1.00  0.00     0.131 A 
ATOM     65  C   UNL A   1      48.638  25.742  32.212  1.00  0.00     0.055 A 
ATOM     66  C   UNL A   1      47.595  24.681  34.118  1.00  0.00     0.041 A 
ATOM     67  F   UNL A   1      45.597  25.562  34.984  1.00  0.00    -0.206 F 
ATOM     68  C   UNL A   1      48.594  24.698  33.145  1.00  0.00     0.022 A 
BRANCH  65  69
ATOM     69  S   UNL A   1      49.818  25.610  30.838  1.00  0.00     0.124 S 
ATOM     70  O   UNL A   1      50.546  26.871  30.949  1.00  0.00    -0.237 OA
ATOM     71  O   UNL A   1      50.577  24.415  31.198  1.00  0.00    -0.237 OA
ATOM     72  O   UNL A   1      48.971  25.481  29.656  1.00  0.00    -0.744 OA
ENDBRANCH  65  69
ENDBRANCH  39  62
ENDBRANCH  13  14
ENDBRANCH   6   8
ENDBRANCH   5   6
ENDBRANCH   4   5
ENDBRANCH   3   4
ENDBRANCH   2   3
ENDBRANCH   1   2
BRANCH   1  73
ATOM     73  C   UNL A   1      33.177  31.177  27.276  1.00  0.00     0.188 C 
BRANCH  73  74
ATOM     74  O   UNL A   1      33.211  29.844  26.778  1.00  0.00    -0.376 OA
BRANCH  74  75
ATOM     75  C   UNL A   1      32.187  28.983  27.277  1.00  0.00     0.202 C 
BRANCH  75  76
ATOM     76  C   UNL A   1      32.674  27.564  27.547  1.00  0.00     0.261 C 
BRANCH  76  77
ATOM     77  O   UNL A   1      31.700  26.574  27.179  1.00  0.00    -0.463 OA
BRANCH  77  78
ATOM     78  C   UNL A   1      31.454  26.376  25.856  1.00  0.00     0.315 C 
ATOM     79  O   UNL A   1      30.434  26.713  25.293  1.00  0.00    -0.251 OA
BRANCH  78  80
ATOM     80  C   UNL A   1      32.674  25.724  25.199  1.00  0.00     0.156 C 
ATOM     81  C   UNL A   1      33.103  26.516  23.976  1.00  0.00    -0.019 A 
ATOM     82  C   UNL A   1      32.532  24.182  24.966  1.00  0.00     0.061 C 
ATOM     83  C   UNL A   1      33.447  27.871  24.106  1.00  0.00     0.005 A 
ATOM     84  C   UNL A   1      33.253  25.910  22.726  1.00  0.00     0.044 A 
ATOM     85  N   UNL A   1      33.507  23.801  23.826  1.00  0.00    -0.329 N 
ATOM     86  C   UNL A   1      31.112  23.692  24.531  1.00  0.00     0.030 C 
ATOM     87  C   UNL A   1      32.848  23.472  26.278  1.00  0.00     0.030 C 
ATOM     88  C   UNL A   1      33.866  28.611  23.004  1.00  0.00     0.000 A 
ATOM     89  C   UNL A   1      33.646  26.659  21.612  1.00  0.00     0.014 A 
ATOM     90  C   UNL A   1      33.292  24.437  22.604  1.00  0.00     0.254 C 
ATOM     91  C   UNL A   1      30.018  23.626  25.609  1.00  0.00     0.002 C 
ATOM     92  C   UNL A   1      31.796  23.330  27.381  1.00  0.00     0.002 C 
ATOM     93  C   UNL A   1      33.944  28.012  21.752  1.00  0.00     0.001 A 
ATOM     94  O   UNL A   1      33.392  23.898  21.509  1.00  0.00    -0.269 OA
ATOM     95  C   UNL A   1      30.434  22.904  26.879  1.00  0.00     0.000 C 
BRANCH  85  96
ATOM     96  C   UNL A   1      34.729  22.954  23.824  1.00  0.00     0.086 C 
ATOM     97  C   UNL A   1      36.101  23.624  23.858  1.00  0.00     0.025 C 
ATOM     98  C   UNL A   1      34.787  21.773  24.776  1.00  0.00     0.025 C 
ATOM     99  C   UNL A   1      37.082  22.511  24.220  1.00  0.00     0.002 C 
ATOM    100  C   UNL A   1      36.263  21.364  24.794  1.00  0.00     0.002 C 
ENDBRANCH  85  96
ENDBRANCH  78  80
ENDBRANCH  77  78
ENDBRANCH  76  77
ENDBRANCH  75  76
ENDBRANCH  74  75
ENDBRANCH  73  74
ENDBRANCH   1  73
TORSDOF 21
ENDMDL
