MODEL 1
REMARK VINA RESULT:     -10.2      0.000      0.000
REMARK SMILES O=C(C[C@H]1CN(C(=O)C[C@H]2CCS(=O)(=O)C2)CCO1)OCCOCCOCCOC(=O)c1ccc(-c2c3nc(c(-c4cc(S(=O)(=O)[O-])ccc4F)c4ccc([nH]4)c(-c4cc(S(=O)(=O)[O-])ccc4F)c4nc(c(-c5cc(S(=O)(=O)[O-])ccc5F)c5ccc2[nH]5)C=C4)C=C3)cc1
REMARK SMILES IDX 24 1 23 2 22 3 21 4 20 5 2 6 1 7 3 8 4 9 5 10 19 11 6 12
REMARK SMILES IDX 18 13 17 14 7 15 8 16 9 17 10 18 11 19 16 20 12 21 13 22
REMARK SMILES IDX 14 23 15 24 25 25 26 26 27 27 28 28 29 29 30 30 31 31 32 32
REMARK SMILES IDX 33 33 94 34 34 35 93 36 35 37 36 38 37 39 87 40 38 41 92 42
REMARK SMILES IDX 86 43 88 44 39 45 91 46 85 47 84 48 40 50 72 51 52 52 71 53
REMARK SMILES IDX 53 54 56 55 70 56 89 57 54 58 55 59 69 61 90 62 57 63 41 64
REMARK SMILES IDX 42 65 50 66 43 67 49 68 51 69 48 70 44 71 45 72 46 73 47 74
REMARK SMILES IDX 73 75 74 76 82 77 75 78 81 79 83 80 80 81 76 82 77 83 78 84
REMARK SMILES IDX 79 85 58 86 59 87 67 88 60 89 66 90 68 91 65 92 61 93 62 94
REMARK SMILES IDX 63 95 64 96
REMARK H PARENT 88 49 56 60
REMARK Flexibility Score: inf
ROOT
ATOM      1  C   UNL A   1      34.745  23.762  25.701  1.00  0.00     0.188 C 
ENDROOT
BRANCH   1   2
ATOM      2  O   UNL A   1      34.827  25.082  25.201  1.00  0.00    -0.376 OA
BRANCH   2   3
ATOM      3  C   UNL A   1      34.082  26.131  25.773  1.00  0.00     0.202 C 
BRANCH   3   4
ATOM      4  C   UNL A   1      34.024  27.386  24.903  1.00  0.00     0.261 C 
BRANCH   4   5
ATOM      5  O   UNL A   1      33.121  27.382  23.783  1.00  0.00    -0.463 OA
BRANCH   5   6
ATOM      6  C   UNL A   1      33.119  26.530  22.745  1.00  0.00     0.308 C 
ATOM      7  O   UNL A   1      33.545  26.897  21.652  1.00  0.00    -0.252 OA
BRANCH   6   8
ATOM      8  C   UNL A   1      32.478  25.182  22.893  1.00  0.00     0.156 C 
BRANCH   8   9
ATOM      9  C   UNL A   1      31.009  25.128  23.275  1.00  0.00     0.148 C 
ATOM     10  C   UNL A   1      30.509  23.699  23.052  1.00  0.00     0.152 C 
ATOM     11  O   UNL A   1      30.696  25.584  24.595  1.00  0.00    -0.374 OA
ATOM     12  N   UNL A   1      31.191  22.835  24.015  1.00  0.00    -0.338 N 
ATOM     13  C   UNL A   1      31.148  24.721  25.652  1.00  0.00     0.182 C 
ATOM     14  C   UNL A   1      30.930  23.221  25.402  1.00  0.00     0.148 C 
BRANCH  12  15
ATOM     15  C   UNL A   1      32.097  21.827  23.732  1.00  0.00     0.223 C 
ATOM     16  O   UNL A   1      32.838  21.879  22.749  1.00  0.00    -0.275 OA
BRANCH  15  17
ATOM     17  C   UNL A   1      32.207  20.633  24.681  1.00  0.00     0.105 C 
BRANCH  17  18
ATOM     18  C   UNL A   1      33.077  19.484  24.164  1.00  0.00     0.014 C 
ATOM     19  C   UNL A   1      34.405  19.314  24.921  1.00  0.00     0.021 C 
ATOM     20  C   UNL A   1      32.429  18.107  24.274  1.00  0.00     0.141 C 
ATOM     21  C   UNL A   1      35.048  18.025  24.390  1.00  0.00     0.137 C 
ATOM     22  S   UNL A   1      33.708  16.972  23.840  1.00  0.00     0.150 S 
ATOM     23  O   UNL A   1      33.699  16.921  22.384  1.00  0.00    -0.229 OA
ATOM     24  O   UNL A   1      33.517  15.814  24.674  1.00  0.00    -0.229 OA
ENDBRANCH  17  18
ENDBRANCH  15  17
ENDBRANCH  12  15
ENDBRANCH   8   9
ENDBRANCH   6   8
ENDBRANCH   5   6
ENDBRANCH   4   5
ENDBRANCH   3   4
ENDBRANCH   2   3
ENDBRANCH   1   2
BRANCH   1  25
ATOM     25  C   UNL A   1      36.045  23.277  26.360  1.00  0.00     0.188 C 
BRANCH  25  26
ATOM     26  O   UNL A   1      37.015  22.608  25.568  1.00  0.00    -0.376 OA
BRANCH  26  27
ATOM     27  C   UNL A   1      38.389  22.867  25.812  1.00  0.00     0.202 C 
BRANCH  27  28
ATOM     28  C   UNL A   1      39.228  21.797  26.534  1.00  0.00     0.261 C 
BRANCH  28  29
ATOM     29  O   UNL A   1      39.574  20.608  25.789  1.00  0.00    -0.460 OA
BRANCH  29  30
ATOM     30  C   UNL A   1      40.797  20.072  26.053  1.00  0.00     0.338 C 
ATOM     31  O   UNL A   1      41.111  18.900  25.954  1.00  0.00    -0.246 OA
BRANCH  30  32
ATOM     32  C   UNL A   1      41.777  21.134  26.392  1.00  0.00     0.060 A 
ATOM     33  C   UNL A   1      42.228  21.280  27.715  1.00  0.00     0.016 A 
ATOM     34  C   UNL A   1      42.151  22.065  25.425  1.00  0.00     0.016 A 
ATOM     35  C   UNL A   1      43.036  22.370  28.075  1.00  0.00     0.010 A 
ATOM     36  C   UNL A   1      42.937  23.164  25.791  1.00  0.00     0.010 A 
ATOM     37  C   UNL A   1      43.362  23.344  27.121  1.00  0.00    -0.014 A 
BRANCH  37  38
ATOM     38  C   UNL A   1      43.983  24.645  27.501  1.00  0.00     0.031 A 
ATOM     39  C   UNL A   1      43.104  25.709  28.098  1.00  0.00     0.074 A 
ATOM     40  C   UNL A   1      45.262  24.931  27.199  1.00  0.00     0.049 A 
ATOM     41  N   UNL A   1      43.351  26.978  28.304  1.00  0.00    -0.248 NA
ATOM     42  C   UNL A   1      41.745  25.286  28.462  1.00  0.00     0.031 C 
ATOM     43  C   UNL A   1      46.199  23.997  26.584  1.00  0.00     0.029 A 
ATOM     44  N   UNL A   1      45.980  26.098  27.324  1.00  0.00    -0.354 N 
ATOM     45  C   UNL A   1      42.155  27.524  28.761  1.00  0.00     0.074 A 
ATOM     46  C   UNL A   1      41.192  26.441  28.799  1.00  0.00     0.031 C 
ATOM     47  C   UNL A   1      47.362  24.633  26.366  1.00  0.00     0.029 A 
ATOM     48  C   UNL A   1      47.254  26.026  26.805  1.00  0.00     0.049 A 
ATOM     49  H   UNL A   1      45.616  26.909  27.746  1.00  0.00     0.167 HD
ATOM     50  C   UNL A   1      41.880  28.810  29.095  1.00  0.00     0.034 A 
ATOM     51  C   UNL A   1      48.208  26.978  26.677  1.00  0.00     0.034 A 
ATOM     52  C   UNL A   1      42.847  29.881  29.034  1.00  0.00     0.049 A 
ATOM     53  C   UNL A   1      47.896  28.398  27.099  1.00  0.00     0.074 A 
ATOM     54  C   UNL A   1      42.683  31.211  29.378  1.00  0.00     0.029 A 
ATOM     55  N   UNL A   1      44.153  29.751  28.577  1.00  0.00    -0.354 N 
ATOM     56  N   UNL A   1      46.774  28.894  27.566  1.00  0.00    -0.248 NA
ATOM     57  C   UNL A   1      48.974  29.390  26.958  1.00  0.00     0.031 C 
ATOM     58  C   UNL A   1      43.853  31.900  29.044  1.00  0.00     0.029 A 
ATOM     59  C   UNL A   1      44.790  30.983  28.594  1.00  0.00     0.049 A 
ATOM     60  H   UNL A   1      44.567  28.907  28.284  1.00  0.00     0.167 HD
ATOM     61  C   UNL A   1      47.015  30.251  27.780  1.00  0.00     0.074 A 
ATOM     62  C   UNL A   1      48.397  30.489  27.424  1.00  0.00     0.031 C 
ATOM     63  C   UNL A   1      46.167  31.215  28.222  1.00  0.00     0.034 A 
BRANCH  50  64
ATOM     64  C   UNL A   1      40.450  29.136  29.466  1.00  0.00     0.023 A 
ATOM     65  C   UNL A   1      40.011  29.142  30.800  1.00  0.00     0.031 A 
ATOM     66  C   UNL A   1      39.492  29.367  28.461  1.00  0.00     0.131 A 
ATOM     67  C   UNL A   1      38.641  29.253  31.085  1.00  0.00     0.055 A 
ATOM     68  C   UNL A   1      38.146  29.588  28.759  1.00  0.00     0.041 A 
ATOM     69  F   UNL A   1      39.841  29.353  27.165  1.00  0.00    -0.206 F 
ATOM     70  C   UNL A   1      37.709  29.505  30.077  1.00  0.00     0.022 A 
BRANCH  67  71
ATOM     71  S   UNL A   1      38.080  28.843  32.761  1.00  0.00     0.124 S 
ATOM     72  O   UNL A   1      39.111  29.476  33.579  1.00  0.00    -0.237 OA
ATOM     73  O   UNL A   1      36.759  29.458  32.808  1.00  0.00    -0.237 OA
ATOM     74  O   UNL A   1      38.091  27.382  32.777  1.00  0.00    -0.744 OA
ENDBRANCH  67  71
ENDBRANCH  50  64
BRANCH  51  75
ATOM     75  C   UNL A   1      49.558  26.633  26.136  1.00  0.00     0.023 A 
ATOM     76  C   UNL A   1      49.990  27.166  24.909  1.00  0.00     0.031 A 
ATOM     77  C   UNL A   1      50.447  25.794  26.829  1.00  0.00     0.131 A 
ATOM     78  C   UNL A   1      51.267  26.858  24.414  1.00  0.00     0.055 A 
ATOM     79  C   UNL A   1      51.740  25.541  26.362  1.00  0.00     0.041 A 
ATOM     80  F   UNL A   1      50.088  25.245  27.999  1.00  0.00    -0.206 F 
ATOM     81  C   UNL A   1      52.157  26.074  25.146  1.00  0.00     0.022 A 
BRANCH  78  82
ATOM     82  S   UNL A   1      51.732  27.506  22.788  1.00  0.00     0.124 S 
ATOM     83  O   UNL A   1      51.296  28.895  22.893  1.00  0.00    -0.237 OA
ATOM     84  O   UNL A   1      53.175  27.289  22.795  1.00  0.00    -0.237 OA
ATOM     85  O   UNL A   1      50.968  26.679  21.858  1.00  0.00    -0.744 OA
ENDBRANCH  78  82
ENDBRANCH  51  75
BRANCH  63  86
ATOM     86  C   UNL A   1      46.717  32.615  28.385  1.00  0.00     0.023 A 
ATOM     87  C   UNL A   1      46.839  33.504  27.301  1.00  0.00     0.031 A 
ATOM     88  C   UNL A   1      47.095  33.076  29.659  1.00  0.00     0.131 A 
ATOM     89  C   UNL A   1      47.362  34.791  27.507  1.00  0.00     0.055 A 
ATOM     90  C   UNL A   1      47.555  34.378  29.867  1.00  0.00     0.041 A 
ATOM     91  F   UNL A   1      47.008  32.271  30.730  1.00  0.00    -0.206 F 
ATOM     92  C   UNL A   1      47.700  35.241  28.786  1.00  0.00     0.022 A 
BRANCH  89  93
ATOM     93  S   UNL A   1      47.671  35.853  26.067  1.00  0.00     0.124 S 
ATOM     94  O   UNL A   1      47.873  34.871  25.006  1.00  0.00    -0.237 OA
ATOM     95  O   UNL A   1      46.442  36.635  25.985  1.00  0.00    -0.237 OA
ATOM     96  O   UNL A   1      48.862  36.610  26.447  1.00  0.00    -0.744 OA
ENDBRANCH  89  93
ENDBRANCH  63  86
ENDBRANCH  37  38
ENDBRANCH  30  32
ENDBRANCH  29  30
ENDBRANCH  28  29
ENDBRANCH  27  28
ENDBRANCH  26  27
ENDBRANCH  25  26
ENDBRANCH   1  25
TORSDOF 24
ENDMDL
MODEL 2
REMARK VINA RESULT:      -9.9      1.339      7.787
REMARK SMILES O=C(C[C@H]1CN(C(=O)C[C@H]2CCS(=O)(=O)C2)CCO1)OCCOCCOCCOC(=O)c1ccc(-c2c3nc(c(-c4cc(S(=O)(=O)[O-])ccc4F)c4ccc([nH]4)c(-c4cc(S(=O)(=O)[O-])ccc4F)c4nc(c(-c5cc(S(=O)(=O)[O-])ccc5F)c5ccc2[nH]5)C=C4)C=C3)cc1
REMARK SMILES IDX 24 1 23 2 22 3 21 4 20 5 2 6 1 7 3 8 4 9 5 10 19 11 6 12
REMARK SMILES IDX 18 13 17 14 7 15 8 16 9 17 10 18 11 19 16 20 12 21 13 22
REMARK SMILES IDX 14 23 15 24 25 25 26 26 27 27 28 28 29 29 30 30 31 31 32 32
REMARK SMILES IDX 33 33 94 34 34 35 93 36 35 37 36 38 37 39 87 40 38 41 92 42
REMARK SMILES IDX 86 43 88 44 39 45 91 46 85 47 84 48 40 50 72 51 52 52 71 53
REMARK SMILES IDX 53 54 56 55 70 56 89 57 54 58 55 59 69 61 90 62 57 63 41 64
REMARK SMILES IDX 42 65 50 66 43 67 49 68 51 69 48 70 44 71 45 72 46 73 47 74
REMARK SMILES IDX 73 75 74 76 82 77 75 78 81 79 83 80 80 81 76 82 77 83 78 84
REMARK SMILES IDX 79 85 58 86 59 87 67 88 60 89 66 90 68 91 65 92 61 93 62 94
REMARK SMILES IDX 63 95 64 96
REMARK H PARENT 88 49 56 60
REMARK Flexibility Score: inf
ROOT
ATOM      1  C   UNL A   1      38.712  22.989  26.186  1.00  0.00     0.188 C 
ENDROOT
BRANCH   1   2
ATOM      2  O   UNL A   1      37.578  23.541  25.546  1.00  0.00    -0.376 OA
BRANCH   2   3
ATOM      3  C   UNL A   1      36.328  23.598  26.192  1.00  0.00     0.202 C 
BRANCH   3   4
ATOM      4  C   UNL A   1      35.227  24.227  25.340  1.00  0.00     0.261 C 
BRANCH   4   5
ATOM      5  O   UNL A   1      34.835  25.578  25.645  1.00  0.00    -0.463 OA
BRANCH   5   6
ATOM      6  C   UNL A   1      33.651  26.157  25.389  1.00  0.00     0.308 C 
ATOM      7  O   UNL A   1      33.342  27.197  25.967  1.00  0.00    -0.252 OA
BRANCH   6   8
ATOM      8  C   UNL A   1      32.662  25.462  24.502  1.00  0.00     0.156 C 
BRANCH   8   9
ATOM      9  C   UNL A   1      31.289  25.149  25.071  1.00  0.00     0.148 C 
ATOM     10  C   UNL A   1      30.719  23.949  24.313  1.00  0.00     0.152 C 
ATOM     11  O   UNL A   1      31.239  24.937  26.486  1.00  0.00    -0.374 OA
ATOM     12  N   UNL A   1      31.545  22.786  24.637  1.00  0.00    -0.338 N 
ATOM     13  C   UNL A   1      31.858  23.718  26.933  1.00  0.00     0.182 C 
ATOM     14  C   UNL A   1      31.557  22.484  26.068  1.00  0.00     0.148 C 
BRANCH  12  15
ATOM     15  C   UNL A   1      32.356  22.075  23.768  1.00  0.00     0.223 C 
ATOM     16  O   UNL A   1      32.338  22.277  22.553  1.00  0.00    -0.275 OA
BRANCH  15  17
ATOM     17  C   UNL A   1      33.323  21.034  24.333  1.00  0.00     0.105 C 
BRANCH  17  18
ATOM     18  C   UNL A   1      32.861  19.582  24.179  1.00  0.00     0.014 C 
ATOM     19  C   UNL A   1      32.449  19.204  22.747  1.00  0.00     0.021 C 
ATOM     20  C   UNL A   1      33.924  18.544  24.526  1.00  0.00     0.141 C 
ATOM     21  C   UNL A   1      32.193  17.690  22.751  1.00  0.00     0.137 C 
ATOM     22  S   UNL A   1      33.220  17.000  24.046  1.00  0.00     0.150 S 
ATOM     23  O   UNL A   1      32.379  16.595  25.166  1.00  0.00    -0.229 OA
ATOM     24  O   UNL A   1      34.307  16.203  23.543  1.00  0.00    -0.229 OA
ENDBRANCH  17  18
ENDBRANCH  15  17
ENDBRANCH  12  15
ENDBRANCH   8   9
ENDBRANCH   6   8
ENDBRANCH   5   6
ENDBRANCH   4   5
ENDBRANCH   3   4
ENDBRANCH   2   3
ENDBRANCH   1   2
BRANCH   1  25
ATOM     25  C   UNL A   1      39.017  21.548  25.752  1.00  0.00     0.188 C 
BRANCH  25  26
ATOM     26  O   UNL A   1      40.292  20.993  26.036  1.00  0.00    -0.376 OA
BRANCH  26  27
ATOM     27  C   UNL A   1      40.423  19.581  26.099  1.00  0.00     0.202 C 
BRANCH  27  28
ATOM     28  C   UNL A   1      41.833  18.966  26.079  1.00  0.00     0.261 C 
BRANCH  28  29
ATOM     29  O   UNL A   1      42.709  19.343  24.993  1.00  0.00    -0.460 OA
BRANCH  29  30
ATOM     30  C   UNL A   1      43.876  19.945  25.348  1.00  0.00     0.338 C 
ATOM     31  O   UNL A   1      44.985  19.439  25.339  1.00  0.00    -0.246 OA
BRANCH  30  32
ATOM     32  C   UNL A   1      43.658  21.378  25.663  1.00  0.00     0.060 A 
ATOM     33  C   UNL A   1      43.433  22.300  24.627  1.00  0.00     0.016 A 
ATOM     34  C   UNL A   1      43.801  21.829  26.974  1.00  0.00     0.016 A 
ATOM     35  C   UNL A   1      43.375  23.677  24.899  1.00  0.00     0.010 A 
ATOM     36  C   UNL A   1      43.767  23.203  27.240  1.00  0.00     0.010 A 
ATOM     37  C   UNL A   1      43.583  24.140  26.206  1.00  0.00    -0.014 A 
BRANCH  37  38
ATOM     38  C   UNL A   1      43.797  25.584  26.507  1.00  0.00     0.031 A 
ATOM     39  C   UNL A   1      45.171  26.161  26.301  1.00  0.00     0.074 A 
ATOM     40  C   UNL A   1      42.839  26.335  27.079  1.00  0.00     0.049 A 
ATOM     41  N   UNL A   1      45.661  27.310  26.691  1.00  0.00    -0.248 NA
ATOM     42  C   UNL A   1      46.130  25.295  25.604  1.00  0.00     0.031 C 
ATOM     43  C   UNL A   1      41.484  25.877  27.364  1.00  0.00     0.029 A 
ATOM     44  N   UNL A   1      42.871  27.622  27.564  1.00  0.00    -0.354 N 
ATOM     45  C   UNL A   1      47.009  27.280  26.345  1.00  0.00     0.074 A 
ATOM     46  C   UNL A   1      47.247  25.996  25.715  1.00  0.00     0.031 C 
ATOM     47  C   UNL A   1      40.819  26.860  27.994  1.00  0.00     0.029 A 
ATOM     48  C   UNL A   1      41.702  28.014  28.178  1.00  0.00     0.049 A 
ATOM     49  H   UNL A   1      43.657  28.208  27.480  1.00  0.00     0.167 HD
ATOM     50  C   UNL A   1      47.962  28.224  26.554  1.00  0.00     0.034 A 
ATOM     51  C   UNL A   1      41.390  29.158  28.831  1.00  0.00     0.034 A 
ATOM     52  C   UNL A   1      47.711  29.490  27.201  1.00  0.00     0.049 A 
ATOM     53  C   UNL A   1      42.456  30.219  29.014  1.00  0.00     0.074 A 
ATOM     54  C   UNL A   1      48.595  30.528  27.435  1.00  0.00     0.029 A 
ATOM     55  N   UNL A   1      46.491  29.883  27.738  1.00  0.00    -0.354 N 
ATOM     56  N   UNL A   1      43.716  30.194  28.648  1.00  0.00    -0.248 NA
ATOM     57  C   UNL A   1      42.061  31.451  29.714  1.00  0.00     0.031 C 
ATOM     58  C   UNL A   1      47.938  31.504  28.192  1.00  0.00     0.029 A 
ATOM     59  C   UNL A   1      46.612  31.129  28.337  1.00  0.00     0.049 A 
ATOM     60  H   UNL A   1      45.661  29.355  27.700  1.00  0.00     0.167 HD
ATOM     61  C   UNL A   1      44.259  31.409  29.067  1.00  0.00     0.074 A 
ATOM     62  C   UNL A   1      43.183  32.155  29.682  1.00  0.00     0.031 C 
ATOM     63  C   UNL A   1      45.536  31.862  28.962  1.00  0.00     0.034 A 
BRANCH  50  64
ATOM     64  C   UNL A   1      49.379  27.872  26.159  1.00  0.00     0.023 A 
ATOM     65  C   UNL A   1      49.946  28.312  24.951  1.00  0.00     0.031 A 
ATOM     66  C   UNL A   1      50.149  27.016  26.969  1.00  0.00     0.131 A 
ATOM     67  C   UNL A   1      51.184  27.802  24.533  1.00  0.00     0.055 A 
ATOM     68  C   UNL A   1      51.430  26.601  26.598  1.00  0.00     0.041 A 
ATOM     69  F   UNL A   1      49.659  26.542  28.125  1.00  0.00    -0.206 F 
ATOM     70  C   UNL A   1      51.943  26.973  25.360  1.00  0.00     0.022 A 
BRANCH  67  71
ATOM     71  S   UNL A   1      51.679  28.065  22.807  1.00  0.00     0.124 S 
ATOM     72  O   UNL A   1      53.104  28.349  22.951  1.00  0.00    -0.237 OA
ATOM     73  O   UNL A   1      51.339  26.790  22.186  1.00  0.00    -0.237 OA
ATOM     74  O   UNL A   1      50.864  29.203  22.387  1.00  0.00    -0.744 OA
ENDBRANCH  67  71
ENDBRANCH  50  64
BRANCH  51  75
ATOM     75  C   UNL A   1      40.010  29.380  29.360  1.00  0.00     0.023 A 
ATOM     76  C   UNL A   1      39.758  29.318  30.741  1.00  0.00     0.031 A 
ATOM     77  C   UNL A   1      38.927  29.679  28.515  1.00  0.00     0.131 A 
ATOM     78  C   UNL A   1      38.465  29.550  31.236  1.00  0.00     0.055 A 
ATOM     79  C   UNL A   1      37.656  29.969  29.017  1.00  0.00     0.041 A 
ATOM     80  F   UNL A   1      39.101  29.740  27.186  1.00  0.00    -0.206 F 
ATOM     81  C   UNL A   1      37.418  29.904  30.388  1.00  0.00     0.022 A 
BRANCH  78  82
ATOM     82  S   UNL A   1      38.187  29.370  33.017  1.00  0.00     0.124 S 
ATOM     83  O   UNL A   1      39.550  29.203  33.509  1.00  0.00    -0.237 OA
ATOM     84  O   UNL A   1      37.546  30.642  33.336  1.00  0.00    -0.237 OA
ATOM     85  O   UNL A   1      37.337  28.187  33.114  1.00  0.00    -0.744 OA
ENDBRANCH  78  82
ENDBRANCH  51  75
BRANCH  63  86
ATOM     86  C   UNL A   1      45.836  33.248  29.489  1.00  0.00     0.023 A 
ATOM     87  C   UNL A   1      45.699  34.399  28.692  1.00  0.00     0.031 A 
ATOM     88  C   UNL A   1      46.238  33.418  30.827  1.00  0.00     0.131 A 
ATOM     89  C   UNL A   1      45.997  35.662  29.229  1.00  0.00     0.055 A 
ATOM     90  C   UNL A   1      46.472  34.681  31.372  1.00  0.00     0.041 A 
ATOM     91  F   UNL A   1      46.393  32.356  31.633  1.00  0.00    -0.206 F 
ATOM     92  C   UNL A   1      46.361  35.812  30.570  1.00  0.00     0.022 A 
BRANCH  89  93
ATOM     93  S   UNL A   1      45.979  37.109  28.133  1.00  0.00     0.124 S 
ATOM     94  O   UNL A   1      47.128  37.868  28.617  1.00  0.00    -0.237 OA
ATOM     95  O   UNL A   1      46.125  36.504  26.813  1.00  0.00    -0.237 OA
ATOM     96  O   UNL A   1      44.678  37.721  28.393  1.00  0.00    -0.744 OA
ENDBRANCH  89  93
ENDBRANCH  63  86
ENDBRANCH  37  38
ENDBRANCH  30  32
ENDBRANCH  29  30
ENDBRANCH  28  29
ENDBRANCH  27  28
ENDBRANCH  26  27
ENDBRANCH  25  26
ENDBRANCH   1  25
TORSDOF 24
ENDMDL
MODEL 3
REMARK VINA RESULT:      -9.4      2.690      7.962
REMARK SMILES O=C(C[C@H]1CN(C(=O)C[C@H]2CCS(=O)(=O)C2)CCO1)OCCOCCOCCOC(=O)c1ccc(-c2c3nc(c(-c4cc(S(=O)(=O)[O-])ccc4F)c4ccc([nH]4)c(-c4cc(S(=O)(=O)[O-])ccc4F)c4nc(c(-c5cc(S(=O)(=O)[O-])ccc5F)c5ccc2[nH]5)C=C4)C=C3)cc1
REMARK SMILES IDX 24 1 23 2 22 3 21 4 20 5 2 6 1 7 3 8 4 9 5 10 19 11 6 12
REMARK SMILES IDX 18 13 17 14 7 15 8 16 9 17 10 18 11 19 16 20 12 21 13 22
REMARK SMILES IDX 14 23 15 24 25 25 26 26 27 27 28 28 29 29 30 30 31 31 32 32
REMARK SMILES IDX 33 33 94 34 34 35 93 36 35 37 36 38 37 39 87 40 38 41 92 42
REMARK SMILES IDX 86 43 88 44 39 45 91 46 85 47 84 48 40 50 72 51 52 52 71 53
REMARK SMILES IDX 53 54 56 55 70 56 89 57 54 58 55 59 69 61 90 62 57 63 41 64
REMARK SMILES IDX 42 65 50 66 43 67 49 68 51 69 48 70 44 71 45 72 46 73 47 74
REMARK SMILES IDX 73 75 74 76 82 77 75 78 81 79 83 80 80 81 76 82 77 83 78 84
REMARK SMILES IDX 79 85 58 86 59 87 67 88 60 89 66 90 68 91 65 92 61 93 62 94
REMARK SMILES IDX 63 95 64 96
REMARK H PARENT 88 49 56 60
REMARK Flexibility Score: inf
ROOT
ATOM      1  C   UNL A   1      38.700  23.217  26.324  1.00  0.00     0.188 C 
ENDROOT
BRANCH   1   2
ATOM      2  O   UNL A   1      37.727  23.701  25.420  1.00  0.00    -0.376 OA
BRANCH   2   3
ATOM      3  C   UNL A   1      36.386  23.273  25.487  1.00  0.00     0.202 C 
BRANCH   3   4
ATOM      4  C   UNL A   1      35.375  24.418  25.445  1.00  0.00     0.261 C 
BRANCH   4   5
ATOM      5  O   UNL A   1      34.948  24.885  24.153  1.00  0.00    -0.463 OA
BRANCH   5   6
ATOM      6  C   UNL A   1      33.869  25.635  23.878  1.00  0.00     0.308 C 
ATOM      7  O   UNL A   1      33.841  26.815  24.221  1.00  0.00    -0.252 OA
BRANCH   6   8
ATOM      8  C   UNL A   1      32.655  24.995  23.273  1.00  0.00     0.156 C 
BRANCH   8   9
ATOM      9  C   UNL A   1      31.368  25.001  24.079  1.00  0.00     0.148 C 
ATOM     10  C   UNL A   1      30.800  23.580  24.086  1.00  0.00     0.152 C 
ATOM     11  O   UNL A   1      31.473  25.522  25.408  1.00  0.00    -0.374 OA
ATOM     12  N   UNL A   1      31.725  22.737  24.843  1.00  0.00    -0.338 N 
ATOM     13  C   UNL A   1      32.207  24.690  26.323  1.00  0.00     0.182 C 
ATOM     14  C   UNL A   1      31.899  23.189  26.224  1.00  0.00     0.148 C 
BRANCH  12  15
ATOM     15  C   UNL A   1      32.488  21.691  24.351  1.00  0.00     0.223 C 
ATOM     16  O   UNL A   1      33.459  21.885  23.619  1.00  0.00    -0.275 OA
BRANCH  15  17
ATOM     17  C   UNL A   1      32.136  20.257  24.753  1.00  0.00     0.105 C 
BRANCH  17  18
ATOM     18  C   UNL A   1      33.103  19.192  24.230  1.00  0.00     0.014 C 
ATOM     19  C   UNL A   1      34.428  19.111  25.007  1.00  0.00     0.021 C 
ATOM     20  C   UNL A   1      32.565  17.766  24.301  1.00  0.00     0.141 C 
ATOM     21  C   UNL A   1      35.180  17.888  24.462  1.00  0.00     0.137 C 
ATOM     22  S   UNL A   1      33.936  16.745  23.867  1.00  0.00     0.150 S 
ATOM     23  O   UNL A   1      33.956  16.724  22.410  1.00  0.00    -0.229 OA
ATOM     24  O   UNL A   1      33.824  15.559  24.674  1.00  0.00    -0.229 OA
ENDBRANCH  17  18
ENDBRANCH  15  17
ENDBRANCH  12  15
ENDBRANCH   8   9
ENDBRANCH   6   8
ENDBRANCH   5   6
ENDBRANCH   4   5
ENDBRANCH   3   4
ENDBRANCH   2   3
ENDBRANCH   1   2
BRANCH   1  25
ATOM     25  C   UNL A   1      39.069  21.744  26.091  1.00  0.00     0.188 C 
BRANCH  25  26
ATOM     26  O   UNL A   1      40.434  21.355  26.147  1.00  0.00    -0.376 OA
BRANCH  26  27
ATOM     27  C   UNL A   1      40.748  20.026  26.535  1.00  0.00     0.202 C 
BRANCH  27  28
ATOM     28  C   UNL A   1      42.076  19.410  26.061  1.00  0.00     0.261 C 
BRANCH  28  29
ATOM     29  O   UNL A   1      42.802  20.109  25.026  1.00  0.00    -0.460 OA
BRANCH  29  30
ATOM     30  C   UNL A   1      43.927  20.763  25.422  1.00  0.00     0.338 C 
ATOM     31  O   UNL A   1      45.072  20.352  25.342  1.00  0.00    -0.246 OA
BRANCH  30  32
ATOM     32  C   UNL A   1      43.605  22.134  25.890  1.00  0.00     0.060 A 
ATOM     33  C   UNL A   1      43.220  23.120  24.967  1.00  0.00     0.016 A 
ATOM     34  C   UNL A   1      43.806  22.474  27.227  1.00  0.00     0.016 A 
ATOM     35  C   UNL A   1      43.059  24.454  25.377  1.00  0.00     0.010 A 
ATOM     36  C   UNL A   1      43.668  23.808  27.628  1.00  0.00     0.010 A 
ATOM     37  C   UNL A   1      43.322  24.814  26.705  1.00  0.00    -0.014 A 
BRANCH  37  38
ATOM     38  C   UNL A   1      43.428  26.238  27.131  1.00  0.00     0.031 A 
ATOM     39  C   UNL A   1      44.784  26.890  27.120  1.00  0.00     0.074 A 
ATOM     40  C   UNL A   1      42.376  26.900  27.648  1.00  0.00     0.049 A 
ATOM     41  N   UNL A   1      45.169  28.026  27.643  1.00  0.00    -0.248 NA
ATOM     42  C   UNL A   1      45.855  26.123  26.472  1.00  0.00     0.031 C 
ATOM     43  C   UNL A   1      41.025  26.362  27.749  1.00  0.00     0.029 A 
ATOM     44  N   UNL A   1      42.289  28.146  28.225  1.00  0.00    -0.354 N 
ATOM     45  C   UNL A   1      46.546  28.082  27.446  1.00  0.00     0.074 A 
ATOM     46  C   UNL A   1      46.916  26.863  26.756  1.00  0.00     0.031 C 
ATOM     47  C   UNL A   1      40.246  27.263  28.371  1.00  0.00     0.029 A 
ATOM     48  C   UNL A   1      41.043  28.437  28.734  1.00  0.00     0.049 A 
ATOM     49  H   UNL A   1      43.048  28.771  28.270  1.00  0.00     0.167 HD
ATOM     50  C   UNL A   1      47.421  29.048  27.826  1.00  0.00     0.034 A 
ATOM     51  C   UNL A   1      40.604  29.512  29.429  1.00  0.00     0.034 A 
ATOM     52  C   UNL A   1      47.036  30.248  28.531  1.00  0.00     0.049 A 
ATOM     53  C   UNL A   1      41.587  30.601  29.804  1.00  0.00     0.074 A 
ATOM     54  C   UNL A   1      47.835  31.303  28.936  1.00  0.00     0.029 A 
ATOM     55  N   UNL A   1      45.748  30.544  28.958  1.00  0.00    -0.354 N 
ATOM     56  N   UNL A   1      42.879  30.661  29.578  1.00  0.00    -0.248 NA
ATOM     57  C   UNL A   1      41.056  31.758  30.543  1.00  0.00     0.031 C 
ATOM     58  C   UNL A   1      47.052  32.187  29.684  1.00  0.00     0.029 A 
ATOM     59  C   UNL A   1      45.739  31.744  29.655  1.00  0.00     0.049 A 
ATOM     60  H   UNL A   1      44.955  29.984  28.791  1.00  0.00     0.167 HD
ATOM     61  C   UNL A   1      43.310  31.862  30.141  1.00  0.00     0.074 A 
ATOM     62  C   UNL A   1      42.137  32.511  30.686  1.00  0.00     0.031 C 
ATOM     63  C   UNL A   1      44.565  32.378  30.209  1.00  0.00     0.034 A 
BRANCH  50  64
ATOM     64  C   UNL A   1      48.888  28.790  27.565  1.00  0.00     0.023 A 
ATOM     65  C   UNL A   1      49.438  28.865  26.274  1.00  0.00     0.031 A 
ATOM     66  C   UNL A   1      49.734  28.386  28.614  1.00  0.00     0.131 A 
ATOM     67  C   UNL A   1      50.751  28.428  26.048  1.00  0.00     0.055 A 
ATOM     68  C   UNL A   1      51.075  28.059  28.399  1.00  0.00     0.041 A 
ATOM     69  F   UNL A   1      49.267  28.273  29.868  1.00  0.00    -0.206 F 
ATOM     70  C   UNL A   1      51.583  28.053  27.104  1.00  0.00     0.022 A 
BRANCH  67  71
ATOM     71  S   UNL A   1      51.277  28.149  24.333  1.00  0.00     0.124 S 
ATOM     72  O   UNL A   1      52.169  29.284  24.112  1.00  0.00    -0.237 OA
ATOM     73  O   UNL A   1      51.914  26.840  24.409  1.00  0.00    -0.237 OA
ATOM     74  O   UNL A   1      50.025  28.194  23.581  1.00  0.00    -0.744 OA
ENDBRANCH  67  71
ENDBRANCH  50  64
BRANCH  51  75
ATOM     75  C   UNL A   1      39.165  29.631  29.817  1.00  0.00     0.023 A 
ATOM     76  C   UNL A   1      38.292  30.440  29.071  1.00  0.00     0.031 A 
ATOM     77  C   UNL A   1      38.628  28.933  30.912  1.00  0.00     0.131 A 
ATOM     78  C   UNL A   1      36.936  30.531  29.424  1.00  0.00     0.055 A 
ATOM     79  C   UNL A   1      37.267  28.978  31.222  1.00  0.00     0.041 A 
ATOM     80  F   UNL A   1      39.415  28.154  31.671  1.00  0.00    -0.206 F 
ATOM     81  C   UNL A   1      36.410  29.783  30.475  1.00  0.00     0.022 A 
BRANCH  78  82
ATOM     82  S   UNL A   1      35.879  31.656  28.475  1.00  0.00     0.124 S 
ATOM     83  O   UNL A   1      34.880  32.026  29.473  1.00  0.00    -0.237 OA
ATOM     84  O   UNL A   1      36.830  32.701  28.109  1.00  0.00    -0.237 OA
ATOM     85  O   UNL A   1      35.391  30.826  27.379  1.00  0.00    -0.744 OA
ENDBRANCH  78  82
ENDBRANCH  51  75
BRANCH  63  86
ATOM     86  C   UNL A   1      44.735  33.731  30.865  1.00  0.00     0.023 A 
ATOM     87  C   UNL A   1      45.034  33.870  32.233  1.00  0.00     0.031 A 
ATOM     88  C   UNL A   1      44.626  34.903  30.094  1.00  0.00     0.131 A 
ATOM     89  C   UNL A   1      45.176  35.150  32.792  1.00  0.00     0.055 A 
ATOM     90  C   UNL A   1      44.830  36.170  30.643  1.00  0.00     0.041 A 
ATOM     91  F   UNL A   1      44.335  34.834  28.785  1.00  0.00    -0.206 F 
ATOM     92  C   UNL A   1      45.097  36.299  32.002  1.00  0.00     0.022 A 
BRANCH  89  93
ATOM     93  S   UNL A   1      45.388  35.304  34.588  1.00  0.00     0.124 S 
ATOM     94  O   UNL A   1      45.534  36.747  34.752  1.00  0.00    -0.237 OA
ATOM     95  O   UNL A   1      44.150  34.727  35.101  1.00  0.00    -0.237 OA
ATOM     96  O   UNL A   1      46.594  34.525  34.861  1.00  0.00    -0.744 OA
ENDBRANCH  89  93
ENDBRANCH  63  86
ENDBRANCH  37  38
ENDBRANCH  30  32
ENDBRANCH  29  30
ENDBRANCH  28  29
ENDBRANCH  27  28
ENDBRANCH  26  27
ENDBRANCH  25  26
ENDBRANCH   1  25
TORSDOF 24
ENDMDL
