MODEL 1
REMARK VINA RESULT:      -8.6      0.000      0.000
REMARK SMILES O=C(OCCOCCOCCOC(=O)c1cc(NC(=S)NC(=O)c2ccccc2F)ccc1Cl)c1ccc(-c2c3nc(c(-c4cc(S(=O)(=O)[O-])ccc4F)c4ccc([nH]4)c(-c4cc(S(=O)(=O)[O-])ccc4F)c4nc(c(-c5cc(S(=O)(=O)[O-])ccc5F)c5ccc2[nH]5)C=C4)C=C3)cc1
REMARK SMILES IDX 8 1 7 2 6 3 5 4 4 5 3 6 2 7 1 8 35 9 36 10 97 11 37 12 96 13
REMARK SMILES IDX 38 14 39 15 40 16 90 17 41 18 95 19 89 20 91 21 42 22 94 23
REMARK SMILES IDX 88 24 87 25 43 27 75 28 55 29 74 30 56 31 59 32 73 33 92 34
REMARK SMILES IDX 57 35 58 36 72 38 93 39 60 40 44 41 45 42 53 43 46 44 52 45
REMARK SMILES IDX 54 46 51 47 47 48 48 49 49 50 50 51 76 52 77 53 85 54 78 55
REMARK SMILES IDX 84 56 86 57 83 58 79 59 80 60 81 61 82 62 61 63 62 64 70 65
REMARK SMILES IDX 63 66 69 67 71 68 68 69 64 70 65 71 66 72 67 73 9 74 10 75
REMARK SMILES IDX 11 76 12 77 13 78 14 79 15 80 16 81 33 82 17 83 32 84 34 85
REMARK SMILES IDX 31 86 18 87 19 89 20 90 21 91 22 92 23 94 24 95 25 96 29 97
REMARK SMILES IDX 26 98 28 99 30 100 27 101
REMARK H PARENT 91 26 59 37 18 88 21 93
REMARK Flexibility Score: inf
ROOT
ATOM      1  C   UNL A   1      42.701  20.760  26.136  1.00  0.00     0.188 C 
ENDROOT
BRANCH   1   2
ATOM      2  C   UNL A   1      43.384  22.031  25.621  1.00  0.00     0.188 C 
BRANCH   2   3
ATOM      3  O   UNL A   1      44.339  21.810  24.590  1.00  0.00    -0.376 OA
BRANCH   3   4
ATOM      4  C   UNL A   1      45.021  22.929  24.024  1.00  0.00     0.202 C 
BRANCH   4   5
ATOM      5  C   UNL A   1      45.010  24.277  24.768  1.00  0.00     0.261 C 
BRANCH   5   6
ATOM      6  O   UNL A   1      46.216  25.072  24.739  1.00  0.00    -0.460 OA
BRANCH   6   7
ATOM      7  C   UNL A   1      46.450  26.392  24.911  1.00  0.00     0.338 C 
ATOM      8  O   UNL A   1      47.163  26.977  24.097  1.00  0.00    -0.246 OA
BRANCH   7   9
ATOM      9  C   UNL A   1      45.930  27.164  26.071  1.00  0.00     0.060 A 
ATOM     10  C   UNL A   1      46.730  27.591  27.123  1.00  0.00     0.016 A 
ATOM     11  C   UNL A   1      44.633  27.692  26.002  1.00  0.00     0.016 A 
ATOM     12  C   UNL A   1      46.267  28.350  28.171  1.00  0.00     0.010 A 
ATOM     13  C   UNL A   1      44.182  28.583  26.987  1.00  0.00     0.010 A 
ATOM     14  C   UNL A   1      44.982  28.846  28.116  1.00  0.00    -0.014 A 
BRANCH  14  15
ATOM     15  C   UNL A   1      44.431  29.371  29.374  1.00  0.00     0.031 A 
ATOM     16  C   UNL A   1      44.090  30.827  29.346  1.00  0.00     0.074 A 
ATOM     17  C   UNL A   1      44.064  28.572  30.398  1.00  0.00     0.049 A 
ATOM     18  N   UNL A   1      43.612  31.573  30.296  1.00  0.00    -0.248 NA
ATOM     19  C   UNL A   1      44.266  31.533  28.058  1.00  0.00     0.031 C 
ATOM     20  C   UNL A   1      44.086  27.107  30.394  1.00  0.00     0.029 A 
ATOM     21  N   UNL A   1      43.580  28.863  31.642  1.00  0.00    -0.354 N 
ATOM     22  C   UNL A   1      43.427  32.817  29.714  1.00  0.00     0.074 A 
ATOM     23  C   UNL A   1      43.917  32.767  28.363  1.00  0.00     0.031 C 
ATOM     24  C   UNL A   1      43.772  26.632  31.606  1.00  0.00     0.029 A 
ATOM     25  C   UNL A   1      43.444  27.759  32.458  1.00  0.00     0.049 A 
ATOM     26  H   UNL A   1      43.349  29.776  31.930  1.00  0.00     0.167 HD
ATOM     27  C   UNL A   1      42.835  33.896  30.258  1.00  0.00     0.034 A 
ATOM     28  C   UNL A   1      43.071  27.668  33.746  1.00  0.00     0.034 A 
ATOM     29  C   UNL A   1      42.319  33.893  31.591  1.00  0.00     0.049 A 
ATOM     30  C   UNL A   1      42.602  28.935  34.396  1.00  0.00     0.074 A 
ATOM     31  C   UNL A   1      41.751  34.938  32.285  1.00  0.00     0.029 A 
ATOM     32  N   UNL A   1      42.315  32.785  32.429  1.00  0.00    -0.354 N 
ATOM     33  N   UNL A   1      42.490  30.127  33.856  1.00  0.00    -0.248 NA
ATOM     34  C   UNL A   1      42.181  28.857  35.796  1.00  0.00     0.031 C 
ATOM     35  C   UNL A   1      41.485  34.487  33.576  1.00  0.00     0.029 A 
ATOM     36  C   UNL A   1      41.801  33.136  33.658  1.00  0.00     0.049 A 
ATOM     37  H   UNL A   1      42.630  31.886  32.181  1.00  0.00     0.167 HD
ATOM     38  C   UNL A   1      41.954  30.940  34.842  1.00  0.00     0.074 A 
ATOM     39  C   UNL A   1      41.764  30.098  36.010  1.00  0.00     0.031 C 
ATOM     40  C   UNL A   1      41.641  32.257  34.789  1.00  0.00     0.034 A 
BRANCH  27  41
ATOM     41  C   UNL A   1      42.780  35.142  29.433  1.00  0.00     0.023 A 
ATOM     42  C   UNL A   1      43.863  36.032  29.361  1.00  0.00     0.031 A 
ATOM     43  C   UNL A   1      41.609  35.446  28.722  1.00  0.00     0.131 A 
ATOM     44  C   UNL A   1      43.746  37.201  28.599  1.00  0.00     0.055 A 
ATOM     45  C   UNL A   1      41.521  36.580  27.917  1.00  0.00     0.041 A 
ATOM     46  F   UNL A   1      40.534  34.647  28.805  1.00  0.00    -0.206 F 
ATOM     47  C   UNL A   1      42.593  37.466  27.853  1.00  0.00     0.022 A 
BRANCH  44  48
ATOM     48  S   UNL A   1      45.100  38.406  28.640  1.00  0.00     0.124 S 
ATOM     49  O   UNL A   1      46.135  37.714  27.876  1.00  0.00    -0.237 OA
ATOM     50  O   UNL A   1      44.506  39.571  27.994  1.00  0.00    -0.237 OA
ATOM     51  O   UNL A   1      45.378  38.559  30.066  1.00  0.00    -0.744 OA
ENDBRANCH  44  48
ENDBRANCH  27  41
BRANCH  28  52
ATOM     52  C   UNL A   1      43.116  26.363  34.463  1.00  0.00     0.023 A 
ATOM     53  C   UNL A   1      44.332  25.747  34.790  1.00  0.00     0.031 A 
ATOM     54  C   UNL A   1      41.925  25.707  34.834  1.00  0.00     0.131 A 
ATOM     55  C   UNL A   1      44.333  24.498  35.435  1.00  0.00     0.055 A 
ATOM     56  C   UNL A   1      41.931  24.482  35.503  1.00  0.00     0.041 A 
ATOM     57  F   UNL A   1      40.731  26.262  34.565  1.00  0.00    -0.206 F 
ATOM     58  C   UNL A   1      43.142  23.865  35.799  1.00  0.00     0.022 A 
BRANCH  55  59
ATOM     59  S   UNL A   1      45.922  23.684  35.752  1.00  0.00     0.124 S 
ATOM     60  O   UNL A   1      46.514  24.570  36.748  1.00  0.00    -0.237 OA
ATOM     61  O   UNL A   1      45.499  22.372  36.229  1.00  0.00    -0.237 OA
ATOM     62  O   UNL A   1      46.574  23.689  34.444  1.00  0.00    -0.744 OA
ENDBRANCH  55  59
ENDBRANCH  28  52
BRANCH  40  63
ATOM     63  C   UNL A   1      41.070  32.874  36.027  1.00  0.00     0.023 A 
ATOM     64  C   UNL A   1      39.750  32.607  36.409  1.00  0.00     0.031 A 
ATOM     65  C   UNL A   1      41.893  33.616  36.890  1.00  0.00     0.131 A 
ATOM     66  C   UNL A   1      39.280  33.089  37.632  1.00  0.00     0.055 A 
ATOM     67  C   UNL A   1      41.436  34.045  38.133  1.00  0.00     0.041 A 
ATOM     68  F   UNL A   1      43.169  33.878  36.563  1.00  0.00    -0.206 F 
ATOM     69  C   UNL A   1      40.120  33.785  38.508  1.00  0.00     0.022 A 
BRANCH  66  70
ATOM     70  S   UNL A   1      37.545  32.802  38.055  1.00  0.00     0.124 S 
ATOM     71  O   UNL A   1      37.483  31.344  38.097  1.00  0.00    -0.237 OA
ATOM     72  O   UNL A   1      37.416  33.480  39.342  1.00  0.00    -0.237 OA
ATOM     73  O   UNL A   1      36.817  33.425  36.952  1.00  0.00    -0.744 OA
ENDBRANCH  66  70
ENDBRANCH  40  63
ENDBRANCH  14  15
ENDBRANCH   7   9
ENDBRANCH   6   7
ENDBRANCH   5   6
ENDBRANCH   4   5
ENDBRANCH   3   4
ENDBRANCH   2   3
ENDBRANCH   1   2
BRANCH   1  74
ATOM     74  O   UNL A   1      41.293  20.705  25.993  1.00  0.00    -0.376 OA
BRANCH  74  75
ATOM     75  C   UNL A   1      40.644  21.968  26.096  1.00  0.00     0.202 C 
BRANCH  75  76
ATOM     76  C   UNL A   1      40.185  22.526  27.483  1.00  0.00     0.261 C 
BRANCH  76  77
ATOM     77  O   UNL A   1      40.049  23.975  27.734  1.00  0.00    -0.460 OA
BRANCH  77  78
ATOM     78  C   UNL A   1      41.160  24.563  28.269  1.00  0.00     0.339 C 
ATOM     79  O   UNL A   1      42.096  23.901  28.718  1.00  0.00    -0.246 OA
BRANCH  78  80
ATOM     80  C   UNL A   1      41.257  26.138  28.404  1.00  0.00     0.080 A 
ATOM     81  C   UNL A   1      40.583  27.514  29.718  1.00  0.00     0.043 A 
ATOM     82  C   UNL A   1      41.156  26.673  26.665  1.00  0.00     0.055 A 
ATOM     83  C   UNL A   1      39.850  28.974  29.294  1.00  0.00     0.041 A 
ATOM     84  C   UNL A   1      40.449  28.280  26.312  1.00  0.00     0.023 A 
ATOM     85  Cl  UNL A   1      41.821  25.749  25.376  1.00  0.00    -0.083 Cl
ATOM     86  C   UNL A   1      39.807  29.374  27.596  1.00  0.00     0.028 A 
BRANCH  83  87
ATOM     87  N   UNL A   1      39.252  29.522  30.442  1.00  0.00    -0.332 N 
ATOM     88  H   UNL A   1      39.877  29.839  31.133  1.00  0.00     0.169 HD
BRANCH  87  89
ATOM     89  C   UNL A   1      37.901  29.680  30.743  1.00  0.00     0.177 C 
ATOM     90  S   UNL A   1      37.403  29.165  32.266  1.00  0.00    -0.040 S 
BRANCH  89  91
ATOM     91  N   UNL A   1      36.859  30.255  29.916  1.00  0.00    -0.299 N 
ATOM     92  C   UNL A   1      35.855  31.302  29.537  1.00  0.00     0.260 C 
ATOM     93  H   UNL A   1      36.749  29.582  29.206  1.00  0.00     0.172 HD
ATOM     94  O   UNL A   1      35.090  31.108  28.595  1.00  0.00    -0.269 OA
BRANCH  92  95
ATOM     95  C   UNL A   1      35.775  32.644  30.246  1.00  0.00     0.075 A 
ATOM     96  C   UNL A   1      35.118  32.320  31.834  1.00  0.00     0.017 A 
ATOM     97  C   UNL A   1      37.321  33.511  29.965  1.00  0.00     0.135 A 
ATOM     98  C   UNL A   1      36.170  32.645  33.235  1.00  0.00     0.001 A 
ATOM     99  C   UNL A   1      38.484  33.859  31.264  1.00  0.00     0.040 A 
ATOM    100  F   UNL A   1      37.924  33.097  28.843  1.00  0.00    -0.206 F 
ATOM    101  C   UNL A   1      38.023  33.399  32.940  1.00  0.00     0.003 A 
ENDBRANCH  92  95
ENDBRANCH  89  91
ENDBRANCH  87  89
ENDBRANCH  83  87
ENDBRANCH  78  80
ENDBRANCH  77  78
ENDBRANCH  76  77
ENDBRANCH  75  76
ENDBRANCH  74  75
ENDBRANCH   1  74
TORSDOF 24
ENDMDL
MODEL 2
REMARK VINA RESULT:      -7.5      5.913     12.938
REMARK SMILES O=C(OCCOCCOCCOC(=O)c1cc(NC(=S)NC(=O)c2ccccc2F)ccc1Cl)c1ccc(-c2c3nc(c(-c4cc(S(=O)(=O)[O-])ccc4F)c4ccc([nH]4)c(-c4cc(S(=O)(=O)[O-])ccc4F)c4nc(c(-c5cc(S(=O)(=O)[O-])ccc5F)c5ccc2[nH]5)C=C4)C=C3)cc1
REMARK SMILES IDX 8 1 7 2 6 3 5 4 4 5 3 6 2 7 1 8 35 9 36 10 97 11 37 12 96 13
REMARK SMILES IDX 38 14 39 15 40 16 90 17 41 18 95 19 89 20 91 21 42 22 94 23
REMARK SMILES IDX 88 24 87 25 43 27 75 28 55 29 74 30 56 31 59 32 73 33 92 34
REMARK SMILES IDX 57 35 58 36 72 38 93 39 60 40 44 41 45 42 53 43 46 44 52 45
REMARK SMILES IDX 54 46 51 47 47 48 48 49 49 50 50 51 76 52 77 53 85 54 78 55
REMARK SMILES IDX 84 56 86 57 83 58 79 59 80 60 81 61 82 62 61 63 62 64 70 65
REMARK SMILES IDX 63 66 69 67 71 68 68 69 64 70 65 71 66 72 67 73 9 74 10 75
REMARK SMILES IDX 11 76 12 77 13 78 14 79 15 80 16 81 33 82 17 83 32 84 34 85
REMARK SMILES IDX 31 86 18 87 19 89 20 90 21 91 22 92 23 94 24 95 25 96 29 97
REMARK SMILES IDX 26 98 28 99 30 100 27 101
REMARK H PARENT 91 26 59 37 18 88 21 93
REMARK Flexibility Score: inf
ROOT
ATOM      1  C   UNL A   1      36.658  29.899  31.376  1.00  0.00     0.188 C 
ENDROOT
BRANCH   1   2
ATOM      2  C   UNL A   1      37.481  30.902  32.192  1.00  0.00     0.188 C 
BRANCH   2   3
ATOM      3  O   UNL A   1      36.723  31.668  33.120  1.00  0.00    -0.376 OA
BRANCH   3   4
ATOM      4  C   UNL A   1      37.373  32.209  34.270  1.00  0.00     0.202 C 
BRANCH   4   5
ATOM      5  C   UNL A   1      38.274  33.448  34.116  1.00  0.00     0.261 C 
BRANCH   5   6
ATOM      6  O   UNL A   1      37.914  34.423  33.113  1.00  0.00    -0.460 OA
BRANCH   6   7
ATOM      7  C   UNL A   1      38.069  34.461  31.770  1.00  0.00     0.338 C 
ATOM      8  O   UNL A   1      37.075  34.331  31.057  1.00  0.00    -0.246 OA
BRANCH   7   9
ATOM      9  C   UNL A   1      39.394  34.599  31.110  1.00  0.00     0.060 A 
ATOM     10  C   UNL A   1      40.586  34.210  31.706  1.00  0.00     0.016 A 
ATOM     11  C   UNL A   1      39.437  34.914  29.744  1.00  0.00     0.016 A 
ATOM     12  C   UNL A   1      41.808  34.286  31.081  1.00  0.00     0.010 A 
ATOM     13  C   UNL A   1      40.653  34.862  29.047  1.00  0.00     0.010 A 
ATOM     14  C   UNL A   1      41.852  34.623  29.745  1.00  0.00    -0.014 A 
BRANCH  14  15
ATOM     15  C   UNL A   1      43.170  34.997  29.210  1.00  0.00     0.031 A 
ATOM     16  C   UNL A   1      44.049  33.842  28.850  1.00  0.00     0.074 A 
ATOM     17  C   UNL A   1      43.484  36.265  28.871  1.00  0.00     0.049 A 
ATOM     18  N   UNL A   1      45.259  33.850  28.379  1.00  0.00    -0.248 NA
ATOM     19  C   UNL A   1      43.469  32.488  28.994  1.00  0.00     0.031 C 
ATOM     20  C   UNL A   1      42.577  37.415  28.913  1.00  0.00     0.029 A 
ATOM     21  N   UNL A   1      44.646  36.814  28.406  1.00  0.00    -0.354 N 
ATOM     22  C   UNL A   1      45.570  32.517  28.167  1.00  0.00     0.074 A 
ATOM     23  C   UNL A   1      44.473  31.713  28.634  1.00  0.00     0.031 C 
ATOM     24  C   UNL A   1      43.240  38.543  28.626  1.00  0.00     0.029 A 
ATOM     25  C   UNL A   1      44.608  38.188  28.299  1.00  0.00     0.049 A 
ATOM     26  H   UNL A   1      45.437  36.278  28.169  1.00  0.00     0.167 HD
ATOM     27  C   UNL A   1      46.668  32.016  27.572  1.00  0.00     0.034 A 
ATOM     28  C   UNL A   1      45.567  39.063  27.950  1.00  0.00     0.034 A 
ATOM     29  C   UNL A   1      47.718  32.851  27.080  1.00  0.00     0.049 A 
ATOM     30  C   UNL A   1      46.864  38.477  27.476  1.00  0.00     0.074 A 
ATOM     31  C   UNL A   1      48.912  32.470  26.510  1.00  0.00     0.029 A 
ATOM     32  N   UNL A   1      47.693  34.240  27.105  1.00  0.00    -0.354 N 
ATOM     33  N   UNL A   1      47.175  37.208  27.340  1.00  0.00    -0.248 NA
ATOM     34  C   UNL A   1      47.920  39.411  27.082  1.00  0.00     0.031 C 
ATOM     35  C   UNL A   1      49.651  33.626  26.273  1.00  0.00     0.029 A 
ATOM     36  C   UNL A   1      48.881  34.733  26.609  1.00  0.00     0.049 A 
ATOM     37  H   UNL A   1      46.942  34.788  27.427  1.00  0.00     0.167 HD
ATOM     38  C   UNL A   1      48.456  37.188  26.811  1.00  0.00     0.074 A 
ATOM     39  C   UNL A   1      48.856  38.575  26.653  1.00  0.00     0.031 C 
ATOM     40  C   UNL A   1      49.228  36.126  26.480  1.00  0.00     0.034 A 
BRANCH  27  41
ATOM     41  C   UNL A   1      46.787  30.528  27.486  1.00  0.00     0.023 A 
ATOM     42  C   UNL A   1      46.317  29.809  26.374  1.00  0.00     0.031 A 
ATOM     43  C   UNL A   1      47.369  29.821  28.548  1.00  0.00     0.131 A 
ATOM     44  C   UNL A   1      46.425  28.413  26.360  1.00  0.00     0.055 A 
ATOM     45  C   UNL A   1      47.528  28.438  28.501  1.00  0.00     0.041 A 
ATOM     46  F   UNL A   1      47.784  30.466  29.650  1.00  0.00    -0.206 F 
ATOM     47  C   UNL A   1      47.054  27.726  27.402  1.00  0.00     0.022 A 
BRANCH  44  48
ATOM     48  S   UNL A   1      45.679  27.497  24.985  1.00  0.00     0.124 S 
ATOM     49  O   UNL A   1      46.439  28.004  23.845  1.00  0.00    -0.237 OA
ATOM     50  O   UNL A   1      45.936  26.109  25.354  1.00  0.00    -0.237 OA
ATOM     51  O   UNL A   1      44.276  27.903  25.026  1.00  0.00    -0.744 OA
ENDBRANCH  44  48
ENDBRANCH  27  41
BRANCH  28  52
ATOM     52  C   UNL A   1      45.326  40.530  28.025  1.00  0.00     0.023 A 
ATOM     53  C   UNL A   1      45.301  41.209  29.252  1.00  0.00     0.031 A 
ATOM     54  C   UNL A   1      45.114  41.283  26.852  1.00  0.00     0.131 A 
ATOM     55  C   UNL A   1      45.034  42.589  29.283  1.00  0.00     0.055 A 
ATOM     56  C   UNL A   1      44.880  42.659  26.886  1.00  0.00     0.041 A 
ATOM     57  F   UNL A   1      45.148  40.689  25.648  1.00  0.00    -0.206 F 
ATOM     58  C   UNL A   1      44.830  43.319  28.110  1.00  0.00     0.022 A 
BRANCH  55  59
ATOM     59  S   UNL A   1      44.910  43.413  30.894  1.00  0.00     0.124 S 
ATOM     60  O   UNL A   1      46.288  43.351  31.365  1.00  0.00    -0.237 OA
ATOM     61  O   UNL A   1      44.417  44.734  30.518  1.00  0.00    -0.237 OA
ATOM     62  O   UNL A   1      43.960  42.582  31.630  1.00  0.00    -0.744 OA
ENDBRANCH  55  59
ENDBRANCH  28  52
BRANCH  40  63
ATOM     63  C   UNL A   1      50.587  36.417  25.924  1.00  0.00     0.023 A 
ATOM     64  C   UNL A   1      51.713  36.396  26.754  1.00  0.00     0.031 A 
ATOM     65  C   UNL A   1      50.763  36.578  24.539  1.00  0.00     0.131 A 
ATOM     66  C   UNL A   1      52.983  36.543  26.191  1.00  0.00     0.055 A 
ATOM     67  C   UNL A   1      52.033  36.667  23.978  1.00  0.00     0.041 A 
ATOM     68  F   UNL A   1      49.706  36.587  23.711  1.00  0.00    -0.206 F 
ATOM     69  C   UNL A   1      53.153  36.653  24.807  1.00  0.00     0.022 A 
BRANCH  66  70
ATOM     70  S   UNL A   1      54.410  36.601  27.301  1.00  0.00     0.124 S 
ATOM     71  O   UNL A   1      55.274  37.568  26.630  1.00  0.00    -0.237 OA
ATOM     72  O   UNL A   1      53.816  37.045  28.558  1.00  0.00    -0.237 OA
ATOM     73  O   UNL A   1      54.899  35.224  27.299  1.00  0.00    -0.744 OA
ENDBRANCH  66  70
ENDBRANCH  40  63
ENDBRANCH  14  15
ENDBRANCH   7   9
ENDBRANCH   6   7
ENDBRANCH   5   6
ENDBRANCH   4   5
ENDBRANCH   3   4
ENDBRANCH   2   3
ENDBRANCH   1   2
BRANCH   1  74
ATOM     74  O   UNL A   1      36.459  30.219  30.011  1.00  0.00    -0.376 OA
BRANCH  74  75
ATOM     75  C   UNL A   1      35.794  31.460  29.790  1.00  0.00     0.202 C 
BRANCH  75  76
ATOM     76  C   UNL A   1      36.003  32.259  28.461  1.00  0.00     0.261 C 
BRANCH  76  77
ATOM     77  O   UNL A   1      35.102  32.094  27.304  1.00  0.00    -0.460 OA
BRANCH  77  78
ATOM     78  C   UNL A   1      33.792  31.885  27.632  1.00  0.00     0.339 C 
ATOM     79  O   UNL A   1      33.117  32.746  28.197  1.00  0.00    -0.246 OA
BRANCH  78  80
ATOM     80  C   UNL A   1      33.103  30.485  27.363  1.00  0.00     0.080 A 
ATOM     81  C   UNL A   1      33.737  28.575  27.213  1.00  0.00     0.043 A 
ATOM     82  C   UNL A   1      31.811  30.925  26.155  1.00  0.00     0.055 A 
ATOM     83  C   UNL A   1      33.258  27.490  26.012  1.00  0.00     0.041 A 
ATOM     84  C   UNL A   1      31.295  29.683  24.974  1.00  0.00     0.023 A 
ATOM     85  Cl  UNL A   1      30.994  32.438  26.191  1.00  0.00    -0.083 Cl
ATOM     86  C   UNL A   1      32.017  28.029  24.909  1.00  0.00     0.028 A 
BRANCH  83  87
ATOM     87  N   UNL A   1      34.114  26.377  26.049  1.00  0.00    -0.332 N 
ATOM     88  H   UNL A   1      35.077  26.584  26.030  1.00  0.00     0.169 HD
BRANCH  87  89
ATOM     89  C   UNL A   1      33.799  25.022  26.107  1.00  0.00     0.177 C 
ATOM     90  S   UNL A   1      35.013  23.945  25.660  1.00  0.00    -0.040 S 
BRANCH  89  91
ATOM     91  N   UNL A   1      32.554  24.408  26.524  1.00  0.00    -0.299 N 
ATOM     92  C   UNL A   1      31.241  23.720  26.297  1.00  0.00     0.260 C 
ATOM     93  H   UNL A   1      32.593  24.483  27.505  1.00  0.00     0.172 HD
ATOM     94  O   UNL A   1      30.488  23.504  27.245  1.00  0.00    -0.269 OA
BRANCH  92  95
ATOM     95  C   UNL A   1      30.813  23.220  24.928  1.00  0.00     0.075 A 
ATOM     96  C   UNL A   1      30.660  24.638  23.915  1.00  0.00     0.017 A 
ATOM     97  C   UNL A   1      31.833  21.804  24.512  1.00  0.00     0.135 A 
ATOM     98  C   UNL A   1      31.776  24.778  22.532  1.00  0.00     0.001 A 
ATOM     99  C   UNL A   1      33.020  21.823  23.189  1.00  0.00     0.040 A 
ATOM    100  F   UNL A   1      32.306  21.196  25.608  1.00  0.00    -0.206 F 
ATOM    101  C   UNL A   1      33.113  23.304  22.175  1.00  0.00     0.003 A 
ENDBRANCH  92  95
ENDBRANCH  89  91
ENDBRANCH  87  89
ENDBRANCH  83  87
ENDBRANCH  78  80
ENDBRANCH  77  78
ENDBRANCH  76  77
ENDBRANCH  75  76
ENDBRANCH  74  75
ENDBRANCH   1  74
TORSDOF 24
ENDMDL
MODEL 3
REMARK VINA RESULT:      -6.9      8.582     16.213
REMARK SMILES O=C(OCCOCCOCCOC(=O)c1cc(NC(=S)NC(=O)c2ccccc2F)ccc1Cl)c1ccc(-c2c3nc(c(-c4cc(S(=O)(=O)[O-])ccc4F)c4ccc([nH]4)c(-c4cc(S(=O)(=O)[O-])ccc4F)c4nc(c(-c5cc(S(=O)(=O)[O-])ccc5F)c5ccc2[nH]5)C=C4)C=C3)cc1
REMARK SMILES IDX 8 1 7 2 6 3 5 4 4 5 3 6 2 7 1 8 35 9 36 10 97 11 37 12 96 13
REMARK SMILES IDX 38 14 39 15 40 16 90 17 41 18 95 19 89 20 91 21 42 22 94 23
REMARK SMILES IDX 88 24 87 25 43 27 75 28 55 29 74 30 56 31 59 32 73 33 92 34
REMARK SMILES IDX 57 35 58 36 72 38 93 39 60 40 44 41 45 42 53 43 46 44 52 45
REMARK SMILES IDX 54 46 51 47 47 48 48 49 49 50 50 51 76 52 77 53 85 54 78 55
REMARK SMILES IDX 84 56 86 57 83 58 79 59 80 60 81 61 82 62 61 63 62 64 70 65
REMARK SMILES IDX 63 66 69 67 71 68 68 69 64 70 65 71 66 72 67 73 9 74 10 75
REMARK SMILES IDX 11 76 12 77 13 78 14 79 15 80 16 81 33 82 17 83 32 84 34 85
REMARK SMILES IDX 31 86 18 87 19 89 20 90 21 91 22 92 23 94 24 95 25 96 29 97
REMARK SMILES IDX 26 98 28 99 30 100 27 101
REMARK H PARENT 91 26 59 37 18 88 21 93
REMARK Flexibility Score: inf
ROOT
ATOM      1  C   UNL A   1      45.239  40.018  26.270  1.00  0.00     0.188 C 
ENDROOT
BRANCH   1   2
ATOM      2  C   UNL A   1      45.482  41.206  27.207  1.00  0.00     0.188 C 
BRANCH   2   3
ATOM      3  O   UNL A   1      44.407  41.485  28.096  1.00  0.00    -0.376 OA
BRANCH   3   4
ATOM      4  C   UNL A   1      43.213  40.707  28.009  1.00  0.00     0.202 C 
BRANCH   4   5
ATOM      5  C   UNL A   1      42.940  39.622  29.066  1.00  0.00     0.261 C 
BRANCH   5   6
ATOM      6  O   UNL A   1      42.303  38.401  28.629  1.00  0.00    -0.460 OA
BRANCH   6   7
ATOM      7  C   UNL A   1      42.433  37.643  27.516  1.00  0.00     0.338 C 
ATOM      8  O   UNL A   1      41.690  37.863  26.561  1.00  0.00    -0.246 OA
BRANCH   7   9
ATOM      9  C   UNL A   1      43.399  36.518  27.410  1.00  0.00     0.060 A 
ATOM     10  C   UNL A   1      44.124  36.031  28.489  1.00  0.00     0.016 A 
ATOM     11  C   UNL A   1      43.419  35.756  26.233  1.00  0.00     0.016 A 
ATOM     12  C   UNL A   1      44.979  34.958  28.409  1.00  0.00     0.010 A 
ATOM     13  C   UNL A   1      44.175  34.576  26.170  1.00  0.00     0.010 A 
ATOM     14  C   UNL A   1      45.018  34.225  27.242  1.00  0.00    -0.014 A 
BRANCH  14  15
ATOM     15  C   UNL A   1      46.153  33.302  27.090  1.00  0.00     0.031 A 
ATOM     16  C   UNL A   1      45.823  31.862  27.324  1.00  0.00     0.074 A 
ATOM     17  C   UNL A   1      47.340  33.687  26.576  1.00  0.00     0.049 A 
ATOM     18  N   UNL A   1      46.605  30.826  27.284  1.00  0.00    -0.248 NA
ATOM     19  C   UNL A   1      44.405  31.535  27.595  1.00  0.00     0.031 C 
ATOM     20  C   UNL A   1      47.654  35.014  26.042  1.00  0.00     0.029 A 
ATOM     21  N   UNL A   1      48.510  33.004  26.394  1.00  0.00    -0.354 N 
ATOM     22  C   UNL A   1      45.775  29.741  27.513  1.00  0.00     0.074 A 
ATOM     23  C   UNL A   1      44.448  30.230  27.778  1.00  0.00     0.031 C 
ATOM     24  C   UNL A   1      48.952  35.094  25.723  1.00  0.00     0.029 A 
ATOM     25  C   UNL A   1      49.551  33.793  25.953  1.00  0.00     0.049 A 
ATOM     26  H   UNL A   1      48.601  32.038  26.563  1.00  0.00     0.167 HD
ATOM     27  C   UNL A   1      46.094  28.436  27.445  1.00  0.00     0.034 A 
ATOM     28  C   UNL A   1      50.842  33.489  25.733  1.00  0.00     0.034 A 
ATOM     29  C   UNL A   1      47.415  27.988  27.133  1.00  0.00     0.049 A 
ATOM     30  C   UNL A   1      51.219  32.043  25.862  1.00  0.00     0.074 A 
ATOM     31  C   UNL A   1      47.887  26.696  27.092  1.00  0.00     0.029 A 
ATOM     32  N   UNL A   1      48.473  28.829  26.813  1.00  0.00    -0.354 N 
ATOM     33  N   UNL A   1      50.437  31.027  26.144  1.00  0.00    -0.248 NA
ATOM     34  C   UNL A   1      52.619  31.689  25.617  1.00  0.00     0.031 C 
ATOM     35  C   UNL A   1      49.255  26.758  26.835  1.00  0.00     0.029 A 
ATOM     36  C   UNL A   1      49.617  28.083  26.625  1.00  0.00     0.049 A 
ATOM     37  H   UNL A   1      48.415  29.809  26.732  1.00  0.00     0.167 HD
ATOM     38  C   UNL A   1      51.243  29.902  26.080  1.00  0.00     0.074 A 
ATOM     39  C   UNL A   1      52.573  30.368  25.730  1.00  0.00     0.031 C 
ATOM     40  C   UNL A   1      50.917  28.603  26.284  1.00  0.00     0.034 A 
BRANCH  27  41
ATOM     41  C   UNL A   1      45.020  27.445  27.764  1.00  0.00     0.023 A 
ATOM     42  C   UNL A   1      44.204  26.890  26.766  1.00  0.00     0.031 A 
ATOM     43  C   UNL A   1      44.804  27.069  29.098  1.00  0.00     0.131 A 
ATOM     44  C   UNL A   1      43.191  25.991  27.123  1.00  0.00     0.055 A 
ATOM     45  C   UNL A   1      43.835  26.129  29.441  1.00  0.00     0.041 A 
ATOM     46  F   UNL A   1      45.529  27.616  30.086  1.00  0.00    -0.206 F 
ATOM     47  C   UNL A   1      43.021  25.585  28.451  1.00  0.00     0.022 A 
BRANCH  44  48
ATOM     48  S   UNL A   1      42.056  25.402  25.839  1.00  0.00     0.124 S 
ATOM     49  O   UNL A   1      42.819  24.304  25.252  1.00  0.00    -0.237 OA
ATOM     50  O   UNL A   1      40.879  25.017  26.609  1.00  0.00    -0.237 OA
ATOM     51  O   UNL A   1      41.881  26.568  24.976  1.00  0.00    -0.744 OA
ENDBRANCH  44  48
ENDBRANCH  27  41
BRANCH  28  52
ATOM     52  C   UNL A   1      51.824  34.549  25.369  1.00  0.00     0.023 A 
ATOM     53  C   UNL A   1      52.259  35.498  26.304  1.00  0.00     0.031 A 
ATOM     54  C   UNL A   1      52.345  34.625  24.062  1.00  0.00     0.131 A 
ATOM     55  C   UNL A   1      53.159  36.505  25.912  1.00  0.00     0.055 A 
ATOM     56  C   UNL A   1      53.262  35.608  23.685  1.00  0.00     0.041 A 
ATOM     57  F   UNL A   1      51.979  33.728  23.131  1.00  0.00    -0.206 F 
ATOM     58  C   UNL A   1      53.668  36.562  24.612  1.00  0.00     0.022 A 
BRANCH  55  59
ATOM     59  S   UNL A   1      53.622  37.776  27.120  1.00  0.00     0.124 S 
ATOM     60  O   UNL A   1      55.069  37.835  26.947  1.00  0.00    -0.237 OA
ATOM     61  O   UNL A   1      52.870  38.932  26.645  1.00  0.00    -0.237 OA
ATOM     62  O   UNL A   1      53.167  37.219  28.392  1.00  0.00    -0.744 OA
ENDBRANCH  55  59
ENDBRANCH  28  52
BRANCH  40  63
ATOM     63  C   UNL A   1      52.014  27.593  26.145  1.00  0.00     0.023 A 
ATOM     64  C   UNL A   1      52.898  27.356  27.204  1.00  0.00     0.031 A 
ATOM     65  C   UNL A   1      52.081  26.777  25.004  1.00  0.00     0.131 A 
ATOM     66  C   UNL A   1      53.831  26.322  27.099  1.00  0.00     0.055 A 
ATOM     67  C   UNL A   1      52.974  25.713  24.929  1.00  0.00     0.041 A 
ATOM     68  F   UNL A   1      51.238  26.967  23.976  1.00  0.00    -0.206 F 
ATOM     69  C   UNL A   1      53.859  25.482  25.980  1.00  0.00     0.022 A 
BRANCH  66  70
ATOM     70  S   UNL A   1      55.017  26.099  28.446  1.00  0.00     0.124 S 
ATOM     71  O   UNL A   1      54.142  26.069  29.615  1.00  0.00    -0.237 OA
ATOM     72  O   UNL A   1      55.656  24.834  28.099  1.00  0.00    -0.237 OA
ATOM     73  O   UNL A   1      55.876  27.277  28.343  1.00  0.00    -0.744 OA
ENDBRANCH  66  70
ENDBRANCH  40  63
ENDBRANCH  14  15
ENDBRANCH   7   9
ENDBRANCH   6   7
ENDBRANCH   5   6
ENDBRANCH   4   5
ENDBRANCH   3   4
ENDBRANCH   2   3
ENDBRANCH   1   2
BRANCH   1  74
ATOM     74  O   UNL A   1      45.861  40.087  25.000  1.00  0.00    -0.376 OA
BRANCH  74  75
ATOM     75  C   UNL A   1      46.513  41.325  24.732  1.00  0.00     0.202 C 
BRANCH  75  76
ATOM     76  C   UNL A   1      45.899  42.357  23.730  1.00  0.00     0.261 C 
BRANCH  76  77
ATOM     77  O   UNL A   1      44.637  43.067  24.018  1.00  0.00    -0.460 OA
BRANCH  77  78
ATOM     78  C   UNL A   1      44.278  43.989  23.075  1.00  0.00     0.339 C 
ATOM     79  O   UNL A   1      44.013  45.154  23.372  1.00  0.00    -0.246 OA
BRANCH  78  80
ATOM     80  C   UNL A   1      44.114  43.574  21.557  1.00  0.00     0.080 A 
ATOM     81  C   UNL A   1      44.965  44.130  19.813  1.00  0.00     0.043 A 
ATOM     82  C   UNL A   1      42.320  43.281  21.436  1.00  0.00     0.055 A 
ATOM     83  C   UNL A   1      44.121  44.451  18.387  1.00  0.00     0.041 A 
ATOM     84  C   UNL A   1      41.519  43.557  19.858  1.00  0.00     0.023 A 
ATOM     85  Cl  UNL A   1      41.401  42.639  22.740  1.00  0.00    -0.083 Cl
ATOM     86  C   UNL A   1      42.404  44.139  18.396  1.00  0.00     0.028 A 
BRANCH  83  87
ATOM     87  N   UNL A   1      44.992  45.089  17.487  1.00  0.00    -0.332 N 
ATOM     88  H   UNL A   1      45.446  44.495  16.846  1.00  0.00     0.169 HD
BRANCH  87  89
ATOM     89  C   UNL A   1      45.307  46.441  17.371  1.00  0.00     0.177 C 
ATOM     90  S   UNL A   1      46.854  46.810  16.818  1.00  0.00    -0.040 S 
BRANCH  89  91
ATOM     91  N   UNL A   1      44.462  47.586  17.648  1.00  0.00    -0.299 N 
ATOM     92  C   UNL A   1      44.039  48.800  18.419  1.00  0.00     0.260 C 
ATOM     93  H   UNL A   1      43.795  47.543  16.927  1.00  0.00     0.172 HD
ATOM     94  O   UNL A   1      42.999  49.385  18.122  1.00  0.00    -0.269 OA
BRANCH  92  95
ATOM     95  C   UNL A   1      44.881  49.384  19.541  1.00  0.00     0.075 A 
ATOM     96  C   UNL A   1      45.065  48.113  20.728  1.00  0.00     0.017 A 
ATOM     97  C   UNL A   1      46.259  50.261  18.798  1.00  0.00     0.135 A 
ATOM     98  C   UNL A   1      46.711  47.493  21.013  1.00  0.00     0.001 A 
ATOM     99  C   UNL A   1      47.947  49.726  18.963  1.00  0.00     0.040 A 
ATOM    100  F   UNL A   1      45.976  50.664  17.553  1.00  0.00    -0.206 F 
ATOM    101  C   UNL A   1      48.270  48.298  20.007  1.00  0.00     0.003 A 
ENDBRANCH  92  95
ENDBRANCH  89  91
ENDBRANCH  87  89
ENDBRANCH  83  87
ENDBRANCH  78  80
ENDBRANCH  77  78
ENDBRANCH  76  77
ENDBRANCH  75  76
ENDBRANCH  74  75
ENDBRANCH   1  74
TORSDOF 24
ENDMDL
