MODEL 1
REMARK VINA RESULT:      -8.5      0.000      0.000
REMARK SMILES C[NH+]1CCC([NH+]2CCC(Oc3ccc4ccccc4c3)(C(=O)OCCOCCOCCOC(=O)c3ccc(-c4c5nc(c(-c6cc(S(=O)(=O)[O-])ccc6F)c6ccc([nH]6)c(-c6cc(S(=O)(=O)[O-])ccc6F)c6nc(c(-c7cc(S(=O)(=O)[O-])ccc7F)c7ccc4[nH]7)C=C6)C=C5)cc3)CC2)CC1
REMARK SMILES IDX 28 1 27 2 26 3 25 4 24 5 23 6 21 7 22 8 9 9 6 10 7 11 99 12
REMARK SMILES IDX 8 14 98 15 5 16 1 17 2 18 3 19 101 20 4 22 100 23 10 24
REMARK SMILES IDX 11 25 12 26 20 27 13 28 19 29 14 30 18 31 15 32 17 33 16 34
REMARK SMILES IDX 29 35 30 36 31 37 32 38 33 39 34 40 35 41 36 42 97 43 37 44
REMARK SMILES IDX 96 45 38 46 39 47 40 48 90 49 41 50 95 51 89 52 91 53 42 54
REMARK SMILES IDX 94 55 88 56 87 57 43 59 75 60 55 61 74 62 56 63 59 64 73 65
REMARK SMILES IDX 92 66 57 67 58 68 72 70 93 71 60 72 44 73 45 74 53 75 46 76
REMARK SMILES IDX 52 77 54 78 51 79 47 80 48 81 49 82 50 83 76 84 77 85 85 86
REMARK SMILES IDX 78 87 84 88 86 89 83 90 79 91 80 92 81 93 82 94 61 95 62 96
REMARK SMILES IDX 70 97 63 98 69 99 71 100 68 101 64 102 65 103 66 104 67 105
REMARK H PARENT 6 13 2 21 91 58 59 69
REMARK Flexibility Score: inf
ROOT
ATOM      1  C   UNL A   1      46.051  43.534  33.245  1.00  0.00     0.188 C 
ENDROOT
BRANCH   1   2
ATOM      2  C   UNL A   1      45.146  43.485  32.009  1.00  0.00     0.188 C 
BRANCH   2   3
ATOM      3  O   UNL A   1      44.488  44.683  31.629  1.00  0.00    -0.376 OA
BRANCH   3   4
ATOM      4  C   UNL A   1      43.948  44.770  30.315  1.00  0.00     0.202 C 
BRANCH   4   5
ATOM      5  C   UNL A   1      44.953  44.688  29.162  1.00  0.00     0.261 C 
BRANCH   5   6
ATOM      6  O   UNL A   1      44.934  43.405  28.494  1.00  0.00    -0.460 OA
BRANCH   6   7
ATOM      7  C   UNL A   1      45.637  43.299  27.325  1.00  0.00     0.351 C 
ATOM      8  O   UNL A   1      46.432  44.154  26.948  1.00  0.00    -0.247 OA
BRANCH   7   9
ATOM      9  C   UNL A   1      45.260  42.044  26.499  1.00  0.00     0.216 C 
ATOM     10  N   UNL A   1      44.767  42.457  23.577  1.00  0.00    -0.332 N 
ATOM     11  C   UNL A   1      46.141  42.233  24.034  1.00  0.00     0.267 C 
ATOM     12  C   UNL A   1      43.966  43.137  24.605  1.00  0.00     0.267 C 
ATOM     13  H   UNL A   1      44.374  41.528  23.424  1.00  0.00     0.348 HD
ATOM     14  C   UNL A   1      46.280  41.608  25.430  1.00  0.00     0.122 C 
ATOM     15  C   UNL A   1      43.872  42.273  25.866  1.00  0.00     0.122 C 
BRANCH  10  16
ATOM     16  C   UNL A   1      44.669  43.150  22.251  1.00  0.00     0.195 C 
ATOM     17  C   UNL A   1      44.063  44.010  18.060  1.00  0.00     0.332 C 
ATOM     18  N   UNL A   1      44.131  43.326  19.357  1.00  0.00    -0.337 N 
ATOM     19  C   UNL A   1      43.204  43.938  20.325  1.00  0.00     0.268 C 
ATOM     20  C   UNL A   1      45.500  43.371  19.868  1.00  0.00     0.268 C 
ATOM     21  H   UNL A   1      43.851  42.354  19.226  1.00  0.00     0.347 HD
ATOM     22  C   UNL A   1      43.237  43.212  21.687  1.00  0.00     0.126 C 
ATOM     23  C   UNL A   1      45.585  42.576  21.163  1.00  0.00     0.126 C 
ENDBRANCH  10  16
BRANCH   9  24
ATOM     24  O   UNL A   1      45.310  41.114  27.628  1.00  0.00    -0.475 OA
BRANCH  24  25
ATOM     25  C   UNL A   1      44.478  40.039  27.590  1.00  0.00     0.121 A 
ATOM     26  C   UNL A   1      43.116  40.182  27.828  1.00  0.00     0.047 A 
ATOM     27  C   UNL A   1      45.000  38.815  27.176  1.00  0.00     0.055 A 
ATOM     28  C   UNL A   1      42.279  39.074  27.752  1.00  0.00     0.012 A 
ATOM     29  C   UNL A   1      44.161  37.696  27.059  1.00  0.00    -0.015 A 
ATOM     30  C   UNL A   1      42.787  37.826  27.371  1.00  0.00    -0.018 A 
ATOM     31  C   UNL A   1      44.652  36.453  26.633  1.00  0.00     0.009 A 
ATOM     32  C   UNL A   1      41.948  36.707  27.278  1.00  0.00     0.009 A 
ATOM     33  C   UNL A   1      43.799  35.352  26.529  1.00  0.00     0.001 A 
ATOM     34  C   UNL A   1      42.453  35.478  26.858  1.00  0.00     0.001 A 
ENDBRANCH  24  25
ENDBRANCH   9  24
ENDBRANCH   7   9
ENDBRANCH   6   7
ENDBRANCH   5   6
ENDBRANCH   4   5
ENDBRANCH   3   4
ENDBRANCH   2   3
ENDBRANCH   1   2
BRANCH   1  35
ATOM     35  O   UNL A   1      45.706  42.773  34.390  1.00  0.00    -0.376 OA
BRANCH  35  36
ATOM     36  C   UNL A   1      44.332  42.431  34.517  1.00  0.00     0.202 C 
BRANCH  36  37
ATOM     37  C   UNL A   1      44.054  41.178  35.352  1.00  0.00     0.261 C 
BRANCH  37  38
ATOM     38  O   UNL A   1      44.265  39.979  34.585  1.00  0.00    -0.460 OA
BRANCH  38  39
ATOM     39  C   UNL A   1      43.441  39.830  33.524  1.00  0.00     0.338 C 
ATOM     40  O   UNL A   1      42.560  40.623  33.200  1.00  0.00    -0.246 OA
BRANCH  39  41
ATOM     41  C   UNL A   1      43.816  38.644  32.702  1.00  0.00     0.060 A 
ATOM     42  C   UNL A   1      43.878  38.689  31.307  1.00  0.00     0.016 A 
ATOM     43  C   UNL A   1      43.953  37.405  33.329  1.00  0.00     0.016 A 
ATOM     44  C   UNL A   1      43.898  37.514  30.550  1.00  0.00     0.010 A 
ATOM     45  C   UNL A   1      44.106  36.237  32.568  1.00  0.00     0.010 A 
ATOM     46  C   UNL A   1      44.036  36.267  31.163  1.00  0.00    -0.014 A 
BRANCH  46  47
ATOM     47  C   UNL A   1      44.088  34.996  30.379  1.00  0.00     0.031 A 
ATOM     48  C   UNL A   1      42.862  34.118  30.296  1.00  0.00     0.074 A 
ATOM     49  C   UNL A   1      45.217  34.589  29.762  1.00  0.00     0.049 A 
ATOM     50  N   UNL A   1      42.767  32.843  30.026  1.00  0.00    -0.248 NA
ATOM     51  C   UNL A   1      41.572  34.773  30.556  1.00  0.00     0.031 C 
ATOM     52  C   UNL A   1      46.450  35.367  29.625  1.00  0.00     0.029 A 
ATOM     53  N   UNL A   1      45.518  33.393  29.151  1.00  0.00    -0.354 N 
ATOM     54  C   UNL A   1      41.417  32.525  30.147  1.00  0.00     0.074 A 
ATOM     55  C   UNL A   1      40.729  33.751  30.498  1.00  0.00     0.031 C 
ATOM     56  C   UNL A   1      47.365  34.637  28.974  1.00  0.00     0.029 A 
ATOM     57  C   UNL A   1      46.842  33.292  28.781  1.00  0.00     0.049 A 
ATOM     58  H   UNL A   1      44.855  32.682  28.995  1.00  0.00     0.167 HD
ATOM     59  C   UNL A   1      40.818  31.316  30.003  1.00  0.00     0.034 A 
ATOM     60  C   UNL A   1      47.589  32.226  28.434  1.00  0.00     0.034 A 
ATOM     61  C   UNL A   1      41.528  30.112  29.635  1.00  0.00     0.049 A 
ATOM     62  C   UNL A   1      46.950  30.863  28.422  1.00  0.00     0.074 A 
ATOM     63  C   UNL A   1      41.035  28.826  29.490  1.00  0.00     0.029 A 
ATOM     64  N   UNL A   1      42.886  30.048  29.351  1.00  0.00    -0.354 N 
ATOM     65  N   UNL A   1      45.704  30.534  28.677  1.00  0.00    -0.248 NA
ATOM     66  C   UNL A   1      47.823  29.728  28.104  1.00  0.00     0.031 C 
ATOM     67  C   UNL A   1      42.105  27.976  29.184  1.00  0.00     0.029 A 
ATOM     68  C   UNL A   1      43.254  28.742  29.062  1.00  0.00     0.049 A 
ATOM     69  H   UNL A   1      43.499  30.818  29.352  1.00  0.00     0.167 HD
ATOM     70  C   UNL A   1      45.645  29.151  28.539  1.00  0.00     0.074 A 
ATOM     71  C   UNL A   1      46.973  28.713  28.160  1.00  0.00     0.031 C 
ATOM     72  C   UNL A   1      44.586  28.317  28.707  1.00  0.00     0.034 A 
BRANCH  59  73
ATOM     73  C   UNL A   1      39.349  31.217  30.338  1.00  0.00     0.023 A 
ATOM     74  C   UNL A   1      38.341  31.426  29.381  1.00  0.00     0.031 A 
ATOM     75  C   UNL A   1      38.954  30.925  31.656  1.00  0.00     0.131 A 
ATOM     76  C   UNL A   1      36.991  31.395  29.771  1.00  0.00     0.055 A 
ATOM     77  C   UNL A   1      37.610  30.824  32.022  1.00  0.00     0.041 A 
ATOM     78  F   UNL A   1      39.873  30.741  32.620  1.00  0.00    -0.206 F 
ATOM     79  C   UNL A   1      36.619  31.071  31.079  1.00  0.00     0.022 A 
BRANCH  76  80
ATOM     80  S   UNL A   1      35.728  31.914  28.577  1.00  0.00     0.124 S 
ATOM     81  O   UNL A   1      35.727  30.791  27.641  1.00  0.00    -0.237 OA
ATOM     82  O   UNL A   1      34.541  32.050  29.414  1.00  0.00    -0.237 OA
ATOM     83  O   UNL A   1      36.259  33.164  28.037  1.00  0.00    -0.744 OA
ENDBRANCH  76  80
ENDBRANCH  59  73
BRANCH  60  84
ATOM     84  C   UNL A   1      49.057  32.383  28.211  1.00  0.00     0.023 A 
ATOM     85  C   UNL A   1      49.569  32.735  26.954  1.00  0.00     0.031 A 
ATOM     86  C   UNL A   1      49.973  32.158  29.258  1.00  0.00     0.131 A 
ATOM     87  C   UNL A   1      50.959  32.832  26.770  1.00  0.00     0.055 A 
ATOM     88  C   UNL A   1      51.347  32.316  29.086  1.00  0.00     0.041 A 
ATOM     89  F   UNL A   1      49.537  31.806  30.479  1.00  0.00    -0.206 F 
ATOM     90  C   UNL A   1      51.849  32.645  27.832  1.00  0.00     0.022 A 
BRANCH  87  91
ATOM     91  S   UNL A   1      51.596  33.135  25.100  1.00  0.00     0.124 S 
ATOM     92  O   UNL A   1      50.664  34.142  24.606  1.00  0.00    -0.237 OA
ATOM     93  O   UNL A   1      52.954  33.596  25.374  1.00  0.00    -0.237 OA
ATOM     94  O   UNL A   1      51.501  31.826  24.456  1.00  0.00    -0.744 OA
ENDBRANCH  87  91
ENDBRANCH  60  84
BRANCH  72  95
ATOM     95  C   UNL A   1      44.826  26.854  28.434  1.00  0.00     0.023 A 
ATOM     96  C   UNL A   1      44.729  26.319  27.139  1.00  0.00     0.031 A 
ATOM     97  C   UNL A   1      45.126  25.980  29.494  1.00  0.00     0.131 A 
ATOM     98  C   UNL A   1      44.874  24.937  26.943  1.00  0.00     0.055 A 
ATOM     99  C   UNL A   1      45.325  24.616  29.285  1.00  0.00     0.041 A 
ATOM    100  F   UNL A   1      45.225  26.440  30.751  1.00  0.00    -0.206 F 
ATOM    101  C   UNL A   1      45.186  24.085  28.005  1.00  0.00     0.022 A 
BRANCH  98 102
ATOM    102  S   UNL A   1      44.559  24.254  25.293  1.00  0.00     0.124 S 
ATOM    103  O   UNL A   1      44.473  22.824  25.568  1.00  0.00    -0.237 OA
ATOM    104  O   UNL A   1      43.311  24.909  24.915  1.00  0.00    -0.237 OA
ATOM    105  O   UNL A   1      45.731  24.667  24.522  1.00  0.00    -0.744 OA
ENDBRANCH  98 102
ENDBRANCH  72  95
ENDBRANCH  46  47
ENDBRANCH  39  41
ENDBRANCH  38  39
ENDBRANCH  37  38
ENDBRANCH  36  37
ENDBRANCH  35  36
ENDBRANCH   1  35
TORSDOF 23
ENDMDL
MODEL 2
REMARK VINA RESULT:      -8.5      4.582     11.375
REMARK SMILES C[NH+]1CCC([NH+]2CCC(Oc3ccc4ccccc4c3)(C(=O)OCCOCCOCCOC(=O)c3ccc(-c4c5nc(c(-c6cc(S(=O)(=O)[O-])ccc6F)c6ccc([nH]6)c(-c6cc(S(=O)(=O)[O-])ccc6F)c6nc(c(-c7cc(S(=O)(=O)[O-])ccc7F)c7ccc4[nH]7)C=C6)C=C5)cc3)CC2)CC1
REMARK SMILES IDX 28 1 27 2 26 3 25 4 24 5 23 6 21 7 22 8 9 9 6 10 7 11 99 12
REMARK SMILES IDX 8 14 98 15 5 16 1 17 2 18 3 19 101 20 4 22 100 23 10 24
REMARK SMILES IDX 11 25 12 26 20 27 13 28 19 29 14 30 18 31 15 32 17 33 16 34
REMARK SMILES IDX 29 35 30 36 31 37 32 38 33 39 34 40 35 41 36 42 97 43 37 44
REMARK SMILES IDX 96 45 38 46 39 47 40 48 90 49 41 50 95 51 89 52 91 53 42 54
REMARK SMILES IDX 94 55 88 56 87 57 43 59 75 60 55 61 74 62 56 63 59 64 73 65
REMARK SMILES IDX 92 66 57 67 58 68 72 70 93 71 60 72 44 73 45 74 53 75 46 76
REMARK SMILES IDX 52 77 54 78 51 79 47 80 48 81 49 82 50 83 76 84 77 85 85 86
REMARK SMILES IDX 78 87 84 88 86 89 83 90 79 91 80 92 81 93 82 94 61 95 62 96
REMARK SMILES IDX 70 97 63 98 69 99 71 100 68 101 64 102 65 103 66 104 67 105
REMARK H PARENT 6 13 2 21 91 58 59 69
REMARK Flexibility Score: inf
ROOT
ATOM      1  C   UNL A   1      45.973  38.882  32.290  1.00  0.00     0.188 C 
ENDROOT
BRANCH   1   2
ATOM      2  C   UNL A   1      44.637  38.517  32.947  1.00  0.00     0.188 C 
BRANCH   2   3
ATOM      3  O   UNL A   1      44.674  38.014  34.273  1.00  0.00    -0.376 OA
BRANCH   3   4
ATOM      4  C   UNL A   1      44.689  36.603  34.460  1.00  0.00     0.202 C 
BRANCH   4   5
ATOM      5  C   UNL A   1      43.427  35.987  35.072  1.00  0.00     0.261 C 
BRANCH   5   6
ATOM      6  O   UNL A   1      43.626  34.621  35.504  1.00  0.00    -0.460 OA
BRANCH   6   7
ATOM      7  C   UNL A   1      43.183  33.632  34.668  1.00  0.00     0.351 C 
ATOM      8  O   UNL A   1      43.729  33.368  33.601  1.00  0.00    -0.247 OA
BRANCH   7   9
ATOM      9  C   UNL A   1      41.884  32.950  35.167  1.00  0.00     0.216 C 
ATOM     10  N   UNL A   1      41.994  29.987  35.573  1.00  0.00    -0.332 N 
ATOM     11  C   UNL A   1      42.425  30.863  36.664  1.00  0.00     0.267 C 
ATOM     12  C   UNL A   1      42.246  30.603  34.261  1.00  0.00     0.267 C 
ATOM     13  H   UNL A   1      40.986  29.879  35.689  1.00  0.00     0.348 HD
ATOM     14  C   UNL A   1      41.948  32.320  36.572  1.00  0.00     0.122 C 
ATOM     15  C   UNL A   1      41.448  31.903  34.121  1.00  0.00     0.122 C 
BRANCH  10  16
ATOM     16  C   UNL A   1      42.551  28.597  35.647  1.00  0.00     0.195 C 
ATOM     17  C   UNL A   1      44.804  24.990  34.886  1.00  0.00     0.332 C 
ATOM     18  N   UNL A   1      44.285  26.361  34.818  1.00  0.00    -0.337 N 
ATOM     19  C   UNL A   1      44.559  27.091  36.068  1.00  0.00     0.268 C 
ATOM     20  C   UNL A   1      42.848  26.333  34.551  1.00  0.00     0.268 C 
ATOM     21  H   UNL A   1      44.760  26.851  34.059  1.00  0.00     0.347 HD
ATOM     22  C   UNL A   1      44.048  28.547  36.005  1.00  0.00     0.126 C 
ATOM     23  C   UNL A   1      42.334  27.755  34.384  1.00  0.00     0.126 C 
ENDBRANCH  10  16
BRANCH   9  24
ATOM     24  O   UNL A   1      41.092  34.179  35.220  1.00  0.00    -0.475 OA
BRANCH  24  25
ATOM     25  C   UNL A   1      39.740  34.055  35.157  1.00  0.00     0.121 A 
ATOM     26  C   UNL A   1      39.004  33.684  36.276  1.00  0.00     0.047 A 
ATOM     27  C   UNL A   1      39.095  34.437  33.981  1.00  0.00     0.055 A 
ATOM     28  C   UNL A   1      37.618  33.594  36.197  1.00  0.00     0.012 A 
ATOM     29  C   UNL A   1      37.696  34.387  33.898  1.00  0.00    -0.015 A 
ATOM     30  C   UNL A   1      36.952  33.940  35.015  1.00  0.00    -0.018 A 
ATOM     31  C   UNL A   1      37.017  34.777  32.734  1.00  0.00     0.009 A 
ATOM     32  C   UNL A   1      35.555  33.867  34.931  1.00  0.00     0.009 A 
ATOM     33  C   UNL A   1      35.623  34.714  32.672  1.00  0.00     0.001 A 
ATOM     34  C   UNL A   1      34.895  34.253  33.766  1.00  0.00     0.001 A 
ENDBRANCH  24  25
ENDBRANCH   9  24
ENDBRANCH   7   9
ENDBRANCH   6   7
ENDBRANCH   5   6
ENDBRANCH   4   5
ENDBRANCH   3   4
ENDBRANCH   2   3
ENDBRANCH   1   2
BRANCH   1  35
ATOM     35  O   UNL A   1      46.122  38.737  30.888  1.00  0.00    -0.376 OA
BRANCH  35  36
ATOM     36  C   UNL A   1      45.130  39.369  30.090  1.00  0.00     0.202 C 
BRANCH  36  37
ATOM     37  C   UNL A   1      45.071  38.891  28.636  1.00  0.00     0.261 C 
BRANCH  37  38
ATOM     38  O   UNL A   1      46.210  38.077  28.305  1.00  0.00    -0.460 OA
BRANCH  38  39
ATOM     39  C   UNL A   1      46.036  37.259  27.243  1.00  0.00     0.338 C 
ATOM     40  O   UNL A   1      46.458  37.477  26.111  1.00  0.00    -0.246 OA
BRANCH  39  41
ATOM     41  C   UNL A   1      45.380  35.980  27.640  1.00  0.00     0.060 A 
ATOM     42  C   UNL A   1      45.693  35.315  28.829  1.00  0.00     0.016 A 
ATOM     43  C   UNL A   1      44.546  35.337  26.724  1.00  0.00     0.016 A 
ATOM     44  C   UNL A   1      45.330  33.979  29.022  1.00  0.00     0.010 A 
ATOM     45  C   UNL A   1      44.074  34.042  26.981  1.00  0.00     0.010 A 
ATOM     46  C   UNL A   1      44.495  33.323  28.114  1.00  0.00    -0.014 A 
BRANCH  46  47
ATOM     47  C   UNL A   1      44.069  31.904  28.307  1.00  0.00     0.031 A 
ATOM     48  C   UNL A   1      44.852  30.792  27.653  1.00  0.00     0.074 A 
ATOM     49  C   UNL A   1      42.976  31.585  29.032  1.00  0.00     0.049 A 
ATOM     50  N   UNL A   1      44.481  29.575  27.353  1.00  0.00    -0.248 NA
ATOM     51  C   UNL A   1      46.242  31.102  27.285  1.00  0.00     0.031 C 
ATOM     52  C   UNL A   1      42.179  32.510  29.840  1.00  0.00     0.029 A 
ATOM     53  N   UNL A   1      42.326  30.380  29.182  1.00  0.00    -0.354 N 
ATOM     54  C   UNL A   1      45.566  28.992  26.704  1.00  0.00     0.074 A 
ATOM     55  C   UNL A   1      46.617  29.988  26.671  1.00  0.00     0.031 C 
ATOM     56  C   UNL A   1      41.160  31.846  30.400  1.00  0.00     0.029 A 
ATOM     57  C   UNL A   1      41.139  30.488  29.874  1.00  0.00     0.049 A 
ATOM     58  H   UNL A   1      42.674  29.529  28.831  1.00  0.00     0.167 HD
ATOM     59  C   UNL A   1      45.659  27.749  26.167  1.00  0.00     0.034 A 
ATOM     60  C   UNL A   1      40.096  29.642  29.986  1.00  0.00     0.034 A 
ATOM     61  C   UNL A   1      44.600  26.769  26.230  1.00  0.00     0.049 A 
ATOM     62  C   UNL A   1      40.146  28.325  29.261  1.00  0.00     0.074 A 
ATOM     63  C   UNL A   1      44.567  25.493  25.696  1.00  0.00     0.029 A 
ATOM     64  N   UNL A   1      43.383  26.958  26.873  1.00  0.00    -0.354 N 
ATOM     65  N   UNL A   1      41.112  27.826  28.523  1.00  0.00    -0.248 NA
ATOM     66  C   UNL A   1      38.958  27.471  29.360  1.00  0.00     0.031 C 
ATOM     67  C   UNL A   1      43.309  24.937  25.958  1.00  0.00     0.029 A 
ATOM     68  C   UNL A   1      42.582  25.836  26.722  1.00  0.00     0.049 A 
ATOM     69  H   UNL A   1      43.126  27.771  27.366  1.00  0.00     0.167 HD
ATOM     70  C   UNL A   1      40.647  26.592  28.079  1.00  0.00     0.074 A 
ATOM     71  C   UNL A   1      39.325  26.416  28.647  1.00  0.00     0.031 C 
ATOM     72  C   UNL A   1      41.259  25.684  27.276  1.00  0.00     0.034 A 
BRANCH  59  73
ATOM     73  C   UNL A   1      46.906  27.418  25.381  1.00  0.00     0.023 A 
ATOM     74  C   UNL A   1      47.084  27.814  24.045  1.00  0.00     0.031 A 
ATOM     75  C   UNL A   1      47.932  26.669  25.987  1.00  0.00     0.131 A 
ATOM     76  C   UNL A   1      48.232  27.410  23.343  1.00  0.00     0.055 A 
ATOM     77  C   UNL A   1      49.104  26.332  25.307  1.00  0.00     0.041 A 
ATOM     78  F   UNL A   1      47.807  26.239  27.254  1.00  0.00    -0.206 F 
ATOM     79  C   UNL A   1      49.254  26.693  23.973  1.00  0.00     0.022 A 
BRANCH  76  80
ATOM     80  S   UNL A   1      48.317  27.719  21.557  1.00  0.00     0.124 S 
ATOM     81  O   UNL A   1      48.634  26.388  21.042  1.00  0.00    -0.237 OA
ATOM     82  O   UNL A   1      46.979  28.217  21.261  1.00  0.00    -0.237 OA
ATOM     83  O   UNL A   1      49.392  28.700  21.429  1.00  0.00    -0.744 OA
ENDBRANCH  76  80
ENDBRANCH  59  73
BRANCH  60  84
ATOM     84  C   UNL A   1      38.856  30.076  30.697  1.00  0.00     0.023 A 
ATOM     85  C   UNL A   1      37.822  30.736  30.020  1.00  0.00     0.031 A 
ATOM     86  C   UNL A   1      38.703  29.852  32.080  1.00  0.00     0.131 A 
ATOM     87  C   UNL A   1      36.688  31.168  30.729  1.00  0.00     0.055 A 
ATOM     88  C   UNL A   1      37.550  30.228  32.767  1.00  0.00     0.041 A 
ATOM     89  F   UNL A   1      39.669  29.236  32.780  1.00  0.00    -0.206 F 
ATOM     90  C   UNL A   1      36.537  30.901  32.093  1.00  0.00     0.022 A 
BRANCH  87  91
ATOM     91  S   UNL A   1      35.441  32.155  29.859  1.00  0.00     0.124 S 
ATOM     92  O   UNL A   1      36.218  33.318  29.448  1.00  0.00    -0.237 OA
ATOM     93  O   UNL A   1      35.029  31.248  28.792  1.00  0.00    -0.237 OA
ATOM     94  O   UNL A   1      34.431  32.409  30.884  1.00  0.00    -0.744 OA
ENDBRANCH  87  91
ENDBRANCH  60  84
BRANCH  72  95
ATOM     95  C   UNL A   1      40.510  24.403  27.010  1.00  0.00     0.023 A 
ATOM     96  C   UNL A   1      39.331  24.382  26.245  1.00  0.00     0.031 A 
ATOM     97  C   UNL A   1      40.969  23.192  27.558  1.00  0.00     0.131 A 
ATOM     98  C   UNL A   1      38.619  23.183  26.096  1.00  0.00     0.055 A 
ATOM     99  C   UNL A   1      40.286  21.992  27.359  1.00  0.00     0.041 A 
ATOM    100  F   UNL A   1      42.086  23.159  28.300  1.00  0.00    -0.206 F 
ATOM    101  C   UNL A   1      39.096  21.986  26.635  1.00  0.00     0.022 A 
BRANCH  98 102
ATOM    102  S   UNL A   1      37.008  23.224  25.262  1.00  0.00     0.124 S 
ATOM    103  O   UNL A   1      36.336  24.317  25.956  1.00  0.00    -0.237 OA
ATOM    104  O   UNL A   1      37.381  23.482  23.874  1.00  0.00    -0.237 OA
ATOM    105  O   UNL A   1      36.457  21.894  25.517  1.00  0.00    -0.744 OA
ENDBRANCH  98 102
ENDBRANCH  72  95
ENDBRANCH  46  47
ENDBRANCH  39  41
ENDBRANCH  38  39
ENDBRANCH  37  38
ENDBRANCH  36  37
ENDBRANCH  35  36
ENDBRANCH   1  35
TORSDOF 23
ENDMDL
MODEL 3
REMARK VINA RESULT:      -8.4      8.822     13.214
REMARK SMILES C[NH+]1CCC([NH+]2CCC(Oc3ccc4ccccc4c3)(C(=O)OCCOCCOCCOC(=O)c3ccc(-c4c5nc(c(-c6cc(S(=O)(=O)[O-])ccc6F)c6ccc([nH]6)c(-c6cc(S(=O)(=O)[O-])ccc6F)c6nc(c(-c7cc(S(=O)(=O)[O-])ccc7F)c7ccc4[nH]7)C=C6)C=C5)cc3)CC2)CC1
REMARK SMILES IDX 28 1 27 2 26 3 25 4 24 5 23 6 21 7 22 8 9 9 6 10 7 11 99 12
REMARK SMILES IDX 8 14 98 15 5 16 1 17 2 18 3 19 101 20 4 22 100 23 10 24
REMARK SMILES IDX 11 25 12 26 20 27 13 28 19 29 14 30 18 31 15 32 17 33 16 34
REMARK SMILES IDX 29 35 30 36 31 37 32 38 33 39 34 40 35 41 36 42 97 43 37 44
REMARK SMILES IDX 96 45 38 46 39 47 40 48 90 49 41 50 95 51 89 52 91 53 42 54
REMARK SMILES IDX 94 55 88 56 87 57 43 59 75 60 55 61 74 62 56 63 59 64 73 65
REMARK SMILES IDX 92 66 57 67 58 68 72 70 93 71 60 72 44 73 45 74 53 75 46 76
REMARK SMILES IDX 52 77 54 78 51 79 47 80 48 81 49 82 50 83 76 84 77 85 85 86
REMARK SMILES IDX 78 87 84 88 86 89 83 90 79 91 80 92 81 93 82 94 61 95 62 96
REMARK SMILES IDX 70 97 63 98 69 99 71 100 68 101 64 102 65 103 66 104 67 105
REMARK H PARENT 6 13 2 21 91 58 59 69
REMARK Flexibility Score: inf
ROOT
ATOM      1  C   UNL A   1      36.235  33.998  29.782  1.00  0.00     0.188 C 
ENDROOT
BRANCH   1   2
ATOM      2  C   UNL A   1      35.296  33.079  28.991  1.00  0.00     0.188 C 
BRANCH   2   3
ATOM      3  O   UNL A   1      35.797  31.810  28.599  1.00  0.00    -0.376 OA
BRANCH   3   4
ATOM      4  C   UNL A   1      35.053  31.056  27.649  1.00  0.00     0.202 C 
BRANCH   4   5
ATOM      5  C   UNL A   1      35.227  29.535  27.706  1.00  0.00     0.261 C 
BRANCH   5   6
ATOM      6  O   UNL A   1      34.778  28.876  26.498  1.00  0.00    -0.460 OA
BRANCH   6   7
ATOM      7  C   UNL A   1      33.648  28.109  26.590  1.00  0.00     0.351 C 
ATOM      8  O   UNL A   1      32.994  28.009  27.624  1.00  0.00    -0.247 OA
BRANCH   7   9
ATOM      9  C   UNL A   1      33.338  27.325  25.290  1.00  0.00     0.216 C 
ATOM     10  N   UNL A   1      31.149  28.404  23.560  1.00  0.00    -0.332 N 
ATOM     11  C   UNL A   1      32.505  28.931  23.390  1.00  0.00     0.267 C 
ATOM     12  C   UNL A   1      30.908  27.985  24.949  1.00  0.00     0.267 C 
ATOM     13  H   UNL A   1      31.098  27.579  22.962  1.00  0.00     0.348 HD
ATOM     14  C   UNL A   1      33.630  28.063  23.969  1.00  0.00     0.122 C 
ATOM     15  C   UNL A   1      31.869  26.858  25.339  1.00  0.00     0.122 C 
BRANCH  10  16
ATOM     16  C   UNL A   1      30.070  29.319  23.063  1.00  0.00     0.195 C 
ATOM     17  C   UNL A   1      27.901  32.760  21.607  1.00  0.00     0.332 C 
ATOM     18  N   UNL A   1      28.971  31.868  22.068  1.00  0.00    -0.337 N 
ATOM     19  C   UNL A   1      29.129  30.720  21.158  1.00  0.00     0.268 C 
ATOM     20  C   UNL A   1      28.678  31.405  23.423  1.00  0.00     0.268 C 
ATOM     21  H   UNL A   1      29.849  32.388  22.072  1.00  0.00     0.347 HD
ATOM     22  C   UNL A   1      30.272  29.785  21.609  1.00  0.00     0.126 C 
ATOM     23  C   UNL A   1      29.837  30.560  23.933  1.00  0.00     0.126 C 
ENDBRANCH  10  16
BRANCH   9  24
ATOM     24  O   UNL A   1      34.352  26.291  25.506  1.00  0.00    -0.475 OA
BRANCH  24  25
ATOM     25  C   UNL A   1      34.103  25.055  24.998  1.00  0.00     0.121 A 
ATOM     26  C   UNL A   1      34.844  24.559  23.932  1.00  0.00     0.047 A 
ATOM     27  C   UNL A   1      33.178  24.245  25.654  1.00  0.00     0.055 A 
ATOM     28  C   UNL A   1      34.594  23.278  23.449  1.00  0.00     0.012 A 
ATOM     29  C   UNL A   1      32.940  22.939  25.202  1.00  0.00    -0.015 A 
ATOM     30  C   UNL A   1      33.644  22.459  24.072  1.00  0.00    -0.018 A 
ATOM     31  C   UNL A   1      32.025  22.094  25.848  1.00  0.00     0.009 A 
ATOM     32  C   UNL A   1      33.395  21.163  23.601  1.00  0.00     0.009 A 
ATOM     33  C   UNL A   1      31.801  20.799  25.376  1.00  0.00     0.001 A 
ATOM     34  C   UNL A   1      32.479  20.338  24.251  1.00  0.00     0.001 A 
ENDBRANCH  24  25
ENDBRANCH   9  24
ENDBRANCH   7   9
ENDBRANCH   6   7
ENDBRANCH   5   6
ENDBRANCH   4   5
ENDBRANCH   3   4
ENDBRANCH   2   3
ENDBRANCH   1   2
BRANCH   1  35
ATOM     35  O   UNL A   1      36.195  33.979  31.199  1.00  0.00    -0.376 OA
BRANCH  35  36
ATOM     36  C   UNL A   1      35.148  33.215  31.780  1.00  0.00     0.202 C 
BRANCH  36  37
ATOM     37  C   UNL A   1      35.590  31.896  32.421  1.00  0.00     0.261 C 
BRANCH  37  38
ATOM     38  O   UNL A   1      36.960  31.593  32.104  1.00  0.00    -0.460 OA
BRANCH  38  39
ATOM     39  C   UNL A   1      37.760  31.386  33.174  1.00  0.00     0.338 C 
ATOM     40  O   UNL A   1      37.532  31.790  34.311  1.00  0.00    -0.246 OA
BRANCH  39  41
ATOM     41  C   UNL A   1      38.899  30.484  32.839  1.00  0.00     0.060 A 
ATOM     42  C   UNL A   1      38.732  29.111  32.638  1.00  0.00     0.016 A 
ATOM     43  C   UNL A   1      40.198  30.991  32.887  1.00  0.00     0.016 A 
ATOM     44  C   UNL A   1      39.828  28.243  32.661  1.00  0.00     0.010 A 
ATOM     45  C   UNL A   1      41.300  30.131  32.777  1.00  0.00     0.010 A 
ATOM     46  C   UNL A   1      41.133  28.736  32.707  1.00  0.00    -0.014 A 
BRANCH  46  47
ATOM     47  C   UNL A   1      42.326  27.835  32.706  1.00  0.00     0.031 A 
ATOM     48  C   UNL A   1      42.969  27.444  34.014  1.00  0.00     0.074 A 
ATOM     49  C   UNL A   1      42.867  27.378  31.557  1.00  0.00     0.049 A 
ATOM     50  N   UNL A   1      44.183  27.020  34.253  1.00  0.00    -0.248 NA
ATOM     51  C   UNL A   1      42.126  27.551  35.214  1.00  0.00     0.031 C 
ATOM     52  C   UNL A   1      42.305  27.543  30.216  1.00  0.00     0.029 A 
ATOM     53  N   UNL A   1      44.043  26.697  31.335  1.00  0.00    -0.354 N 
ATOM     54  C   UNL A   1      44.272  26.871  35.634  1.00  0.00     0.074 A 
ATOM     55  C   UNL A   1      42.980  27.234  36.178  1.00  0.00     0.031 C 
ATOM     56  C   UNL A   1      43.124  26.981  29.318  1.00  0.00     0.029 A 
ATOM     57  C   UNL A   1      44.339  26.550  29.997  1.00  0.00     0.049 A 
ATOM     58  H   UNL A   1      44.614  26.351  32.058  1.00  0.00     0.167 HD
ATOM     59  C   UNL A   1      45.345  26.491  36.373  1.00  0.00     0.034 A 
ATOM     60  C   UNL A   1      45.485  26.219  29.371  1.00  0.00     0.034 A 
ATOM     61  C   UNL A   1      46.618  26.117  35.802  1.00  0.00     0.049 A 
ATOM     62  C   UNL A   1      46.712  25.944  30.198  1.00  0.00     0.074 A 
ATOM     63  C   UNL A   1      47.784  25.746  36.450  1.00  0.00     0.029 A 
ATOM     64  N   UNL A   1      46.891  26.064  34.441  1.00  0.00    -0.354 N 
ATOM     65  N   UNL A   1      46.842  25.944  31.505  1.00  0.00    -0.248 NA
ATOM     66  C   UNL A   1      47.950  25.655  29.467  1.00  0.00     0.031 C 
ATOM     67  C   UNL A   1      48.777  25.534  35.486  1.00  0.00     0.029 A 
ATOM     68  C   UNL A   1      48.212  25.698  34.231  1.00  0.00     0.049 A 
ATOM     69  H   UNL A   1      46.240  26.258  33.728  1.00  0.00     0.167 HD
ATOM     70  C   UNL A   1      48.178  25.642  31.750  1.00  0.00     0.074 A 
ATOM     71  C   UNL A   1      48.805  25.450  30.458  1.00  0.00     0.031 C 
ATOM     72  C   UNL A   1      48.828  25.531  32.937  1.00  0.00     0.034 A 
BRANCH  59  73
ATOM     73  C   UNL A   1      45.217  26.556  37.877  1.00  0.00     0.023 A 
ATOM     74  C   UNL A   1      45.309  27.763  38.591  1.00  0.00     0.031 A 
ATOM     75  C   UNL A   1      45.018  25.371  38.610  1.00  0.00     0.131 A 
ATOM     76  C   UNL A   1      45.258  27.749  39.995  1.00  0.00     0.055 A 
ATOM     77  C   UNL A   1      44.896  25.373  40.001  1.00  0.00     0.041 A 
ATOM     78  F   UNL A   1      44.949  24.184  37.985  1.00  0.00    -0.206 F 
ATOM     79  C   UNL A   1      45.028  26.566  40.703  1.00  0.00     0.022 A 
BRANCH  76  80
ATOM     80  S   UNL A   1      45.630  29.280  40.895  1.00  0.00     0.124 S 
ATOM     81  O   UNL A   1      44.953  29.045  42.169  1.00  0.00    -0.237 OA
ATOM     82  O   UNL A   1      47.088  29.275  40.935  1.00  0.00    -0.237 OA
ATOM     83  O   UNL A   1      45.031  30.322  40.064  1.00  0.00    -0.744 OA
ENDBRANCH  76  80
ENDBRANCH  59  73
BRANCH  60  84
ATOM     84  C   UNL A   1      45.565  26.270  27.881  1.00  0.00     0.023 A 
ATOM     85  C   UNL A   1      46.318  27.254  27.225  1.00  0.00     0.031 A 
ATOM     86  C   UNL A   1      44.863  25.339  27.089  1.00  0.00     0.131 A 
ATOM     87  C   UNL A   1      46.335  27.299  25.821  1.00  0.00     0.055 A 
ATOM     88  C   UNL A   1      44.932  25.351  25.697  1.00  0.00     0.041 A 
ATOM     89  F   UNL A   1      44.116  24.384  27.665  1.00  0.00    -0.206 F 
ATOM     90  C   UNL A   1      45.664  26.342  25.054  1.00  0.00     0.022 A 
BRANCH  87  91
ATOM     91  S   UNL A   1      47.189  28.674  25.004  1.00  0.00     0.124 S 
ATOM     92  O   UNL A   1      46.400  28.831  23.788  1.00  0.00    -0.237 OA
ATOM     93  O   UNL A   1      47.062  29.739  25.994  1.00  0.00    -0.237 OA
ATOM     94  O   UNL A   1      48.545  28.165  24.808  1.00  0.00    -0.744 OA
ENDBRANCH  87  91
ENDBRANCH  60  84
BRANCH  72  95
ATOM     95  C   UNL A   1      50.284  25.141  32.878  1.00  0.00     0.023 A 
ATOM     96  C   UNL A   1      50.690  23.796  32.923  1.00  0.00     0.031 A 
ATOM     97  C   UNL A   1      51.277  26.134  32.808  1.00  0.00     0.131 A 
ATOM     98  C   UNL A   1      52.056  23.482  32.954  1.00  0.00     0.055 A 
ATOM     99  C   UNL A   1      52.634  25.812  32.782  1.00  0.00     0.041 A 
ATOM    100  F   UNL A   1      50.942  27.433  32.768  1.00  0.00    -0.206 F 
ATOM    101  C   UNL A   1      53.030  24.480  32.869  1.00  0.00     0.022 A 
BRANCH  98 102
ATOM    102  S   UNL A   1      52.547  21.753  33.199  1.00  0.00     0.124 S 
ATOM    103  O   UNL A   1      51.836  21.080  32.118  1.00  0.00    -0.237 OA
ATOM    104  O   UNL A   1      53.999  21.818  33.066  1.00  0.00    -0.237 OA
ATOM    105  O   UNL A   1      52.063  21.448  34.545  1.00  0.00    -0.744 OA
ENDBRANCH  98 102
ENDBRANCH  72  95
ENDBRANCH  46  47
ENDBRANCH  39  41
ENDBRANCH  38  39
ENDBRANCH  37  38
ENDBRANCH  36  37
ENDBRANCH  35  36
ENDBRANCH   1  35
TORSDOF 23
ENDMDL
