MODEL 1
REMARK VINA RESULT:      -9.1      0.000      0.000
REMARK SMILES CC(C)CN(C)S(=O)(=O)c1ccc(C(=O)OCCOCCOCCOC(=O)c2ccc(-c3c4nc(c(-c5cc(S(=O)(=O)[O-])ccc5F)c5ccc([nH]5)c(-c5cc(S(=O)(=O)[O-])ccc5F)c5nc(c(-c6cc(S(=O)(=O)[O-])ccc6F)c6ccc3[nH]6)C=C5)C=C4)cc2)cc1
REMARK SMILES IDX 20 1 19 2 18 3 17 4 16 5 14 6 15 7 13 8 10 9 11 10 92 11
REMARK SMILES IDX 12 12 91 13 7 14 8 15 9 16 5 17 6 18 4 19 2 20 1 21 3 22
REMARK SMILES IDX 21 23 22 24 23 25 24 26 25 27 26 28 27 29 28 30 29 31 90 32
REMARK SMILES IDX 30 33 89 34 31 35 32 36 33 37 83 38 34 39 88 40 82 41 84 42
REMARK SMILES IDX 35 43 87 44 81 45 80 46 36 48 68 49 48 50 67 51 49 52 52 53
REMARK SMILES IDX 66 54 85 55 50 56 51 57 65 59 86 60 53 61 37 62 38 63 46 64
REMARK SMILES IDX 39 65 45 66 47 67 44 68 40 69 41 70 42 71 43 72 69 73 70 74
REMARK SMILES IDX 78 75 71 76 77 77 79 78 76 79 72 80 73 81 74 82 75 83 54 84
REMARK SMILES IDX 55 85 63 86 56 87 62 88 64 89 61 90 57 91 58 92 59 93 60 94
REMARK H PARENT 84 47 52 58
REMARK Flexibility Score: inf
ROOT
ATOM      1  C   UNL A   1      46.027  21.720  39.842  1.00  0.00     0.188 C 
ENDROOT
BRANCH   1   2
ATOM      2  O   UNL A   1      46.227  21.033  38.617  1.00  0.00    -0.376 OA
BRANCH   2   3
ATOM      3  C   UNL A   1      46.607  19.666  38.612  1.00  0.00     0.202 C 
BRANCH   3   4
ATOM      4  C   UNL A   1      46.421  18.835  39.879  1.00  0.00     0.261 C 
BRANCH   4   5
ATOM      5  O   UNL A   1      46.235  17.439  39.606  1.00  0.00    -0.460 OA
BRANCH   5   6
ATOM      6  C   UNL A   1      45.020  16.963  39.971  1.00  0.00     0.338 C 
ATOM      7  O   UNL A   1      44.015  16.919  39.282  1.00  0.00    -0.246 OA
BRANCH   6   8
ATOM      8  C   UNL A   1      45.080  16.344  41.309  1.00  0.00     0.060 A 
ATOM      9  C   UNL A   1      45.068  15.549  43.972  1.00  0.00     0.082 A 
ATOM     10  C   UNL A   1      43.856  15.770  43.311  1.00  0.00     0.022 A 
ATOM     11  C   UNL A   1      46.288  15.643  43.288  1.00  0.00     0.022 A 
ATOM     12  C   UNL A   1      43.864  16.183  41.983  1.00  0.00     0.017 A 
ATOM     13  C   UNL A   1      46.291  16.029  41.940  1.00  0.00     0.017 A 
BRANCH   9  14
ATOM     14  S   UNL A   1      44.991  15.357  45.738  1.00  0.00     0.242 S 
ATOM     15  O   UNL A   1      44.380  16.551  46.282  1.00  0.00    -0.207 OA
ATOM     16  O   UNL A   1      46.317  14.945  46.136  1.00  0.00    -0.207 OA
BRANCH  14  17
ATOM     17  N   UNL A   1      43.893  14.057  46.046  1.00  0.00    -0.201 NA
ATOM     18  C   UNL A   1      43.210  14.200  47.368  1.00  0.00     0.124 C 
BRANCH  17  19
ATOM     19  C   UNL A   1      44.581  12.714  45.970  1.00  0.00     0.105 C 
BRANCH  19  20
ATOM     20  C   UNL A   1      44.260  11.956  44.667  1.00  0.00    -0.002 C 
ATOM     21  C   UNL A   1      44.370  10.437  44.808  1.00  0.00     0.009 C 
ATOM     22  C   UNL A   1      42.832  12.300  44.222  1.00  0.00     0.009 C 
ENDBRANCH  19  20
ENDBRANCH  17  19
ENDBRANCH  14  17
ENDBRANCH   9  14
ENDBRANCH   6   8
ENDBRANCH   5   6
ENDBRANCH   4   5
ENDBRANCH   3   4
ENDBRANCH   2   3
ENDBRANCH   1   2
BRANCH   1  23
ATOM     23  C   UNL A   1      45.305  23.085  39.885  1.00  0.00     0.188 C 
BRANCH  23  24
ATOM     24  O   UNL A   1      46.014  24.290  39.646  1.00  0.00    -0.376 OA
BRANCH  24  25
ATOM     25  C   UNL A   1      46.927  24.353  38.560  1.00  0.00     0.202 C 
BRANCH  25  26
ATOM     26  C   UNL A   1      47.885  25.538  38.477  1.00  0.00     0.261 C 
BRANCH  26  27
ATOM     27  O   UNL A   1      47.308  26.661  37.796  1.00  0.00    -0.460 OA
BRANCH  27  28
ATOM     28  C   UNL A   1      47.832  26.910  36.571  1.00  0.00     0.338 C 
ATOM     29  O   UNL A   1      49.003  26.830  36.243  1.00  0.00    -0.246 OA
BRANCH  28  30
ATOM     30  C   UNL A   1      46.742  27.135  35.605  1.00  0.00     0.060 A 
ATOM     31  C   UNL A   1      46.827  28.264  34.781  1.00  0.00     0.016 A 
ATOM     32  C   UNL A   1      45.626  26.296  35.555  1.00  0.00     0.016 A 
ATOM     33  C   UNL A   1      45.771  28.584  33.930  1.00  0.00     0.010 A 
ATOM     34  C   UNL A   1      44.561  26.629  34.714  1.00  0.00     0.010 A 
ATOM     35  C   UNL A   1      44.616  27.791  33.924  1.00  0.00    -0.014 A 
BRANCH  35  36
ATOM     36  C   UNL A   1      43.402  28.274  33.225  1.00  0.00     0.031 A 
ATOM     37  C   UNL A   1      43.182  27.861  31.797  1.00  0.00     0.074 A 
ATOM     38  C   UNL A   1      42.508  29.055  33.854  1.00  0.00     0.049 A 
ATOM     39  N   UNL A   1      42.221  28.190  30.974  1.00  0.00    -0.248 NA
ATOM     40  C   UNL A   1      44.189  26.956  31.220  1.00  0.00     0.031 C 
ATOM     41  C   UNL A   1      42.598  29.487  35.248  1.00  0.00     0.029 A 
ATOM     42  N   UNL A   1      41.352  29.632  33.394  1.00  0.00    -0.354 N 
ATOM     43  C   UNL A   1      42.501  27.528  29.783  1.00  0.00     0.074 A 
ATOM     44  C   UNL A   1      43.743  26.811  29.982  1.00  0.00     0.031 C 
ATOM     45  C   UNL A   1      41.547  30.281  35.525  1.00  0.00     0.029 A 
ATOM     46  C   UNL A   1      40.732  30.437  34.321  1.00  0.00     0.049 A 
ATOM     47  H   UNL A   1      40.999  29.485  32.487  1.00  0.00     0.167 HD
ATOM     48  C   UNL A   1      41.784  27.516  28.631  1.00  0.00     0.034 A 
ATOM     49  C   UNL A   1      39.647  31.227  34.199  1.00  0.00     0.034 A 
ATOM     50  C   UNL A   1      40.566  28.261  28.437  1.00  0.00     0.049 A 
ATOM     51  C   UNL A   1      38.915  31.273  32.880  1.00  0.00     0.074 A 
ATOM     52  C   UNL A   1      39.757  28.319  27.316  1.00  0.00     0.029 A 
ATOM     53  N   UNL A   1      39.988  29.097  29.385  1.00  0.00    -0.354 N 
ATOM     54  N   UNL A   1      39.181  30.634  31.763  1.00  0.00    -0.248 NA
ATOM     55  C   UNL A   1      37.735  32.145  32.806  1.00  0.00     0.031 C 
ATOM     56  C   UNL A   1      38.729  29.238  27.562  1.00  0.00     0.029 A 
ATOM     57  C   UNL A   1      38.855  29.700  28.862  1.00  0.00     0.049 A 
ATOM     58  H   UNL A   1      40.334  29.241  30.296  1.00  0.00     0.167 HD
ATOM     59  C   UNL A   1      38.183  31.005  30.866  1.00  0.00     0.074 A 
ATOM     60  C   UNL A   1      37.308  31.916  31.572  1.00  0.00     0.031 C 
ATOM     61  C   UNL A   1      37.999  30.619  29.577  1.00  0.00     0.034 A 
BRANCH  48  62
ATOM     62  C   UNL A   1      42.346  26.714  27.485  1.00  0.00     0.023 A 
ATOM     63  C   UNL A   1      42.203  25.315  27.422  1.00  0.00     0.031 A 
ATOM     64  C   UNL A   1      43.080  27.347  26.468  1.00  0.00     0.131 A 
ATOM     65  C   UNL A   1      42.846  24.591  26.408  1.00  0.00     0.055 A 
ATOM     66  C   UNL A   1      43.656  26.628  25.418  1.00  0.00     0.041 A 
ATOM     67  F   UNL A   1      43.271  28.676  26.489  1.00  0.00    -0.206 F 
ATOM     68  C   UNL A   1      43.553  25.240  25.392  1.00  0.00     0.022 A 
BRANCH  65  69
ATOM     69  S   UNL A   1      42.870  22.780  26.515  1.00  0.00     0.124 S 
ATOM     70  O   UNL A   1      44.298  22.495  26.398  1.00  0.00    -0.237 OA
ATOM     71  O   UNL A   1      42.275  22.535  27.824  1.00  0.00    -0.237 OA
ATOM     72  O   UNL A   1      42.062  22.358  25.373  1.00  0.00    -0.744 OA
ENDBRANCH  65  69
ENDBRANCH  48  62
BRANCH  49  73
ATOM     73  C   UNL A   1      39.207  32.082  35.339  1.00  0.00     0.023 A 
ATOM     74  C   UNL A   1      38.556  31.532  36.453  1.00  0.00     0.031 A 
ATOM     75  C   UNL A   1      39.387  33.476  35.298  1.00  0.00     0.131 A 
ATOM     76  C   UNL A   1      38.071  32.376  37.464  1.00  0.00     0.055 A 
ATOM     77  C   UNL A   1      38.945  34.307  36.328  1.00  0.00     0.041 A 
ATOM     78  F   UNL A   1      40.004  34.051  34.252  1.00  0.00    -0.206 F 
ATOM     79  C   UNL A   1      38.271  33.758  37.415  1.00  0.00     0.022 A 
BRANCH  76  80
ATOM     80  S   UNL A   1      37.103  31.649  38.815  1.00  0.00     0.124 S 
ATOM     81  O   UNL A   1      35.873  32.430  38.753  1.00  0.00    -0.237 OA
ATOM     82  O   UNL A   1      37.000  30.254  38.397  1.00  0.00    -0.237 OA
ATOM     83  O   UNL A   1      37.934  31.884  39.994  1.00  0.00    -0.744 OA
ENDBRANCH  76  80
ENDBRANCH  49  73
BRANCH  61  84
ATOM     84  C   UNL A   1      36.779  31.152  28.868  1.00  0.00     0.023 A 
ATOM     85  C   UNL A   1      35.760  30.302  28.405  1.00  0.00     0.031 A 
ATOM     86  C   UNL A   1      36.641  32.534  28.648  1.00  0.00     0.131 A 
ATOM     87  C   UNL A   1      34.668  30.838  27.705  1.00  0.00     0.055 A 
ATOM     88  C   UNL A   1      35.527  33.067  27.997  1.00  0.00     0.041 A 
ATOM     89  F   UNL A   1      37.585  33.390  29.069  1.00  0.00    -0.206 F 
ATOM     90  C   UNL A   1      34.539  32.216  27.511  1.00  0.00     0.022 A 
BRANCH  87  91
ATOM     91  S   UNL A   1      33.450  29.704  26.982  1.00  0.00     0.124 S 
ATOM     92  O   UNL A   1      32.196  30.412  27.220  1.00  0.00    -0.237 OA
ATOM     93  O   UNL A   1      33.884  29.626  25.591  1.00  0.00    -0.237 OA
ATOM     94  O   UNL A   1      33.624  28.475  27.755  1.00  0.00    -0.744 OA
ENDBRANCH  87  91
ENDBRANCH  61  84
ENDBRANCH  35  36
ENDBRANCH  28  30
ENDBRANCH  27  28
ENDBRANCH  26  27
ENDBRANCH  25  26
ENDBRANCH  24  25
ENDBRANCH  23  24
ENDBRANCH   1  23
TORSDOF 24
ENDMDL
MODEL 2
REMARK VINA RESULT:      -8.9      9.902     13.872
REMARK SMILES CC(C)CN(C)S(=O)(=O)c1ccc(C(=O)OCCOCCOCCOC(=O)c2ccc(-c3c4nc(c(-c5cc(S(=O)(=O)[O-])ccc5F)c5ccc([nH]5)c(-c5cc(S(=O)(=O)[O-])ccc5F)c5nc(c(-c6cc(S(=O)(=O)[O-])ccc6F)c6ccc3[nH]6)C=C5)C=C4)cc2)cc1
REMARK SMILES IDX 20 1 19 2 18 3 17 4 16 5 14 6 15 7 13 8 10 9 11 10 92 11
REMARK SMILES IDX 12 12 91 13 7 14 8 15 9 16 5 17 6 18 4 19 2 20 1 21 3 22
REMARK SMILES IDX 21 23 22 24 23 25 24 26 25 27 26 28 27 29 28 30 29 31 90 32
REMARK SMILES IDX 30 33 89 34 31 35 32 36 33 37 83 38 34 39 88 40 82 41 84 42
REMARK SMILES IDX 35 43 87 44 81 45 80 46 36 48 68 49 48 50 67 51 49 52 52 53
REMARK SMILES IDX 66 54 85 55 50 56 51 57 65 59 86 60 53 61 37 62 38 63 46 64
REMARK SMILES IDX 39 65 45 66 47 67 44 68 40 69 41 70 42 71 43 72 69 73 70 74
REMARK SMILES IDX 78 75 71 76 77 77 79 78 76 79 72 80 73 81 74 82 75 83 54 84
REMARK SMILES IDX 55 85 63 86 56 87 62 88 64 89 61 90 57 91 58 92 59 93 60 94
REMARK H PARENT 84 47 52 58
REMARK Flexibility Score: inf
ROOT
ATOM      1  C   UNL A   1      41.942  22.355  27.187  1.00  0.00     0.188 C 
ENDROOT
BRANCH   1   2
ATOM      2  O   UNL A   1      41.561  23.647  26.740  1.00  0.00    -0.376 OA
BRANCH   2   3
ATOM      3  C   UNL A   1      40.508  24.349  27.384  1.00  0.00     0.202 C 
BRANCH   3   4
ATOM      4  C   UNL A   1      39.178  24.529  26.657  1.00  0.00     0.261 C 
BRANCH   4   5
ATOM      5  O   UNL A   1      38.255  23.462  26.916  1.00  0.00    -0.460 OA
BRANCH   5   6
ATOM      6  C   UNL A   1      37.994  22.686  25.837  1.00  0.00     0.338 C 
ATOM      7  O   UNL A   1      38.663  21.749  25.431  1.00  0.00    -0.246 OA
BRANCH   6   8
ATOM      8  C   UNL A   1      36.678  23.018  25.257  1.00  0.00     0.060 A 
ATOM      9  C   UNL A   1      34.396  23.963  23.984  1.00  0.00     0.082 A 
ATOM     10  C   UNL A   1      35.405  23.353  23.232  1.00  0.00     0.022 A 
ATOM     11  C   UNL A   1      34.482  24.032  25.381  1.00  0.00     0.022 A 
ATOM     12  C   UNL A   1      36.553  22.894  23.869  1.00  0.00     0.017 A 
ATOM     13  C   UNL A   1      35.628  23.540  26.024  1.00  0.00     0.017 A 
BRANCH   9  14
ATOM     14  S   UNL A   1      33.129  24.818  23.075  1.00  0.00     0.242 S 
ATOM     15  O   UNL A   1      33.564  24.909  21.698  1.00  0.00    -0.207 OA
ATOM     16  O   UNL A   1      32.837  26.003  23.850  1.00  0.00    -0.207 OA
BRANCH  14  17
ATOM     17  N   UNL A   1      31.736  23.794  23.085  1.00  0.00    -0.201 NA
ATOM     18  C   UNL A   1      30.489  24.544  23.420  1.00  0.00     0.124 C 
BRANCH  17  19
ATOM     19  C   UNL A   1      31.904  22.632  24.037  1.00  0.00     0.105 C 
BRANCH  19  20
ATOM     20  C   UNL A   1      32.554  21.405  23.367  1.00  0.00    -0.002 C 
ATOM     21  C   UNL A   1      32.448  20.131  24.206  1.00  0.00     0.009 C 
ATOM     22  C   UNL A   1      31.877  21.153  22.013  1.00  0.00     0.009 C 
ENDBRANCH  19  20
ENDBRANCH  17  19
ENDBRANCH  14  17
ENDBRANCH   9  14
ENDBRANCH   6   8
ENDBRANCH   5   6
ENDBRANCH   4   5
ENDBRANCH   3   4
ENDBRANCH   2   3
ENDBRANCH   1   2
BRANCH   1  23
ATOM     23  C   UNL A   1      41.992  21.156  26.215  1.00  0.00     0.188 C 
BRANCH  23  24
ATOM     24  O   UNL A   1      42.731  19.989  26.537  1.00  0.00    -0.376 OA
BRANCH  24  25
ATOM     25  C   UNL A   1      43.463  19.328  25.515  1.00  0.00     0.202 C 
BRANCH  25  26
ATOM     26  C   UNL A   1      44.615  20.070  24.843  1.00  0.00     0.261 C 
BRANCH  26  27
ATOM     27  O   UNL A   1      45.310  20.937  25.750  1.00  0.00    -0.460 OA
BRANCH  27  28
ATOM     28  C   UNL A   1      45.960  21.969  25.161  1.00  0.00     0.338 C 
ATOM     29  O   UNL A   1      46.689  21.917  24.184  1.00  0.00    -0.246 OA
BRANCH  28  30
ATOM     30  C   UNL A   1      45.525  23.239  25.769  1.00  0.00     0.060 A 
ATOM     31  C   UNL A   1      45.131  24.271  24.909  1.00  0.00     0.016 A 
ATOM     32  C   UNL A   1      45.569  23.439  27.151  1.00  0.00     0.016 A 
ATOM     33  C   UNL A   1      44.820  25.527  25.427  1.00  0.00     0.010 A 
ATOM     34  C   UNL A   1      45.273  24.703  27.667  1.00  0.00     0.010 A 
ATOM     35  C   UNL A   1      44.929  25.759  26.804  1.00  0.00    -0.014 A 
BRANCH  35  36
ATOM     36  C   UNL A   1      44.857  27.147  27.318  1.00  0.00     0.031 A 
ATOM     37  C   UNL A   1      46.121  27.958  27.381  1.00  0.00     0.074 A 
ATOM     38  C   UNL A   1      43.686  27.678  27.711  1.00  0.00     0.049 A 
ATOM     39  N   UNL A   1      46.310  29.172  27.829  1.00  0.00    -0.248 NA
ATOM     40  C   UNL A   1      47.337  27.305  26.871  1.00  0.00     0.031 C 
ATOM     41  C   UNL A   1      42.393  26.998  27.660  1.00  0.00     0.029 A 
ATOM     42  N   UNL A   1      43.402  28.909  28.242  1.00  0.00    -0.354 N 
ATOM     43  C   UNL A   1      47.664  29.433  27.650  1.00  0.00     0.074 A 
ATOM     44  C   UNL A   1      48.253  28.236  27.089  1.00  0.00     0.031 C 
ATOM     45  C   UNL A   1      41.451  27.819  28.160  1.00  0.00     0.029 A 
ATOM     46  C   UNL A   1      42.082  29.065  28.594  1.00  0.00     0.049 A 
ATOM     47  H   UNL A   1      44.078  29.616  28.360  1.00  0.00     0.167 HD
ATOM     48  C   UNL A   1      48.351  30.570  27.925  1.00  0.00     0.034 A 
ATOM     49  C   UNL A   1      41.464  30.086  29.220  1.00  0.00     0.034 A 
ATOM     50  C   UNL A   1      47.757  31.744  28.514  1.00  0.00     0.049 A 
ATOM     51  C   UNL A   1      42.265  31.307  29.604  1.00  0.00     0.074 A 
ATOM     52  C   UNL A   1      48.356  32.950  28.831  1.00  0.00     0.029 A 
ATOM     53  N   UNL A   1      46.424  31.852  28.896  1.00  0.00    -0.354 N 
ATOM     54  N   UNL A   1      43.543  31.550  29.419  1.00  0.00    -0.248 NA
ATOM     55  C   UNL A   1      41.539  32.393  30.276  1.00  0.00     0.031 C 
ATOM     56  C   UNL A   1      47.404  33.761  29.462  1.00  0.00     0.029 A 
ATOM     57  C   UNL A   1      46.193  33.089  29.475  1.00  0.00     0.049 A 
ATOM     58  H   UNL A   1      45.744  31.150  28.773  1.00  0.00     0.167 HD
ATOM     59  C   UNL A   1      43.765  32.827  29.926  1.00  0.00     0.074 A 
ATOM     60  C   UNL A   1      42.489  33.306  30.417  1.00  0.00     0.031 C 
ATOM     61  C   UNL A   1      44.916  33.546  29.973  1.00  0.00     0.034 A 
BRANCH  48  62
ATOM     62  C   UNL A   1      49.832  30.560  27.640  1.00  0.00     0.023 A 
ATOM     63  C   UNL A   1      50.345  30.947  26.388  1.00  0.00     0.031 A 
ATOM     64  C   UNL A   1      50.739  30.107  28.612  1.00  0.00     0.131 A 
ATOM     65  C   UNL A   1      51.714  30.805  26.120  1.00  0.00     0.055 A 
ATOM     66  C   UNL A   1      52.111  30.038  28.364  1.00  0.00     0.041 A 
ATOM     67  F   UNL A   1      50.303  29.701  29.816  1.00  0.00    -0.206 F 
ATOM     68  C   UNL A   1      52.605  30.374  27.106  1.00  0.00     0.022 A 
BRANCH  65  69
ATOM     69  S   UNL A   1      52.295  31.050  24.418  1.00  0.00     0.124 S 
ATOM     70  O   UNL A   1      51.707  32.347  24.088  1.00  0.00    -0.237 OA
ATOM     71  O   UNL A   1      53.744  31.027  24.574  1.00  0.00    -0.237 OA
ATOM     72  O   UNL A   1      51.726  29.914  23.694  1.00  0.00    -0.744 OA
ENDBRANCH  65  69
ENDBRANCH  48  62
BRANCH  49  73
ATOM     73  C   UNL A   1      40.019  29.988  29.574  1.00  0.00     0.023 A 
ATOM     74  C   UNL A   1      39.594  30.009  30.911  1.00  0.00     0.031 A 
ATOM     75  C   UNL A   1      39.047  29.815  28.573  1.00  0.00     0.131 A 
ATOM     76  C   UNL A   1      38.236  29.819  31.215  1.00  0.00     0.055 A 
ATOM     77  C   UNL A   1      37.693  29.674  28.877  1.00  0.00     0.041 A 
ATOM     78  F   UNL A   1      39.403  29.787  27.278  1.00  0.00    -0.206 F 
ATOM     79  C   UNL A   1      37.282  29.664  30.207  1.00  0.00     0.022 A 
BRANCH  76  80
ATOM     80  S   UNL A   1      37.743  29.702  32.956  1.00  0.00     0.124 S 
ATOM     81  O   UNL A   1      37.347  28.303  33.059  1.00  0.00    -0.237 OA
ATOM     82  O   UNL A   1      38.973  30.074  33.646  1.00  0.00    -0.237 OA
ATOM     83  O   UNL A   1      36.652  30.669  33.067  1.00  0.00    -0.744 OA
ENDBRANCH  76  80
ENDBRANCH  49  73
BRANCH  61  84
ATOM     84  C   UNL A   1      44.831  34.943  30.537  1.00  0.00     0.023 A 
ATOM     85  C   UNL A   1      45.062  35.209  31.898  1.00  0.00     0.031 A 
ATOM     86  C   UNL A   1      44.506  36.022  29.695  1.00  0.00     0.131 A 
ATOM     87  C   UNL A   1      44.920  36.517  32.387  1.00  0.00     0.055 A 
ATOM     88  C   UNL A   1      44.417  37.329  30.178  1.00  0.00     0.041 A 
ATOM     89  F   UNL A   1      44.274  35.823  28.389  1.00  0.00    -0.206 F 
ATOM     90  C   UNL A   1      44.614  37.579  31.533  1.00  0.00     0.022 A 
BRANCH  87  91
ATOM     91  S   UNL A   1      45.068  36.803  34.172  1.00  0.00     0.124 S 
ATOM     92  O   UNL A   1      43.680  37.029  34.560  1.00  0.00    -0.237 OA
ATOM     93  O   UNL A   1      45.667  35.557  34.640  1.00  0.00    -0.237 OA
ATOM     94  O   UNL A   1      45.936  37.977  34.261  1.00  0.00    -0.744 OA
ENDBRANCH  87  91
ENDBRANCH  61  84
ENDBRANCH  35  36
ENDBRANCH  28  30
ENDBRANCH  27  28
ENDBRANCH  26  27
ENDBRANCH  25  26
ENDBRANCH  24  25
ENDBRANCH  23  24
ENDBRANCH   1  23
TORSDOF 24
ENDMDL
MODEL 3
REMARK VINA RESULT:      -8.8      9.845     14.530
REMARK SMILES CC(C)CN(C)S(=O)(=O)c1ccc(C(=O)OCCOCCOCCOC(=O)c2ccc(-c3c4nc(c(-c5cc(S(=O)(=O)[O-])ccc5F)c5ccc([nH]5)c(-c5cc(S(=O)(=O)[O-])ccc5F)c5nc(c(-c6cc(S(=O)(=O)[O-])ccc6F)c6ccc3[nH]6)C=C5)C=C4)cc2)cc1
REMARK SMILES IDX 20 1 19 2 18 3 17 4 16 5 14 6 15 7 13 8 10 9 11 10 92 11
REMARK SMILES IDX 12 12 91 13 7 14 8 15 9 16 5 17 6 18 4 19 2 20 1 21 3 22
REMARK SMILES IDX 21 23 22 24 23 25 24 26 25 27 26 28 27 29 28 30 29 31 90 32
REMARK SMILES IDX 30 33 89 34 31 35 32 36 33 37 83 38 34 39 88 40 82 41 84 42
REMARK SMILES IDX 35 43 87 44 81 45 80 46 36 48 68 49 48 50 67 51 49 52 52 53
REMARK SMILES IDX 66 54 85 55 50 56 51 57 65 59 86 60 53 61 37 62 38 63 46 64
REMARK SMILES IDX 39 65 45 66 47 67 44 68 40 69 41 70 42 71 43 72 69 73 70 74
REMARK SMILES IDX 78 75 71 76 77 77 79 78 76 79 72 80 73 81 74 82 75 83 54 84
REMARK SMILES IDX 55 85 63 86 56 87 62 88 64 89 61 90 57 91 58 92 59 93 60 94
REMARK H PARENT 84 47 52 58
REMARK Flexibility Score: inf
ROOT
ATOM      1  C   UNL A   1      41.986  22.017  27.267  1.00  0.00     0.188 C 
ENDROOT
BRANCH   1   2
ATOM      2  O   UNL A   1      41.680  23.168  26.495  1.00  0.00    -0.376 OA
BRANCH   2   3
ATOM      3  C   UNL A   1      40.777  24.145  26.988  1.00  0.00     0.202 C 
BRANCH   3   4
ATOM      4  C   UNL A   1      39.407  24.294  26.331  1.00  0.00     0.261 C 
BRANCH   4   5
ATOM      5  O   UNL A   1      38.466  23.308  26.780  1.00  0.00    -0.460 OA
BRANCH   5   6
ATOM      6  C   UNL A   1      38.021  22.485  25.801  1.00  0.00     0.338 C 
ATOM      7  O   UNL A   1      38.534  21.440  25.435  1.00  0.00    -0.246 OA
BRANCH   6   8
ATOM      8  C   UNL A   1      36.711  22.934  25.292  1.00  0.00     0.060 A 
ATOM      9  C   UNL A   1      34.457  24.077  24.138  1.00  0.00     0.082 A 
ATOM     10  C   UNL A   1      35.357  23.365  23.339  1.00  0.00     0.022 A 
ATOM     11  C   UNL A   1      34.631  24.154  25.525  1.00  0.00     0.022 A 
ATOM     12  C   UNL A   1      36.492  22.807  23.916  1.00  0.00     0.017 A 
ATOM     13  C   UNL A   1      35.761  23.562  26.109  1.00  0.00     0.017 A 
BRANCH   9  14
ATOM     14  S   UNL A   1      33.225  25.039  23.289  1.00  0.00     0.242 S 
ATOM     15  O   UNL A   1      33.663  25.202  21.919  1.00  0.00    -0.207 OA
ATOM     16  O   UNL A   1      32.979  26.181  24.139  1.00  0.00    -0.207 OA
BRANCH  14  17
ATOM     17  N   UNL A   1      31.792  24.072  23.236  1.00  0.00    -0.201 NA
ATOM     18  C   UNL A   1      30.552  24.904  23.207  1.00  0.00     0.124 C 
BRANCH  17  19
ATOM     19  C   UNL A   1      31.730  23.102  24.394  1.00  0.00     0.105 C 
BRANCH  19  20
ATOM     20  C   UNL A   1      31.789  21.631  23.940  1.00  0.00    -0.002 C 
ATOM     21  C   UNL A   1      32.197  21.465  22.476  1.00  0.00     0.009 C 
ATOM     22  C   UNL A   1      32.798  20.874  24.815  1.00  0.00     0.009 C 
ENDBRANCH  19  20
ENDBRANCH  17  19
ENDBRANCH  14  17
ENDBRANCH   9  14
ENDBRANCH   6   8
ENDBRANCH   5   6
ENDBRANCH   4   5
ENDBRANCH   3   4
ENDBRANCH   2   3
ENDBRANCH   1   2
BRANCH   1  23
ATOM     23  C   UNL A   1      41.788  20.596  26.696  1.00  0.00     0.188 C 
BRANCH  23  24
ATOM     24  O   UNL A   1      42.571  19.509  27.164  1.00  0.00    -0.376 OA
BRANCH  24  25
ATOM     25  C   UNL A   1      42.881  18.446  26.274  1.00  0.00     0.202 C 
BRANCH  25  26
ATOM     26  C   UNL A   1      43.605  18.771  24.971  1.00  0.00     0.261 C 
BRANCH  26  27
ATOM     27  O   UNL A   1      44.718  19.654  25.168  1.00  0.00    -0.460 OA
BRANCH  27  28
ATOM     28  C   UNL A   1      44.800  20.670  24.276  1.00  0.00     0.338 C 
ATOM     29  O   UNL A   1      44.657  20.601  23.067  1.00  0.00    -0.246 OA
BRANCH  28  30
ATOM     30  C   UNL A   1      44.922  21.951  24.996  1.00  0.00     0.060 A 
ATOM     31  C   UNL A   1      44.495  23.110  24.337  1.00  0.00     0.016 A 
ATOM     32  C   UNL A   1      45.507  22.023  26.262  1.00  0.00     0.016 A 
ATOM     33  C   UNL A   1      44.693  24.357  24.927  1.00  0.00     0.010 A 
ATOM     34  C   UNL A   1      45.720  23.275  26.845  1.00  0.00     0.010 A 
ATOM     35  C   UNL A   1      45.343  24.447  26.164  1.00  0.00    -0.014 A 
BRANCH  35  36
ATOM     36  C   UNL A   1      45.785  25.771  26.662  1.00  0.00     0.031 A 
ATOM     37  C   UNL A   1      47.141  26.276  26.255  1.00  0.00     0.074 A 
ATOM     38  C   UNL A   1      44.990  26.513  27.452  1.00  0.00     0.049 A 
ATOM     39  N   UNL A   1      47.756  27.378  26.597  1.00  0.00    -0.248 NA
ATOM     40  C   UNL A   1      47.907  25.415  25.341  1.00  0.00     0.031 C 
ATOM     41  C   UNL A   1      43.643  26.142  27.879  1.00  0.00     0.029 A 
ATOM     42  N   UNL A   1      45.210  27.731  28.043  1.00  0.00    -0.354 N 
ATOM     43  C   UNL A   1      48.979  27.349  25.935  1.00  0.00     0.074 A 
ATOM     44  C   UNL A   1      49.032  26.100  25.204  1.00  0.00     0.031 C 
ATOM     45  C   UNL A   1      43.161  27.107  28.684  1.00  0.00     0.029 A 
ATOM     46  C   UNL A   1      44.178  28.144  28.851  1.00  0.00     0.049 A 
ATOM     47  H   UNL A   1      46.029  28.259  27.902  1.00  0.00     0.167 HD
ATOM     48  C   UNL A   1      49.965  28.281  25.934  1.00  0.00     0.034 A 
ATOM     49  C   UNL A   1      44.081  29.223  29.653  1.00  0.00     0.034 A 
ATOM     50  C   UNL A   1      49.911  29.505  26.693  1.00  0.00     0.049 A 
ATOM     51  C   UNL A   1      45.228  30.202  29.711  1.00  0.00     0.074 A 
ATOM     52  C   UNL A   1      50.849  30.521  26.762  1.00  0.00     0.029 A 
ATOM     53  N   UNL A   1      48.867  29.873  27.533  1.00  0.00    -0.354 N 
ATOM     54  N   UNL A   1      46.375  30.172  29.073  1.00  0.00    -0.248 NA
ATOM     55  C   UNL A   1      45.065  31.364  30.596  1.00  0.00     0.031 C 
ATOM     56  C   UNL A   1      50.402  31.468  27.692  1.00  0.00     0.029 A 
ATOM     57  C   UNL A   1      49.154  31.081  28.149  1.00  0.00     0.049 A 
ATOM     58  H   UNL A   1      48.044  29.351  27.670  1.00  0.00     0.167 HD
ATOM     59  C   UNL A   1      47.056  31.325  29.456  1.00  0.00     0.074 A 
ATOM     60  C   UNL A   1      46.188  32.031  30.375  1.00  0.00     0.031 C 
ATOM     61  C   UNL A   1      48.282  31.766  29.076  1.00  0.00     0.034 A 
BRANCH  48  62
ATOM     62  C   UNL A   1      51.200  27.968  25.128  1.00  0.00     0.023 A 
ATOM     63  C   UNL A   1      51.264  28.220  23.745  1.00  0.00     0.031 A 
ATOM     64  C   UNL A   1      52.311  27.360  25.739  1.00  0.00     0.131 A 
ATOM     65  C   UNL A   1      52.381  27.801  23.009  1.00  0.00     0.055 A 
ATOM     66  C   UNL A   1      53.451  27.013  25.013  1.00  0.00     0.041 A 
ATOM     67  F   UNL A   1      52.297  27.073  27.051  1.00  0.00    -0.206 F 
ATOM     68  C   UNL A   1      53.485  27.218  23.636  1.00  0.00     0.022 A 
BRANCH  65  69
ATOM     69  S   UNL A   1      52.310  27.891  21.198  1.00  0.00     0.124 S 
ATOM     70  O   UNL A   1      51.782  29.237  20.989  1.00  0.00    -0.237 OA
ATOM     71  O   UNL A   1      53.703  27.686  20.818  1.00  0.00    -0.237 OA
ATOM     72  O   UNL A   1      51.398  26.808  20.835  1.00  0.00    -0.744 OA
ENDBRANCH  65  69
ENDBRANCH  48  62
BRANCH  49  73
ATOM     73  C   UNL A   1      42.876  29.417  30.511  1.00  0.00     0.023 A 
ATOM     74  C   UNL A   1      41.718  30.031  30.011  1.00  0.00     0.031 A 
ATOM     75  C   UNL A   1      42.893  29.037  31.864  1.00  0.00     0.131 A 
ATOM     76  C   UNL A   1      40.637  30.284  30.869  1.00  0.00     0.055 A 
ATOM     77  C   UNL A   1      41.798  29.248  32.702  1.00  0.00     0.041 A 
ATOM     78  F   UNL A   1      43.978  28.447  32.391  1.00  0.00    -0.206 F 
ATOM     79  C   UNL A   1      40.664  29.886  32.208  1.00  0.00     0.022 A 
BRANCH  76  80
ATOM     80  S   UNL A   1      39.216  31.212  30.229  1.00  0.00     0.124 S 
ATOM     81  O   UNL A   1      38.204  30.944  31.243  1.00  0.00    -0.237 OA
ATOM     82  O   UNL A   1      39.738  32.574  30.186  1.00  0.00    -0.237 OA
ATOM     83  O   UNL A   1      38.970  30.600  28.924  1.00  0.00    -0.744 OA
ENDBRANCH  76  80
ENDBRANCH  49  73
BRANCH  61  84
ATOM     84  C   UNL A   1      48.733  33.097  29.624  1.00  0.00     0.023 A 
ATOM     85  C   UNL A   1      48.456  34.305  28.960  1.00  0.00     0.031 A 
ATOM     86  C   UNL A   1      49.458  33.153  30.828  1.00  0.00     0.131 A 
ATOM     87  C   UNL A   1      48.941  35.515  29.481  1.00  0.00     0.055 A 
ATOM     88  C   UNL A   1      49.893  34.364  31.368  1.00  0.00     0.041 A 
ATOM     89  F   UNL A   1      49.750  32.030  31.501  1.00  0.00    -0.206 F 
ATOM     90  C   UNL A   1      49.645  35.553  30.688  1.00  0.00     0.022 A 
BRANCH  87  91
ATOM     91  S   UNL A   1      48.705  37.036  28.522  1.00  0.00     0.124 S 
ATOM     92  O   UNL A   1      48.648  38.051  29.570  1.00  0.00    -0.237 OA
ATOM     93  O   UNL A   1      49.894  37.060  27.676  1.00  0.00    -0.237 OA
ATOM     94  O   UNL A   1      47.447  36.805  27.814  1.00  0.00    -0.744 OA
ENDBRANCH  87  91
ENDBRANCH  61  84
ENDBRANCH  35  36
ENDBRANCH  28  30
ENDBRANCH  27  28
ENDBRANCH  26  27
ENDBRANCH  25  26
ENDBRANCH  24  25
ENDBRANCH  23  24
ENDBRANCH   1  23
TORSDOF 24
ENDMDL
