MODEL 1
REMARK VINA RESULT:      -9.6      0.000      0.000
REMARK SMILES O=C(OCCOCCOCCOC(=O)c1cn2ccccc2n1)c1ccc(-c2c3nc(c(-c4cc(S(=O)(=O)[O-])ccc4F)c4ccc([nH]4)c(-c4cc(S(=O)(=O)[O-])ccc4F)c4nc(c(-c5cc(S(=O)(=O)[O-])ccc5F)c5ccc2[nH]5)C=C4)C=C3)cc1
REMARK SMILES IDX 6 1 5 2 4 3 3 4 2 5 1 6 24 7 25 8 86 9 26 10 85 11 27 12
REMARK SMILES IDX 28 13 29 14 79 15 30 16 84 17 78 18 80 19 31 20 83 21 77 22
REMARK SMILES IDX 76 23 32 25 64 26 44 27 63 28 45 29 48 30 62 31 81 32 46 33
REMARK SMILES IDX 47 34 61 36 82 37 49 38 33 39 34 40 42 41 35 42 41 43 43 44
REMARK SMILES IDX 40 45 36 46 37 47 38 48 39 49 65 50 66 51 74 52 67 53 73 54
REMARK SMILES IDX 75 55 72 56 68 57 69 58 70 59 71 60 50 61 51 62 59 63 52 64
REMARK SMILES IDX 58 65 60 66 57 67 53 68 54 69 55 70 56 71 7 72 8 73 9 74
REMARK SMILES IDX 10 75 11 76 12 77 13 78 14 79 15 80 16 81 23 82 17 83 22 84
REMARK SMILES IDX 18 85 21 86 19 87 20 88
REMARK H PARENT 80 24 48 35
REMARK Flexibility Score: inf
ROOT
ATOM      1  O   UNL A   1      32.624  34.784  29.242  1.00  0.00    -0.376 OA
ENDROOT
BRANCH   1   2
ATOM      2  C   UNL A   1      33.698  34.355  28.395  1.00  0.00     0.202 C 
BRANCH   2   3
ATOM      3  C   UNL A   1      34.484  33.096  28.832  1.00  0.00     0.261 C 
BRANCH   3   4
ATOM      4  O   UNL A   1      34.613  32.064  27.825  1.00  0.00    -0.460 OA
BRANCH   4   5
ATOM      5  C   UNL A   1      34.791  30.728  27.915  1.00  0.00     0.338 C 
ATOM      6  O   UNL A   1      33.818  29.990  27.766  1.00  0.00    -0.246 OA
BRANCH   5   7
ATOM      7  C   UNL A   1      36.097  30.109  28.283  1.00  0.00     0.060 A 
ATOM      8  C   UNL A   1      36.316  29.404  29.460  1.00  0.00     0.016 A 
ATOM      9  C   UNL A   1      37.143  30.160  27.348  1.00  0.00     0.016 A 
ATOM     10  C   UNL A   1      37.549  28.843  29.765  1.00  0.00     0.010 A 
ATOM     11  C   UNL A   1      38.375  29.551  27.618  1.00  0.00     0.010 A 
ATOM     12  C   UNL A   1      38.591  28.915  28.847  1.00  0.00    -0.014 A 
BRANCH  12  13
ATOM     13  C   UNL A   1      39.929  28.439  29.257  1.00  0.00     0.031 A 
ATOM     14  C   UNL A   1      40.648  29.194  30.334  1.00  0.00     0.074 A 
ATOM     15  C   UNL A   1      40.440  27.300  28.751  1.00  0.00     0.049 A 
ATOM     16  N   UNL A   1      41.863  29.042  30.782  1.00  0.00    -0.248 NA
ATOM     17  C   UNL A   1      39.881  30.253  31.012  1.00  0.00     0.031 C 
ATOM     18  C   UNL A   1      39.756  26.412  27.809  1.00  0.00     0.029 A 
ATOM     19  N   UNL A   1      41.650  26.691  28.955  1.00  0.00    -0.354 N 
ATOM     20  C   UNL A   1      42.014  29.993  31.783  1.00  0.00     0.074 A 
ATOM     21  C   UNL A   1      40.774  30.731  31.863  1.00  0.00     0.031 C 
ATOM     22  C   UNL A   1      40.574  25.398  27.483  1.00  0.00     0.029 A 
ATOM     23  C   UNL A   1      41.855  25.598  28.143  1.00  0.00     0.049 A 
ATOM     24  H   UNL A   1      42.308  27.004  29.618  1.00  0.00     0.167 HD
ATOM     25  C   UNL A   1      43.099  30.222  32.560  1.00  0.00     0.034 A 
ATOM     26  C   UNL A   1      42.977  24.892  27.907  1.00  0.00     0.034 A 
ATOM     27  C   UNL A   1      44.322  29.471  32.442  1.00  0.00     0.049 A 
ATOM     28  C   UNL A   1      44.224  25.280  28.650  1.00  0.00     0.074 A 
ATOM     29  C   UNL A   1      45.495  29.609  33.158  1.00  0.00     0.029 A 
ATOM     30  N   UNL A   1      44.530  28.445  31.527  1.00  0.00    -0.354 N 
ATOM     31  N   UNL A   1      44.383  26.219  29.552  1.00  0.00    -0.248 NA
ATOM     32  C   UNL A   1      45.440  24.523  28.334  1.00  0.00     0.031 C 
ATOM     33  C   UNL A   1      46.436  28.720  32.626  1.00  0.00     0.029 A 
ATOM     34  C   UNL A   1      45.828  27.975  31.626  1.00  0.00     0.049 A 
ATOM     35  H   UNL A   1      43.852  28.102  30.901  1.00  0.00     0.167 HD
ATOM     36  C   UNL A   1      45.720  26.163  29.921  1.00  0.00     0.074 A 
ATOM     37  C   UNL A   1      46.317  25.087  29.152  1.00  0.00     0.031 C 
ATOM     38  C   UNL A   1      46.395  26.921  30.820  1.00  0.00     0.034 A 
BRANCH  25  39
ATOM     39  C   UNL A   1      43.025  31.381  33.520  1.00  0.00     0.023 A 
ATOM     40  C   UNL A   1      42.598  31.225  34.850  1.00  0.00     0.031 A 
ATOM     41  C   UNL A   1      43.329  32.678  33.070  1.00  0.00     0.131 A 
ATOM     42  C   UNL A   1      42.425  32.356  35.663  1.00  0.00     0.055 A 
ATOM     43  C   UNL A   1      43.222  33.790  33.906  1.00  0.00     0.041 A 
ATOM     44  F   UNL A   1      43.710  32.887  31.800  1.00  0.00    -0.206 F 
ATOM     45  C   UNL A   1      42.755  33.635  35.207  1.00  0.00     0.022 A 
BRANCH  42  46
ATOM     46  S   UNL A   1      41.635  32.151  37.284  1.00  0.00     0.124 S 
ATOM     47  O   UNL A   1      41.788  33.486  37.858  1.00  0.00    -0.237 OA
ATOM     48  O   UNL A   1      40.276  31.762  36.928  1.00  0.00    -0.237 OA
ATOM     49  O   UNL A   1      42.434  31.110  37.927  1.00  0.00    -0.744 OA
ENDBRANCH  42  46
ENDBRANCH  25  39
BRANCH  26  50
ATOM     50  C   UNL A   1      43.030  23.881  26.813  1.00  0.00     0.023 A 
ATOM     51  C   UNL A   1      42.613  22.555  26.992  1.00  0.00     0.031 A 
ATOM     52  C   UNL A   1      43.616  24.230  25.583  1.00  0.00     0.131 A 
ATOM     53  C   UNL A   1      42.818  21.619  25.963  1.00  0.00     0.055 A 
ATOM     54  C   UNL A   1      43.766  23.311  24.545  1.00  0.00     0.041 A 
ATOM     55  F   UNL A   1      44.073  25.476  25.383  1.00  0.00    -0.206 F 
ATOM     56  C   UNL A   1      43.372  21.993  24.736  1.00  0.00     0.022 A 
BRANCH  53  57
ATOM     57  S   UNL A   1      42.453  19.871  26.287  1.00  0.00     0.124 S 
ATOM     58  O   UNL A   1      42.161  19.891  27.715  1.00  0.00    -0.237 OA
ATOM     59  O   UNL A   1      41.319  19.629  25.402  1.00  0.00    -0.237 OA
ATOM     60  O   UNL A   1      43.691  19.192  25.910  1.00  0.00    -0.744 OA
ENDBRANCH  53  57
ENDBRANCH  26  50
BRANCH  38  61
ATOM     61  C   UNL A   1      47.843  26.578  31.024  1.00  0.00     0.023 A 
ATOM     62  C   UNL A   1      48.237  25.591  31.942  1.00  0.00     0.031 A 
ATOM     63  C   UNL A   1      48.837  27.265  30.308  1.00  0.00     0.131 A 
ATOM     64  C   UNL A   1      49.600  25.352  32.157  1.00  0.00     0.055 A 
ATOM     65  C   UNL A   1      50.189  26.979  30.482  1.00  0.00     0.041 A 
ATOM     66  F   UNL A   1      48.505  28.222  29.427  1.00  0.00    -0.206 F 
ATOM     67  C   UNL A   1      50.578  26.025  31.419  1.00  0.00     0.022 A 
BRANCH  64  68
ATOM     68  S   UNL A   1      50.081  24.203  33.473  1.00  0.00     0.124 S 
ATOM     69  O   UNL A   1      48.818  24.003  34.174  1.00  0.00    -0.237 OA
ATOM     70  O   UNL A   1      50.582  23.056  32.722  1.00  0.00    -0.237 OA
ATOM     71  O   UNL A   1      51.097  24.944  34.219  1.00  0.00    -0.744 OA
ENDBRANCH  64  68
ENDBRANCH  38  61
ENDBRANCH  12  13
ENDBRANCH   5   7
ENDBRANCH   4   5
ENDBRANCH   3   4
ENDBRANCH   2   3
ENDBRANCH   1   2
BRANCH   1  72
ATOM     72  C   UNL A   1      32.884  35.988  29.960  1.00  0.00     0.188 C 
BRANCH  72  73
ATOM     73  C   UNL A   1      32.535  36.017  31.457  1.00  0.00     0.188 C 
BRANCH  73  74
ATOM     74  O   UNL A   1      32.782  34.904  32.301  1.00  0.00    -0.376 OA
BRANCH  74  75
ATOM     75  C   UNL A   1      34.027  34.803  32.967  1.00  0.00     0.202 C 
BRANCH  75  76
ATOM     76  C   UNL A   1      34.449  33.461  33.577  1.00  0.00     0.261 C 
BRANCH  76  77
ATOM     77  O   UNL A   1      35.361  33.551  34.674  1.00  0.00    -0.458 OA
BRANCH  77  78
ATOM     78  C   UNL A   1      36.561  32.932  34.479  1.00  0.00     0.358 C 
ATOM     79  O   UNL A   1      37.139  32.250  35.328  1.00  0.00    -0.244 OA
BRANCH  78  80
ATOM     80  C   UNL A   1      37.147  33.207  33.172  1.00  0.00     0.167 A 
ATOM     81  C   UNL A   1      38.074  34.203  32.928  1.00  0.00     0.128 A 
ATOM     82  N   UNL A   1      36.879  32.507  32.000  1.00  0.00    -0.222 NA
ATOM     83  N   UNL A   1      38.401  34.105  31.607  1.00  0.00    -0.306 N 
ATOM     84  C   UNL A   1      37.666  33.044  31.084  1.00  0.00     0.137 A 
ATOM     85  C   UNL A   1      39.278  34.885  30.862  1.00  0.00     0.093 A 
ATOM     86  C   UNL A   1      37.859  32.754  29.700  1.00  0.00     0.048 A 
ATOM     87  C   UNL A   1      39.451  34.611  29.558  1.00  0.00     0.018 A 
ATOM     88  C   UNL A   1      38.713  33.502  28.972  1.00  0.00     0.005 A 
ENDBRANCH  78  80
ENDBRANCH  77  78
ENDBRANCH  76  77
ENDBRANCH  75  76
ENDBRANCH  74  75
ENDBRANCH  73  74
ENDBRANCH  72  73
ENDBRANCH   1  72
TORSDOF 20
ENDMDL
MODEL 2
REMARK VINA RESULT:      -9.2      1.698      2.175
REMARK SMILES O=C(OCCOCCOCCOC(=O)c1cn2ccccc2n1)c1ccc(-c2c3nc(c(-c4cc(S(=O)(=O)[O-])ccc4F)c4ccc([nH]4)c(-c4cc(S(=O)(=O)[O-])ccc4F)c4nc(c(-c5cc(S(=O)(=O)[O-])ccc5F)c5ccc2[nH]5)C=C4)C=C3)cc1
REMARK SMILES IDX 6 1 5 2 4 3 3 4 2 5 1 6 24 7 25 8 86 9 26 10 85 11 27 12
REMARK SMILES IDX 28 13 29 14 79 15 30 16 84 17 78 18 80 19 31 20 83 21 77 22
REMARK SMILES IDX 76 23 32 25 64 26 44 27 63 28 45 29 48 30 62 31 81 32 46 33
REMARK SMILES IDX 47 34 61 36 82 37 49 38 33 39 34 40 42 41 35 42 41 43 43 44
REMARK SMILES IDX 40 45 36 46 37 47 38 48 39 49 65 50 66 51 74 52 67 53 73 54
REMARK SMILES IDX 75 55 72 56 68 57 69 58 70 59 71 60 50 61 51 62 59 63 52 64
REMARK SMILES IDX 58 65 60 66 57 67 53 68 54 69 55 70 56 71 7 72 8 73 9 74
REMARK SMILES IDX 10 75 11 76 12 77 13 78 14 79 15 80 16 81 23 82 17 83 22 84
REMARK SMILES IDX 18 85 21 86 19 87 20 88
REMARK H PARENT 80 24 48 35
REMARK Flexibility Score: inf
ROOT
ATOM      1  O   UNL A   1      32.521  35.210  29.699  1.00  0.00    -0.376 OA
ENDROOT
BRANCH   1   2
ATOM      2  C   UNL A   1      33.025  34.580  28.514  1.00  0.00     0.202 C 
BRANCH   2   3
ATOM      3  C   UNL A   1      34.541  34.274  28.467  1.00  0.00     0.261 C 
BRANCH   3   4
ATOM      4  O   UNL A   1      34.922  33.155  27.629  1.00  0.00    -0.460 OA
BRANCH   4   5
ATOM      5  C   UNL A   1      34.926  31.822  27.846  1.00  0.00     0.338 C 
ATOM      6  O   UNL A   1      33.867  31.204  27.750  1.00  0.00    -0.246 OA
BRANCH   5   7
ATOM      7  C   UNL A   1      36.140  31.078  28.290  1.00  0.00     0.060 A 
ATOM      8  C   UNL A   1      36.218  29.693  28.359  1.00  0.00     0.016 A 
ATOM      9  C   UNL A   1      37.304  31.813  28.567  1.00  0.00     0.016 A 
ATOM     10  C   UNL A   1      37.369  29.040  28.779  1.00  0.00     0.010 A 
ATOM     11  C   UNL A   1      38.488  31.165  28.939  1.00  0.00     0.010 A 
ATOM     12  C   UNL A   1      38.514  29.770  29.076  1.00  0.00    -0.014 A 
BRANCH  12  13
ATOM     13  C   UNL A   1      39.674  29.063  29.658  1.00  0.00     0.031 A 
ATOM     14  C   UNL A   1      40.272  29.608  30.921  1.00  0.00     0.074 A 
ATOM     15  C   UNL A   1      40.113  27.906  29.127  1.00  0.00     0.049 A 
ATOM     16  N   UNL A   1      41.349  29.235  31.554  1.00  0.00    -0.248 NA
ATOM     17  C   UNL A   1      39.540  30.710  31.567  1.00  0.00     0.031 C 
ATOM     18  C   UNL A   1      39.506  27.215  27.988  1.00  0.00     0.029 A 
ATOM     19  N   UNL A   1      41.171  27.105  29.471  1.00  0.00    -0.354 N 
ATOM     20  C   UNL A   1      41.435  30.066  32.665  1.00  0.00     0.074 A 
ATOM     21  C   UNL A   1      40.313  30.975  32.608  1.00  0.00     0.031 C 
ATOM     22  C   UNL A   1      40.227  26.118  27.701  1.00  0.00     0.029 A 
ATOM     23  C   UNL A   1      41.376  26.065  28.592  1.00  0.00     0.049 A 
ATOM     24  H   UNL A   1      41.727  27.258  30.268  1.00  0.00     0.167 HD
ATOM     25  C   UNL A   1      42.375  30.061  33.639  1.00  0.00     0.034 A 
ATOM     26  C   UNL A   1      42.416  25.219  28.479  1.00  0.00     0.034 A 
ATOM     27  C   UNL A   1      43.486  29.145  33.655  1.00  0.00     0.049 A 
ATOM     28  C   UNL A   1      43.542  25.349  29.466  1.00  0.00     0.074 A 
ATOM     29  C   UNL A   1      44.511  29.042  34.575  1.00  0.00     0.029 A 
ATOM     30  N   UNL A   1      43.723  28.179  32.683  1.00  0.00    -0.354 N 
ATOM     31  N   UNL A   1      43.653  26.174  30.480  1.00  0.00    -0.248 NA
ATOM     32  C   UNL A   1      44.682  24.444  29.287  1.00  0.00     0.031 C 
ATOM     33  C   UNL A   1      45.407  28.067  34.121  1.00  0.00     0.029 A 
ATOM     34  C   UNL A   1      44.904  27.511  32.954  1.00  0.00     0.049 A 
ATOM     35  H   UNL A   1      43.136  27.997  31.914  1.00  0.00     0.167 HD
ATOM     36  C   UNL A   1      44.876  25.884  31.069  1.00  0.00     0.074 A 
ATOM     37  C   UNL A   1      45.458  24.798  30.302  1.00  0.00     0.031 C 
ATOM     38  C   UNL A   1      45.465  26.453  32.149  1.00  0.00     0.034 A 
BRANCH  25  39
ATOM     39  C   UNL A   1      42.277  31.134  34.693  1.00  0.00     0.023 A 
ATOM     40  C   UNL A   1      42.848  32.407  34.520  1.00  0.00     0.031 A 
ATOM     41  C   UNL A   1      41.652  30.850  35.919  1.00  0.00     0.131 A 
ATOM     42  C   UNL A   1      42.839  33.324  35.582  1.00  0.00     0.055 A 
ATOM     43  C   UNL A   1      41.585  31.792  36.946  1.00  0.00     0.041 A 
ATOM     44  F   UNL A   1      41.119  29.639  36.149  1.00  0.00    -0.206 F 
ATOM     45  C   UNL A   1      42.192  33.034  36.786  1.00  0.00     0.022 A 
BRANCH  42  46
ATOM     46  S   UNL A   1      43.799  34.855  35.419  1.00  0.00     0.124 S 
ATOM     47  O   UNL A   1      42.752  35.829  35.118  1.00  0.00    -0.237 OA
ATOM     48  O   UNL A   1      44.425  34.977  36.730  1.00  0.00    -0.237 OA
ATOM     49  O   UNL A   1      44.713  34.573  34.315  1.00  0.00    -0.744 OA
ENDBRANCH  42  46
ENDBRANCH  25  39
BRANCH  26  50
ATOM     50  C   UNL A   1      42.539  24.307  27.307  1.00  0.00     0.023 A 
ATOM     51  C   UNL A   1      42.051  22.993  27.322  1.00  0.00     0.031 A 
ATOM     52  C   UNL A   1      43.260  24.732  26.178  1.00  0.00     0.131 A 
ATOM     53  C   UNL A   1      42.321  22.142  26.235  1.00  0.00     0.055 A 
ATOM     54  C   UNL A   1      43.477  23.901  25.079  1.00  0.00     0.041 A 
ATOM     55  F   UNL A   1      43.787  25.966  26.139  1.00  0.00    -0.206 F 
ATOM     56  C   UNL A   1      43.012  22.593  25.107  1.00  0.00     0.022 A 
BRANCH  53  57
ATOM     57  S   UNL A   1      41.853  20.392  26.359  1.00  0.00     0.124 S 
ATOM     58  O   UNL A   1      42.640  19.801  25.283  1.00  0.00    -0.237 OA
ATOM     59  O   UNL A   1      42.271  20.062  27.717  1.00  0.00    -0.237 OA
ATOM     60  O   UNL A   1      40.409  20.411  26.141  1.00  0.00    -0.744 OA
ENDBRANCH  53  57
ENDBRANCH  26  50
BRANCH  38  61
ATOM     61  C   UNL A   1      46.789  25.878  32.564  1.00  0.00     0.023 A 
ATOM     62  C   UNL A   1      46.874  24.867  33.536  1.00  0.00     0.031 A 
ATOM     63  C   UNL A   1      47.978  26.365  31.995  1.00  0.00     0.131 A 
ATOM     64  C   UNL A   1      48.132  24.410  33.948  1.00  0.00     0.055 A 
ATOM     65  C   UNL A   1      49.222  25.861  32.366  1.00  0.00     0.041 A 
ATOM     66  F   UNL A   1      47.943  27.336  31.069  1.00  0.00    -0.206 F 
ATOM     67  C   UNL A   1      49.305  24.885  33.355  1.00  0.00     0.022 A 
BRANCH  64  68
ATOM     68  S   UNL A   1      48.217  23.237  35.328  1.00  0.00     0.124 S 
ATOM     69  O   UNL A   1      49.641  22.926  35.370  1.00  0.00    -0.237 OA
ATOM     70  O   UNL A   1      47.703  24.026  36.443  1.00  0.00    -0.237 OA
ATOM     71  O   UNL A   1      47.352  22.140  34.897  1.00  0.00    -0.744 OA
ENDBRANCH  64  68
ENDBRANCH  38  61
ENDBRANCH  12  13
ENDBRANCH   5   7
ENDBRANCH   4   5
ENDBRANCH   3   4
ENDBRANCH   2   3
ENDBRANCH   1   2
BRANCH   1  72
ATOM     72  C   UNL A   1      33.528  35.736  30.562  1.00  0.00     0.188 C 
BRANCH  72  73
ATOM     73  C   UNL A   1      33.353  35.530  32.075  1.00  0.00     0.188 C 
BRANCH  73  74
ATOM     74  O   UNL A   1      33.208  34.236  32.639  1.00  0.00    -0.376 OA
BRANCH  74  75
ATOM     75  C   UNL A   1      34.349  33.569  33.145  1.00  0.00     0.202 C 
BRANCH  75  76
ATOM     76  C   UNL A   1      35.125  34.184  34.315  1.00  0.00     0.261 C 
BRANCH  76  77
ATOM     77  O   UNL A   1      36.282  34.940  33.948  1.00  0.00    -0.458 OA
BRANCH  77  78
ATOM     78  C   UNL A   1      37.474  34.379  34.302  1.00  0.00     0.358 C 
ATOM     79  O   UNL A   1      37.718  33.906  35.415  1.00  0.00    -0.244 OA
BRANCH  78  80
ATOM     80  C   UNL A   1      38.480  34.448  33.248  1.00  0.00     0.167 A 
ATOM     81  C   UNL A   1      39.844  34.469  33.474  1.00  0.00     0.128 A 
ATOM     82  N   UNL A   1      38.221  34.483  31.882  1.00  0.00    -0.222 NA
ATOM     83  N   UNL A   1      40.433  34.493  32.243  1.00  0.00    -0.306 N 
ATOM     84  C   UNL A   1      39.409  34.477  31.301  1.00  0.00     0.137 A 
ATOM     85  C   UNL A   1      41.785  34.535  31.921  1.00  0.00     0.093 A 
ATOM     86  C   UNL A   1      39.801  34.490  29.929  1.00  0.00     0.048 A 
ATOM     87  C   UNL A   1      42.149  34.553  30.628  1.00  0.00     0.018 A 
ATOM     88  C   UNL A   1      41.111  34.525  29.608  1.00  0.00     0.005 A 
ENDBRANCH  78  80
ENDBRANCH  77  78
ENDBRANCH  76  77
ENDBRANCH  75  76
ENDBRANCH  74  75
ENDBRANCH  73  74
ENDBRANCH  72  73
ENDBRANCH   1  72
TORSDOF 20
ENDMDL
MODEL 3
REMARK VINA RESULT:      -8.7      4.659     11.417
REMARK SMILES O=C(OCCOCCOCCOC(=O)c1cn2ccccc2n1)c1ccc(-c2c3nc(c(-c4cc(S(=O)(=O)[O-])ccc4F)c4ccc([nH]4)c(-c4cc(S(=O)(=O)[O-])ccc4F)c4nc(c(-c5cc(S(=O)(=O)[O-])ccc5F)c5ccc2[nH]5)C=C4)C=C3)cc1
REMARK SMILES IDX 6 1 5 2 4 3 3 4 2 5 1 6 24 7 25 8 86 9 26 10 85 11 27 12
REMARK SMILES IDX 28 13 29 14 79 15 30 16 84 17 78 18 80 19 31 20 83 21 77 22
REMARK SMILES IDX 76 23 32 25 64 26 44 27 63 28 45 29 48 30 62 31 81 32 46 33
REMARK SMILES IDX 47 34 61 36 82 37 49 38 33 39 34 40 42 41 35 42 41 43 43 44
REMARK SMILES IDX 40 45 36 46 37 47 38 48 39 49 65 50 66 51 74 52 67 53 73 54
REMARK SMILES IDX 75 55 72 56 68 57 69 58 70 59 71 60 50 61 51 62 59 63 52 64
REMARK SMILES IDX 58 65 60 66 57 67 53 68 54 69 55 70 56 71 7 72 8 73 9 74
REMARK SMILES IDX 10 75 11 76 12 77 13 78 14 79 15 80 16 81 23 82 17 83 22 84
REMARK SMILES IDX 18 85 21 86 19 87 20 88
REMARK H PARENT 80 24 48 35
REMARK Flexibility Score: inf
ROOT
ATOM      1  O   UNL A   1      43.390  20.991  25.167  1.00  0.00    -0.376 OA
ENDROOT
BRANCH   1   2
ATOM      2  C   UNL A   1      42.986  19.740  25.740  1.00  0.00     0.202 C 
BRANCH   2   3
ATOM      3  C   UNL A   1      42.095  19.797  27.004  1.00  0.00     0.261 C 
BRANCH   3   4
ATOM      4  O   UNL A   1      40.671  19.892  26.755  1.00  0.00    -0.460 OA
BRANCH   4   5
ATOM      5  C   UNL A   1      39.871  20.939  26.459  1.00  0.00     0.338 C 
ATOM      6  O   UNL A   1      38.838  20.733  25.824  1.00  0.00    -0.246 OA
BRANCH   5   7
ATOM      7  C   UNL A   1      40.231  22.349  26.785  1.00  0.00     0.060 A 
ATOM      8  C   UNL A   1      39.673  23.456  26.157  1.00  0.00     0.016 A 
ATOM      9  C   UNL A   1      41.115  22.580  27.850  1.00  0.00     0.016 A 
ATOM     10  C   UNL A   1      40.037  24.754  26.490  1.00  0.00     0.010 A 
ATOM     11  C   UNL A   1      41.450  23.884  28.235  1.00  0.00     0.010 A 
ATOM     12  C   UNL A   1      40.932  24.979  27.530  1.00  0.00    -0.014 A 
BRANCH  12  13
ATOM     13  C   UNL A   1      41.410  26.358  27.766  1.00  0.00     0.031 A 
ATOM     14  C   UNL A   1      42.758  26.738  27.232  1.00  0.00     0.074 A 
ATOM     15  C   UNL A   1      40.614  27.273  28.352  1.00  0.00     0.049 A 
ATOM     16  N   UNL A   1      43.437  27.839  27.404  1.00  0.00    -0.248 NA
ATOM     17  C   UNL A   1      43.421  25.747  26.367  1.00  0.00     0.031 C 
ATOM     18  C   UNL A   1      39.231  27.044  28.772  1.00  0.00     0.029 A 
ATOM     19  N   UNL A   1      40.849  28.579  28.695  1.00  0.00    -0.354 N 
ATOM     20  C   UNL A   1      44.613  27.669  26.684  1.00  0.00     0.074 A 
ATOM     21  C   UNL A   1      44.565  26.353  26.089  1.00  0.00     0.031 C 
ATOM     22  C   UNL A   1      38.756  28.156  29.357  1.00  0.00     0.029 A 
ATOM     23  C   UNL A   1      39.819  29.150  29.406  1.00  0.00     0.049 A 
ATOM     24  H   UNL A   1      41.673  29.060  28.455  1.00  0.00     0.167 HD
ATOM     25  C   UNL A   1      45.637  28.543  26.540  1.00  0.00     0.034 A 
ATOM     26  C   UNL A   1      39.773  30.312  30.085  1.00  0.00     0.034 A 
ATOM     27  C   UNL A   1      45.652  29.843  27.159  1.00  0.00     0.049 A 
ATOM     28  C   UNL A   1      40.992  31.190  30.062  1.00  0.00     0.074 A 
ATOM     29  C   UNL A   1      46.629  30.817  27.103  1.00  0.00     0.029 A 
ATOM     30  N   UNL A   1      44.637  30.342  27.968  1.00  0.00    -0.354 N 
ATOM     31  N   UNL A   1      42.127  31.002  29.430  1.00  0.00    -0.248 NA
ATOM     32  C   UNL A   1      40.928  32.425  30.849  1.00  0.00     0.031 C 
ATOM     33  C   UNL A   1      46.241  31.872  27.937  1.00  0.00     0.029 A 
ATOM     34  C   UNL A   1      44.987  31.588  28.458  1.00  0.00     0.049 A 
ATOM     35  H   UNL A   1      43.792  29.876  28.164  1.00  0.00     0.167 HD
ATOM     36  C   UNL A   1      42.914  32.103  29.738  1.00  0.00     0.074 A 
ATOM     37  C   UNL A   1      42.117  32.955  30.601  1.00  0.00     0.031 C 
ATOM     38  C   UNL A   1      44.177  32.393  29.340  1.00  0.00     0.034 A 
BRANCH  25  39
ATOM     39  C   UNL A   1      46.840  28.070  25.767  1.00  0.00     0.023 A 
ATOM     40  C   UNL A   1      46.991  28.319  24.391  1.00  0.00     0.031 A 
ATOM     41  C   UNL A   1      47.824  27.301  26.412  1.00  0.00     0.131 A 
ATOM     42  C   UNL A   1      48.066  27.746  23.694  1.00  0.00     0.055 A 
ATOM     43  C   UNL A   1      48.928  26.794  25.727  1.00  0.00     0.041 A 
ATOM     44  F   UNL A   1      47.712  27.007  27.717  1.00  0.00    -0.206 F 
ATOM     45  C   UNL A   1      49.048  27.004  24.357  1.00  0.00     0.022 A 
BRANCH  42  46
ATOM     46  S   UNL A   1      48.097  27.872  21.884  1.00  0.00     0.124 S 
ATOM     47  O   UNL A   1      49.158  28.854  21.674  1.00  0.00    -0.237 OA
ATOM     48  O   UNL A   1      48.403  26.506  21.477  1.00  0.00    -0.237 OA
ATOM     49  O   UNL A   1      46.753  28.337  21.548  1.00  0.00    -0.744 OA
ENDBRANCH  42  46
ENDBRANCH  25  39
BRANCH  26  50
ATOM     50  C   UNL A   1      38.625  30.633  30.978  1.00  0.00     0.023 A 
ATOM     51  C   UNL A   1      37.486  31.314  30.525  1.00  0.00     0.031 A 
ATOM     52  C   UNL A   1      38.719  30.342  32.351  1.00  0.00     0.131 A 
ATOM     53  C   UNL A   1      36.501  31.708  31.449  1.00  0.00     0.055 A 
ATOM     54  C   UNL A   1      37.713  30.685  33.253  1.00  0.00     0.041 A 
ATOM     55  F   UNL A   1      39.812  29.734  32.837  1.00  0.00    -0.206 F 
ATOM     56  C   UNL A   1      36.598  31.380  32.804  1.00  0.00     0.022 A 
BRANCH  53  57
ATOM     57  S   UNL A   1      35.136  32.758  30.876  1.00  0.00     0.124 S 
ATOM     58  O   UNL A   1      34.788  32.124  29.610  1.00  0.00    -0.237 OA
ATOM     59  O   UNL A   1      34.167  32.611  31.957  1.00  0.00    -0.237 OA
ATOM     60  O   UNL A   1      35.748  34.080  30.767  1.00  0.00    -0.744 OA
ENDBRANCH  53  57
ENDBRANCH  26  50
BRANCH  38  61
ATOM     61  C   UNL A   1      44.742  33.699  29.819  1.00  0.00     0.023 A 
ATOM     62  C   UNL A   1      44.555  34.887  29.092  1.00  0.00     0.031 A 
ATOM     63  C   UNL A   1      45.494  33.748  31.005  1.00  0.00     0.131 A 
ATOM     64  C   UNL A   1      45.160  36.070  29.535  1.00  0.00     0.055 A 
ATOM     65  C   UNL A   1      46.041  34.941  31.471  1.00  0.00     0.041 A 
ATOM     66  F   UNL A   1      45.704  32.636  31.726  1.00  0.00    -0.206 F 
ATOM     67  C   UNL A   1      45.885  36.110  30.730  1.00  0.00     0.022 A 
BRANCH  64  68
ATOM     68  S   UNL A   1      45.052  37.543  28.484  1.00  0.00     0.124 S 
ATOM     69  O   UNL A   1      46.407  37.633  27.952  1.00  0.00    -0.237 OA
ATOM     70  O   UNL A   1      44.014  37.171  27.528  1.00  0.00    -0.237 OA
ATOM     71  O   UNL A   1      44.679  38.603  29.420  1.00  0.00    -0.744 OA
ENDBRANCH  64  68
ENDBRANCH  38  61
ENDBRANCH  12  13
ENDBRANCH   5   7
ENDBRANCH   4   5
ENDBRANCH   3   4
ENDBRANCH   2   3
ENDBRANCH   1   2
BRANCH   1  72
ATOM     72  C   UNL A   1      44.800  21.202  25.145  1.00  0.00     0.188 C 
BRANCH  72  73
ATOM     73  C   UNL A   1      45.377  22.268  26.090  1.00  0.00     0.188 C 
BRANCH  73  74
ATOM     74  O   UNL A   1      44.570  22.924  27.055  1.00  0.00    -0.376 OA
BRANCH  74  75
ATOM     75  C   UNL A   1      45.070  23.110  28.365  1.00  0.00     0.202 C 
BRANCH  75  76
ATOM     76  C   UNL A   1      45.785  24.419  28.722  1.00  0.00     0.261 C 
BRANCH  76  77
ATOM     77  O   UNL A   1      45.053  25.299  29.578  1.00  0.00    -0.458 OA
BRANCH  77  78
ATOM     78  C   UNL A   1      45.692  25.642  30.734  1.00  0.00     0.358 C 
ATOM     79  O   UNL A   1      46.903  25.862  30.822  1.00  0.00    -0.244 OA
BRANCH  78  80
ATOM     80  C   UNL A   1      44.812  25.662  31.897  1.00  0.00     0.167 A 
ATOM     81  C   UNL A   1      44.725  24.642  32.825  1.00  0.00     0.128 A 
ATOM     82  N   UNL A   1      43.958  26.702  32.248  1.00  0.00    -0.222 NA
ATOM     83  N   UNL A   1      43.832  25.061  33.769  1.00  0.00    -0.306 N 
ATOM     84  C   UNL A   1      43.406  26.330  33.390  1.00  0.00     0.137 A 
ATOM     85  C   UNL A   1      43.383  24.396  34.904  1.00  0.00     0.093 A 
ATOM     86  C   UNL A   1      42.462  26.970  34.249  1.00  0.00     0.048 A 
ATOM     87  C   UNL A   1      42.490  25.001  35.706  1.00  0.00     0.018 A 
ATOM     88  C   UNL A   1      42.026  26.335  35.356  1.00  0.00     0.005 A 
ENDBRANCH  78  80
ENDBRANCH  77  78
ENDBRANCH  76  77
ENDBRANCH  75  76
ENDBRANCH  74  75
ENDBRANCH  73  74
ENDBRANCH  72  73
ENDBRANCH   1  72
TORSDOF 20
ENDMDL
