MODEL 1
REMARK VINA RESULT:     -10.1      0.000      0.000
REMARK SMILES CCCC[C@H](C(=O)OCCOCCOCCOC(=O)c1ccc(-c2c3nc(c(-c4cc(S(=O)(=O)[O-])ccc4F)c4ccc([nH]4)c(-c4cc(S(=O)(=O)[O-])ccc4F)c4nc(c(-c5cc(S(=O)(=O)[O-])ccc5F)c5ccc2[nH]5)C=C4)C=C3)cc1)N1C(=O)/C(=C/c2ccc(C)cc2)SC1=S
REMARK SMILES IDX 12 1 11 2 10 3 9 4 8 5 6 6 7 7 5 8 4 9 3 10 2 11 1 12 83 13
REMARK SMILES IDX 84 14 96 15 85 16 86 17 95 18 97 19 87 20 88 21 89 22 94 23
REMARK SMILES IDX 90 24 93 25 91 26 92 27 13 28 14 29 15 30 16 31 17 32 18 33
REMARK SMILES IDX 19 34 20 35 21 36 82 37 22 38 81 39 23 40 24 41 25 42 75 43
REMARK SMILES IDX 26 44 80 45 74 46 76 47 27 48 79 49 73 50 72 51 28 53 60 54
REMARK SMILES IDX 40 55 59 56 41 57 44 58 58 59 77 60 42 61 43 62 57 64 78 65
REMARK SMILES IDX 45 66 29 67 30 68 38 69 31 70 37 71 39 72 36 73 32 74 33 75
REMARK SMILES IDX 34 76 35 77 61 78 62 79 70 80 63 81 69 82 71 83 68 84 64 85
REMARK SMILES IDX 65 86 66 87 67 88 46 89 47 90 55 91 48 92 54 93 56 94 53 95
REMARK SMILES IDX 49 96 50 97 51 98 52 99
REMARK H PARENT 76 52 44 63
REMARK Flexibility Score: inf
ROOT
ATOM      1  C   UNL A   1      40.975  19.523  26.737  1.00  0.00     0.188 C 
ENDROOT
BRANCH   1   2
ATOM      2  O   UNL A   1      40.309  19.258  25.510  1.00  0.00    -0.376 OA
BRANCH   2   3
ATOM      3  C   UNL A   1      38.934  19.604  25.382  1.00  0.00     0.202 C 
BRANCH   3   4
ATOM      4  C   UNL A   1      38.519  21.078  25.528  1.00  0.00     0.261 C 
BRANCH   4   5
ATOM      5  O   UNL A   1      37.472  21.519  24.629  1.00  0.00    -0.462 OA
BRANCH   5   6
ATOM      6  C   UNL A   1      36.431  22.162  25.208  1.00  0.00     0.329 C 
ATOM      7  O   UNL A   1      36.564  23.031  26.069  1.00  0.00    -0.250 OA
BRANCH   6   8
ATOM      8  C   UNL A   1      35.029  21.643  24.830  1.00  0.00     0.202 C 
BRANCH   8   9
ATOM      9  C   UNL A   1      34.263  20.382  25.280  1.00  0.00     0.038 C 
BRANCH   9  10
ATOM     10  C   UNL A   1      33.547  19.482  24.270  1.00  0.00     0.002 C 
BRANCH  10  11
ATOM     11  C   UNL A   1      32.696  18.341  24.847  1.00  0.00    -0.003 C 
ATOM     12  C   UNL A   1      33.445  17.051  25.149  1.00  0.00     0.004 C 
ENDBRANCH  10  11
ENDBRANCH   9  10
ENDBRANCH   8   9
BRANCH   8  13
ATOM     13  N   UNL A   1      34.183  22.820  24.654  1.00  0.00    -0.278 N 
ATOM     14  C   UNL A   1      34.261  23.477  23.439  1.00  0.00     0.266 C 
ATOM     15  C   UNL A   1      33.320  23.344  25.600  1.00  0.00     0.149 C 
ATOM     16  O   UNL A   1      34.894  23.122  22.455  1.00  0.00    -0.268 OA
ATOM     17  C   UNL A   1      33.426  24.689  23.481  1.00  0.00     0.081 C 
ATOM     18  S   UNL A   1      32.452  24.689  24.900  1.00  0.00    -0.054 SA
ATOM     19  S   UNL A   1      33.037  22.892  27.183  1.00  0.00    -0.052 S 
ATOM     20  C   UNL A   1      33.499  25.641  22.542  1.00  0.00     0.029 C 
BRANCH  20  21
ATOM     21  C   UNL A   1      32.682  26.845  22.645  1.00  0.00    -0.024 A 
ATOM     22  C   UNL A   1      31.386  26.836  22.131  1.00  0.00     0.008 A 
ATOM     23  C   UNL A   1      33.125  27.921  23.425  1.00  0.00     0.008 A 
ATOM     24  C   UNL A   1      30.509  27.867  22.463  1.00  0.00     0.004 A 
ATOM     25  C   UNL A   1      32.240  28.934  23.776  1.00  0.00     0.004 A 
ATOM     26  C   UNL A   1      30.919  28.899  23.319  1.00  0.00    -0.051 A 
ATOM     27  C   UNL A   1      29.943  29.952  23.741  1.00  0.00     0.044 C 
ENDBRANCH  20  21
ENDBRANCH   8  13
ENDBRANCH   6   8
ENDBRANCH   5   6
ENDBRANCH   4   5
ENDBRANCH   3   4
ENDBRANCH   2   3
ENDBRANCH   1   2
BRANCH   1  28
ATOM     28  C   UNL A   1      42.314  20.269  26.696  1.00  0.00     0.188 C 
BRANCH  28  29
ATOM     29  O   UNL A   1      42.641  20.858  25.458  1.00  0.00    -0.376 OA
BRANCH  29  30
ATOM     30  C   UNL A   1      42.843  22.258  25.419  1.00  0.00     0.202 C 
BRANCH  30  31
ATOM     31  C   UNL A   1      43.928  22.795  24.471  1.00  0.00     0.261 C 
BRANCH  31  32
ATOM     32  O   UNL A   1      44.062  24.227  24.395  1.00  0.00    -0.460 OA
BRANCH  32  33
ATOM     33  C   UNL A   1      45.082  24.800  25.086  1.00  0.00     0.338 C 
ATOM     34  O   UNL A   1      46.259  24.772  24.791  1.00  0.00    -0.246 OA
BRANCH  33  35
ATOM     35  C   UNL A   1      44.465  25.709  26.094  1.00  0.00     0.060 A 
ATOM     36  C   UNL A   1      44.522  27.096  25.882  1.00  0.00     0.016 A 
ATOM     37  C   UNL A   1      43.758  25.200  27.184  1.00  0.00     0.016 A 
ATOM     38  C   UNL A   1      43.864  27.972  26.754  1.00  0.00     0.010 A 
ATOM     39  C   UNL A   1      43.128  26.081  28.073  1.00  0.00     0.010 A 
ATOM     40  C   UNL A   1      43.183  27.471  27.870  1.00  0.00    -0.014 A 
BRANCH  40  41
ATOM     41  C   UNL A   1      42.651  28.390  28.914  1.00  0.00     0.031 A 
ATOM     42  C   UNL A   1      43.497  28.659  30.129  1.00  0.00     0.074 A 
ATOM     43  C   UNL A   1      41.437  28.963  28.804  1.00  0.00     0.049 A 
ATOM     44  N   UNL A   1      43.201  29.310  31.224  1.00  0.00    -0.248 NA
ATOM     45  C   UNL A   1      44.862  28.112  30.099  1.00  0.00     0.031 C 
ATOM     46  C   UNL A   1      40.545  28.840  27.655  1.00  0.00     0.029 A 
ATOM     47  N   UNL A   1      40.740  29.753  29.688  1.00  0.00    -0.354 N 
ATOM     48  C   UNL A   1      44.339  29.245  32.021  1.00  0.00     0.074 A 
ATOM     49  C   UNL A   1      45.318  28.465  31.291  1.00  0.00     0.031 C 
ATOM     50  C   UNL A   1      39.409  29.514  27.911  1.00  0.00     0.029 A 
ATOM     51  C   UNL A   1      39.471  30.072  29.263  1.00  0.00     0.049 A 
ATOM     52  H   UNL A   1      41.114  30.062  30.545  1.00  0.00     0.167 HD
ATOM     53  C   UNL A   1      44.549  29.786  33.245  1.00  0.00     0.034 A 
ATOM     54  C   UNL A   1      38.462  30.701  29.904  1.00  0.00     0.034 A 
ATOM     55  C   UNL A   1      43.559  30.545  33.972  1.00  0.00     0.049 A 
ATOM     56  C   UNL A   1      38.675  31.185  31.323  1.00  0.00     0.074 A 
ATOM     57  C   UNL A   1      43.678  31.148  35.213  1.00  0.00     0.029 A 
ATOM     58  N   UNL A   1      42.263  30.790  33.538  1.00  0.00    -0.354 N 
ATOM     59  N   UNL A   1      39.754  31.120  32.067  1.00  0.00    -0.248 NA
ATOM     60  C   UNL A   1      37.529  31.823  31.986  1.00  0.00     0.031 C 
ATOM     61  C   UNL A   1      42.432  31.677  35.565  1.00  0.00     0.029 A 
ATOM     62  C   UNL A   1      41.559  31.489  34.507  1.00  0.00     0.049 A 
ATOM     63  H   UNL A   1      41.897  30.507  32.668  1.00  0.00     0.167 HD
ATOM     64  C   UNL A   1      39.422  31.733  33.275  1.00  0.00     0.074 A 
ATOM     65  C   UNL A   1      38.051  32.179  33.151  1.00  0.00     0.031 C 
ATOM     66  C   UNL A   1      40.183  31.914  34.385  1.00  0.00     0.034 A 
BRANCH  53  67
ATOM     67  C   UNL A   1      45.882  29.520  33.903  1.00  0.00     0.023 A 
ATOM     68  C   UNL A   1      46.065  28.461  34.809  1.00  0.00     0.031 A 
ATOM     69  C   UNL A   1      46.983  30.353  33.633  1.00  0.00     0.131 A 
ATOM     70  C   UNL A   1      47.295  28.307  35.464  1.00  0.00     0.055 A 
ATOM     71  C   UNL A   1      48.229  30.142  34.224  1.00  0.00     0.041 A 
ATOM     72  F   UNL A   1      46.861  31.395  32.795  1.00  0.00    -0.206 F 
ATOM     73  C   UNL A   1      48.387  29.123  35.157  1.00  0.00     0.022 A 
BRANCH  70  74
ATOM     74  S   UNL A   1      47.407  27.120  36.831  1.00  0.00     0.124 S 
ATOM     75  O   UNL A   1      46.381  26.147  36.461  1.00  0.00    -0.237 OA
ATOM     76  O   UNL A   1      48.787  26.660  36.736  1.00  0.00    -0.237 OA
ATOM     77  O   UNL A   1      47.096  27.924  38.011  1.00  0.00    -0.744 OA
ENDBRANCH  70  74
ENDBRANCH  53  67
BRANCH  54  78
ATOM     78  C   UNL A   1      37.126  30.860  29.252  1.00  0.00     0.023 A 
ATOM     79  C   UNL A   1      36.497  32.113  29.174  1.00  0.00     0.031 A 
ATOM     80  C   UNL A   1      36.422  29.742  28.768  1.00  0.00     0.131 A 
ATOM     81  C   UNL A   1      35.189  32.212  28.669  1.00  0.00     0.055 A 
ATOM     82  C   UNL A   1      35.148  29.855  28.209  1.00  0.00     0.041 A 
ATOM     83  F   UNL A   1      36.965  28.516  28.832  1.00  0.00    -0.206 F 
ATOM     84  C   UNL A   1      34.519  31.094  28.170  1.00  0.00     0.022 A 
BRANCH  81  85
ATOM     85  S   UNL A   1      34.336  33.811  28.771  1.00  0.00     0.124 S 
ATOM     86  O   UNL A   1      33.240  33.622  27.826  1.00  0.00    -0.237 OA
ATOM     87  O   UNL A   1      33.965  33.868  30.180  1.00  0.00    -0.237 OA
ATOM     88  O   UNL A   1      35.360  34.769  28.357  1.00  0.00    -0.744 OA
ENDBRANCH  81  85
ENDBRANCH  54  78
BRANCH  66  89
ATOM     89  C   UNL A   1      39.558  32.658  35.544  1.00  0.00     0.023 A 
ATOM     90  C   UNL A   1      38.852  31.990  36.560  1.00  0.00     0.031 A 
ATOM     91  C   UNL A   1      39.668  34.058  35.632  1.00  0.00     0.131 A 
ATOM     92  C   UNL A   1      38.237  32.724  37.587  1.00  0.00     0.055 A 
ATOM     93  C   UNL A   1      39.112  34.777  36.692  1.00  0.00     0.041 A 
ATOM     94  F   UNL A   1      40.326  34.753  34.691  1.00  0.00    -0.206 F 
ATOM     95  C   UNL A   1      38.381  34.111  37.671  1.00  0.00     0.022 A 
BRANCH  92  96
ATOM     96  S   UNL A   1      37.167  31.852  38.764  1.00  0.00     0.124 S 
ATOM     97  O   UNL A   1      37.861  32.076  40.028  1.00  0.00    -0.237 OA
ATOM     98  O   UNL A   1      35.893  32.546  38.604  1.00  0.00    -0.237 OA
ATOM     99  O   UNL A   1      37.183  30.471  38.285  1.00  0.00    -0.744 OA
ENDBRANCH  92  96
ENDBRANCH  66  89
ENDBRANCH  40  41
ENDBRANCH  33  35
ENDBRANCH  32  33
ENDBRANCH  31  32
ENDBRANCH  30  31
ENDBRANCH  29  30
ENDBRANCH  28  29
ENDBRANCH   1  28
TORSDOF 25
ENDMDL
MODEL 2
REMARK VINA RESULT:      -9.8      4.345      8.898
REMARK SMILES CCCC[C@H](C(=O)OCCOCCOCCOC(=O)c1ccc(-c2c3nc(c(-c4cc(S(=O)(=O)[O-])ccc4F)c4ccc([nH]4)c(-c4cc(S(=O)(=O)[O-])ccc4F)c4nc(c(-c5cc(S(=O)(=O)[O-])ccc5F)c5ccc2[nH]5)C=C4)C=C3)cc1)N1C(=O)/C(=C/c2ccc(C)cc2)SC1=S
REMARK SMILES IDX 12 1 11 2 10 3 9 4 8 5 6 6 7 7 5 8 4 9 3 10 2 11 1 12 83 13
REMARK SMILES IDX 84 14 96 15 85 16 86 17 95 18 97 19 87 20 88 21 89 22 94 23
REMARK SMILES IDX 90 24 93 25 91 26 92 27 13 28 14 29 15 30 16 31 17 32 18 33
REMARK SMILES IDX 19 34 20 35 21 36 82 37 22 38 81 39 23 40 24 41 25 42 75 43
REMARK SMILES IDX 26 44 80 45 74 46 76 47 27 48 79 49 73 50 72 51 28 53 60 54
REMARK SMILES IDX 40 55 59 56 41 57 44 58 58 59 77 60 42 61 43 62 57 64 78 65
REMARK SMILES IDX 45 66 29 67 30 68 38 69 31 70 37 71 39 72 36 73 32 74 33 75
REMARK SMILES IDX 34 76 35 77 61 78 62 79 70 80 63 81 69 82 71 83 68 84 64 85
REMARK SMILES IDX 65 86 66 87 67 88 46 89 47 90 55 91 48 92 54 93 56 94 53 95
REMARK SMILES IDX 49 96 50 97 51 98 52 99
REMARK H PARENT 76 52 44 63
REMARK Flexibility Score: inf
ROOT
ATOM      1  C   UNL A   1      34.695  23.131  25.055  1.00  0.00     0.188 C 
ENDROOT
BRANCH   1   2
ATOM      2  O   UNL A   1      34.619  22.287  26.196  1.00  0.00    -0.376 OA
BRANCH   2   3
ATOM      3  C   UNL A   1      33.340  21.954  26.725  1.00  0.00     0.202 C 
BRANCH   3   4
ATOM      4  C   UNL A   1      32.610  22.977  27.610  1.00  0.00     0.261 C 
BRANCH   4   5
ATOM      5  O   UNL A   1      32.178  24.185  26.936  1.00  0.00    -0.462 OA
BRANCH   5   6
ATOM      6  C   UNL A   1      31.073  24.067  26.164  1.00  0.00     0.329 C 
ATOM      7  O   UNL A   1      29.993  23.653  26.584  1.00  0.00    -0.250 OA
BRANCH   6   8
ATOM      8  C   UNL A   1      31.273  24.348  24.661  1.00  0.00     0.202 C 
BRANCH   8   9
ATOM      9  C   UNL A   1      31.030  23.458  23.424  1.00  0.00     0.038 C 
BRANCH   9  10
ATOM     10  C   UNL A   1      32.031  22.376  23.012  1.00  0.00     0.002 C 
BRANCH  10  11
ATOM     11  C   UNL A   1      33.152  22.805  22.053  1.00  0.00    -0.003 C 
ATOM     12  C   UNL A   1      33.210  24.293  21.735  1.00  0.00     0.004 C 
ENDBRANCH  10  11
ENDBRANCH   9  10
ENDBRANCH   8   9
BRANCH   8  13
ATOM     13  N   UNL A   1      30.941  25.755  24.454  1.00  0.00    -0.278 N 
ATOM     14  C   UNL A   1      29.642  26.047  24.075  1.00  0.00     0.266 C 
ATOM     15  C   UNL A   1      31.813  26.820  24.589  1.00  0.00     0.149 C 
ATOM     16  O   UNL A   1      28.711  25.261  23.989  1.00  0.00    -0.268 OA
ATOM     17  C   UNL A   1      29.520  27.491  23.811  1.00  0.00     0.081 C 
ATOM     18  S   UNL A   1      30.939  28.311  24.338  1.00  0.00    -0.054 SA
ATOM     19  S   UNL A   1      33.449  26.850  24.927  1.00  0.00    -0.052 S 
ATOM     20  C   UNL A   1      28.453  28.018  23.199  1.00  0.00     0.029 C 
BRANCH  20  21
ATOM     21  C   UNL A   1      28.393  29.449  22.921  1.00  0.00    -0.024 A 
ATOM     22  C   UNL A   1      27.461  30.236  23.594  1.00  0.00     0.008 A 
ATOM     23  C   UNL A   1      29.390  30.048  22.140  1.00  0.00     0.008 A 
ATOM     24  C   UNL A   1      27.573  31.625  23.548  1.00  0.00     0.004 A 
ATOM     25  C   UNL A   1      29.517  31.432  22.117  1.00  0.00     0.004 A 
ATOM     26  C   UNL A   1      28.625  32.228  22.843  1.00  0.00    -0.051 A 
ATOM     27  C   UNL A   1      28.790  33.715  22.874  1.00  0.00     0.044 C 
ENDBRANCH  20  21
ENDBRANCH   8  13
ENDBRANCH   6   8
ENDBRANCH   5   6
ENDBRANCH   4   5
ENDBRANCH   3   4
ENDBRANCH   2   3
ENDBRANCH   1   2
BRANCH   1  28
ATOM     28  C   UNL A   1      36.063  23.692  24.651  1.00  0.00     0.188 C 
BRANCH  28  29
ATOM     29  O   UNL A   1      37.172  22.898  25.007  1.00  0.00    -0.376 OA
BRANCH  29  30
ATOM     30  C   UNL A   1      37.309  21.631  24.393  1.00  0.00     0.202 C 
BRANCH  30  31
ATOM     31  C   UNL A   1      38.207  20.595  25.089  1.00  0.00     0.261 C 
BRANCH  31  32
ATOM     32  O   UNL A   1      38.741  20.969  26.373  1.00  0.00    -0.460 OA
BRANCH  32  33
ATOM     33  C   UNL A   1      40.078  20.816  26.567  1.00  0.00     0.338 C 
ATOM     34  O   UNL A   1      40.748  19.859  26.240  1.00  0.00    -0.246 OA
BRANCH  33  35
ATOM     35  C   UNL A   1      40.611  22.146  26.977  1.00  0.00     0.060 A 
ATOM     36  C   UNL A   1      40.145  23.296  26.321  1.00  0.00     0.016 A 
ATOM     37  C   UNL A   1      41.489  22.268  28.056  1.00  0.00     0.016 A 
ATOM     38  C   UNL A   1      40.546  24.567  26.750  1.00  0.00     0.010 A 
ATOM     39  C   UNL A   1      41.914  23.539  28.462  1.00  0.00     0.010 A 
ATOM     40  C   UNL A   1      41.454  24.696  27.809  1.00  0.00    -0.014 A 
BRANCH  40  41
ATOM     41  C   UNL A   1      42.047  26.019  28.147  1.00  0.00     0.031 A 
ATOM     42  C   UNL A   1      41.162  27.060  28.778  1.00  0.00     0.074 A 
ATOM     43  C   UNL A   1      43.337  26.306  27.887  1.00  0.00     0.049 A 
ATOM     44  N   UNL A   1      41.410  28.317  29.039  1.00  0.00    -0.248 NA
ATOM     45  C   UNL A   1      39.813  26.615  29.159  1.00  0.00     0.031 C 
ATOM     46  C   UNL A   1      44.318  25.372  27.341  1.00  0.00     0.029 A 
ATOM     47  N   UNL A   1      44.037  27.480  28.036  1.00  0.00    -0.354 N 
ATOM     48  C   UNL A   1      40.245  28.821  29.609  1.00  0.00     0.074 A 
ATOM     49  C   UNL A   1      39.284  27.736  29.626  1.00  0.00     0.031 C 
ATOM     50  C   UNL A   1      45.489  26.014  27.181  1.00  0.00     0.029 A 
ATOM     51  C   UNL A   1      45.328  27.418  27.563  1.00  0.00     0.049 A 
ATOM     52  H   UNL A   1      43.652  28.289  28.443  1.00  0.00     0.167 HD
ATOM     53  C   UNL A   1      40.001  30.069  30.075  1.00  0.00     0.034 A 
ATOM     54  C   UNL A   1      46.257  28.387  27.415  1.00  0.00     0.034 A 
ATOM     55  C   UNL A   1      40.960  31.148  30.036  1.00  0.00     0.049 A 
ATOM     56  C   UNL A   1      45.918  29.805  27.823  1.00  0.00     0.074 A 
ATOM     57  C   UNL A   1      40.814  32.445  30.496  1.00  0.00     0.029 A 
ATOM     58  N   UNL A   1      42.233  31.064  29.489  1.00  0.00    -0.354 N 
ATOM     59  N   UNL A   1      44.815  30.271  28.362  1.00  0.00    -0.248 NA
ATOM     60  C   UNL A   1      46.951  30.826  27.599  1.00  0.00     0.031 C 
ATOM     61  C   UNL A   1      41.961  33.166  30.148  1.00  0.00     0.029 A 
ATOM     62  C   UNL A   1      42.863  32.298  29.555  1.00  0.00     0.049 A 
ATOM     63  H   UNL A   1      42.631  30.247  29.109  1.00  0.00     0.167 HD
ATOM     64  C   UNL A   1      45.035  31.633  28.564  1.00  0.00     0.074 A 
ATOM     65  C   UNL A   1      46.381  31.908  28.109  1.00  0.00     0.031 C 
ATOM     66  C   UNL A   1      44.200  32.571  29.081  1.00  0.00     0.034 A 
BRANCH  53  67
ATOM     67  C   UNL A   1      38.617  30.351  30.612  1.00  0.00     0.023 A 
ATOM     68  C   UNL A   1      37.627  30.964  29.824  1.00  0.00     0.031 A 
ATOM     69  C   UNL A   1      38.292  30.019  31.939  1.00  0.00     0.131 A 
ATOM     70  C   UNL A   1      36.386  31.288  30.392  1.00  0.00     0.055 A 
ATOM     71  C   UNL A   1      37.026  30.268  32.471  1.00  0.00     0.041 A 
ATOM     72  F   UNL A   1      39.205  29.455  32.745  1.00  0.00    -0.206 F 
ATOM     73  C   UNL A   1      36.068  30.920  31.701  1.00  0.00     0.022 A 
BRANCH  70  74
ATOM     74  S   UNL A   1      35.244  32.331  29.442  1.00  0.00     0.124 S 
ATOM     75  O   UNL A   1      34.509  33.010  30.507  1.00  0.00    -0.237 OA
ATOM     76  O   UNL A   1      36.152  33.162  28.662  1.00  0.00    -0.237 OA
ATOM     77  O   UNL A   1      34.461  31.368  28.672  1.00  0.00    -0.744 OA
ENDBRANCH  70  74
ENDBRANCH  53  67
BRANCH  54  78
ATOM     78  C   UNL A   1      47.582  28.086  26.791  1.00  0.00     0.023 A 
ATOM     79  C   UNL A   1      47.712  27.911  25.404  1.00  0.00     0.031 A 
ATOM     80  C   UNL A   1      48.726  27.890  27.587  1.00  0.00     0.131 A 
ATOM     81  C   UNL A   1      48.943  27.505  24.860  1.00  0.00     0.055 A 
ATOM     82  C   UNL A   1      49.962  27.548  27.035  1.00  0.00     0.041 A 
ATOM     83  F   UNL A   1      48.658  28.026  28.921  1.00  0.00    -0.206 F 
ATOM     84  C   UNL A   1      50.072  27.341  25.664  1.00  0.00     0.022 A 
BRANCH  81  85
ATOM     85  S   UNL A   1      49.020  27.093  23.094  1.00  0.00     0.124 S 
ATOM     86  O   UNL A   1      48.119  25.948  23.018  1.00  0.00    -0.237 OA
ATOM     87  O   UNL A   1      48.547  28.325  22.474  1.00  0.00    -0.237 OA
ATOM     88  O   UNL A   1      50.434  26.790  22.878  1.00  0.00    -0.744 OA
ENDBRANCH  81  85
ENDBRANCH  54  78
BRANCH  66  89
ATOM     89  C   UNL A   1      44.734  33.980  29.215  1.00  0.00     0.023 A 
ATOM     90  C   UNL A   1      45.423  34.406  30.364  1.00  0.00     0.031 A 
ATOM     91  C   UNL A   1      44.547  34.912  28.177  1.00  0.00     0.131 A 
ATOM     92  C   UNL A   1      45.850  35.740  30.472  1.00  0.00     0.055 A 
ATOM     93  C   UNL A   1      45.033  36.218  28.262  1.00  0.00     0.041 A 
ATOM     94  F   UNL A   1      43.893  34.567  27.057  1.00  0.00    -0.206 F 
ATOM     95  C   UNL A   1      45.678  36.642  29.419  1.00  0.00     0.022 A 
BRANCH  92  96
ATOM     96  S   UNL A   1      46.554  36.307  32.045  1.00  0.00     0.124 S 
ATOM     97  O   UNL A   1      45.870  35.451  33.008  1.00  0.00    -0.237 OA
ATOM     98  O   UNL A   1      47.978  36.050  31.862  1.00  0.00    -0.237 OA
ATOM     99  O   UNL A   1      46.181  37.720  32.098  1.00  0.00    -0.744 OA
ENDBRANCH  92  96
ENDBRANCH  66  89
ENDBRANCH  40  41
ENDBRANCH  33  35
ENDBRANCH  32  33
ENDBRANCH  31  32
ENDBRANCH  30  31
ENDBRANCH  29  30
ENDBRANCH  28  29
ENDBRANCH   1  28
TORSDOF 25
ENDMDL
MODEL 3
REMARK VINA RESULT:      -9.7      2.020      2.604
REMARK SMILES CCCC[C@H](C(=O)OCCOCCOCCOC(=O)c1ccc(-c2c3nc(c(-c4cc(S(=O)(=O)[O-])ccc4F)c4ccc([nH]4)c(-c4cc(S(=O)(=O)[O-])ccc4F)c4nc(c(-c5cc(S(=O)(=O)[O-])ccc5F)c5ccc2[nH]5)C=C4)C=C3)cc1)N1C(=O)/C(=C/c2ccc(C)cc2)SC1=S
REMARK SMILES IDX 12 1 11 2 10 3 9 4 8 5 6 6 7 7 5 8 4 9 3 10 2 11 1 12 83 13
REMARK SMILES IDX 84 14 96 15 85 16 86 17 95 18 97 19 87 20 88 21 89 22 94 23
REMARK SMILES IDX 90 24 93 25 91 26 92 27 13 28 14 29 15 30 16 31 17 32 18 33
REMARK SMILES IDX 19 34 20 35 21 36 82 37 22 38 81 39 23 40 24 41 25 42 75 43
REMARK SMILES IDX 26 44 80 45 74 46 76 47 27 48 79 49 73 50 72 51 28 53 60 54
REMARK SMILES IDX 40 55 59 56 41 57 44 58 58 59 77 60 42 61 43 62 57 64 78 65
REMARK SMILES IDX 45 66 29 67 30 68 38 69 31 70 37 71 39 72 36 73 32 74 33 75
REMARK SMILES IDX 34 76 35 77 61 78 62 79 70 80 63 81 69 82 71 83 68 84 64 85
REMARK SMILES IDX 65 86 66 87 67 88 46 89 47 90 55 91 48 92 54 93 56 94 53 95
REMARK SMILES IDX 49 96 50 97 51 98 52 99
REMARK H PARENT 76 52 44 63
REMARK Flexibility Score: inf
ROOT
ATOM      1  C   UNL A   1      39.148  23.957  26.960  1.00  0.00     0.188 C 
ENDROOT
BRANCH   1   2
ATOM      2  O   UNL A   1      38.615  22.742  26.453  1.00  0.00    -0.376 OA
BRANCH   2   3
ATOM      3  C   UNL A   1      37.446  22.786  25.640  1.00  0.00     0.202 C 
BRANCH   3   4
ATOM      4  C   UNL A   1      36.282  23.699  26.057  1.00  0.00     0.261 C 
BRANCH   4   5
ATOM      5  O   UNL A   1      35.147  23.708  25.158  1.00  0.00    -0.462 OA
BRANCH   5   6
ATOM      6  C   UNL A   1      34.063  23.010  25.570  1.00  0.00     0.329 C 
ATOM      7  O   UNL A   1      33.947  22.541  26.701  1.00  0.00    -0.250 OA
BRANCH   6   8
ATOM      8  C   UNL A   1      33.013  22.700  24.484  1.00  0.00     0.202 C 
BRANCH   8   9
ATOM      9  C   UNL A   1      32.371  21.366  24.049  1.00  0.00     0.038 C 
BRANCH   9  10
ATOM     10  C   UNL A   1      33.129  20.042  24.163  1.00  0.00     0.002 C 
BRANCH  10  11
ATOM     11  C   UNL A   1      32.277  18.768  24.271  1.00  0.00    -0.003 C 
ATOM     12  C   UNL A   1      32.839  17.677  25.171  1.00  0.00     0.004 C 
ENDBRANCH  10  11
ENDBRANCH   9  10
ENDBRANCH   8   9
BRANCH   8  13
ATOM     13  N   UNL A   1      32.096  23.836  24.455  1.00  0.00    -0.278 N 
ATOM     14  C   UNL A   1      32.330  24.810  23.500  1.00  0.00     0.266 C 
ATOM     15  C   UNL A   1      31.023  24.032  25.305  1.00  0.00     0.149 C 
ATOM     16  O   UNL A   1      33.167  24.776  22.610  1.00  0.00    -0.268 OA
ATOM     17  C   UNL A   1      31.380  25.920  23.687  1.00  0.00     0.081 C 
ATOM     18  S   UNL A   1      30.166  25.475  24.822  1.00  0.00    -0.054 SA
ATOM     19  S   UNL A   1      30.500  23.142  26.619  1.00  0.00    -0.052 S 
ATOM     20  C   UNL A   1      31.526  27.099  23.070  1.00  0.00     0.029 C 
BRANCH  20  21
ATOM     21  C   UNL A   1      30.584  28.184  23.317  1.00  0.00    -0.024 A 
ATOM     22  C   UNL A   1      30.930  29.198  24.208  1.00  0.00     0.008 A 
ATOM     23  C   UNL A   1      29.438  28.305  22.520  1.00  0.00     0.008 A 
ATOM     24  C   UNL A   1      30.173  30.367  24.245  1.00  0.00     0.004 A 
ATOM     25  C   UNL A   1      28.700  29.483  22.540  1.00  0.00     0.004 A 
ATOM     26  C   UNL A   1      29.079  30.531  23.383  1.00  0.00    -0.051 A 
ATOM     27  C   UNL A   1      28.328  31.826  23.367  1.00  0.00     0.044 C 
ENDBRANCH  20  21
ENDBRANCH   8  13
ENDBRANCH   6   8
ENDBRANCH   5   6
ENDBRANCH   4   5
ENDBRANCH   3   4
ENDBRANCH   2   3
ENDBRANCH   1   2
BRANCH   1  28
ATOM     28  C   UNL A   1      40.671  24.123  27.008  1.00  0.00     0.188 C 
BRANCH  28  29
ATOM     29  O   UNL A   1      41.379  23.533  25.941  1.00  0.00    -0.376 OA
BRANCH  29  30
ATOM     30  C   UNL A   1      41.911  22.236  26.132  1.00  0.00     0.202 C 
BRANCH  30  31
ATOM     31  C   UNL A   1      43.360  21.987  25.680  1.00  0.00     0.261 C 
BRANCH  31  32
ATOM     32  O   UNL A   1      44.206  23.147  25.574  1.00  0.00    -0.460 OA
BRANCH  32  33
ATOM     33  C   UNL A   1      45.164  23.315  26.524  1.00  0.00     0.338 C 
ATOM     34  O   UNL A   1      46.299  22.890  26.486  1.00  0.00    -0.246 OA
BRANCH  33  35
ATOM     35  C   UNL A   1      44.661  24.356  27.466  1.00  0.00     0.060 A 
ATOM     36  C   UNL A   1      44.032  23.949  28.654  1.00  0.00     0.016 A 
ATOM     37  C   UNL A   1      44.887  25.712  27.228  1.00  0.00     0.016 A 
ATOM     38  C   UNL A   1      43.640  24.896  29.607  1.00  0.00     0.010 A 
ATOM     39  C   UNL A   1      44.465  26.660  28.169  1.00  0.00     0.010 A 
ATOM     40  C   UNL A   1      43.832  26.262  29.360  1.00  0.00    -0.014 A 
BRANCH  40  41
ATOM     41  C   UNL A   1      43.245  27.290  30.262  1.00  0.00     0.031 A 
ATOM     42  C   UNL A   1      43.903  27.535  31.593  1.00  0.00     0.074 A 
ATOM     43  C   UNL A   1      42.140  27.982  29.925  1.00  0.00     0.049 A 
ATOM     44  N   UNL A   1      43.507  28.275  32.595  1.00  0.00    -0.248 NA
ATOM     45  C   UNL A   1      45.182  26.844  31.817  1.00  0.00     0.031 C 
ATOM     46  C   UNL A   1      41.442  27.891  28.645  1.00  0.00     0.029 A 
ATOM     47  N   UNL A   1      41.402  28.892  30.646  1.00  0.00    -0.354 N 
ATOM     48  C   UNL A   1      44.481  28.133  33.578  1.00  0.00     0.074 A 
ATOM     49  C   UNL A   1      45.471  27.213  33.056  1.00  0.00     0.031 C 
ATOM     50  C   UNL A   1      40.366  28.697  28.677  1.00  0.00     0.029 A 
ATOM     51  C   UNL A   1      40.266  29.320  29.998  1.00  0.00     0.049 A 
ATOM     52  H   UNL A   1      41.662  29.207  31.541  1.00  0.00     0.167 HD
ATOM     53  C   UNL A   1      44.546  28.718  34.798  1.00  0.00     0.034 A 
ATOM     54  C   UNL A   1      39.244  30.089  30.432  1.00  0.00     0.034 A 
ATOM     55  C   UNL A   1      43.544  29.619  35.316  1.00  0.00     0.049 A 
ATOM     56  C   UNL A   1      39.273  30.627  31.847  1.00  0.00     0.074 A 
ATOM     57  C   UNL A   1      43.524  30.275  36.535  1.00  0.00     0.029 A 
ATOM     58  N   UNL A   1      42.375  29.976  34.657  1.00  0.00    -0.354 N 
ATOM     59  N   UNL A   1      40.200  30.489  32.767  1.00  0.00    -0.248 NA
ATOM     60  C   UNL A   1      38.115  31.421  32.280  1.00  0.00     0.031 C 
ATOM     61  C   UNL A   1      42.306  30.954  36.648  1.00  0.00     0.029 A 
ATOM     62  C   UNL A   1      41.605  30.801  35.464  1.00  0.00     0.049 A 
ATOM     63  H   UNL A   1      42.128  29.685  33.749  1.00  0.00     0.167 HD
ATOM     64  C   UNL A   1      39.745  31.202  33.876  1.00  0.00     0.074 A 
ATOM     65  C   UNL A   1      38.473  31.785  33.502  1.00  0.00     0.031 C 
ATOM     66  C   UNL A   1      40.327  31.364  35.092  1.00  0.00     0.034 A 
BRANCH  53  67
ATOM     67  C   UNL A   1      45.712  28.348  35.684  1.00  0.00     0.023 A 
ATOM     68  C   UNL A   1      45.669  27.236  36.542  1.00  0.00     0.031 A 
ATOM     69  C   UNL A   1      46.878  29.135  35.683  1.00  0.00     0.131 A 
ATOM     70  C   UNL A   1      46.740  26.983  37.412  1.00  0.00     0.055 A 
ATOM     71  C   UNL A   1      47.974  28.828  36.491  1.00  0.00     0.041 A 
ATOM     72  F   UNL A   1      46.967  30.224  34.904  1.00  0.00    -0.206 F 
ATOM     73  C   UNL A   1      47.903  27.754  37.373  1.00  0.00     0.022 A 
BRANCH  70  74
ATOM     74  S   UNL A   1      46.531  25.722  38.700  1.00  0.00     0.124 S 
ATOM     75  O   UNL A   1      46.614  26.527  39.917  1.00  0.00    -0.237 OA
ATOM     76  O   UNL A   1      45.219  25.168  38.389  1.00  0.00    -0.237 OA
ATOM     77  O   UNL A   1      47.659  24.819  38.481  1.00  0.00    -0.744 OA
ENDBRANCH  70  74
ENDBRANCH  53  67
BRANCH  54  78
ATOM     78  C   UNL A   1      38.062  30.353  29.556  1.00  0.00     0.023 A 
ATOM     79  C   UNL A   1      37.545  31.650  29.400  1.00  0.00     0.031 A 
ATOM     80  C   UNL A   1      37.383  29.296  28.923  1.00  0.00     0.131 A 
ATOM     81  C   UNL A   1      36.360  31.850  28.671  1.00  0.00     0.055 A 
ATOM     82  C   UNL A   1      36.242  29.508  28.147  1.00  0.00     0.041 A 
ATOM     83  F   UNL A   1      37.821  28.033  29.051  1.00  0.00    -0.206 F 
ATOM     84  C   UNL A   1      35.716  30.791  28.030  1.00  0.00     0.022 A 
BRANCH  81  85
ATOM     85  S   UNL A   1      35.614  33.504  28.662  1.00  0.00     0.124 S 
ATOM     86  O   UNL A   1      34.455  33.311  29.527  1.00  0.00    -0.237 OA
ATOM     87  O   UNL A   1      36.690  34.326  29.204  1.00  0.00    -0.237 OA
ATOM     88  O   UNL A   1      35.308  33.731  27.250  1.00  0.00    -0.744 OA
ENDBRANCH  81  85
ENDBRANCH  54  78
BRANCH  66  89
ATOM     89  C   UNL A   1      39.608  32.234  36.098  1.00  0.00     0.023 A 
ATOM     90  C   UNL A   1      39.955  33.583  36.294  1.00  0.00     0.031 A 
ATOM     91  C   UNL A   1      38.561  31.706  36.876  1.00  0.00     0.131 A 
ATOM     92  C   UNL A   1      39.301  34.340  37.280  1.00  0.00     0.055 A 
ATOM     93  C   UNL A   1      37.869  32.482  37.808  1.00  0.00     0.041 A 
ATOM     94  F   UNL A   1      38.186  30.424  36.738  1.00  0.00    -0.206 F 
ATOM     95  C   UNL A   1      38.246  33.804  38.023  1.00  0.00     0.022 A 
BRANCH  92  96
ATOM     96  S   UNL A   1      39.908  36.010  37.646  1.00  0.00     0.124 S 
ATOM     97  O   UNL A   1      41.289  35.750  38.039  1.00  0.00    -0.237 OA
ATOM     98  O   UNL A   1      39.727  36.695  36.370  1.00  0.00    -0.237 OA
ATOM     99  O   UNL A   1      39.032  36.465  38.724  1.00  0.00    -0.744 OA
ENDBRANCH  92  96
ENDBRANCH  66  89
ENDBRANCH  40  41
ENDBRANCH  33  35
ENDBRANCH  32  33
ENDBRANCH  31  32
ENDBRANCH  30  31
ENDBRANCH  29  30
ENDBRANCH  28  29
ENDBRANCH   1  28
TORSDOF 25
ENDMDL
