MODEL 1
REMARK VINA RESULT:      -9.6      0.000      0.000
REMARK SMILES Cc1ccc(OCCC[N@H+]2CCCC[C@@H]2C(=O)OCCOCCOCCOC(=O)c2ccc(-c3c4nc(c(-c5cc(S(=O)(=O)[O-])ccc5F)c5ccc([nH]5)c(-c5cc(S(=O)(=O)[O-])ccc5F)c5nc(c(-c6cc(S(=O)(=O)[O-])ccc6F)c6ccc3[nH]6)C=C5)C=C4)cc2)cc1C
REMARK SMILES IDX 22 1 21 2 20 3 19 4 18 5 16 6 17 7 15 8 10 9 11 10 12 12
REMARK SMILES IDX 14 13 13 14 9 15 8 16 7 17 6 18 5 19 1 20 2 21 3 22 94 23
REMARK SMILES IDX 4 24 93 25 95 26 23 27 24 28 25 29 26 30 27 31 28 32 29 33
REMARK SMILES IDX 30 34 31 35 92 36 32 37 91 38 33 39 34 40 35 41 85 42 36 43
REMARK SMILES IDX 90 44 84 45 86 46 37 47 89 48 83 49 82 50 38 52 70 53 50 54
REMARK SMILES IDX 69 55 51 56 54 57 68 58 87 59 52 60 53 61 67 63 88 64 55 65
REMARK SMILES IDX 39 66 40 67 48 68 41 69 47 70 49 71 46 72 42 73 43 74 44 75
REMARK SMILES IDX 45 76 71 77 72 78 80 79 73 80 79 81 81 82 78 83 74 84 75 85
REMARK SMILES IDX 76 86 77 87 56 88 57 89 65 90 58 91 64 92 66 93 63 94 59 95
REMARK SMILES IDX 60 96 61 97 62 98
REMARK H PARENT 10 11 86 51 54 62
REMARK Flexibility Score: inf
ROOT
ATOM      1  C   UNL A   1      40.923  20.521  27.239  1.00  0.00     0.188 C 
ENDROOT
BRANCH   1   2
ATOM      2  O   UNL A   1      40.032  20.523  26.126  1.00  0.00    -0.376 OA
BRANCH   2   3
ATOM      3  C   UNL A   1      39.086  21.584  26.123  1.00  0.00     0.202 C 
BRANCH   3   4
ATOM      4  C   UNL A   1      38.004  21.474  25.050  1.00  0.00     0.261 C 
BRANCH   4   5
ATOM      5  O   UNL A   1      36.943  22.459  24.942  1.00  0.00    -0.459 OA
BRANCH   5   6
ATOM      6  C   UNL A   1      35.707  22.360  25.498  1.00  0.00     0.364 C 
ATOM      7  O   UNL A   1      35.352  22.852  26.548  1.00  0.00    -0.245 OA
BRANCH   6   8
ATOM      8  C   UNL A   1      34.748  21.553  24.619  1.00  0.00     0.295 C 
ATOM      9  N   UNL A   1      33.491  22.320  24.327  1.00  0.00    -0.323 N 
ATOM     10  C   UNL A   1      32.548  21.433  23.602  1.00  0.00     0.262 C 
ATOM     11  H   UNL A   1      33.090  22.639  25.209  1.00  0.00     0.348 HD
ATOM     12  C   UNL A   1      32.265  20.111  24.319  1.00  0.00     0.062 C 
ATOM     13  C   UNL A   1      34.530  20.197  25.310  1.00  0.00     0.078 C 
ATOM     14  C   UNL A   1      33.549  19.329  24.548  1.00  0.00     0.013 C 
BRANCH   9  15
ATOM     15  C   UNL A   1      33.786  23.502  23.464  1.00  0.00     0.266 C 
BRANCH  15  16
ATOM     16  C   UNL A   1      32.692  24.590  23.415  1.00  0.00     0.103 C 
BRANCH  16  17
ATOM     17  C   UNL A   1      32.578  25.401  22.119  1.00  0.00     0.235 C 
BRANCH  17  18
ATOM     18  O   UNL A   1      33.068  26.758  22.240  1.00  0.00    -0.493 OA
BRANCH  18  19
ATOM     19  C   UNL A   1      32.122  27.619  22.735  1.00  0.00     0.119 A 
ATOM     20  C   UNL A   1      29.346  30.700  23.877  1.00  0.00     0.044 C 
ATOM     21  C   UNL A   1      30.281  29.553  23.603  1.00  0.00    -0.048 A 
ATOM     22  C   UNL A   1      29.978  28.696  22.536  1.00  0.00     0.007 A 
ATOM     23  C   UNL A   1      31.456  29.323  24.351  1.00  0.00    -0.045 A 
ATOM     24  C   UNL A   1      30.881  27.717  22.127  1.00  0.00     0.047 A 
ATOM     25  C   UNL A   1      32.380  28.355  23.895  1.00  0.00     0.050 A 
ATOM     26  C   UNL A   1      31.750  30.108  25.600  1.00  0.00     0.045 C 
ENDBRANCH  18  19
ENDBRANCH  17  18
ENDBRANCH  16  17
ENDBRANCH  15  16
ENDBRANCH   9  15
ENDBRANCH   6   8
ENDBRANCH   5   6
ENDBRANCH   4   5
ENDBRANCH   3   4
ENDBRANCH   2   3
ENDBRANCH   1   2
BRANCH   1  27
ATOM     27  C   UNL A   1      42.115  19.591  26.998  1.00  0.00     0.188 C 
BRANCH  27  28
ATOM     28  O   UNL A   1      42.323  19.085  25.678  1.00  0.00    -0.376 OA
BRANCH  28  29
ATOM     29  C   UNL A   1      43.574  18.483  25.384  1.00  0.00     0.202 C 
BRANCH  29  30
ATOM     30  C   UNL A   1      44.462  19.207  24.364  1.00  0.00     0.261 C 
BRANCH  30  31
ATOM     31  O   UNL A   1      44.241  20.627  24.272  1.00  0.00    -0.460 OA
BRANCH  31  32
ATOM     32  C   UNL A   1      45.071  21.371  25.048  1.00  0.00     0.338 C 
ATOM     33  O   UNL A   1      46.278  21.230  25.154  1.00  0.00    -0.246 OA
BRANCH  32  34
ATOM     34  C   UNL A   1      44.354  22.507  25.674  1.00  0.00     0.060 A 
ATOM     35  C   UNL A   1      44.084  23.620  24.864  1.00  0.00     0.016 A 
ATOM     36  C   UNL A   1      44.095  22.562  27.045  1.00  0.00     0.016 A 
ATOM     37  C   UNL A   1      43.653  24.819  25.430  1.00  0.00     0.010 A 
ATOM     38  C   UNL A   1      43.678  23.774  27.617  1.00  0.00     0.010 A 
ATOM     39  C   UNL A   1      43.525  24.927  26.820  1.00  0.00    -0.014 A 
BRANCH  39  40
ATOM     40  C   UNL A   1      43.541  26.288  27.426  1.00  0.00     0.031 A 
ATOM     41  C   UNL A   1      44.873  26.995  27.535  1.00  0.00     0.074 A 
ATOM     42  C   UNL A   1      42.414  26.928  27.789  1.00  0.00     0.049 A 
ATOM     43  N   UNL A   1      45.152  28.182  28.010  1.00  0.00    -0.248 NA
ATOM     44  C   UNL A   1      46.049  26.259  27.041  1.00  0.00     0.031 C 
ATOM     45  C   UNL A   1      41.060  26.386  27.684  1.00  0.00     0.029 A 
ATOM     46  N   UNL A   1      42.234  28.182  28.321  1.00  0.00    -0.354 N 
ATOM     47  C   UNL A   1      46.531  28.327  27.886  1.00  0.00     0.074 A 
ATOM     48  C   UNL A   1      47.035  27.096  27.319  1.00  0.00     0.031 C 
ATOM     49  C   UNL A   1      40.189  27.299  28.155  1.00  0.00     0.029 A 
ATOM     50  C   UNL A   1      40.923  28.478  28.616  1.00  0.00     0.049 A 
ATOM     51  H   UNL A   1      42.974  28.812  28.476  1.00  0.00     0.167 HD
ATOM     52  C   UNL A   1      47.309  29.389  28.206  1.00  0.00     0.034 A 
ATOM     53  C   UNL A   1      40.382  29.563  29.209  1.00  0.00     0.034 A 
ATOM     54  C   UNL A   1      46.805  30.622  28.755  1.00  0.00     0.049 A 
ATOM     55  C   UNL A   1      41.281  30.717  29.605  1.00  0.00     0.074 A 
ATOM     56  C   UNL A   1      47.511  31.768  29.083  1.00  0.00     0.029 A 
ATOM     57  N   UNL A   1      45.477  30.872  29.066  1.00  0.00    -0.354 N 
ATOM     58  N   UNL A   1      42.580  30.847  29.456  1.00  0.00    -0.248 NA
ATOM     59  C   UNL A   1      40.633  31.878  30.232  1.00  0.00     0.031 C 
ATOM     60  C   UNL A   1      46.621  32.682  29.659  1.00  0.00     0.029 A 
ATOM     61  C   UNL A   1      45.347  32.140  29.613  1.00  0.00     0.049 A 
ATOM     62  H   UNL A   1      44.735  30.242  28.920  1.00  0.00     0.167 HD
ATOM     63  C   UNL A   1      42.892  32.119  29.939  1.00  0.00     0.074 A 
ATOM     64  C   UNL A   1      41.645  32.721  30.357  1.00  0.00     0.031 C 
ATOM     65  C   UNL A   1      44.100  32.734  30.030  1.00  0.00     0.034 A 
BRANCH  52  66
ATOM     66  C   UNL A   1      48.800  29.243  28.023  1.00  0.00     0.023 A 
ATOM     67  C   UNL A   1      49.424  29.444  26.780  1.00  0.00     0.031 A 
ATOM     68  C   UNL A   1      49.608  28.900  29.122  1.00  0.00     0.131 A 
ATOM     69  C   UNL A   1      50.809  29.251  26.656  1.00  0.00     0.055 A 
ATOM     70  C   UNL A   1      50.994  28.777  29.006  1.00  0.00     0.041 A 
ATOM     71  F   UNL A   1      49.062  28.674  30.326  1.00  0.00    -0.206 F 
ATOM     72  C   UNL A   1      51.600  28.944  27.765  1.00  0.00     0.022 A 
BRANCH  69  73
ATOM     73  S   UNL A   1      51.552  29.303  25.002  1.00  0.00     0.124 S 
ATOM     74  O   UNL A   1      52.829  28.629  25.231  1.00  0.00    -0.237 OA
ATOM     75  O   UNL A   1      50.581  28.574  24.195  1.00  0.00    -0.237 OA
ATOM     76  O   UNL A   1      51.653  30.733  24.716  1.00  0.00    -0.744 OA
ENDBRANCH  69  73
ENDBRANCH  52  66
BRANCH  53  77
ATOM     77  C   UNL A   1      38.922  29.617  29.527  1.00  0.00     0.023 A 
ATOM     78  C   UNL A   1      38.041  30.432  28.797  1.00  0.00     0.031 A 
ATOM     79  C   UNL A   1      38.410  28.939  30.649  1.00  0.00     0.131 A 
ATOM     80  C   UNL A   1      36.718  30.604  29.237  1.00  0.00     0.055 A 
ATOM     81  C   UNL A   1      37.078  29.064  31.045  1.00  0.00     0.041 A 
ATOM     82  F   UNL A   1      39.208  28.151  31.389  1.00  0.00    -0.206 F 
ATOM     83  C   UNL A   1      36.228  29.917  30.349  1.00  0.00     0.022 A 
BRANCH  80  84
ATOM     84  S   UNL A   1      35.681  31.843  28.409  1.00  0.00     0.124 S 
ATOM     85  O   UNL A   1      35.100  31.065  27.321  1.00  0.00    -0.237 OA
ATOM     86  O   UNL A   1      34.768  32.233  29.479  1.00  0.00    -0.237 OA
ATOM     87  O   UNL A   1      36.637  32.870  28.003  1.00  0.00    -0.744 OA
ENDBRANCH  80  84
ENDBRANCH  53  77
BRANCH  65  88
ATOM     88  C   UNL A   1      44.116  34.154  30.550  1.00  0.00     0.023 A 
ATOM     89  C   UNL A   1      44.027  35.263  29.690  1.00  0.00     0.031 A 
ATOM     90  C   UNL A   1      44.253  34.401  31.929  1.00  0.00     0.131 A 
ATOM     91  C   UNL A   1      44.151  36.562  30.206  1.00  0.00     0.055 A 
ATOM     92  C   UNL A   1      44.305  35.697  32.444  1.00  0.00     0.041 A 
ATOM     93  F   UNL A   1      44.342  33.384  32.800  1.00  0.00    -0.206 F 
ATOM     94  C   UNL A   1      44.273  36.787  31.579  1.00  0.00     0.022 A 
BRANCH  91  95
ATOM     95  S   UNL A   1      44.277  37.952  29.046  1.00  0.00     0.124 S 
ATOM     96  O   UNL A   1      44.375  37.267  27.761  1.00  0.00    -0.237 OA
ATOM     97  O   UNL A   1      43.032  38.673  29.290  1.00  0.00    -0.237 OA
ATOM     98  O   UNL A   1      45.490  38.647  29.473  1.00  0.00    -0.744 OA
ENDBRANCH  91  95
ENDBRANCH  65  88
ENDBRANCH  39  40
ENDBRANCH  32  34
ENDBRANCH  31  32
ENDBRANCH  30  31
ENDBRANCH  29  30
ENDBRANCH  28  29
ENDBRANCH  27  28
ENDBRANCH   1  27
TORSDOF 25
ENDMDL
MODEL 2
REMARK VINA RESULT:      -9.4      2.047      7.708
REMARK SMILES Cc1ccc(OCCC[N@H+]2CCCC[C@@H]2C(=O)OCCOCCOCCOC(=O)c2ccc(-c3c4nc(c(-c5cc(S(=O)(=O)[O-])ccc5F)c5ccc([nH]5)c(-c5cc(S(=O)(=O)[O-])ccc5F)c5nc(c(-c6cc(S(=O)(=O)[O-])ccc6F)c6ccc3[nH]6)C=C5)C=C4)cc2)cc1C
REMARK SMILES IDX 22 1 21 2 20 3 19 4 18 5 16 6 17 7 15 8 10 9 11 10 12 12
REMARK SMILES IDX 14 13 13 14 9 15 8 16 7 17 6 18 5 19 1 20 2 21 3 22 94 23
REMARK SMILES IDX 4 24 93 25 95 26 23 27 24 28 25 29 26 30 27 31 28 32 29 33
REMARK SMILES IDX 30 34 31 35 92 36 32 37 91 38 33 39 34 40 35 41 85 42 36 43
REMARK SMILES IDX 90 44 84 45 86 46 37 47 89 48 83 49 82 50 38 52 70 53 50 54
REMARK SMILES IDX 69 55 51 56 54 57 68 58 87 59 52 60 53 61 67 63 88 64 55 65
REMARK SMILES IDX 39 66 40 67 48 68 41 69 47 70 49 71 46 72 42 73 43 74 44 75
REMARK SMILES IDX 45 76 71 77 72 78 80 79 73 80 79 81 81 82 78 83 74 84 75 85
REMARK SMILES IDX 76 86 77 87 56 88 57 89 65 90 58 91 64 92 66 93 63 94 59 95
REMARK SMILES IDX 60 96 61 97 62 98
REMARK H PARENT 10 11 86 51 54 62
REMARK Flexibility Score: inf
ROOT
ATOM      1  C   UNL A   1      36.393  20.334  25.094  1.00  0.00     0.188 C 
ENDROOT
BRANCH   1   2
ATOM      2  O   UNL A   1      36.182  21.654  25.588  1.00  0.00    -0.376 OA
BRANCH   2   3
ATOM      3  C   UNL A   1      36.756  22.685  24.794  1.00  0.00     0.202 C 
BRANCH   3   4
ATOM      4  C   UNL A   1      35.754  23.488  23.966  1.00  0.00     0.261 C 
BRANCH   4   5
ATOM      5  O   UNL A   1      34.670  22.838  23.252  1.00  0.00    -0.459 OA
BRANCH   5   6
ATOM      6  C   UNL A   1      33.343  23.036  23.469  1.00  0.00     0.364 C 
ATOM      7  O   UNL A   1      32.697  24.003  23.127  1.00  0.00    -0.245 OA
BRANCH   6   8
ATOM      8  C   UNL A   1      32.702  21.853  24.199  1.00  0.00     0.295 C 
ATOM      9  N   UNL A   1      33.327  21.632  25.545  1.00  0.00    -0.323 N 
ATOM     10  C   UNL A   1      32.769  20.389  26.134  1.00  0.00     0.262 C 
ATOM     11  H   UNL A   1      34.338  21.561  25.431  1.00  0.00     0.348 HD
ATOM     12  C   UNL A   1      32.900  19.163  25.229  1.00  0.00     0.062 C 
ATOM     13  C   UNL A   1      32.770  20.643  23.252  1.00  0.00     0.078 C 
ATOM     14  C   UNL A   1      32.207  19.393  23.895  1.00  0.00     0.013 C 
BRANCH   9  15
ATOM     15  C   UNL A   1      33.015  22.769  26.461  1.00  0.00     0.266 C 
BRANCH  15  16
ATOM     16  C   UNL A   1      31.547  22.879  26.924  1.00  0.00     0.103 C 
BRANCH  16  17
ATOM     17  C   UNL A   1      30.736  24.064  26.386  1.00  0.00     0.235 C 
BRANCH  17  18
ATOM     18  O   UNL A   1      31.205  25.349  26.857  1.00  0.00    -0.493 OA
BRANCH  18  19
ATOM     19  C   UNL A   1      31.741  26.117  25.856  1.00  0.00     0.119 A 
ATOM     20  C   UNL A   1      33.463  28.954  23.120  1.00  0.00     0.044 C 
ATOM     21  C   UNL A   1      32.828  27.878  23.959  1.00  0.00    -0.048 A 
ATOM     22  C   UNL A   1      33.657  27.124  24.802  1.00  0.00     0.007 A 
ATOM     23  C   UNL A   1      31.441  27.618  23.955  1.00  0.00    -0.045 A 
ATOM     24  C   UNL A   1      33.115  26.228  25.721  1.00  0.00     0.047 A 
ATOM     25  C   UNL A   1      30.906  26.738  24.924  1.00  0.00     0.050 A 
ATOM     26  C   UNL A   1      30.528  28.281  22.960  1.00  0.00     0.045 C 
ENDBRANCH  18  19
ENDBRANCH  17  18
ENDBRANCH  16  17
ENDBRANCH  15  16
ENDBRANCH   9  15
ENDBRANCH   6   8
ENDBRANCH   5   6
ENDBRANCH   4   5
ENDBRANCH   3   4
ENDBRANCH   2   3
ENDBRANCH   1   2
BRANCH   1  27
ATOM     27  C   UNL A   1      37.800  20.173  24.513  1.00  0.00     0.188 C 
BRANCH  27  28
ATOM     28  O   UNL A   1      38.750  19.397  25.246  1.00  0.00    -0.376 OA
BRANCH  28  29
ATOM     29  C   UNL A   1      39.665  20.083  26.087  1.00  0.00     0.202 C 
BRANCH  29  30
ATOM     30  C   UNL A   1      40.960  19.341  26.443  1.00  0.00     0.261 C 
BRANCH  30  31
ATOM     31  O   UNL A   1      41.965  19.352  25.412  1.00  0.00    -0.460 OA
BRANCH  31  32
ATOM     32  C   UNL A   1      43.103  20.009  25.750  1.00  0.00     0.338 C 
ATOM     33  O   UNL A   1      44.244  19.624  25.555  1.00  0.00    -0.246 OA
BRANCH  32  34
ATOM     34  C   UNL A   1      42.811  21.362  26.280  1.00  0.00     0.060 A 
ATOM     35  C   UNL A   1      42.606  22.387  25.345  1.00  0.00     0.016 A 
ATOM     36  C   UNL A   1      42.893  21.665  27.642  1.00  0.00     0.016 A 
ATOM     37  C   UNL A   1      42.584  23.722  25.751  1.00  0.00     0.010 A 
ATOM     38  C   UNL A   1      42.889  23.009  28.047  1.00  0.00     0.010 A 
ATOM     39  C   UNL A   1      42.807  24.044  27.095  1.00  0.00    -0.014 A 
BRANCH  39  40
ATOM     40  C   UNL A   1      43.254  25.427  27.422  1.00  0.00     0.031 A 
ATOM     41  C   UNL A   1      42.239  26.370  28.030  1.00  0.00     0.074 A 
ATOM     42  C   UNL A   1      44.531  25.825  27.278  1.00  0.00     0.049 A 
ATOM     43  N   UNL A   1      42.380  27.614  28.412  1.00  0.00    -0.248 NA
ATOM     44  C   UNL A   1      40.883  25.834  28.231  1.00  0.00     0.031 C 
ATOM     45  C   UNL A   1      45.621  25.001  26.759  1.00  0.00     0.029 A 
ATOM     46  N   UNL A   1      45.126  27.031  27.559  1.00  0.00    -0.354 N 
ATOM     47  C   UNL A   1      41.130  28.010  28.882  1.00  0.00     0.074 A 
ATOM     48  C   UNL A   1      40.238  26.885  28.709  1.00  0.00     0.031 C 
ATOM     49  C   UNL A   1      46.751  25.734  26.743  1.00  0.00     0.029 A 
ATOM     50  C   UNL A   1      46.461  27.084  27.227  1.00  0.00     0.049 A 
ATOM     51  H   UNL A   1      44.643  27.788  27.961  1.00  0.00     0.167 HD
ATOM     52  C   UNL A   1      40.759  29.199  29.417  1.00  0.00     0.034 A 
ATOM     53  C   UNL A   1      47.338  28.108  27.285  1.00  0.00     0.034 A 
ATOM     54  C   UNL A   1      41.651  30.314  29.604  1.00  0.00     0.049 A 
ATOM     55  C   UNL A   1      46.884  29.443  27.839  1.00  0.00     0.074 A 
ATOM     56  C   UNL A   1      41.376  31.549  30.167  1.00  0.00     0.029 A 
ATOM     57  N   UNL A   1      42.986  30.338  29.229  1.00  0.00    -0.354 N 
ATOM     58  N   UNL A   1      45.705  29.792  28.304  1.00  0.00    -0.248 NA
ATOM     59  C   UNL A   1      47.887  30.515  27.894  1.00  0.00     0.031 C 
ATOM     60  C   UNL A   1      42.523  32.343  30.065  1.00  0.00     0.029 A 
ATOM     61  C   UNL A   1      43.539  31.578  29.518  1.00  0.00     0.049 A 
ATOM     62  H   UNL A   1      43.471  29.586  28.820  1.00  0.00     0.167 HD
ATOM     63  C   UNL A   1      45.842  31.112  28.736  1.00  0.00     0.074 A 
ATOM     64  C   UNL A   1      47.221  31.483  28.502  1.00  0.00     0.031 C 
ATOM     65  C   UNL A   1      44.914  31.942  29.278  1.00  0.00     0.034 A 
BRANCH  52  66
ATOM     66  C   UNL A   1      39.306  29.374  29.786  1.00  0.00     0.023 A 
ATOM     67  C   UNL A   1      38.397  30.042  28.949  1.00  0.00     0.031 A 
ATOM     68  C   UNL A   1      38.827  28.854  31.003  1.00  0.00     0.131 A 
ATOM     69  C   UNL A   1      37.066  30.217  29.363  1.00  0.00     0.055 A 
ATOM     70  C   UNL A   1      37.488  28.971  31.376  1.00  0.00     0.041 A 
ATOM     71  F   UNL A   1      39.658  28.228  31.851  1.00  0.00    -0.206 F 
ATOM     72  C   UNL A   1      36.601  29.663  30.558  1.00  0.00     0.022 A 
BRANCH  69  73
ATOM     73  S   UNL A   1      35.973  31.266  28.367  1.00  0.00     0.124 S 
ATOM     74  O   UNL A   1      35.649  30.380  27.251  1.00  0.00    -0.237 OA
ATOM     75  O   UNL A   1      34.882  31.555  29.291  1.00  0.00    -0.237 OA
ATOM     76  O   UNL A   1      36.817  32.409  28.021  1.00  0.00    -0.744 OA
ENDBRANCH  69  73
ENDBRANCH  52  66
BRANCH  53  77
ATOM     77  C   UNL A   1      48.731  27.957  26.763  1.00  0.00     0.023 A 
ATOM     78  C   UNL A   1      49.013  28.050  25.390  1.00  0.00     0.031 A 
ATOM     79  C   UNL A   1      49.783  27.601  27.626  1.00  0.00     0.131 A 
ATOM     80  C   UNL A   1      50.293  27.719  24.914  1.00  0.00     0.055 A 
ATOM     81  C   UNL A   1      51.069  27.334  27.155  1.00  0.00     0.041 A 
ATOM     82  F   UNL A   1      49.570  27.491  28.948  1.00  0.00    -0.206 F 
ATOM     83  C   UNL A   1      51.325  27.373  25.788  1.00  0.00     0.022 A 
BRANCH  80  84
ATOM     84  S   UNL A   1      50.555  27.619  23.121  1.00  0.00     0.124 S 
ATOM     85  O   UNL A   1      49.271  27.102  22.661  1.00  0.00    -0.237 OA
ATOM     86  O   UNL A   1      50.844  29.009  22.782  1.00  0.00    -0.237 OA
ATOM     87  O   UNL A   1      51.683  26.701  22.991  1.00  0.00    -0.744 OA
ENDBRANCH  80  84
ENDBRANCH  53  77
BRANCH  65  88
ATOM     88  C   UNL A   1      45.380  33.316  29.706  1.00  0.00     0.023 A 
ATOM     89  C   UNL A   1      45.876  33.564  30.999  1.00  0.00     0.031 A 
ATOM     90  C   UNL A   1      45.299  34.401  28.814  1.00  0.00     0.131 A 
ATOM     91  C   UNL A   1      46.199  34.874  31.386  1.00  0.00     0.055 A 
ATOM     92  C   UNL A   1      45.688  35.690  29.183  1.00  0.00     0.041 A 
ATOM     93  F   UNL A   1      44.834  34.227  27.567  1.00  0.00    -0.206 F 
ATOM     94  C   UNL A   1      46.124  35.936  30.481  1.00  0.00     0.022 A 
BRANCH  91  95
ATOM     95  S   UNL A   1      46.600  35.194  33.127  1.00  0.00     0.124 S 
ATOM     96  O   UNL A   1      46.265  36.607  33.262  1.00  0.00    -0.237 OA
ATOM     97  O   UNL A   1      45.721  34.261  33.824  1.00  0.00    -0.237 OA
ATOM     98  O   UNL A   1      48.026  34.883  33.213  1.00  0.00    -0.744 OA
ENDBRANCH  91  95
ENDBRANCH  65  88
ENDBRANCH  39  40
ENDBRANCH  32  34
ENDBRANCH  31  32
ENDBRANCH  30  31
ENDBRANCH  29  30
ENDBRANCH  28  29
ENDBRANCH  27  28
ENDBRANCH   1  27
TORSDOF 25
ENDMDL
MODEL 3
REMARK VINA RESULT:      -9.2      1.588      2.034
REMARK SMILES Cc1ccc(OCCC[N@H+]2CCCC[C@@H]2C(=O)OCCOCCOCCOC(=O)c2ccc(-c3c4nc(c(-c5cc(S(=O)(=O)[O-])ccc5F)c5ccc([nH]5)c(-c5cc(S(=O)(=O)[O-])ccc5F)c5nc(c(-c6cc(S(=O)(=O)[O-])ccc6F)c6ccc3[nH]6)C=C5)C=C4)cc2)cc1C
REMARK SMILES IDX 22 1 21 2 20 3 19 4 18 5 16 6 17 7 15 8 10 9 11 10 12 12
REMARK SMILES IDX 14 13 13 14 9 15 8 16 7 17 6 18 5 19 1 20 2 21 3 22 94 23
REMARK SMILES IDX 4 24 93 25 95 26 23 27 24 28 25 29 26 30 27 31 28 32 29 33
REMARK SMILES IDX 30 34 31 35 92 36 32 37 91 38 33 39 34 40 35 41 85 42 36 43
REMARK SMILES IDX 90 44 84 45 86 46 37 47 89 48 83 49 82 50 38 52 70 53 50 54
REMARK SMILES IDX 69 55 51 56 54 57 68 58 87 59 52 60 53 61 67 63 88 64 55 65
REMARK SMILES IDX 39 66 40 67 48 68 41 69 47 70 49 71 46 72 42 73 43 74 44 75
REMARK SMILES IDX 45 76 71 77 72 78 80 79 73 80 79 81 81 82 78 83 74 84 75 85
REMARK SMILES IDX 76 86 77 87 56 88 57 89 65 90 58 91 64 92 66 93 63 94 59 95
REMARK SMILES IDX 60 96 61 97 62 98
REMARK H PARENT 10 11 86 51 54 62
REMARK Flexibility Score: inf
ROOT
ATOM      1  C   UNL A   1      40.463  20.821  27.093  1.00  0.00     0.188 C 
ENDROOT
BRANCH   1   2
ATOM      2  O   UNL A   1      39.506  20.222  26.222  1.00  0.00    -0.376 OA
BRANCH   2   3
ATOM      3  C   UNL A   1      38.932  21.109  25.270  1.00  0.00     0.202 C 
BRANCH   3   4
ATOM      4  C   UNL A   1      37.682  21.843  25.752  1.00  0.00     0.261 C 
BRANCH   4   5
ATOM      5  O   UNL A   1      36.520  22.000  24.896  1.00  0.00    -0.459 OA
BRANCH   5   6
ATOM      6  C   UNL A   1      35.532  22.919  25.058  1.00  0.00     0.364 C 
ATOM      7  O   UNL A   1      35.565  24.077  24.699  1.00  0.00    -0.245 OA
BRANCH   6   8
ATOM      8  C   UNL A   1      34.302  22.321  25.742  1.00  0.00     0.295 C 
ATOM      9  N   UNL A   1      33.066  22.502  24.910  1.00  0.00    -0.323 N 
ATOM     10  C   UNL A   1      31.892  22.037  25.690  1.00  0.00     0.262 C 
ATOM     11  H   UNL A   1      32.976  23.488  24.666  1.00  0.00     0.348 HD
ATOM     12  C   UNL A   1      31.763  22.694  27.066  1.00  0.00     0.062 C 
ATOM     13  C   UNL A   1      34.224  22.930  27.152  1.00  0.00     0.078 C 
ATOM     14  C   UNL A   1      33.004  22.443  27.908  1.00  0.00     0.013 C 
BRANCH   9  15
ATOM     15  C   UNL A   1      33.152  21.692  23.659  1.00  0.00     0.266 C 
BRANCH  15  16
ATOM     16  C   UNL A   1      32.755  22.418  22.356  1.00  0.00     0.103 C 
BRANCH  16  17
ATOM     17  C   UNL A   1      32.759  23.951  22.387  1.00  0.00     0.235 C 
BRANCH  17  18
ATOM     18  O   UNL A   1      31.743  24.516  23.249  1.00  0.00    -0.493 OA
BRANCH  18  19
ATOM     19  C   UNL A   1      32.136  25.696  23.826  1.00  0.00     0.119 A 
ATOM     20  C   UNL A   1      32.806  29.574  25.563  1.00  0.00     0.044 C 
ATOM     21  C   UNL A   1      32.718  28.201  24.952  1.00  0.00    -0.048 A 
ATOM     22  C   UNL A   1      32.191  27.164  25.734  1.00  0.00     0.007 A 
ATOM     23  C   UNL A   1      33.114  27.922  23.626  1.00  0.00    -0.045 A 
ATOM     24  C   UNL A   1      31.932  25.912  25.180  1.00  0.00     0.047 A 
ATOM     25  C   UNL A   1      32.803  26.661  23.068  1.00  0.00     0.050 A 
ATOM     26  C   UNL A   1      33.832  28.952  22.795  1.00  0.00     0.045 C 
ENDBRANCH  18  19
ENDBRANCH  17  18
ENDBRANCH  16  17
ENDBRANCH  15  16
ENDBRANCH   9  15
ENDBRANCH   6   8
ENDBRANCH   5   6
ENDBRANCH   4   5
ENDBRANCH   3   4
ENDBRANCH   2   3
ENDBRANCH   1   2
BRANCH   1  27
ATOM     27  C   UNL A   1      41.893  20.455  26.685  1.00  0.00     0.188 C 
BRANCH  27  28
ATOM     28  O   UNL A   1      42.076  19.449  25.687  1.00  0.00    -0.376 OA
BRANCH  28  29
ATOM     29  C   UNL A   1      43.301  18.733  25.678  1.00  0.00     0.202 C 
BRANCH  29  30
ATOM     30  C   UNL A   1      44.322  19.132  24.605  1.00  0.00     0.261 C 
BRANCH  30  31
ATOM     31  O   UNL A   1      44.328  20.532  24.267  1.00  0.00    -0.460 OA
BRANCH  31  32
ATOM     32  C   UNL A   1      45.215  21.273  24.977  1.00  0.00     0.338 C 
ATOM     33  O   UNL A   1      46.430  21.163  24.952  1.00  0.00    -0.246 OA
BRANCH  32  34
ATOM     34  C   UNL A   1      44.540  22.367  25.715  1.00  0.00     0.060 A 
ATOM     35  C   UNL A   1      44.009  23.420  24.956  1.00  0.00     0.016 A 
ATOM     36  C   UNL A   1      44.563  22.452  27.109  1.00  0.00     0.016 A 
ATOM     37  C   UNL A   1      43.594  24.599  25.575  1.00  0.00     0.010 A 
ATOM     38  C   UNL A   1      44.162  23.646  27.730  1.00  0.00     0.010 A 
ATOM     39  C   UNL A   1      43.744  24.749  26.959  1.00  0.00    -0.014 A 
BRANCH  39  40
ATOM     40  C   UNL A   1      43.758  26.129  27.520  1.00  0.00     0.031 A 
ATOM     41  C   UNL A   1      45.080  26.863  27.552  1.00  0.00     0.074 A 
ATOM     42  C   UNL A   1      42.634  26.760  27.909  1.00  0.00     0.049 A 
ATOM     43  N   UNL A   1      45.354  28.070  27.978  1.00  0.00    -0.248 NA
ATOM     44  C   UNL A   1      46.249  26.133  27.035  1.00  0.00     0.031 C 
ATOM     45  C   UNL A   1      41.288  26.191  27.876  1.00  0.00     0.029 A 
ATOM     46  N   UNL A   1      42.451  28.027  28.407  1.00  0.00    -0.354 N 
ATOM     47  C   UNL A   1      46.724  28.235  27.793  1.00  0.00     0.074 A 
ATOM     48  C   UNL A   1      47.229  26.996  27.246  1.00  0.00     0.031 C 
ATOM     49  C   UNL A   1      40.419  27.102  28.353  1.00  0.00     0.029 A 
ATOM     50  C   UNL A   1      41.147  28.309  28.746  1.00  0.00     0.049 A 
ATOM     51  H   UNL A   1      43.185  28.675  28.512  1.00  0.00     0.167 HD
ATOM     52  C   UNL A   1      47.494  29.322  28.048  1.00  0.00     0.034 A 
ATOM     53  C   UNL A   1      40.610  29.403  29.327  1.00  0.00     0.034 A 
ATOM     54  C   UNL A   1      46.988  30.563  28.578  1.00  0.00     0.049 A 
ATOM     55  C   UNL A   1      41.502  30.585  29.649  1.00  0.00     0.074 A 
ATOM     56  C   UNL A   1      47.684  31.731  28.840  1.00  0.00     0.029 A 
ATOM     57  N   UNL A   1      45.669  30.798  28.935  1.00  0.00    -0.354 N 
ATOM     58  N   UNL A   1      42.791  30.733  29.443  1.00  0.00    -0.248 NA
ATOM     59  C   UNL A   1      40.858  31.754  30.265  1.00  0.00     0.031 C 
ATOM     60  C   UNL A   1      46.801  32.646  29.423  1.00  0.00     0.029 A 
ATOM     61  C   UNL A   1      45.537  32.081  29.446  1.00  0.00     0.049 A 
ATOM     62  H   UNL A   1      44.934  30.150  28.839  1.00  0.00     0.167 HD
ATOM     63  C   UNL A   1      43.098  32.025  29.873  1.00  0.00     0.074 A 
ATOM     64  C   UNL A   1      41.857  32.619  30.322  1.00  0.00     0.031 C 
ATOM     65  C   UNL A   1      44.296  32.665  29.894  1.00  0.00     0.034 A 
BRANCH  52  66
ATOM     66  C   UNL A   1      48.978  29.197  27.808  1.00  0.00     0.023 A 
ATOM     67  C   UNL A   1      49.550  29.390  26.539  1.00  0.00     0.031 A 
ATOM     68  C   UNL A   1      49.834  28.882  28.879  1.00  0.00     0.131 A 
ATOM     69  C   UNL A   1      50.933  29.216  26.364  1.00  0.00     0.055 A 
ATOM     70  C   UNL A   1      51.216  28.779  28.712  1.00  0.00     0.041 A 
ATOM     71  F   UNL A   1      49.339  28.664  30.108  1.00  0.00    -0.206 F 
ATOM     72  C   UNL A   1      51.771  28.938  27.446  1.00  0.00     0.022 A 
BRANCH  69  73
ATOM     73  S   UNL A   1      51.610  29.257  24.682  1.00  0.00     0.124 S 
ATOM     74  O   UNL A   1      51.728  30.695  24.446  1.00  0.00    -0.237 OA
ATOM     75  O   UNL A   1      52.865  28.529  24.828  1.00  0.00    -0.237 OA
ATOM     76  O   UNL A   1      50.588  28.584  23.884  1.00  0.00    -0.744 OA
ENDBRANCH  69  73
ENDBRANCH  52  66
BRANCH  53  77
ATOM     77  C   UNL A   1      39.164  29.441  29.702  1.00  0.00     0.023 A 
ATOM     78  C   UNL A   1      38.244  30.239  29.002  1.00  0.00     0.031 A 
ATOM     79  C   UNL A   1      38.706  28.764  30.848  1.00  0.00     0.131 A 
ATOM     80  C   UNL A   1      36.938  30.397  29.493  1.00  0.00     0.055 A 
ATOM     81  C   UNL A   1      37.389  28.875  31.296  1.00  0.00     0.041 A 
ATOM     82  F   UNL A   1      39.542  27.992  31.561  1.00  0.00    -0.206 F 
ATOM     83  C   UNL A   1      36.501  29.712  30.628  1.00  0.00     0.022 A 
BRANCH  80  84
ATOM     84  S   UNL A   1      35.853  31.617  28.699  1.00  0.00     0.124 S 
ATOM     85  O   UNL A   1      36.802  32.658  28.322  1.00  0.00    -0.237 OA
ATOM     86  O   UNL A   1      35.281  30.842  27.602  1.00  0.00    -0.237 OA
ATOM     87  O   UNL A   1      34.915  31.980  29.758  1.00  0.00    -0.744 OA
ENDBRANCH  80  84
ENDBRANCH  53  77
BRANCH  65  88
ATOM     88  C   UNL A   1      44.306  34.101  30.369  1.00  0.00     0.023 A 
ATOM     89  C   UNL A   1      44.414  34.434  31.731  1.00  0.00     0.031 A 
ATOM     90  C   UNL A   1      44.175  35.153  29.444  1.00  0.00     0.131 A 
ATOM     91  C   UNL A   1      44.314  35.774  32.136  1.00  0.00     0.055 A 
ATOM     92  C   UNL A   1      44.147  36.490  29.846  1.00  0.00     0.041 A 
ATOM     93  F   UNL A   1      44.068  34.900  28.130  1.00  0.00    -0.206 F 
ATOM     94  C   UNL A   1      44.197  36.805  31.201  1.00  0.00     0.022 A 
BRANCH  91  95
ATOM     95  S   UNL A   1      44.213  36.143  33.909  1.00  0.00     0.124 S 
ATOM     96  O   UNL A   1      45.180  37.227  34.050  1.00  0.00    -0.237 OA
ATOM     97  O   UNL A   1      42.811  36.516  34.069  1.00  0.00    -0.237 OA
ATOM     98  O   UNL A   1      44.595  34.884  34.545  1.00  0.00    -0.744 OA
ENDBRANCH  91  95
ENDBRANCH  65  88
ENDBRANCH  39  40
ENDBRANCH  32  34
ENDBRANCH  31  32
ENDBRANCH  30  31
ENDBRANCH  29  30
ENDBRANCH  28  29
ENDBRANCH  27  28
ENDBRANCH   1  27
TORSDOF 25
ENDMDL
