MODEL 1
REMARK VINA RESULT:      -9.8      0.000      0.000
REMARK SMILES COc1ccc(OC)c(NC(=O)[C@@H]2[C@@H](C(=O)OCCOCCOCCOC(=O)c3ccc(-c4c5nc(c(-c6cc(S(=O)(=O)[O-])ccc6F)c6ccc([nH]6)c(-c6cc(S(=O)(=O)[O-])ccc6F)c6nc(c(-c7cc(S(=O)(=O)[O-])ccc7F)c7ccc4[nH]7)C=C6)C=C5)cc3)[C@H]3C=C[C@@H]2C3)c1
REMARK SMILES IDX 21 1 20 2 19 3 18 4 17 5 15 6 16 7 14 8 13 9 95 10 92 11
REMARK SMILES IDX 94 12 96 13 93 14 11 15 10 16 12 18 9 19 3 20 4 21 97 22
REMARK SMILES IDX 5 23 6 24 2 25 1 26 7 27 8 28 22 29 23 30 24 31 25 32 26 33
REMARK SMILES IDX 27 34 28 35 29 36 30 37 91 38 31 39 90 40 32 41 33 42 34 43
REMARK SMILES IDX 84 44 35 45 89 46 83 47 85 48 36 49 88 50 82 51 81 52 37 54
REMARK SMILES IDX 69 55 49 56 68 57 50 58 53 59 67 60 86 61 51 62 52 63 66 65
REMARK SMILES IDX 87 66 54 67 38 68 39 69 47 70 40 71 46 72 48 73 45 74 41 75
REMARK SMILES IDX 42 76 43 77 44 78 70 79 71 80 79 81 72 82 78 83 80 84 77 85
REMARK SMILES IDX 73 86 74 87 75 88 76 89 55 90 56 91 64 92 57 93 63 94 65 95
REMARK SMILES IDX 62 96 58 97 59 98 60 99 61 100
REMARK H PARENT 10 17 85 53 53 64
REMARK Flexibility Score: inf
ROOT
ATOM      1  C   UNL A   1      40.576  21.549  26.282  1.00  0.00     0.188 C 
ENDROOT
BRANCH   1   2
ATOM      2  O   UNL A   1      39.296  21.972  26.710  1.00  0.00    -0.376 OA
BRANCH   2   3
ATOM      3  C   UNL A   1      38.290  22.291  25.763  1.00  0.00     0.202 C 
BRANCH   3   4
ATOM      4  C   UNL A   1      37.429  23.547  25.903  1.00  0.00     0.261 C 
BRANCH   4   5
ATOM      5  O   UNL A   1      36.320  23.623  25.000  1.00  0.00    -0.463 OA
BRANCH   5   6
ATOM      6  C   UNL A   1      35.114  23.263  25.534  1.00  0.00     0.310 C 
ATOM      7  O   UNL A   1      34.964  22.381  26.368  1.00  0.00    -0.252 OA
BRANCH   6   8
ATOM      8  C   UNL A   1      34.006  24.162  25.020  1.00  0.00     0.119 C 
ATOM      9  C   UNL A   1      32.598  23.705  25.485  1.00  0.00     0.100 C 
ATOM     10  C   UNL A   1      31.855  23.529  24.132  1.00  0.00     0.025 C 
ATOM     11  C   UNL A   1      33.890  24.170  23.476  1.00  0.00     0.027 C 
ATOM     12  C   UNL A   1      32.494  22.357  23.403  1.00  0.00    -0.027 C 
ATOM     13  C   UNL A   1      32.452  24.656  23.287  1.00  0.00     0.017 C 
ATOM     14  C   UNL A   1      33.708  22.753  22.992  1.00  0.00    -0.027 C 
BRANCH   9  15
ATOM     15  C   UNL A   1      31.715  24.464  26.490  1.00  0.00     0.229 C 
ATOM     16  N   UNL A   1      31.228  25.728  26.386  1.00  0.00    -0.323 N 
ATOM     17  H   UNL A   1      30.371  25.840  26.857  1.00  0.00     0.170 HD
ATOM     18  O   UNL A   1      31.202  23.796  27.402  1.00  0.00    -0.274 OA
BRANCH  16  19
ATOM     19  C   UNL A   1      31.656  26.911  25.767  1.00  0.00     0.087 A 
ATOM     20  C   UNL A   1      33.336  28.658  25.749  1.00  0.00     0.121 A 
ATOM     21  C   UNL A   1      32.486  29.473  25.011  1.00  0.00     0.050 A 
ATOM     22  C   UNL A   1      32.914  27.395  26.159  1.00  0.00     0.076 A 
ATOM     23  C   UNL A   1      31.312  28.933  24.495  1.00  0.00     0.052 A 
ATOM     24  C   UNL A   1      30.954  27.610  24.783  1.00  0.00     0.142 A 
BRANCH  20  25
ATOM     25  O   UNL A   1      34.567  29.104  26.148  1.00  0.00    -0.497 OA
ATOM     26  C   UNL A   1      34.635  29.159  27.580  1.00  0.00     0.278 C 
ENDBRANCH  20  25
BRANCH  24  27
ATOM     27  O   UNL A   1      29.909  27.129  24.042  1.00  0.00    -0.495 OA
ATOM     28  C   UNL A   1      29.189  28.082  23.261  1.00  0.00     0.278 C 
ENDBRANCH  24  27
ENDBRANCH  16  19
ENDBRANCH   9  15
ENDBRANCH   6   8
ENDBRANCH   5   6
ENDBRANCH   4   5
ENDBRANCH   3   4
ENDBRANCH   2   3
ENDBRANCH   1   2
BRANCH   1  29
ATOM     29  C   UNL A   1      40.984  20.062  26.339  1.00  0.00     0.188 C 
BRANCH  29  30
ATOM     30  O   UNL A   1      41.859  19.504  25.373  1.00  0.00    -0.376 OA
BRANCH  30  31
ATOM     31  C   UNL A   1      43.239  19.368  25.674  1.00  0.00     0.202 C 
BRANCH  31  32
ATOM     32  C   UNL A   1      44.230  20.423  25.184  1.00  0.00     0.261 C 
BRANCH  32  33
ATOM     33  O   UNL A   1      44.052  21.706  25.802  1.00  0.00    -0.460 OA
BRANCH  33  34
ATOM     34  C   UNL A   1      43.800  22.720  24.938  1.00  0.00     0.338 C 
ATOM     35  O   UNL A   1      43.670  22.639  23.731  1.00  0.00    -0.246 OA
BRANCH  34  36
ATOM     36  C   UNL A   1      43.545  23.966  25.685  1.00  0.00     0.060 A 
ATOM     37  C   UNL A   1      43.316  25.131  24.947  1.00  0.00     0.016 A 
ATOM     38  C   UNL A   1      43.613  24.012  27.079  1.00  0.00     0.016 A 
ATOM     39  C   UNL A   1      43.176  26.354  25.602  1.00  0.00     0.010 A 
ATOM     40  C   UNL A   1      43.474  25.242  27.733  1.00  0.00     0.010 A 
ATOM     41  C   UNL A   1      43.265  26.421  26.997  1.00  0.00    -0.014 A 
BRANCH  41  42
ATOM     42  C   UNL A   1      43.292  27.743  27.668  1.00  0.00     0.031 A 
ATOM     43  C   UNL A   1      44.621  28.406  27.897  1.00  0.00     0.074 A 
ATOM     44  C   UNL A   1      42.156  28.352  28.052  1.00  0.00     0.049 A 
ATOM     45  N   UNL A   1      44.898  29.516  28.530  1.00  0.00    -0.248 NA
ATOM     46  C   UNL A   1      45.793  27.722  27.330  1.00  0.00     0.031 C 
ATOM     47  C   UNL A   1      40.805  27.845  27.819  1.00  0.00     0.029 A 
ATOM     48  N   UNL A   1      41.961  29.530  28.732  1.00  0.00    -0.354 N 
ATOM     49  C   UNL A   1      46.277  29.667  28.438  1.00  0.00     0.074 A 
ATOM     50  C   UNL A   1      46.779  28.520  27.709  1.00  0.00     0.031 C 
ATOM     51  C   UNL A   1      39.921  28.697  28.368  1.00  0.00     0.029 A 
ATOM     52  C   UNL A   1      40.643  29.783  29.031  1.00  0.00     0.049 A 
ATOM     53  H   UNL A   1      42.696  30.137  28.980  1.00  0.00     0.167 HD
ATOM     54  C   UNL A   1      47.052  30.670  28.919  1.00  0.00     0.034 A 
ATOM     55  C   UNL A   1      40.090  30.754  29.789  1.00  0.00     0.034 A 
ATOM     56  C   UNL A   1      46.544  31.786  29.675  1.00  0.00     0.049 A 
ATOM     57  C   UNL A   1      40.990  31.785  30.433  1.00  0.00     0.074 A 
ATOM     58  C   UNL A   1      47.244  32.853  30.213  1.00  0.00     0.029 A 
ATOM     59  N   UNL A   1      45.212  31.970  30.022  1.00  0.00    -0.354 N 
ATOM     60  N   UNL A   1      42.294  31.918  30.344  1.00  0.00    -0.248 NA
ATOM     61  C   UNL A   1      40.343  32.795  31.284  1.00  0.00     0.031 C 
ATOM     62  C   UNL A   1      46.348  33.639  30.947  1.00  0.00     0.029 A 
ATOM     63  C   UNL A   1      45.076  33.109  30.801  1.00  0.00     0.049 A 
ATOM     64  H   UNL A   1      44.473  31.378  29.755  1.00  0.00     0.167 HD
ATOM     65  C   UNL A   1      42.614  33.043  31.103  1.00  0.00     0.074 A 
ATOM     66  C   UNL A   1      41.369  33.556  31.634  1.00  0.00     0.031 C 
ATOM     67  C   UNL A   1      43.828  33.606  31.333  1.00  0.00     0.034 A 
BRANCH  54  68
ATOM     68  C   UNL A   1      48.538  30.556  28.690  1.00  0.00     0.023 A 
ATOM     69  C   UNL A   1      49.185  31.267  27.665  1.00  0.00     0.031 A 
ATOM     70  C   UNL A   1      49.312  29.691  29.483  1.00  0.00     0.131 A 
ATOM     71  C   UNL A   1      50.546  31.047  27.413  1.00  0.00     0.055 A 
ATOM     72  C   UNL A   1      50.683  29.535  29.279  1.00  0.00     0.041 A 
ATOM     73  F   UNL A   1      48.743  28.967  30.461  1.00  0.00    -0.206 F 
ATOM     74  C   UNL A   1      51.306  30.204  28.228  1.00  0.00     0.022 A 
BRANCH  71  75
ATOM     75  S   UNL A   1      51.278  31.767  25.918  1.00  0.00     0.124 S 
ATOM     76  O   UNL A   1      51.392  30.596  25.052  1.00  0.00    -0.237 OA
ATOM     77  O   UNL A   1      50.283  32.757  25.525  1.00  0.00    -0.237 OA
ATOM     78  O   UNL A   1      52.551  32.311  26.387  1.00  0.00    -0.744 OA
ENDBRANCH  71  75
ENDBRANCH  54  68
BRANCH  55  79
ATOM     79  C   UNL A   1      38.620  30.774  30.049  1.00  0.00     0.023 A 
ATOM     80  C   UNL A   1      37.771  31.662  29.370  1.00  0.00     0.031 A 
ATOM     81  C   UNL A   1      38.055  29.958  31.046  1.00  0.00     0.131 A 
ATOM     82  C   UNL A   1      36.416  31.749  29.729  1.00  0.00     0.055 A 
ATOM     83  C   UNL A   1      36.696  30.007  31.361  1.00  0.00     0.041 A 
ATOM     84  F   UNL A   1      38.822  29.098  31.737  1.00  0.00    -0.206 F 
ATOM     85  C   UNL A   1      35.870  30.917  30.709  1.00  0.00     0.022 A 
BRANCH  82  86
ATOM     86  S   UNL A   1      35.395  33.040  28.965  1.00  0.00     0.124 S 
ATOM     87  O   UNL A   1      36.190  34.236  29.223  1.00  0.00    -0.237 OA
ATOM     88  O   UNL A   1      35.335  32.598  27.576  1.00  0.00    -0.237 OA
ATOM     89  O   UNL A   1      34.135  32.958  29.701  1.00  0.00    -0.744 OA
ENDBRANCH  82  86
ENDBRANCH  55  79
BRANCH  67  90
ATOM     90  C   UNL A   1      43.862  34.871  32.156  1.00  0.00     0.023 A 
ATOM     91  C   UNL A   1      43.976  34.845  33.557  1.00  0.00     0.031 A 
ATOM     92  C   UNL A   1      43.795  36.125  31.521  1.00  0.00     0.131 A 
ATOM     93  C   UNL A   1      43.979  36.048  34.280  1.00  0.00     0.055 A 
ATOM     94  C   UNL A   1      43.853  37.320  32.241  1.00  0.00     0.041 A 
ATOM     95  F   UNL A   1      43.685  36.210  30.186  1.00  0.00    -0.206 F 
ATOM     96  C   UNL A   1      43.936  37.285  33.630  1.00  0.00     0.022 A 
BRANCH  93  97
ATOM     97  S   UNL A   1      43.975  35.980  36.094  1.00  0.00     0.124 S 
ATOM     98  O   UNL A   1      43.649  37.358  36.448  1.00  0.00    -0.237 OA
ATOM     99  O   UNL A   1      42.939  34.990  36.368  1.00  0.00    -0.237 OA
ATOM    100  O   UNL A   1      45.336  35.560  36.425  1.00  0.00    -0.744 OA
ENDBRANCH  93  97
ENDBRANCH  67  90
ENDBRANCH  41  42
ENDBRANCH  34  36
ENDBRANCH  33  34
ENDBRANCH  32  33
ENDBRANCH  31  32
ENDBRANCH  30  31
ENDBRANCH  29  30
ENDBRANCH   1  29
TORSDOF 24
ENDMDL
MODEL 2
REMARK VINA RESULT:      -9.1      4.366      8.287
REMARK SMILES COc1ccc(OC)c(NC(=O)[C@@H]2[C@@H](C(=O)OCCOCCOCCOC(=O)c3ccc(-c4c5nc(c(-c6cc(S(=O)(=O)[O-])ccc6F)c6ccc([nH]6)c(-c6cc(S(=O)(=O)[O-])ccc6F)c6nc(c(-c7cc(S(=O)(=O)[O-])ccc7F)c7ccc4[nH]7)C=C6)C=C5)cc3)[C@H]3C=C[C@@H]2C3)c1
REMARK SMILES IDX 21 1 20 2 19 3 18 4 17 5 15 6 16 7 14 8 13 9 95 10 92 11
REMARK SMILES IDX 94 12 96 13 93 14 11 15 10 16 12 18 9 19 3 20 4 21 97 22
REMARK SMILES IDX 5 23 6 24 2 25 1 26 7 27 8 28 22 29 23 30 24 31 25 32 26 33
REMARK SMILES IDX 27 34 28 35 29 36 30 37 91 38 31 39 90 40 32 41 33 42 34 43
REMARK SMILES IDX 84 44 35 45 89 46 83 47 85 48 36 49 88 50 82 51 81 52 37 54
REMARK SMILES IDX 69 55 49 56 68 57 50 58 53 59 67 60 86 61 51 62 52 63 66 65
REMARK SMILES IDX 87 66 54 67 38 68 39 69 47 70 40 71 46 72 48 73 45 74 41 75
REMARK SMILES IDX 42 76 43 77 44 78 70 79 71 80 79 81 72 82 78 83 80 84 77 85
REMARK SMILES IDX 73 86 74 87 75 88 76 89 55 90 56 91 64 92 57 93 63 94 65 95
REMARK SMILES IDX 62 96 58 97 59 98 60 99 61 100
REMARK H PARENT 10 17 85 53 53 64
REMARK Flexibility Score: inf
ROOT
ATOM      1  C   UNL A   1      40.056  21.709  26.678  1.00  0.00     0.188 C 
ENDROOT
BRANCH   1   2
ATOM      2  O   UNL A   1      39.276  22.037  25.544  1.00  0.00    -0.376 OA
BRANCH   2   3
ATOM      3  C   UNL A   1      37.876  22.224  25.664  1.00  0.00     0.202 C 
BRANCH   3   4
ATOM      4  C   UNL A   1      36.923  21.888  24.515  1.00  0.00     0.261 C 
BRANCH   4   5
ATOM      5  O   UNL A   1      36.547  23.002  23.697  1.00  0.00    -0.463 OA
BRANCH   5   6
ATOM      6  C   UNL A   1      35.403  23.643  24.083  1.00  0.00     0.310 C 
ATOM      7  O   UNL A   1      35.334  24.430  25.017  1.00  0.00    -0.252 OA
BRANCH   6   8
ATOM      8  C   UNL A   1      34.258  23.317  23.143  1.00  0.00     0.119 C 
ATOM      9  C   UNL A   1      33.186  24.437  23.093  1.00  0.00     0.100 C 
ATOM     10  C   UNL A   1      31.896  23.664  23.484  1.00  0.00     0.025 C 
ATOM     11  C   UNL A   1      33.453  22.065  23.571  1.00  0.00     0.027 C 
ATOM     12  C   UNL A   1      32.037  23.237  24.937  1.00  0.00    -0.027 C 
ATOM     13  C   UNL A   1      32.131  22.298  22.838  1.00  0.00     0.017 C 
ATOM     14  C   UNL A   1      32.958  22.262  24.982  1.00  0.00    -0.027 C 
BRANCH   9  15
ATOM     15  C   UNL A   1      32.922  25.346  21.881  1.00  0.00     0.229 C 
ATOM     16  N   UNL A   1      32.560  26.656  21.882  1.00  0.00    -0.323 N 
ATOM     17  H   UNL A   1      32.885  27.136  21.087  1.00  0.00     0.170 HD
ATOM     18  O   UNL A   1      33.280  24.920  20.771  1.00  0.00    -0.274 OA
BRANCH  16  19
ATOM     19  C   UNL A   1      31.833  27.486  22.747  1.00  0.00     0.087 A 
ATOM     20  C   UNL A   1      29.767  28.713  23.067  1.00  0.00     0.121 A 
ATOM     21  C   UNL A   1      30.368  29.468  24.068  1.00  0.00     0.050 A 
ATOM     22  C   UNL A   1      30.504  27.748  22.381  1.00  0.00     0.076 A 
ATOM     23  C   UNL A   1      31.627  29.100  24.530  1.00  0.00     0.052 A 
ATOM     24  C   UNL A   1      32.313  28.031  23.939  1.00  0.00     0.142 A 
BRANCH  20  25
ATOM     25  O   UNL A   1      28.474  28.948  22.687  1.00  0.00    -0.497 OA
ATOM     26  C   UNL A   1      28.411  30.086  21.817  1.00  0.00     0.278 C 
ENDBRANCH  20  25
BRANCH  24  27
ATOM     27  O   UNL A   1      33.427  27.625  24.622  1.00  0.00    -0.495 OA
ATOM     28  C   UNL A   1      33.916  28.508  25.630  1.00  0.00     0.278 C 
ENDBRANCH  24  27
ENDBRANCH  16  19
ENDBRANCH   9  15
ENDBRANCH   6   8
ENDBRANCH   5   6
ENDBRANCH   4   5
ENDBRANCH   3   4
ENDBRANCH   2   3
ENDBRANCH   1   2
BRANCH   1  29
ATOM     29  C   UNL A   1      41.598  21.733  26.619  1.00  0.00     0.188 C 
BRANCH  29  30
ATOM     30  O   UNL A   1      42.285  21.686  25.380  1.00  0.00    -0.376 OA
BRANCH  30  31
ATOM     31  C   UNL A   1      42.969  22.839  24.915  1.00  0.00     0.202 C 
BRANCH  31  32
ATOM     32  C   UNL A   1      42.729  24.188  25.591  1.00  0.00     0.261 C 
BRANCH  32  33
ATOM     33  O   UNL A   1      43.665  25.201  25.195  1.00  0.00    -0.460 OA
BRANCH  33  34
ATOM     34  C   UNL A   1      44.761  25.300  25.988  1.00  0.00     0.338 C 
ATOM     35  O   UNL A   1      45.900  24.978  25.708  1.00  0.00    -0.246 OA
BRANCH  34  36
ATOM     36  C   UNL A   1      44.418  26.014  27.233  1.00  0.00     0.060 A 
ATOM     37  C   UNL A   1      43.835  25.274  28.267  1.00  0.00     0.016 A 
ATOM     38  C   UNL A   1      44.585  27.395  27.356  1.00  0.00     0.016 A 
ATOM     39  C   UNL A   1      43.395  25.920  29.422  1.00  0.00     0.010 A 
ATOM     40  C   UNL A   1      44.139  28.040  28.516  1.00  0.00     0.010 A 
ATOM     41  C   UNL A   1      43.532  27.306  29.551  1.00  0.00    -0.014 A 
BRANCH  41  42
ATOM     42  C   UNL A   1      42.904  28.003  30.699  1.00  0.00     0.031 A 
ATOM     43  C   UNL A   1      41.557  28.639  30.504  1.00  0.00     0.074 A 
ATOM     44  C   UNL A   1      43.510  28.055  31.898  1.00  0.00     0.049 A 
ATOM     45  N   UNL A   1      40.853  29.366  31.332  1.00  0.00    -0.248 NA
ATOM     46  C   UNL A   1      40.920  28.421  29.197  1.00  0.00     0.031 C 
ATOM     47  C   UNL A   1      44.781  27.413  32.231  1.00  0.00     0.029 A 
ATOM     48  N   UNL A   1      43.139  28.688  33.060  1.00  0.00    -0.354 N 
ATOM     49  C   UNL A   1      39.687  29.692  30.649  1.00  0.00     0.074 A 
ATOM     50  C   UNL A   1      39.793  29.104  29.330  1.00  0.00     0.031 C 
ATOM     51  C   UNL A   1      45.095  27.707  33.506  1.00  0.00     0.029 A 
ATOM     52  C   UNL A   1      44.073  28.593  34.065  1.00  0.00     0.049 A 
ATOM     53  H   UNL A   1      42.284  29.165  33.163  1.00  0.00     0.167 HD
ATOM     54  C   UNL A   1      38.627  30.417  31.083  1.00  0.00     0.034 A 
ATOM     55  C   UNL A   1      44.118  29.187  35.276  1.00  0.00     0.034 A 
ATOM     56  C   UNL A   1      38.551  31.028  32.385  1.00  0.00     0.049 A 
ATOM     57  C   UNL A   1      42.988  30.106  35.685  1.00  0.00     0.074 A 
ATOM     58  C   UNL A   1      37.525  31.788  32.922  1.00  0.00     0.029 A 
ATOM     59  N   UNL A   1      39.549  30.972  33.350  1.00  0.00    -0.354 N 
ATOM     60  N   UNL A   1      41.891  30.412  35.030  1.00  0.00    -0.248 NA
ATOM     61  C   UNL A   1      43.106  30.763  36.995  1.00  0.00     0.031 C 
ATOM     62  C   UNL A   1      37.934  32.251  34.178  1.00  0.00     0.029 A 
ATOM     63  C   UNL A   1      39.181  31.716  34.460  1.00  0.00     0.049 A 
ATOM     64  H   UNL A   1      40.394  30.476  33.258  1.00  0.00     0.167 HD
ATOM     65  C   UNL A   1      41.178  31.272  35.864  1.00  0.00     0.074 A 
ATOM     66  C   UNL A   1      41.963  31.428  37.071  1.00  0.00     0.031 C 
ATOM     67  C   UNL A   1      39.978  31.872  35.655  1.00  0.00     0.034 A 
BRANCH  54  68
ATOM     68  C   UNL A   1      37.500  30.636  30.105  1.00  0.00     0.023 A 
ATOM     69  C   UNL A   1      37.072  31.926  29.748  1.00  0.00     0.031 A 
ATOM     70  C   UNL A   1      36.819  29.537  29.554  1.00  0.00     0.131 A 
ATOM     71  C   UNL A   1      35.948  32.086  28.925  1.00  0.00     0.055 A 
ATOM     72  C   UNL A   1      35.750  29.702  28.671  1.00  0.00     0.041 A 
ATOM     73  F   UNL A   1      37.168  28.282  29.878  1.00  0.00    -0.206 F 
ATOM     74  C   UNL A   1      35.299  30.983  28.365  1.00  0.00     0.022 A 
BRANCH  71  75
ATOM     75  S   UNL A   1      35.260  33.750  28.712  1.00  0.00     0.124 S 
ATOM     76  O   UNL A   1      33.970  33.625  29.386  1.00  0.00    -0.237 OA
ATOM     77  O   UNL A   1      36.249  34.588  29.379  1.00  0.00    -0.237 OA
ATOM     78  O   UNL A   1      35.184  33.907  27.261  1.00  0.00    -0.744 OA
ENDBRANCH  71  75
ENDBRANCH  54  68
BRANCH  55  79
ATOM     79  C   UNL A   1      45.296  29.000  36.174  1.00  0.00     0.023 A 
ATOM     80  C   UNL A   1      45.254  28.105  37.254  1.00  0.00     0.031 A 
ATOM     81  C   UNL A   1      46.455  29.781  36.011  1.00  0.00     0.131 A 
ATOM     82  C   UNL A   1      46.328  28.047  38.158  1.00  0.00     0.055 A 
ATOM     83  C   UNL A   1      47.543  29.679  36.878  1.00  0.00     0.041 A 
ATOM     84  F   UNL A   1      46.545  30.663  35.002  1.00  0.00    -0.206 F 
ATOM     85  C   UNL A   1      47.478  28.817  37.969  1.00  0.00     0.022 A 
BRANCH  82  86
ATOM     86  S   UNL A   1      46.158  27.022  39.645  1.00  0.00     0.124 S 
ATOM     87  O   UNL A   1      46.769  25.770  39.211  1.00  0.00    -0.237 OA
ATOM     88  O   UNL A   1      46.907  27.792  40.633  1.00  0.00    -0.237 OA
ATOM     89  O   UNL A   1      44.714  26.970  39.860  1.00  0.00    -0.744 OA
ENDBRANCH  82  86
ENDBRANCH  55  79
BRANCH  67  90
ATOM     90  C   UNL A   1      39.417  32.713  36.776  1.00  0.00     0.023 A 
ATOM     91  C   UNL A   1      38.606  32.165  37.785  1.00  0.00     0.031 A 
ATOM     92  C   UNL A   1      39.717  34.086  36.843  1.00  0.00     0.131 A 
ATOM     93  C   UNL A   1      38.089  32.993  38.794  1.00  0.00     0.055 A 
ATOM     94  C   UNL A   1      39.245  34.894  37.879  1.00  0.00     0.041 A 
ATOM     95  F   UNL A   1      40.487  34.663  35.907  1.00  0.00    -0.206 F 
ATOM     96  C   UNL A   1      38.418  34.350  38.857  1.00  0.00     0.022 A 
BRANCH  93  97
ATOM     97  S   UNL A   1      36.924  32.288  39.994  1.00  0.00     0.124 S 
ATOM     98  O   UNL A   1      35.896  31.725  39.124  1.00  0.00    -0.237 OA
ATOM     99  O   UNL A   1      37.754  31.323  40.706  1.00  0.00    -0.237 OA
ATOM    100  O   UNL A   1      36.503  33.445  40.783  1.00  0.00    -0.744 OA
ENDBRANCH  93  97
ENDBRANCH  67  90
ENDBRANCH  41  42
ENDBRANCH  34  36
ENDBRANCH  33  34
ENDBRANCH  32  33
ENDBRANCH  31  32
ENDBRANCH  30  31
ENDBRANCH  29  30
ENDBRANCH   1  29
TORSDOF 24
ENDMDL
MODEL 3
REMARK VINA RESULT:      -8.9      2.088      2.857
REMARK SMILES COc1ccc(OC)c(NC(=O)[C@@H]2[C@@H](C(=O)OCCOCCOCCOC(=O)c3ccc(-c4c5nc(c(-c6cc(S(=O)(=O)[O-])ccc6F)c6ccc([nH]6)c(-c6cc(S(=O)(=O)[O-])ccc6F)c6nc(c(-c7cc(S(=O)(=O)[O-])ccc7F)c7ccc4[nH]7)C=C6)C=C5)cc3)[C@H]3C=C[C@@H]2C3)c1
REMARK SMILES IDX 21 1 20 2 19 3 18 4 17 5 15 6 16 7 14 8 13 9 95 10 92 11
REMARK SMILES IDX 94 12 96 13 93 14 11 15 10 16 12 18 9 19 3 20 4 21 97 22
REMARK SMILES IDX 5 23 6 24 2 25 1 26 7 27 8 28 22 29 23 30 24 31 25 32 26 33
REMARK SMILES IDX 27 34 28 35 29 36 30 37 91 38 31 39 90 40 32 41 33 42 34 43
REMARK SMILES IDX 84 44 35 45 89 46 83 47 85 48 36 49 88 50 82 51 81 52 37 54
REMARK SMILES IDX 69 55 49 56 68 57 50 58 53 59 67 60 86 61 51 62 52 63 66 65
REMARK SMILES IDX 87 66 54 67 38 68 39 69 47 70 40 71 46 72 48 73 45 74 41 75
REMARK SMILES IDX 42 76 43 77 44 78 70 79 71 80 79 81 72 82 78 83 80 84 77 85
REMARK SMILES IDX 73 86 74 87 75 88 76 89 55 90 56 91 64 92 57 93 63 94 65 95
REMARK SMILES IDX 62 96 58 97 59 98 60 99 61 100
REMARK H PARENT 10 17 85 53 53 64
REMARK Flexibility Score: inf
ROOT
ATOM      1  C   UNL A   1      39.856  21.123  26.606  1.00  0.00     0.188 C 
ENDROOT
BRANCH   1   2
ATOM      2  O   UNL A   1      39.169  21.895  25.640  1.00  0.00    -0.376 OA
BRANCH   2   3
ATOM      3  C   UNL A   1      37.775  21.729  25.444  1.00  0.00     0.202 C 
BRANCH   3   4
ATOM      4  C   UNL A   1      37.052  22.367  24.257  1.00  0.00     0.261 C 
BRANCH   4   5
ATOM      5  O   UNL A   1      36.707  23.746  24.429  1.00  0.00    -0.463 OA
BRANCH   5   6
ATOM      6  C   UNL A   1      35.396  23.981  24.735  1.00  0.00     0.310 C 
ATOM      7  O   UNL A   1      35.003  24.402  25.813  1.00  0.00    -0.252 OA
BRANCH   6   8
ATOM      8  C   UNL A   1      34.509  23.735  23.529  1.00  0.00     0.119 C 
ATOM      9  C   UNL A   1      33.388  24.799  23.382  1.00  0.00     0.100 C 
ATOM     10  C   UNL A   1      32.109  23.919  23.374  1.00  0.00     0.025 C 
ATOM     11  C   UNL A   1      33.729  22.400  23.604  1.00  0.00     0.027 C 
ATOM     12  C   UNL A   1      31.967  23.299  24.756  1.00  0.00    -0.027 C 
ATOM     13  C   UNL A   1      32.582  22.669  22.629  1.00  0.00     0.017 C 
ATOM     14  C   UNL A   1      32.929  22.372  24.882  1.00  0.00    -0.027 C 
BRANCH   9  15
ATOM     15  C   UNL A   1      33.322  25.856  22.267  1.00  0.00     0.229 C 
ATOM     16  N   UNL A   1      33.299  27.208  22.397  1.00  0.00    -0.323 N 
ATOM     17  H   UNL A   1      33.709  27.667  21.628  1.00  0.00     0.170 HD
ATOM     18  O   UNL A   1      33.527  25.462  21.107  1.00  0.00    -0.274 OA
BRANCH  16  19
ATOM     19  C   UNL A   1      32.831  28.106  23.366  1.00  0.00     0.087 A 
ATOM     20  C   UNL A   1      33.271  29.120  25.524  1.00  0.00     0.121 A 
ATOM     21  C   UNL A   1      31.936  29.492  25.625  1.00  0.00     0.050 A 
ATOM     22  C   UNL A   1      33.715  28.397  24.417  1.00  0.00     0.076 A 
ATOM     23  C   UNL A   1      31.106  29.340  24.518  1.00  0.00     0.052 A 
ATOM     24  C   UNL A   1      31.591  28.746  23.346  1.00  0.00     0.142 A 
BRANCH  20  25
ATOM     25  O   UNL A   1      34.155  29.387  26.534  1.00  0.00    -0.497 OA
ATOM     26  C   UNL A   1      33.835  30.640  27.154  1.00  0.00     0.278 C 
ENDBRANCH  20  25
BRANCH  24  27
ATOM     27  O   UNL A   1      30.759  28.859  22.266  1.00  0.00    -0.495 OA
ATOM     28  C   UNL A   1      29.361  28.930  22.541  1.00  0.00     0.278 C 
ENDBRANCH  24  27
ENDBRANCH  16  19
ENDBRANCH   9  15
ENDBRANCH   6   8
ENDBRANCH   5   6
ENDBRANCH   4   5
ENDBRANCH   3   4
ENDBRANCH   2   3
ENDBRANCH   1   2
BRANCH   1  29
ATOM     29  C   UNL A   1      41.397  21.067  26.632  1.00  0.00     0.188 C 
BRANCH  29  30
ATOM     30  O   UNL A   1      42.160  21.319  25.464  1.00  0.00    -0.376 OA
BRANCH  30  31
ATOM     31  C   UNL A   1      42.936  22.504  25.377  1.00  0.00     0.202 C 
BRANCH  31  32
ATOM     32  C   UNL A   1      42.392  23.811  25.954  1.00  0.00     0.261 C 
BRANCH  32  33
ATOM     33  O   UNL A   1      42.652  24.953  25.126  1.00  0.00    -0.460 OA
BRANCH  33  34
ATOM     34  C   UNL A   1      43.832  25.575  25.372  1.00  0.00     0.338 C 
ATOM     35  O   UNL A   1      44.904  25.347  24.844  1.00  0.00    -0.246 OA
BRANCH  34  36
ATOM     36  C   UNL A   1      43.620  26.711  26.289  1.00  0.00     0.060 A 
ATOM     37  C   UNL A   1      43.006  27.856  25.774  1.00  0.00     0.016 A 
ATOM     38  C   UNL A   1      44.091  26.689  27.603  1.00  0.00     0.016 A 
ATOM     39  C   UNL A   1      42.879  28.996  26.568  1.00  0.00     0.010 A 
ATOM     40  C   UNL A   1      43.964  27.835  28.397  1.00  0.00     0.010 A 
ATOM     41  C   UNL A   1      43.367  28.998  27.880  1.00  0.00    -0.014 A 
BRANCH  41  42
ATOM     42  C   UNL A   1      43.387  30.263  28.653  1.00  0.00     0.031 A 
ATOM     43  C   UNL A   1      44.635  31.100  28.628  1.00  0.00     0.074 A 
ATOM     44  C   UNL A   1      42.312  30.671  29.350  1.00  0.00     0.049 A 
ATOM     45  N   UNL A   1      44.914  32.196  29.285  1.00  0.00    -0.248 NA
ATOM     46  C   UNL A   1      45.710  30.636  27.739  1.00  0.00     0.031 C 
ATOM     47  C   UNL A   1      41.022  29.985  29.390  1.00  0.00     0.029 A 
ATOM     48  N   UNL A   1      42.139  31.761  30.169  1.00  0.00    -0.354 N 
ATOM     49  C   UNL A   1      46.196  32.556  28.888  1.00  0.00     0.074 A 
ATOM     50  C   UNL A   1      46.647  31.546  27.953  1.00  0.00     0.031 C 
ATOM     51  C   UNL A   1      40.197  30.659  30.212  1.00  0.00     0.029 A 
ATOM     52  C   UNL A   1      40.913  31.795  30.792  1.00  0.00     0.049 A 
ATOM     53  H   UNL A   1      42.828  32.452  30.297  1.00  0.00     0.167 HD
ATOM     54  C   UNL A   1      46.930  33.630  29.271  1.00  0.00     0.034 A 
ATOM     55  C   UNL A   1      40.443  32.622  31.749  1.00  0.00     0.034 A 
ATOM     56  C   UNL A   1      46.484  34.607  30.231  1.00  0.00     0.049 A 
ATOM     57  C   UNL A   1      41.333  33.732  32.264  1.00  0.00     0.074 A 
ATOM     58  C   UNL A   1      47.151  35.729  30.693  1.00  0.00     0.029 A 
ATOM     59  N   UNL A   1      45.265  34.569  30.897  1.00  0.00    -0.354 N 
ATOM     60  N   UNL A   1      42.547  34.063  31.885  1.00  0.00    -0.248 NA
ATOM     61  C   UNL A   1      40.790  34.577  33.337  1.00  0.00     0.031 C 
ATOM     62  C   UNL A   1      46.370  36.324  31.689  1.00  0.00     0.029 A 
ATOM     63  C   UNL A   1      45.179  35.622  31.793  1.00  0.00     0.049 A 
ATOM     64  H   UNL A   1      44.566  33.892  30.753  1.00  0.00     0.167 HD
ATOM     65  C   UNL A   1      42.897  35.171  32.655  1.00  0.00     0.074 A 
ATOM     66  C   UNL A   1      41.764  35.458  33.510  1.00  0.00     0.031 C 
ATOM     67  C   UNL A   1      44.047  35.892  32.649  1.00  0.00     0.034 A 
BRANCH  54  68
ATOM     68  C   UNL A   1      48.317  33.753  28.691  1.00  0.00     0.023 A 
ATOM     69  C   UNL A   1      48.552  34.412  27.473  1.00  0.00     0.031 A 
ATOM     70  C   UNL A   1      49.413  33.166  29.347  1.00  0.00     0.131 A 
ATOM     71  C   UNL A   1      49.837  34.406  26.912  1.00  0.00     0.055 A 
ATOM     72  C   UNL A   1      50.704  33.231  28.823  1.00  0.00     0.041 A 
ATOM     73  F   UNL A   1      49.243  32.501  30.502  1.00  0.00    -0.206 F 
ATOM     74  C   UNL A   1      50.920  33.840  27.590  1.00  0.00     0.022 A 
BRANCH  71  75
ATOM     75  S   UNL A   1      50.046  35.020  25.218  1.00  0.00     0.124 S 
ATOM     76  O   UNL A   1      50.902  33.990  24.634  1.00  0.00    -0.237 OA
ATOM     77  O   UNL A   1      48.675  35.064  24.727  1.00  0.00    -0.237 OA
ATOM     78  O   UNL A   1      50.687  36.321  25.402  1.00  0.00    -0.744 OA
ENDBRANCH  71  75
ENDBRANCH  54  68
BRANCH  55  79
ATOM     79  C   UNL A   1      39.092  32.407  32.347  1.00  0.00     0.023 A 
ATOM     80  C   UNL A   1      37.975  33.132  31.904  1.00  0.00     0.031 A 
ATOM     81  C   UNL A   1      38.917  31.527  33.430  1.00  0.00     0.131 A 
ATOM     82  C   UNL A   1      36.746  33.003  32.573  1.00  0.00     0.055 A 
ATOM     83  C   UNL A   1      37.681  31.358  34.055  1.00  0.00     0.041 A 
ATOM     84  F   UNL A   1      39.954  30.815  33.903  1.00  0.00    -0.206 F 
ATOM     85  C   UNL A   1      36.588  32.111  33.635  1.00  0.00     0.022 A 
BRANCH  82  86
ATOM     86  S   UNL A   1      35.379  34.097  32.097  1.00  0.00     0.124 S 
ATOM     87  O   UNL A   1      35.746  35.338  32.770  1.00  0.00    -0.237 OA
ATOM     88  O   UNL A   1      35.485  34.102  30.642  1.00  0.00    -0.237 OA
ATOM     89  O   UNL A   1      34.200  33.421  32.633  1.00  0.00    -0.744 OA
ENDBRANCH  82  86
ENDBRANCH  55  79
BRANCH  67  90
ATOM     90  C   UNL A   1      44.118  37.093  33.561  1.00  0.00     0.023 A 
ATOM     91  C   UNL A   1      44.441  36.974  34.925  1.00  0.00     0.031 A 
ATOM     92  C   UNL A   1      43.875  38.381  33.050  1.00  0.00     0.131 A 
ATOM     93  C   UNL A   1      44.472  38.118  35.738  1.00  0.00     0.055 A 
ATOM     94  C   UNL A   1      43.960  39.521  33.852  1.00  0.00     0.041 A 
ATOM     95  F   UNL A   1      43.562  38.554  31.756  1.00  0.00    -0.206 F 
ATOM     96  C   UNL A   1      44.251  39.391  35.206  1.00  0.00     0.022 A 
BRANCH  93  97
ATOM     97  S   UNL A   1      44.742  37.917  37.522  1.00  0.00     0.124 S 
ATOM     98  O   UNL A   1      43.515  37.248  37.941  1.00  0.00    -0.237 OA
ATOM     99  O   UNL A   1      45.956  37.108  37.565  1.00  0.00    -0.237 OA
ATOM    100  O   UNL A   1      44.895  39.290  38.002  1.00  0.00    -0.744 OA
ENDBRANCH  93  97
ENDBRANCH  67  90
ENDBRANCH  41  42
ENDBRANCH  34  36
ENDBRANCH  33  34
ENDBRANCH  32  33
ENDBRANCH  31  32
ENDBRANCH  30  31
ENDBRANCH  29  30
ENDBRANCH   1  29
TORSDOF 24
ENDMDL
