MODEL 1
REMARK VINA RESULT:     -10.4      0.000      0.000
REMARK SMILES C[C@@H](C(=O)OCCOCCOCCOC(=O)c1ccc(-c2c3nc(c(-c4cc(S(=O)(=O)[O-])ccc4F)c4ccc([nH]4)c(-c4cc(S(=O)(=O)[O-])ccc4F)c4nc(c(-c5cc(S(=O)(=O)[O-])ccc5F)c5ccc2[nH]5)C=C4)C=C3)cc1)c1cccc(C(=O)c2ccccc2)c1
REMARK SMILES IDX 9 1 8 2 7 3 6 4 5 5 3 6 4 7 2 8 1 9 80 10 81 11 93 12 82 13
REMARK SMILES IDX 84 14 83 15 85 16 86 17 87 18 88 19 92 20 89 21 91 22 90 23
REMARK SMILES IDX 10 24 11 25 12 26 13 27 14 28 15 29 16 30 17 31 18 32 79 33
REMARK SMILES IDX 19 34 78 35 20 36 21 37 22 38 72 39 23 40 77 41 71 42 73 43
REMARK SMILES IDX 24 44 76 45 70 46 69 47 25 49 57 50 37 51 56 52 38 53 41 54
REMARK SMILES IDX 55 55 74 56 39 57 40 58 54 60 75 61 42 62 26 63 27 64 35 65
REMARK SMILES IDX 28 66 34 67 36 68 33 69 29 70 30 71 31 72 32 73 58 74 59 75
REMARK SMILES IDX 67 76 60 77 66 78 68 79 65 80 61 81 62 82 63 83 64 84 43 85
REMARK SMILES IDX 44 86 52 87 45 88 51 89 53 90 50 91 46 92 47 93 48 94 49 95
REMARK H PARENT 73 48 41 59
REMARK Flexibility Score: inf
ROOT
ATOM      1  C   UNL A   1      43.400  18.859  25.457  1.00  0.00     0.188 C 
ENDROOT
BRANCH   1   2
ATOM      2  O   UNL A   1      42.716  19.623  26.446  1.00  0.00    -0.376 OA
BRANCH   2   3
ATOM      3  C   UNL A   1      41.394  20.077  26.166  1.00  0.00     0.202 C 
BRANCH   3   4
ATOM      4  C   UNL A   1      41.026  21.543  26.456  1.00  0.00     0.261 C 
BRANCH   4   5
ATOM      5  O   UNL A   1      39.667  21.743  26.895  1.00  0.00    -0.463 OA
BRANCH   5   6
ATOM      6  C   UNL A   1      38.707  21.768  25.932  1.00  0.00     0.313 C 
ATOM      7  O   UNL A   1      38.282  20.762  25.372  1.00  0.00    -0.252 OA
BRANCH   6   8
ATOM      8  C   UNL A   1      38.151  23.172  25.640  1.00  0.00     0.126 C 
ATOM      9  C   UNL A   1      38.306  24.176  26.798  1.00  0.00     0.025 C 
BRANCH   8  10
ATOM     10  C   UNL A   1      36.772  23.203  24.959  1.00  0.00    -0.033 A 
ATOM     11  C   UNL A   1      36.612  23.088  23.569  1.00  0.00     0.004 A 
ATOM     12  C   UNL A   1      35.616  23.487  25.718  1.00  0.00     0.016 A 
ATOM     13  C   UNL A   1      35.359  23.247  22.964  1.00  0.00     0.001 A 
ATOM     14  C   UNL A   1      34.366  23.716  25.115  1.00  0.00     0.023 A 
ATOM     15  C   UNL A   1      34.243  23.571  23.731  1.00  0.00     0.012 A 
BRANCH  14  16
ATOM     16  C   UNL A   1      33.150  24.112  25.889  1.00  0.00     0.193 C 
ATOM     17  O   UNL A   1      32.972  23.677  27.023  1.00  0.00    -0.289 OA
BRANCH  16  18
ATOM     18  C   UNL A   1      32.147  25.060  25.353  1.00  0.00     0.022 A 
ATOM     19  C   UNL A   1      32.553  26.374  25.105  1.00  0.00     0.012 A 
ATOM     20  C   UNL A   1      30.825  24.676  25.103  1.00  0.00     0.012 A 
ATOM     21  C   UNL A   1      31.660  27.283  24.539  1.00  0.00     0.001 A 
ATOM     22  C   UNL A   1      29.938  25.583  24.521  1.00  0.00     0.001 A 
ATOM     23  C   UNL A   1      30.360  26.881  24.230  1.00  0.00     0.000 A 
ENDBRANCH  16  18
ENDBRANCH  14  16
ENDBRANCH   8  10
ENDBRANCH   6   8
ENDBRANCH   5   6
ENDBRANCH   4   5
ENDBRANCH   3   4
ENDBRANCH   2   3
ENDBRANCH   1   2
BRANCH   1  24
ATOM     24  C   UNL A   1      44.624  19.477  24.762  1.00  0.00     0.188 C 
BRANCH  24  25
ATOM     25  O   UNL A   1      45.082  20.675  25.346  1.00  0.00    -0.376 OA
BRANCH  25  26
ATOM     26  C   UNL A   1      45.304  21.792  24.504  1.00  0.00     0.202 C 
BRANCH  26  27
ATOM     27  C   UNL A   1      44.156  22.760  24.156  1.00  0.00     0.261 C 
BRANCH  27  28
ATOM     28  O   UNL A   1      43.679  23.627  25.196  1.00  0.00    -0.460 OA
BRANCH  28  29
ATOM     29  C   UNL A   1      44.306  24.818  25.349  1.00  0.00     0.338 C 
ATOM     30  O   UNL A   1      45.173  25.278  24.624  1.00  0.00    -0.246 OA
BRANCH  29  31
ATOM     31  C   UNL A   1      43.582  25.571  26.401  1.00  0.00     0.060 A 
ATOM     32  C   UNL A   1      43.912  26.916  26.634  1.00  0.00     0.016 A 
ATOM     33  C   UNL A   1      42.560  24.964  27.134  1.00  0.00     0.016 A 
ATOM     34  C   UNL A   1      43.235  27.649  27.613  1.00  0.00     0.010 A 
ATOM     35  C   UNL A   1      41.902  25.691  28.132  1.00  0.00     0.010 A 
ATOM     36  C   UNL A   1      42.253  27.029  28.396  1.00  0.00    -0.014 A 
BRANCH  36  37
ATOM     37  C   UNL A   1      41.732  27.702  29.616  1.00  0.00     0.031 A 
ATOM     38  C   UNL A   1      40.461  28.501  29.498  1.00  0.00     0.074 A 
ATOM     39  C   UNL A   1      42.363  27.613  30.801  1.00  0.00     0.049 A 
ATOM     40  N   UNL A   1      39.863  29.256  30.381  1.00  0.00    -0.248 NA
ATOM     41  C   UNL A   1      39.779  28.443  28.195  1.00  0.00     0.031 C 
ATOM     42  C   UNL A   1      43.566  26.827  31.060  1.00  0.00     0.029 A 
ATOM     43  N   UNL A   1      42.078  28.200  32.010  1.00  0.00    -0.354 N 
ATOM     44  C   UNL A   1      38.742  29.774  29.741  1.00  0.00     0.074 A 
ATOM     45  C   UNL A   1      38.766  29.274  28.384  1.00  0.00     0.031 C 
ATOM     46  C   UNL A   1      43.920  26.984  32.348  1.00  0.00     0.029 A 
ATOM     47  C   UNL A   1      42.999  27.921  32.993  1.00  0.00     0.049 A 
ATOM     48  H   UNL A   1      41.287  28.767  32.159  1.00  0.00     0.167 HD
ATOM     49  C   UNL A   1      37.781  30.589  30.242  1.00  0.00     0.034 A 
ATOM     50  C   UNL A   1      43.104  28.393  34.253  1.00  0.00     0.034 A 
ATOM     51  C   UNL A   1      37.775  31.086  31.596  1.00  0.00     0.049 A 
ATOM     52  C   UNL A   1      42.077  29.386  34.756  1.00  0.00     0.074 A 
ATOM     53  C   UNL A   1      36.840  31.902  32.207  1.00  0.00     0.029 A 
ATOM     54  N   UNL A   1      38.754  30.826  32.546  1.00  0.00    -0.354 N 
ATOM     55  N   UNL A   1      41.024  29.874  34.142  1.00  0.00    -0.248 NA
ATOM     56  C   UNL A   1      42.255  29.889  36.126  1.00  0.00     0.031 C 
ATOM     57  C   UNL A   1      37.299  32.210  33.492  1.00  0.00     0.029 A 
ATOM     58  C   UNL A   1      38.468  31.505  33.721  1.00  0.00     0.049 A 
ATOM     59  H   UNL A   1      39.538  30.246  32.405  1.00  0.00     0.167 HD
ATOM     60  C   UNL A   1      40.393  30.707  35.066  1.00  0.00     0.074 A 
ATOM     61  C   UNL A   1      41.181  30.648  36.280  1.00  0.00     0.031 C 
ATOM     62  C   UNL A   1      39.263  31.447  34.927  1.00  0.00     0.034 A 
BRANCH  49  63
ATOM     63  C   UNL A   1      36.694  31.043  29.296  1.00  0.00     0.023 A 
ATOM     64  C   UNL A   1      35.756  30.149  28.751  1.00  0.00     0.031 A 
ATOM     65  C   UNL A   1      36.612  32.396  28.916  1.00  0.00     0.131 A 
ATOM     66  C   UNL A   1      34.823  30.604  27.806  1.00  0.00     0.055 A 
ATOM     67  C   UNL A   1      35.627  32.857  28.041  1.00  0.00     0.041 A 
ATOM     68  F   UNL A   1      37.498  33.292  29.381  1.00  0.00    -0.206 F 
ATOM     69  C   UNL A   1      34.734  31.956  27.470  1.00  0.00     0.022 A 
BRANCH  66  70
ATOM     70  S   UNL A   1      33.826  29.380  26.912  1.00  0.00     0.124 S 
ATOM     71  O   UNL A   1      33.265  28.597  28.011  1.00  0.00    -0.237 OA
ATOM     72  O   UNL A   1      32.885  30.214  26.176  1.00  0.00    -0.237 OA
ATOM     73  O   UNL A   1      34.807  28.671  26.092  1.00  0.00    -0.744 OA
ENDBRANCH  66  70
ENDBRANCH  49  63
BRANCH  50  74
ATOM     74  C   UNL A   1      44.247  27.990  35.128  1.00  0.00     0.023 A 
ATOM     75  C   UNL A   1      44.114  26.952  36.066  1.00  0.00     0.031 A 
ATOM     76  C   UNL A   1      45.466  28.691  35.096  1.00  0.00     0.131 A 
ATOM     77  C   UNL A   1      45.157  26.682  36.967  1.00  0.00     0.055 A 
ATOM     78  C   UNL A   1      46.524  28.376  35.950  1.00  0.00     0.041 A 
ATOM     79  F   UNL A   1      45.648  29.700  34.229  1.00  0.00    -0.206 F 
ATOM     80  C   UNL A   1      46.368  27.376  36.903  1.00  0.00     0.022 A 
BRANCH  77  81
ATOM     81  S   UNL A   1      44.869  25.488  38.303  1.00  0.00     0.124 S 
ATOM     82  O   UNL A   1      44.269  26.331  39.329  1.00  0.00    -0.237 OA
ATOM     83  O   UNL A   1      43.981  24.524  37.661  1.00  0.00    -0.237 OA
ATOM     84  O   UNL A   1      46.209  24.990  38.608  1.00  0.00    -0.744 OA
ENDBRANCH  77  81
ENDBRANCH  50  74
BRANCH  62  85
ATOM     85  C   UNL A   1      38.774  32.208  36.140  1.00  0.00     0.023 A 
ATOM     86  C   UNL A   1      38.151  31.566  37.224  1.00  0.00     0.031 A 
ATOM     87  C   UNL A   1      38.937  33.605  36.208  1.00  0.00     0.131 A 
ATOM     88  C   UNL A   1      37.663  32.323  38.301  1.00  0.00     0.055 A 
ATOM     89  C   UNL A   1      38.511  34.343  37.313  1.00  0.00     0.041 A 
ATOM     90  F   UNL A   1      39.522  34.275  35.202  1.00  0.00    -0.206 F 
ATOM     91  C   UNL A   1      37.857  33.705  38.362  1.00  0.00     0.022 A 
BRANCH  88  92
ATOM     92  S   UNL A   1      36.680  31.492  39.581  1.00  0.00     0.124 S 
ATOM     93  O   UNL A   1      37.702  31.118  40.553  1.00  0.00    -0.237 OA
ATOM     94  O   UNL A   1      35.757  32.543  39.998  1.00  0.00    -0.237 OA
ATOM     95  O   UNL A   1      36.065  30.374  38.868  1.00  0.00    -0.744 OA
ENDBRANCH  88  92
ENDBRANCH  62  85
ENDBRANCH  36  37
ENDBRANCH  29  31
ENDBRANCH  28  29
ENDBRANCH  27  28
ENDBRANCH  26  27
ENDBRANCH  25  26
ENDBRANCH  24  25
ENDBRANCH   1  24
TORSDOF 23
ENDMDL
MODEL 2
REMARK VINA RESULT:     -10.3      5.194     11.548
REMARK SMILES C[C@@H](C(=O)OCCOCCOCCOC(=O)c1ccc(-c2c3nc(c(-c4cc(S(=O)(=O)[O-])ccc4F)c4ccc([nH]4)c(-c4cc(S(=O)(=O)[O-])ccc4F)c4nc(c(-c5cc(S(=O)(=O)[O-])ccc5F)c5ccc2[nH]5)C=C4)C=C3)cc1)c1cccc(C(=O)c2ccccc2)c1
REMARK SMILES IDX 9 1 8 2 7 3 6 4 5 5 3 6 4 7 2 8 1 9 80 10 81 11 93 12 82 13
REMARK SMILES IDX 84 14 83 15 85 16 86 17 87 18 88 19 92 20 89 21 91 22 90 23
REMARK SMILES IDX 10 24 11 25 12 26 13 27 14 28 15 29 16 30 17 31 18 32 79 33
REMARK SMILES IDX 19 34 78 35 20 36 21 37 22 38 72 39 23 40 77 41 71 42 73 43
REMARK SMILES IDX 24 44 76 45 70 46 69 47 25 49 57 50 37 51 56 52 38 53 41 54
REMARK SMILES IDX 55 55 74 56 39 57 40 58 54 60 75 61 42 62 26 63 27 64 35 65
REMARK SMILES IDX 28 66 34 67 36 68 33 69 29 70 30 71 31 72 32 73 58 74 59 75
REMARK SMILES IDX 67 76 60 77 66 78 68 79 65 80 61 81 62 82 63 83 64 84 43 85
REMARK SMILES IDX 44 86 52 87 45 88 51 89 53 90 50 91 46 92 47 93 48 94 49 95
REMARK H PARENT 73 48 41 59
REMARK Flexibility Score: inf
ROOT
ATOM      1  C   UNL A   1      33.681  32.175  28.207  1.00  0.00     0.188 C 
ENDROOT
BRANCH   1   2
ATOM      2  O   UNL A   1      34.607  31.614  27.281  1.00  0.00    -0.376 OA
BRANCH   2   3
ATOM      3  C   UNL A   1      35.027  30.265  27.467  1.00  0.00     0.202 C 
BRANCH   3   4
ATOM      4  C   UNL A   1      34.264  29.136  26.750  1.00  0.00     0.261 C 
BRANCH   4   5
ATOM      5  O   UNL A   1      32.827  29.262  26.798  1.00  0.00    -0.463 OA
BRANCH   5   6
ATOM      6  C   UNL A   1      32.189  29.472  25.615  1.00  0.00     0.313 C 
ATOM      7  O   UNL A   1      31.487  30.453  25.389  1.00  0.00    -0.252 OA
BRANCH   6   8
ATOM      8  C   UNL A   1      32.469  28.395  24.553  1.00  0.00     0.126 C 
ATOM      9  C   UNL A   1      32.843  28.947  23.164  1.00  0.00     0.025 C 
BRANCH   8  10
ATOM     10  C   UNL A   1      31.465  27.230  24.520  1.00  0.00    -0.033 A 
ATOM     11  C   UNL A   1      30.247  27.300  23.826  1.00  0.00     0.004 A 
ATOM     12  C   UNL A   1      31.687  26.084  25.313  1.00  0.00     0.016 A 
ATOM     13  C   UNL A   1      29.296  26.277  23.917  1.00  0.00     0.001 A 
ATOM     14  C   UNL A   1      30.711  25.081  25.465  1.00  0.00     0.023 A 
ATOM     15  C   UNL A   1      29.521  25.177  24.742  1.00  0.00     0.012 A 
BRANCH  14  16
ATOM     16  C   UNL A   1      30.887  23.907  26.374  1.00  0.00     0.193 C 
ATOM     17  O   UNL A   1      30.161  23.773  27.355  1.00  0.00    -0.289 OA
BRANCH  16  18
ATOM     18  C   UNL A   1      31.894  22.853  26.116  1.00  0.00     0.022 A 
ATOM     19  C   UNL A   1      32.791  22.538  27.141  1.00  0.00     0.012 A 
ATOM     20  C   UNL A   1      31.970  22.186  24.889  1.00  0.00     0.012 A 
ATOM     21  C   UNL A   1      33.713  21.507  26.966  1.00  0.00     0.001 A 
ATOM     22  C   UNL A   1      32.883  21.143  24.723  1.00  0.00     0.001 A 
ATOM     23  C   UNL A   1      33.745  20.798  25.765  1.00  0.00     0.000 A 
ENDBRANCH  16  18
ENDBRANCH  14  16
ENDBRANCH   8  10
ENDBRANCH   6   8
ENDBRANCH   5   6
ENDBRANCH   4   5
ENDBRANCH   3   4
ENDBRANCH   2   3
ENDBRANCH   1   2
BRANCH   1  24
ATOM     24  C   UNL A   1      33.280  33.651  28.047  1.00  0.00     0.188 C 
BRANCH  24  25
ATOM     25  O   UNL A   1      34.305  34.569  28.347  1.00  0.00    -0.376 OA
BRANCH  25  26
ATOM     26  C   UNL A   1      35.205  34.255  29.395  1.00  0.00     0.202 C 
BRANCH  26  27
ATOM     27  C   UNL A   1      34.706  34.100  30.845  1.00  0.00     0.261 C 
BRANCH  27  28
ATOM     28  O   UNL A   1      34.607  32.769  31.376  1.00  0.00    -0.460 OA
BRANCH  28  29
ATOM     29  C   UNL A   1      35.460  32.433  32.373  1.00  0.00     0.338 C 
ATOM     30  O   UNL A   1      35.253  32.546  33.572  1.00  0.00    -0.246 OA
BRANCH  29  31
ATOM     31  C   UNL A   1      36.580  31.676  31.766  1.00  0.00     0.060 A 
ATOM     32  C   UNL A   1      37.753  31.469  32.510  1.00  0.00     0.016 A 
ATOM     33  C   UNL A   1      36.464  31.143  30.480  1.00  0.00     0.016 A 
ATOM     34  C   UNL A   1      38.818  30.748  31.962  1.00  0.00     0.010 A 
ATOM     35  C   UNL A   1      37.540  30.445  29.924  1.00  0.00     0.010 A 
ATOM     36  C   UNL A   1      38.734  30.266  30.650  1.00  0.00    -0.014 A 
BRANCH  36  37
ATOM     37  C   UNL A   1      39.948  29.753  29.961  1.00  0.00     0.031 A 
ATOM     38  C   UNL A   1      41.122  30.683  29.803  1.00  0.00     0.074 A 
ATOM     39  C   UNL A   1      40.016  28.497  29.484  1.00  0.00     0.049 A 
ATOM     40  N   UNL A   1      42.245  30.509  29.158  1.00  0.00    -0.248 NA
ATOM     41  C   UNL A   1      41.000  31.994  30.459  1.00  0.00     0.031 C 
ATOM     42  C   UNL A   1      38.974  27.483  29.622  1.00  0.00     0.029 A 
ATOM     43  N   UNL A   1      41.010  27.863  28.778  1.00  0.00    -0.354 N 
ATOM     44  C   UNL A   1      42.961  31.691  29.318  1.00  0.00     0.074 A 
ATOM     45  C   UNL A   1      42.127  32.585  30.091  1.00  0.00     0.031 C 
ATOM     46  C   UNL A   1      39.381  26.354  29.015  1.00  0.00     0.029 A 
ATOM     47  C   UNL A   1      40.690  26.579  28.401  1.00  0.00     0.049 A 
ATOM     48  H   UNL A   1      41.871  28.289  28.562  1.00  0.00     0.167 HD
ATOM     49  C   UNL A   1      44.201  31.999  28.865  1.00  0.00     0.034 A 
ATOM     50  C   UNL A   1      41.362  25.702  27.625  1.00  0.00     0.034 A 
ATOM     51  C   UNL A   1      45.018  31.099  28.088  1.00  0.00     0.049 A 
ATOM     52  C   UNL A   1      42.699  26.108  27.041  1.00  0.00     0.074 A 
ATOM     53  C   UNL A   1      46.294  31.307  27.594  1.00  0.00     0.029 A 
ATOM     54  N   UNL A   1      44.638  29.827  27.680  1.00  0.00    -0.354 N 
ATOM     55  N   UNL A   1      43.365  27.230  27.194  1.00  0.00    -0.248 NA
ATOM     56  C   UNL A   1      43.373  25.126  26.180  1.00  0.00     0.031 C 
ATOM     57  C   UNL A   1      46.648  30.202  26.814  1.00  0.00     0.029 A 
ATOM     58  C   UNL A   1      45.637  29.260  26.902  1.00  0.00     0.049 A 
ATOM     59  H   UNL A   1      43.785  29.393  27.908  1.00  0.00     0.167 HD
ATOM     60  C   UNL A   1      44.555  27.067  26.483  1.00  0.00     0.074 A 
ATOM     61  C   UNL A   1      44.516  25.739  25.910  1.00  0.00     0.031 C 
ATOM     62  C   UNL A   1      45.587  27.935  26.326  1.00  0.00     0.034 A 
BRANCH  49  63
ATOM     63  C   UNL A   1      44.718  33.391  29.145  1.00  0.00     0.023 A 
ATOM     64  C   UNL A   1      44.426  34.479  28.304  1.00  0.00     0.031 A 
ATOM     65  C   UNL A   1      45.538  33.625  30.264  1.00  0.00     0.131 A 
ATOM     66  C   UNL A   1      45.006  35.732  28.557  1.00  0.00     0.055 A 
ATOM     67  C   UNL A   1      46.041  34.893  30.557  1.00  0.00     0.041 A 
ATOM     68  F   UNL A   1      45.875  32.619  31.087  1.00  0.00    -0.206 F 
ATOM     69  C   UNL A   1      45.786  35.953  29.693  1.00  0.00     0.022 A 
BRANCH  66  70
ATOM     70  S   UNL A   1      44.845  37.032  27.301  1.00  0.00     0.124 S 
ATOM     71  O   UNL A   1      44.902  38.242  28.119  1.00  0.00    -0.237 OA
ATOM     72  O   UNL A   1      45.995  36.787  26.441  1.00  0.00    -0.237 OA
ATOM     73  O   UNL A   1      43.542  36.763  26.695  1.00  0.00    -0.744 OA
ENDBRANCH  66  70
ENDBRANCH  49  63
BRANCH  50  74
ATOM     74  C   UNL A   1      40.775  24.367  27.296  1.00  0.00     0.023 A 
ATOM     75  C   UNL A   1      39.610  24.256  26.519  1.00  0.00     0.031 A 
ATOM     76  C   UNL A   1      41.326  23.185  27.823  1.00  0.00     0.131 A 
ATOM     77  C   UNL A   1      39.004  23.002  26.336  1.00  0.00     0.055 A 
ATOM     78  C   UNL A   1      40.757  21.933  27.585  1.00  0.00     0.041 A 
ATOM     79  F   UNL A   1      42.432  23.229  28.583  1.00  0.00    -0.206 F 
ATOM     80  C   UNL A   1      39.580  21.838  26.849  1.00  0.00     0.022 A 
BRANCH  77  81
ATOM     81  S   UNL A   1      37.388  22.925  25.515  1.00  0.00     0.124 S 
ATOM     82  O   UNL A   1      36.520  23.539  26.512  1.00  0.00    -0.237 OA
ATOM     83  O   UNL A   1      37.627  23.702  24.303  1.00  0.00    -0.237 OA
ATOM     84  O   UNL A   1      37.183  21.494  25.303  1.00  0.00    -0.744 OA
ENDBRANCH  77  81
ENDBRANCH  50  74
BRANCH  62  85
ATOM     85  C   UNL A   1      46.792  27.451  25.548  1.00  0.00     0.023 A 
ATOM     86  C   UNL A   1      47.039  27.854  24.224  1.00  0.00     0.031 A 
ATOM     87  C   UNL A   1      47.709  26.567  26.149  1.00  0.00     0.131 A 
ATOM     88  C   UNL A   1      48.141  27.332  23.527  1.00  0.00     0.055 A 
ATOM     89  C   UNL A   1      48.839  26.105  25.473  1.00  0.00     0.041 A 
ATOM     90  F   UNL A   1      47.525  26.144  27.409  1.00  0.00    -0.206 F 
ATOM     91  C   UNL A   1      49.052  26.476  24.148  1.00  0.00     0.022 A 
BRANCH  88  92
ATOM     92  S   UNL A   1      48.313  27.706  21.759  1.00  0.00     0.124 S 
ATOM     93  O   UNL A   1      48.690  26.408  21.209  1.00  0.00    -0.237 OA
ATOM     94  O   UNL A   1      46.980  28.184  21.409  1.00  0.00    -0.237 OA
ATOM     95  O   UNL A   1      49.364  28.722  21.725  1.00  0.00    -0.744 OA
ENDBRANCH  88  92
ENDBRANCH  62  85
ENDBRANCH  36  37
ENDBRANCH  29  31
ENDBRANCH  28  29
ENDBRANCH  27  28
ENDBRANCH  26  27
ENDBRANCH  25  26
ENDBRANCH  24  25
ENDBRANCH   1  24
TORSDOF 23
ENDMDL
MODEL 3
REMARK VINA RESULT:      -9.9      5.181      8.382
REMARK SMILES C[C@@H](C(=O)OCCOCCOCCOC(=O)c1ccc(-c2c3nc(c(-c4cc(S(=O)(=O)[O-])ccc4F)c4ccc([nH]4)c(-c4cc(S(=O)(=O)[O-])ccc4F)c4nc(c(-c5cc(S(=O)(=O)[O-])ccc5F)c5ccc2[nH]5)C=C4)C=C3)cc1)c1cccc(C(=O)c2ccccc2)c1
REMARK SMILES IDX 9 1 8 2 7 3 6 4 5 5 3 6 4 7 2 8 1 9 80 10 81 11 93 12 82 13
REMARK SMILES IDX 84 14 83 15 85 16 86 17 87 18 88 19 92 20 89 21 91 22 90 23
REMARK SMILES IDX 10 24 11 25 12 26 13 27 14 28 15 29 16 30 17 31 18 32 79 33
REMARK SMILES IDX 19 34 78 35 20 36 21 37 22 38 72 39 23 40 77 41 71 42 73 43
REMARK SMILES IDX 24 44 76 45 70 46 69 47 25 49 57 50 37 51 56 52 38 53 41 54
REMARK SMILES IDX 55 55 74 56 39 57 40 58 54 60 75 61 42 62 26 63 27 64 35 65
REMARK SMILES IDX 28 66 34 67 36 68 33 69 29 70 30 71 31 72 32 73 58 74 59 75
REMARK SMILES IDX 67 76 60 77 66 78 68 79 65 80 61 81 62 82 63 83 64 84 43 85
REMARK SMILES IDX 44 86 52 87 45 88 51 89 53 90 50 91 46 92 47 93 48 94 49 95
REMARK H PARENT 73 48 41 59
REMARK Flexibility Score: inf
ROOT
ATOM      1  C   UNL A   1      37.620  23.360  25.517  1.00  0.00     0.188 C 
ENDROOT
BRANCH   1   2
ATOM      2  O   UNL A   1      36.398  23.774  26.121  1.00  0.00    -0.376 OA
BRANCH   2   3
ATOM      3  C   UNL A   1      35.243  22.956  25.956  1.00  0.00     0.202 C 
BRANCH   3   4
ATOM      4  C   UNL A   1      34.014  23.205  26.850  1.00  0.00     0.261 C 
BRANCH   4   5
ATOM      5  O   UNL A   1      32.750  22.898  26.227  1.00  0.00    -0.463 OA
BRANCH   5   6
ATOM      6  C   UNL A   1      31.823  23.891  26.196  1.00  0.00     0.313 C 
ATOM      7  O   UNL A   1      31.434  24.487  27.197  1.00  0.00    -0.252 OA
BRANCH   6   8
ATOM      8  C   UNL A   1      31.337  24.251  24.781  1.00  0.00     0.126 C 
ATOM      9  C   UNL A   1      31.394  23.089  23.771  1.00  0.00     0.025 C 
BRANCH   8  10
ATOM     10  C   UNL A   1      31.851  25.592  24.232  1.00  0.00    -0.033 A 
ATOM     11  C   UNL A   1      33.067  25.710  23.540  1.00  0.00     0.004 A 
ATOM     12  C   UNL A   1      31.163  26.788  24.529  1.00  0.00     0.016 A 
ATOM     13  C   UNL A   1      33.573  26.960  23.163  1.00  0.00     0.001 A 
ATOM     14  C   UNL A   1      31.694  28.052  24.216  1.00  0.00     0.023 A 
ATOM     15  C   UNL A   1      32.897  28.127  23.509  1.00  0.00     0.012 A 
BRANCH  14  16
ATOM     16  C   UNL A   1      31.030  29.333  24.606  1.00  0.00     0.193 C 
ATOM     17  O   UNL A   1      31.449  29.978  25.563  1.00  0.00    -0.289 OA
BRANCH  16  18
ATOM     18  C   UNL A   1      29.887  29.892  23.850  1.00  0.00     0.022 A 
ATOM     19  C   UNL A   1      29.176  29.033  23.006  1.00  0.00     0.012 A 
ATOM     20  C   UNL A   1      29.516  31.237  23.953  1.00  0.00     0.012 A 
ATOM     21  C   UNL A   1      28.052  29.500  22.325  1.00  0.00     0.001 A 
ATOM     22  C   UNL A   1      28.381  31.697  23.284  1.00  0.00     0.001 A 
ATOM     23  C   UNL A   1      27.646  30.826  22.480  1.00  0.00     0.000 A 
ENDBRANCH  16  18
ENDBRANCH  14  16
ENDBRANCH   8  10
ENDBRANCH   6   8
ENDBRANCH   5   6
ENDBRANCH   4   5
ENDBRANCH   3   4
ENDBRANCH   2   3
ENDBRANCH   1   2
BRANCH   1  24
ATOM     24  C   UNL A   1      38.872  23.224  26.401  1.00  0.00     0.188 C 
BRANCH  24  25
ATOM     25  O   UNL A   1      39.257  21.895  26.665  1.00  0.00    -0.376 OA
BRANCH  25  26
ATOM     26  C   UNL A   1      38.976  20.906  25.691  1.00  0.00     0.202 C 
BRANCH  26  27
ATOM     27  C   UNL A   1      39.776  19.590  25.648  1.00  0.00     0.261 C 
BRANCH  27  28
ATOM     28  O   UNL A   1      40.953  19.499  26.467  1.00  0.00    -0.460 OA
BRANCH  28  29
ATOM     29  C   UNL A   1      42.134  19.839  25.898  1.00  0.00     0.338 C 
ATOM     30  O   UNL A   1      42.742  19.200  25.053  1.00  0.00    -0.246 OA
BRANCH  29  31
ATOM     31  C   UNL A   1      42.434  21.236  26.293  1.00  0.00     0.060 A 
ATOM     32  C   UNL A   1      42.495  22.232  25.306  1.00  0.00     0.016 A 
ATOM     33  C   UNL A   1      42.623  21.569  27.636  1.00  0.00     0.016 A 
ATOM     34  C   UNL A   1      42.765  23.558  25.657  1.00  0.00     0.010 A 
ATOM     35  C   UNL A   1      42.919  22.892  27.982  1.00  0.00     0.010 A 
ATOM     36  C   UNL A   1      43.019  23.889  26.993  1.00  0.00    -0.014 A 
BRANCH  36  37
ATOM     37  C   UNL A   1      43.582  25.221  27.342  1.00  0.00     0.031 A 
ATOM     38  C   UNL A   1      42.646  26.266  27.890  1.00  0.00     0.074 A 
ATOM     39  C   UNL A   1      44.887  25.505  27.180  1.00  0.00     0.049 A 
ATOM     40  N   UNL A   1      42.869  27.523  28.171  1.00  0.00    -0.248 NA
ATOM     41  C   UNL A   1      41.265  25.828  28.144  1.00  0.00     0.031 C 
ATOM     42  C   UNL A   1      45.904  24.566  26.714  1.00  0.00     0.029 A 
ATOM     43  N   UNL A   1      45.577  26.675  27.384  1.00  0.00    -0.354 N 
ATOM     44  C   UNL A   1      41.657  28.031  28.624  1.00  0.00     0.074 A 
ATOM     45  C   UNL A   1      40.694  26.953  28.544  1.00  0.00     0.031 C 
ATOM     46  C   UNL A   1      47.090  25.199  26.663  1.00  0.00     0.029 A 
ATOM     47  C   UNL A   1      46.908  26.601  27.043  1.00  0.00     0.049 A 
ATOM     48  H   UNL A   1      45.159  27.492  27.742  1.00  0.00     0.167 HD
ATOM     49  C   UNL A   1      41.374  29.280  29.069  1.00  0.00     0.034 A 
ATOM     50  C   UNL A   1      47.859  27.559  27.012  1.00  0.00     0.034 A 
ATOM     51  C   UNL A   1      42.342  30.347  29.135  1.00  0.00     0.049 A 
ATOM     52  C   UNL A   1      47.493  28.973  27.412  1.00  0.00     0.074 A 
ATOM     53  C   UNL A   1      42.163  31.643  29.585  1.00  0.00     0.029 A 
ATOM     54  N   UNL A   1      43.667  30.248  28.730  1.00  0.00    -0.354 N 
ATOM     55  N   UNL A   1      46.342  29.445  27.834  1.00  0.00    -0.248 NA
ATOM     56  C   UNL A   1      48.559  29.983  27.332  1.00  0.00     0.031 C 
ATOM     57  C   UNL A   1      43.350  32.351  29.367  1.00  0.00     0.029 A 
ATOM     58  C   UNL A   1      44.301  31.473  28.877  1.00  0.00     0.049 A 
ATOM     59  H   UNL A   1      44.093  29.429  28.388  1.00  0.00     0.167 HD
ATOM     60  C   UNL A   1      46.560  30.796  28.109  1.00  0.00     0.074 A 
ATOM     61  C   UNL A   1      47.952  31.058  27.812  1.00  0.00     0.031 C 
ATOM     62  C   UNL A   1      45.690  31.730  28.571  1.00  0.00     0.034 A 
BRANCH  49  63
ATOM     63  C   UNL A   1      39.943  29.573  29.455  1.00  0.00     0.023 A 
ATOM     64  C   UNL A   1      39.531  29.646  30.797  1.00  0.00     0.031 A 
ATOM     65  C   UNL A   1      38.969  29.759  28.456  1.00  0.00     0.131 A 
ATOM     66  C   UNL A   1      38.173  29.829  31.102  1.00  0.00     0.055 A 
ATOM     67  C   UNL A   1      37.635  30.026  28.768  1.00  0.00     0.041 A 
ATOM     68  F   UNL A   1      39.296  29.672  27.157  1.00  0.00    -0.206 F 
ATOM     69  C   UNL A   1      37.228  30.049  30.098  1.00  0.00     0.022 A 
BRANCH  66  70
ATOM     70  S   UNL A   1      37.636  29.629  32.823  1.00  0.00     0.124 S 
ATOM     71  O   UNL A   1      37.512  28.176  32.928  1.00  0.00    -0.237 OA
ATOM     72  O   UNL A   1      38.733  30.232  33.570  1.00  0.00    -0.237 OA
ATOM     73  O   UNL A   1      36.370  30.358  32.874  1.00  0.00    -0.744 OA
ENDBRANCH  66  70
ENDBRANCH  49  63
BRANCH  50  74
ATOM     74  C   UNL A   1      49.242  27.249  26.537  1.00  0.00     0.023 A 
ATOM     75  C   UNL A   1      49.674  27.632  25.256  1.00  0.00     0.031 A 
ATOM     76  C   UNL A   1      50.126  26.493  27.327  1.00  0.00     0.131 A 
ATOM     77  C   UNL A   1      50.928  27.213  24.783  1.00  0.00     0.055 A 
ATOM     78  C   UNL A   1      51.398  26.134  26.878  1.00  0.00     0.041 A 
ATOM     79  F   UNL A   1      49.764  26.088  28.555  1.00  0.00    -0.206 F 
ATOM     80  C   UNL A   1      51.800  26.482  25.593  1.00  0.00     0.022 A 
BRANCH  77  81
ATOM     81  S   UNL A   1      51.362  27.539  23.051  1.00  0.00     0.124 S 
ATOM     82  O   UNL A   1      50.359  26.754  22.343  1.00  0.00    -0.237 OA
ATOM     83  O   UNL A   1      51.218  28.989  22.972  1.00  0.00    -0.237 OA
ATOM     84  O   UNL A   1      52.733  27.045  22.946  1.00  0.00    -0.744 OA
ENDBRANCH  77  81
ENDBRANCH  50  74
BRANCH  62  85
ATOM     85  C   UNL A   1      46.236  33.115  28.844  1.00  0.00     0.023 A 
ATOM     86  C   UNL A   1      46.778  33.473  30.091  1.00  0.00     0.031 A 
ATOM     87  C   UNL A   1      46.211  34.094  27.832  1.00  0.00     0.131 A 
ATOM     88  C   UNL A   1      47.218  34.788  30.312  1.00  0.00     0.055 A 
ATOM     89  C   UNL A   1      46.714  35.379  28.037  1.00  0.00     0.041 A 
ATOM     90  F   UNL A   1      45.703  33.813  26.622  1.00  0.00    -0.206 F 
ATOM     91  C   UNL A   1      47.209  35.737  29.288  1.00  0.00     0.022 A 
BRANCH  88  92
ATOM     92  S   UNL A   1      47.715  35.273  31.989  1.00  0.00     0.124 S 
ATOM     93  O   UNL A   1      47.321  34.106  32.771  1.00  0.00    -0.237 OA
ATOM     94  O   UNL A   1      49.150  35.487  31.841  1.00  0.00    -0.237 OA
ATOM     95  O   UNL A   1      46.931  36.482  32.242  1.00  0.00    -0.744 OA
ENDBRANCH  88  92
ENDBRANCH  62  85
ENDBRANCH  36  37
ENDBRANCH  29  31
ENDBRANCH  28  29
ENDBRANCH  27  28
ENDBRANCH  26  27
ENDBRANCH  25  26
ENDBRANCH  24  25
ENDBRANCH   1  24
TORSDOF 23
ENDMDL
