MODEL 1
REMARK VINA RESULT:      -7.3      0.000      0.000
REMARK SMILES CCOC[C@@H](O)C[C@]1(C(=O)OCCOCCOCCOC(=O)c2ccc(-c3c4nc(c(-c5cc(S(=O)(=O)[O-])ccc5F)c5ccc([nH]5)c(-c5cc(S(=O)(=O)[O-])ccc5F)c5nc(c(-c6cc(S(=O)(=O)[O-])ccc6F)c6ccc3[nH]6)C=C5)C=C4)cc2)CCc2ccccc21
REMARK SMILES IDX 15 1 14 2 13 3 12 4 11 5 9 6 10 7 8 8 86 9 93 10 87 11 88 12
REMARK SMILES IDX 92 13 89 14 91 15 90 16 7 17 5 18 4 19 3 20 2 21 1 22 6 23
REMARK SMILES IDX 16 25 17 26 18 27 19 28 20 29 21 30 22 31 23 32 24 33 85 34
REMARK SMILES IDX 25 35 84 36 26 37 27 38 28 39 78 40 29 41 83 42 77 43 79 44
REMARK SMILES IDX 30 45 82 46 76 47 75 48 31 50 63 51 43 52 62 53 44 54 47 55
REMARK SMILES IDX 61 56 80 57 45 58 46 59 60 61 81 62 48 63 32 64 33 65 41 66
REMARK SMILES IDX 34 67 40 68 42 69 39 70 35 71 36 72 37 73 38 74 64 75 65 76
REMARK SMILES IDX 73 77 66 78 72 79 74 80 71 81 67 82 68 83 69 84 70 85 49 86
REMARK SMILES IDX 50 87 58 88 51 89 57 90 59 91 56 92 52 93 53 94 54 95 55 96
REMARK H PARENT 6 24 79 49 47 60
REMARK Flexibility Score: inf
ROOT
ATOM      1  C   UNL A   1      37.548  34.187  35.116  1.00  0.00     0.188 C 
ENDROOT
BRANCH   1   2
ATOM      2  O   UNL A   1      37.098  32.915  35.569  1.00  0.00    -0.376 OA
BRANCH   2   3
ATOM      3  C   UNL A   1      38.118  31.940  35.777  1.00  0.00     0.202 C 
BRANCH   3   4
ATOM      4  C   UNL A   1      38.159  30.856  34.705  1.00  0.00     0.261 C 
BRANCH   4   5
ATOM      5  O   UNL A   1      37.217  31.142  33.657  1.00  0.00    -0.463 OA
BRANCH   5   6
ATOM      6  C   UNL A   1      37.246  30.401  32.524  1.00  0.00     0.316 C 
ATOM      7  O   UNL A   1      37.040  29.195  32.504  1.00  0.00    -0.251 OA
BRANCH   6   8
ATOM      8  C   UNL A   1      37.536  31.285  31.287  1.00  0.00     0.096 C 
ATOM      9  C   UNL A   1      38.832  32.154  31.533  1.00  0.00     0.028 C 
ATOM     10  C   UNL A   1      38.052  30.430  30.143  1.00  0.00    -0.027 A 
ATOM     11  C   UNL A   1      40.046  31.320  31.142  1.00  0.00     0.037 C 
ATOM     12  C   UNL A   1      39.455  30.455  30.082  1.00  0.00    -0.044 A 
ATOM     13  C   UNL A   1      37.344  29.585  29.302  1.00  0.00     0.005 A 
ATOM     14  C   UNL A   1      40.163  29.672  29.185  1.00  0.00     0.004 A 
ATOM     15  C   UNL A   1      38.048  28.797  28.388  1.00  0.00     0.000 A 
ATOM     16  C   UNL A   1      39.447  28.843  28.327  1.00  0.00     0.000 A 
BRANCH   8  17
ATOM     17  C   UNL A   1      36.382  32.272  30.965  1.00  0.00     0.057 C 
BRANCH  17  18
ATOM     18  C   UNL A   1      36.622  33.721  30.503  1.00  0.00     0.141 C 
BRANCH  18  19
ATOM     19  C   UNL A   1      35.967  34.096  29.170  1.00  0.00     0.191 C 
BRANCH  19  20
ATOM     20  O   UNL A   1      34.544  33.960  29.169  1.00  0.00    -0.379 OA
BRANCH  20  21
ATOM     21  C   UNL A   1      33.934  33.262  28.085  1.00  0.00     0.157 C 
ATOM     22  C   UNL A   1      34.224  31.771  28.050  1.00  0.00     0.035 C 
ENDBRANCH  20  21
ENDBRANCH  19  20
ENDBRANCH  18  19
BRANCH  18  23
ATOM     23  O   UNL A   1      36.044  34.524  31.548  1.00  0.00    -0.391 OA
ATOM     24  H   UNL A   1      35.671  33.947  32.232  1.00  0.00     0.211 HD
ENDBRANCH  18  23
ENDBRANCH  17  18
ENDBRANCH   8  17
ENDBRANCH   6   8
ENDBRANCH   5   6
ENDBRANCH   4   5
ENDBRANCH   3   4
ENDBRANCH   2   3
ENDBRANCH   1   2
BRANCH   1  25
ATOM     25  C   UNL A   1      38.935  34.614  35.628  1.00  0.00     0.188 C 
BRANCH  25  26
ATOM     26  O   UNL A   1      39.270  35.987  35.765  1.00  0.00    -0.376 OA
BRANCH  26  27
ATOM     27  C   UNL A   1      40.535  36.313  36.320  1.00  0.00     0.202 C 
BRANCH  27  28
ATOM     28  C   UNL A   1      40.636  36.537  37.835  1.00  0.00     0.261 C 
BRANCH  28  29
ATOM     29  O   UNL A   1      40.598  35.334  38.619  1.00  0.00    -0.460 OA
BRANCH  29  30
ATOM     30  C   UNL A   1      41.814  34.824  38.953  1.00  0.00     0.338 C 
ATOM     31  O   UNL A   1      42.409  34.977  40.008  1.00  0.00    -0.246 OA
BRANCH  30  32
ATOM     32  C   UNL A   1      42.237  33.858  37.917  1.00  0.00     0.060 A 
ATOM     33  C   UNL A   1      43.545  33.955  37.415  1.00  0.00     0.016 A 
ATOM     34  C   UNL A   1      41.370  32.874  37.442  1.00  0.00     0.016 A 
ATOM     35  C   UNL A   1      43.993  33.064  36.440  1.00  0.00     0.010 A 
ATOM     36  C   UNL A   1      41.806  32.011  36.432  1.00  0.00     0.010 A 
ATOM     37  C   UNL A   1      43.111  32.112  35.915  1.00  0.00    -0.014 A 
BRANCH  37  38
ATOM     38  C   UNL A   1      43.478  31.342  34.703  1.00  0.00     0.031 A 
ATOM     39  C   UNL A   1      43.410  32.035  33.372  1.00  0.00     0.074 A 
ATOM     40  C   UNL A   1      43.840  30.049  34.775  1.00  0.00     0.049 A 
ATOM     41  N   UNL A   1      43.525  31.537  32.170  1.00  0.00    -0.248 NA
ATOM     42  C   UNL A   1      43.177  33.487  33.409  1.00  0.00     0.031 C 
ATOM     43  C   UNL A   1      44.028  29.293  36.011  1.00  0.00     0.029 A 
ATOM     44  N   UNL A   1      44.091  29.139  33.778  1.00  0.00    -0.354 N 
ATOM     45  C   UNL A   1      43.379  32.614  31.303  1.00  0.00     0.074 A 
ATOM     46  C   UNL A   1      43.143  33.785  32.120  1.00  0.00     0.031 C 
ATOM     47  C   UNL A   1      44.322  28.019  35.695  1.00  0.00     0.029 A 
ATOM     48  C   UNL A   1      44.295  27.862  34.243  1.00  0.00     0.049 A 
ATOM     49  H   UNL A   1      44.120  29.378  32.823  1.00  0.00     0.167 HD
ATOM     50  C   UNL A   1      43.434  32.622  29.949  1.00  0.00     0.034 A 
ATOM     51  C   UNL A   1      44.398  26.693  33.576  1.00  0.00     0.034 A 
ATOM     52  C   UNL A   1      43.640  31.441  29.148  1.00  0.00     0.049 A 
ATOM     53  C   UNL A   1      44.307  26.699  32.068  1.00  0.00     0.074 A 
ATOM     54  C   UNL A   1      43.724  31.337  27.771  1.00  0.00     0.029 A 
ATOM     55  N   UNL A   1      43.771  30.154  29.653  1.00  0.00    -0.354 N 
ATOM     56  N   UNL A   1      44.160  27.719  31.255  1.00  0.00    -0.248 NA
ATOM     57  C   UNL A   1      44.388  25.397  31.392  1.00  0.00     0.031 C 
ATOM     58  C   UNL A   1      43.833  29.981  27.441  1.00  0.00     0.029 A 
ATOM     59  C   UNL A   1      43.888  29.244  28.614  1.00  0.00     0.049 A 
ATOM     60  H   UNL A   1      43.778  29.921  30.609  1.00  0.00     0.167 HD
ATOM     61  C   UNL A   1      44.156  27.184  29.970  1.00  0.00     0.074 A 
ATOM     62  C   UNL A   1      44.323  25.752  30.116  1.00  0.00     0.031 C 
ATOM     63  C   UNL A   1      44.033  27.817  28.776  1.00  0.00     0.034 A 
BRANCH  50  64
ATOM     64  C   UNL A   1      43.198  33.941  29.261  1.00  0.00     0.023 A 
ATOM     65  C   UNL A   1      44.261  34.739  28.807  1.00  0.00     0.031 A 
ATOM     66  C   UNL A   1      41.888  34.427  29.100  1.00  0.00     0.131 A 
ATOM     67  C   UNL A   1      44.001  36.010  28.271  1.00  0.00     0.055 A 
ATOM     68  C   UNL A   1      41.632  35.661  28.500  1.00  0.00     0.041 A 
ATOM     69  F   UNL A   1      40.837  33.718  29.540  1.00  0.00    -0.206 F 
ATOM     70  C   UNL A   1      42.692  36.467  28.095  1.00  0.00     0.022 A 
BRANCH  67  71
ATOM     71  S   UNL A   1      45.401  37.112  27.935  1.00  0.00     0.124 S 
ATOM     72  O   UNL A   1      46.228  36.911  29.121  1.00  0.00    -0.237 OA
ATOM     73  O   UNL A   1      45.931  36.576  26.686  1.00  0.00    -0.237 OA
ATOM     74  O   UNL A   1      44.780  38.432  27.833  1.00  0.00    -0.744 OA
ENDBRANCH  67  71
ENDBRANCH  50  64
BRANCH  51  75
ATOM     75  C   UNL A   1      44.513  25.405  34.320  1.00  0.00     0.023 A 
ATOM     76  C   UNL A   1      45.764  24.833  34.595  1.00  0.00     0.031 A 
ATOM     77  C   UNL A   1      43.363  24.696  34.714  1.00  0.00     0.131 A 
ATOM     78  C   UNL A   1      45.837  23.571  35.208  1.00  0.00     0.055 A 
ATOM     79  C   UNL A   1      43.441  23.465  35.366  1.00  0.00     0.041 A 
ATOM     80  F   UNL A   1      42.141  25.196  34.473  1.00  0.00    -0.206 F 
ATOM     81  C   UNL A   1      44.684  22.889  35.606  1.00  0.00     0.022 A 
BRANCH  78  82
ATOM     82  S   UNL A   1      47.464  22.796  35.410  1.00  0.00     0.124 S 
ATOM     83  O   UNL A   1      47.129  21.379  35.335  1.00  0.00    -0.237 OA
ATOM     84  O   UNL A   1      48.199  23.344  34.276  1.00  0.00    -0.237 OA
ATOM     85  O   UNL A   1      47.903  23.266  36.722  1.00  0.00    -0.744 OA
ENDBRANCH  78  82
ENDBRANCH  51  75
BRANCH  63  86
ATOM     86  C   UNL A   1      44.110  26.965  27.534  1.00  0.00     0.023 A 
ATOM     87  C   UNL A   1      45.341  26.635  26.941  1.00  0.00     0.031 A 
ATOM     88  C   UNL A   1      42.934  26.471  26.943  1.00  0.00     0.131 A 
ATOM     89  C   UNL A   1      45.364  25.865  25.767  1.00  0.00     0.055 A 
ATOM     90  C   UNL A   1      42.967  25.663  25.805  1.00  0.00     0.041 A 
ATOM     91  F   UNL A   1      41.733  26.758  27.469  1.00  0.00    -0.206 F 
ATOM     92  C   UNL A   1      44.187  25.365  25.206  1.00  0.00     0.022 A 
BRANCH  89  93
ATOM     93  S   UNL A   1      46.955  25.577  24.944  1.00  0.00     0.124 S 
ATOM     94  O   UNL A   1      47.869  25.483  26.077  1.00  0.00    -0.237 OA
ATOM     95  O   UNL A   1      46.712  24.336  24.215  1.00  0.00    -0.237 OA
ATOM     96  O   UNL A   1      47.127  26.762  24.105  1.00  0.00    -0.744 OA
ENDBRANCH  89  93
ENDBRANCH  63  86
ENDBRANCH  37  38
ENDBRANCH  30  32
ENDBRANCH  29  30
ENDBRANCH  28  29
ENDBRANCH  27  28
ENDBRANCH  26  27
ENDBRANCH  25  26
ENDBRANCH   1  25
TORSDOF 26
ENDMDL
MODEL 2
REMARK VINA RESULT:      -6.8      3.471      8.689
REMARK SMILES CCOC[C@@H](O)C[C@]1(C(=O)OCCOCCOCCOC(=O)c2ccc(-c3c4nc(c(-c5cc(S(=O)(=O)[O-])ccc5F)c5ccc([nH]5)c(-c5cc(S(=O)(=O)[O-])ccc5F)c5nc(c(-c6cc(S(=O)(=O)[O-])ccc6F)c6ccc3[nH]6)C=C5)C=C4)cc2)CCc2ccccc21
REMARK SMILES IDX 15 1 14 2 13 3 12 4 11 5 9 6 10 7 8 8 86 9 93 10 87 11 88 12
REMARK SMILES IDX 92 13 89 14 91 15 90 16 7 17 5 18 4 19 3 20 2 21 1 22 6 23
REMARK SMILES IDX 16 25 17 26 18 27 19 28 20 29 21 30 22 31 23 32 24 33 85 34
REMARK SMILES IDX 25 35 84 36 26 37 27 38 28 39 78 40 29 41 83 42 77 43 79 44
REMARK SMILES IDX 30 45 82 46 76 47 75 48 31 50 63 51 43 52 62 53 44 54 47 55
REMARK SMILES IDX 61 56 80 57 45 58 46 59 60 61 81 62 48 63 32 64 33 65 41 66
REMARK SMILES IDX 34 67 40 68 42 69 39 70 35 71 36 72 37 73 38 74 64 75 65 76
REMARK SMILES IDX 73 77 66 78 72 79 74 80 71 81 67 82 68 83 69 84 70 85 49 86
REMARK SMILES IDX 50 87 58 88 51 89 57 90 59 91 56 92 52 93 53 94 54 95 55 96
REMARK H PARENT 6 24 79 49 47 60
REMARK Flexibility Score: inf
ROOT
ATOM      1  C   UNL A   1      39.614  33.836  30.648  1.00  0.00     0.188 C 
ENDROOT
BRANCH   1   2
ATOM      2  O   UNL A   1      40.759  34.242  29.907  1.00  0.00    -0.376 OA
BRANCH   2   3
ATOM      3  C   UNL A   1      40.503  35.116  28.810  1.00  0.00     0.202 C 
BRANCH   3   4
ATOM      4  C   UNL A   1      41.745  35.841  28.301  1.00  0.00     0.261 C 
BRANCH   4   5
ATOM      5  O   UNL A   1      42.903  34.996  28.398  1.00  0.00    -0.463 OA
BRANCH   5   6
ATOM      6  C   UNL A   1      44.083  35.536  28.785  1.00  0.00     0.316 C 
ATOM      7  O   UNL A   1      44.173  36.432  29.613  1.00  0.00    -0.251 OA
BRANCH   6   8
ATOM      8  C   UNL A   1      45.272  34.848  28.071  1.00  0.00     0.096 C 
ATOM      9  C   UNL A   1      46.588  35.014  28.929  1.00  0.00     0.028 C 
ATOM     10  C   UNL A   1      45.134  33.339  28.159  1.00  0.00    -0.027 A 
ATOM     11  C   UNL A   1      46.632  33.885  29.953  1.00  0.00     0.037 C 
ATOM     12  C   UNL A   1      45.893  32.819  29.219  1.00  0.00    -0.044 A 
ATOM     13  C   UNL A   1      44.293  32.501  27.442  1.00  0.00     0.005 A 
ATOM     14  C   UNL A   1      45.849  31.478  29.563  1.00  0.00     0.004 A 
ATOM     15  C   UNL A   1      44.248  31.145  27.775  1.00  0.00     0.000 A 
ATOM     16  C   UNL A   1      45.023  30.636  28.825  1.00  0.00     0.000 A 
BRANCH   8  17
ATOM     17  C   UNL A   1      45.566  35.450  26.670  1.00  0.00     0.057 C 
BRANCH  17  18
ATOM     18  C   UNL A   1      46.815  36.296  26.366  1.00  0.00     0.141 C 
BRANCH  18  19
ATOM     19  C   UNL A   1      47.985  35.530  25.741  1.00  0.00     0.191 C 
BRANCH  19  20
ATOM     20  O   UNL A   1      47.867  34.110  25.851  1.00  0.00    -0.379 OA
BRANCH  20  21
ATOM     21  C   UNL A   1      49.044  33.354  26.133  1.00  0.00     0.157 C 
ATOM     22  C   UNL A   1      49.130  32.827  27.555  1.00  0.00     0.035 C 
ENDBRANCH  20  21
ENDBRANCH  19  20
ENDBRANCH  18  19
BRANCH  18  23
ATOM     23  O   UNL A   1      46.352  37.285  25.428  1.00  0.00    -0.391 OA
ATOM     24  H   UNL A   1      46.856  37.209  24.603  1.00  0.00     0.211 HD
ENDBRANCH  18  23
ENDBRANCH  17  18
ENDBRANCH   8  17
ENDBRANCH   6   8
ENDBRANCH   5   6
ENDBRANCH   4   5
ENDBRANCH   3   4
ENDBRANCH   2   3
ENDBRANCH   1   2
BRANCH   1  25
ATOM     25  C   UNL A   1      38.294  33.808  29.856  1.00  0.00     0.188 C 
BRANCH  25  26
ATOM     26  O   UNL A   1      37.051  34.024  30.506  1.00  0.00    -0.376 OA
BRANCH  26  27
ATOM     27  C   UNL A   1      36.133  32.942  30.564  1.00  0.00     0.202 C 
BRANCH  27  28
ATOM     28  C   UNL A   1      35.038  32.850  29.492  1.00  0.00     0.261 C 
BRANCH  28  29
ATOM     29  O   UNL A   1      35.463  32.251  28.258  1.00  0.00    -0.460 OA
BRANCH  29  30
ATOM     30  C   UNL A   1      35.233  30.914  28.156  1.00  0.00     0.338 C 
ATOM     31  O   UNL A   1      34.210  30.373  27.765  1.00  0.00    -0.246 OA
BRANCH  30  32
ATOM     32  C   UNL A   1      36.497  30.184  28.390  1.00  0.00     0.060 A 
ATOM     33  C   UNL A   1      36.625  29.441  29.575  1.00  0.00     0.016 A 
ATOM     34  C   UNL A   1      37.542  30.225  27.467  1.00  0.00     0.016 A 
ATOM     35  C   UNL A   1      37.796  28.732  29.838  1.00  0.00     0.010 A 
ATOM     36  C   UNL A   1      38.732  29.551  27.754  1.00  0.00     0.010 A 
ATOM     37  C   UNL A   1      38.871  28.816  28.947  1.00  0.00    -0.014 A 
BRANCH  37  38
ATOM     38  C   UNL A   1      40.205  28.297  29.333  1.00  0.00     0.031 A 
ATOM     39  C   UNL A   1      40.988  29.049  30.371  1.00  0.00     0.074 A 
ATOM     40  C   UNL A   1      40.723  27.197  28.759  1.00  0.00     0.049 A 
ATOM     41  N   UNL A   1      42.226  28.888  30.755  1.00  0.00    -0.248 NA
ATOM     42  C   UNL A   1      40.272  30.131  31.065  1.00  0.00     0.031 C 
ATOM     43  C   UNL A   1      40.028  26.334  27.807  1.00  0.00     0.029 A 
ATOM     44  N   UNL A   1      41.970  26.633  28.882  1.00  0.00    -0.354 N 
ATOM     45  C   UNL A   1      42.441  29.848  31.737  1.00  0.00     0.074 A 
ATOM     46  C   UNL A   1      41.212  30.600  31.870  1.00  0.00     0.031 C 
ATOM     47  C   UNL A   1      40.877  25.374  27.398  1.00  0.00     0.029 A 
ATOM     48  C   UNL A   1      42.182  25.584  28.020  1.00  0.00     0.049 A 
ATOM     49  H   UNL A   1      42.646  26.952  29.523  1.00  0.00     0.167 HD
ATOM     50  C   UNL A   1      43.564  30.080  32.459  1.00  0.00     0.034 A 
ATOM     51  C   UNL A   1      43.311  24.904  27.729  1.00  0.00     0.034 A 
ATOM     52  C   UNL A   1      44.791  29.342  32.294  1.00  0.00     0.049 A 
ATOM     53  C   UNL A   1      44.593  25.276  28.436  1.00  0.00     0.074 A 
ATOM     54  C   UNL A   1      45.984  29.487  32.979  1.00  0.00     0.029 A 
ATOM     55  N   UNL A   1      44.989  28.333  31.360  1.00  0.00    -0.354 N 
ATOM     56  N   UNL A   1      44.791  26.190  29.357  1.00  0.00    -0.248 NA
ATOM     57  C   UNL A   1      45.801  24.530  28.058  1.00  0.00     0.031 C 
ATOM     58  C   UNL A   1      46.923  28.618  32.412  1.00  0.00     0.029 A 
ATOM     59  C   UNL A   1      46.297  27.879  31.420  1.00  0.00     0.049 A 
ATOM     60  H   UNL A   1      44.301  27.991  30.745  1.00  0.00     0.167 HD
ATOM     61  C   UNL A   1      46.142  26.111  29.686  1.00  0.00     0.074 A 
ATOM     62  C   UNL A   1      46.708  25.056  28.871  1.00  0.00     0.031 C 
ATOM     63  C   UNL A   1      46.851  26.840  30.586  1.00  0.00     0.034 A 
BRANCH  50  64
ATOM     64  C   UNL A   1      43.524  31.225  33.438  1.00  0.00     0.023 A 
ATOM     65  C   UNL A   1      43.316  31.017  34.811  1.00  0.00     0.031 A 
ATOM     66  C   UNL A   1      43.653  32.549  32.980  1.00  0.00     0.131 A 
ATOM     67  C   UNL A   1      43.176  32.117  35.671  1.00  0.00     0.055 A 
ATOM     68  C   UNL A   1      43.585  33.637  33.852  1.00  0.00     0.041 A 
ATOM     69  F   UNL A   1      43.827  32.806  31.674  1.00  0.00    -0.206 F 
ATOM     70  C   UNL A   1      43.331  33.425  35.204  1.00  0.00     0.022 A 
BRANCH  67  71
ATOM     71  S   UNL A   1      42.654  31.820  37.382  1.00  0.00     0.124 S 
ATOM     72  O   UNL A   1      42.137  30.457  37.302  1.00  0.00    -0.237 OA
ATOM     73  O   UNL A   1      43.897  31.991  38.125  1.00  0.00    -0.237 OA
ATOM     74  O   UNL A   1      41.642  32.849  37.614  1.00  0.00    -0.744 OA
ENDBRANCH  67  71
ENDBRANCH  50  64
BRANCH  51  75
ATOM     75  C   UNL A   1      43.311  23.859  26.665  1.00  0.00     0.023 A 
ATOM     76  C   UNL A   1      42.857  22.557  26.923  1.00  0.00     0.031 A 
ATOM     77  C   UNL A   1      43.828  24.135  25.385  1.00  0.00     0.131 A 
ATOM     78  C   UNL A   1      42.963  21.569  25.930  1.00  0.00     0.055 A 
ATOM     79  C   UNL A   1      43.886  23.163  24.386  1.00  0.00     0.041 A 
ATOM     80  F   UNL A   1      44.279  25.364  25.085  1.00  0.00    -0.206 F 
ATOM     81  C   UNL A   1      43.463  21.867  24.660  1.00  0.00     0.022 A 
BRANCH  78  82
ATOM     82  S   UNL A   1      42.506  19.864  26.348  1.00  0.00     0.124 S 
ATOM     83  O   UNL A   1      43.749  19.150  26.079  1.00  0.00    -0.237 OA
ATOM     84  O   UNL A   1      42.129  19.991  27.751  1.00  0.00    -0.237 OA
ATOM     85  O   UNL A   1      41.406  19.573  25.432  1.00  0.00    -0.744 OA
ENDBRANCH  78  82
ENDBRANCH  51  75
BRANCH  63  86
ATOM     86  C   UNL A   1      48.309  26.493  30.756  1.00  0.00     0.023 A 
ATOM     87  C   UNL A   1      48.729  25.488  31.644  1.00  0.00     0.031 A 
ATOM     88  C   UNL A   1      49.288  27.172  30.011  1.00  0.00     0.131 A 
ATOM     89  C   UNL A   1      50.099  25.219  31.795  1.00  0.00     0.055 A 
ATOM     90  C   UNL A   1      50.644  26.865  30.127  1.00  0.00     0.041 A 
ATOM     91  F   UNL A   1      48.940  28.142  29.149  1.00  0.00    -0.206 F 
ATOM     92  C   UNL A   1      51.056  25.890  31.030  1.00  0.00     0.022 A 
BRANCH  89  93
ATOM     93  S   UNL A   1      50.619  24.021  33.053  1.00  0.00     0.124 S 
ATOM     94  O   UNL A   1      51.566  24.801  33.842  1.00  0.00    -0.237 OA
ATOM     95  O   UNL A   1      49.360  23.689  33.712  1.00  0.00    -0.237 OA
ATOM     96  O   UNL A   1      51.210  22.937  32.269  1.00  0.00    -0.744 OA
ENDBRANCH  89  93
ENDBRANCH  63  86
ENDBRANCH  37  38
ENDBRANCH  30  32
ENDBRANCH  29  30
ENDBRANCH  28  29
ENDBRANCH  27  28
ENDBRANCH  26  27
ENDBRANCH  25  26
ENDBRANCH   1  25
TORSDOF 26
ENDMDL
MODEL 3
REMARK VINA RESULT:      -6.6      4.604      9.449
REMARK SMILES CCOC[C@@H](O)C[C@]1(C(=O)OCCOCCOCCOC(=O)c2ccc(-c3c4nc(c(-c5cc(S(=O)(=O)[O-])ccc5F)c5ccc([nH]5)c(-c5cc(S(=O)(=O)[O-])ccc5F)c5nc(c(-c6cc(S(=O)(=O)[O-])ccc6F)c6ccc3[nH]6)C=C5)C=C4)cc2)CCc2ccccc21
REMARK SMILES IDX 15 1 14 2 13 3 12 4 11 5 9 6 10 7 8 8 86 9 93 10 87 11 88 12
REMARK SMILES IDX 92 13 89 14 91 15 90 16 7 17 5 18 4 19 3 20 2 21 1 22 6 23
REMARK SMILES IDX 16 25 17 26 18 27 19 28 20 29 21 30 22 31 23 32 24 33 85 34
REMARK SMILES IDX 25 35 84 36 26 37 27 38 28 39 78 40 29 41 83 42 77 43 79 44
REMARK SMILES IDX 30 45 82 46 76 47 75 48 31 50 63 51 43 52 62 53 44 54 47 55
REMARK SMILES IDX 61 56 80 57 45 58 46 59 60 61 81 62 48 63 32 64 33 65 41 66
REMARK SMILES IDX 34 67 40 68 42 69 39 70 35 71 36 72 37 73 38 74 64 75 65 76
REMARK SMILES IDX 73 77 66 78 72 79 74 80 71 81 67 82 68 83 69 84 70 85 49 86
REMARK SMILES IDX 50 87 58 88 51 89 57 90 59 91 56 92 52 93 53 94 54 95 55 96
REMARK H PARENT 6 24 79 49 47 60
REMARK Flexibility Score: inf
ROOT
ATOM      1  C   UNL A   1      37.723  31.492  37.507  1.00  0.00     0.188 C 
ENDROOT
BRANCH   1   2
ATOM      2  O   UNL A   1      38.532  30.560  36.799  1.00  0.00    -0.376 OA
BRANCH   2   3
ATOM      3  C   UNL A   1      38.950  30.970  35.499  1.00  0.00     0.202 C 
BRANCH   3   4
ATOM      4  C   UNL A   1      38.305  30.176  34.367  1.00  0.00     0.261 C 
BRANCH   4   5
ATOM      5  O   UNL A   1      38.210  30.975  33.176  1.00  0.00    -0.463 OA
BRANCH   5   6
ATOM      6  C   UNL A   1      37.003  31.135  32.584  1.00  0.00     0.316 C 
ATOM      7  O   UNL A   1      36.338  30.204  32.150  1.00  0.00    -0.251 OA
BRANCH   6   8
ATOM      8  C   UNL A   1      36.582  32.625  32.569  1.00  0.00     0.096 C 
ATOM      9  C   UNL A   1      37.862  33.550  32.543  1.00  0.00     0.028 C 
ATOM     10  C   UNL A   1      36.009  32.993  31.212  1.00  0.00    -0.027 A 
ATOM     11  C   UNL A   1      38.293  33.723  31.092  1.00  0.00     0.037 C 
ATOM     12  C   UNL A   1      36.980  33.598  30.398  1.00  0.00    -0.044 A 
ATOM     13  C   UNL A   1      34.761  32.694  30.686  1.00  0.00     0.005 A 
ATOM     14  C   UNL A   1      36.724  33.931  29.078  1.00  0.00     0.004 A 
ATOM     15  C   UNL A   1      34.490  33.034  29.358  1.00  0.00     0.000 A 
ATOM     16  C   UNL A   1      35.463  33.651  28.561  1.00  0.00     0.000 A 
BRANCH   8  17
ATOM     17  C   UNL A   1      35.754  33.032  33.818  1.00  0.00     0.057 C 
BRANCH  17  18
ATOM     18  C   UNL A   1      34.728  34.179  33.808  1.00  0.00     0.141 C 
BRANCH  18  19
ATOM     19  C   UNL A   1      35.119  35.395  32.961  1.00  0.00     0.191 C 
BRANCH  19  20
ATOM     20  O   UNL A   1      34.460  36.602  33.350  1.00  0.00    -0.379 OA
BRANCH  20  21
ATOM     21  C   UNL A   1      33.666  37.280  32.378  1.00  0.00     0.157 C 
ATOM     22  C   UNL A   1      33.325  36.452  31.152  1.00  0.00     0.035 C 
ENDBRANCH  20  21
ENDBRANCH  19  20
ENDBRANCH  18  19
BRANCH  18  23
ATOM     23  O   UNL A   1      33.541  33.585  33.251  1.00  0.00    -0.391 OA
ATOM     24  H   UNL A   1      33.712  32.653  33.045  1.00  0.00     0.211 HD
ENDBRANCH  18  23
ENDBRANCH  17  18
ENDBRANCH   8  17
ENDBRANCH   6   8
ENDBRANCH   5   6
ENDBRANCH   4   5
ENDBRANCH   3   4
ENDBRANCH   2   3
ENDBRANCH   1   2
BRANCH   1  25
ATOM     25  C   UNL A   1      36.977  30.921  38.726  1.00  0.00     0.188 C 
BRANCH  25  26
ATOM     26  O   UNL A   1      37.248  31.400  40.035  1.00  0.00    -0.376 OA
BRANCH  26  27
ATOM     27  C   UNL A   1      37.148  32.797  40.267  1.00  0.00     0.202 C 
BRANCH  27  28
ATOM     28  C   UNL A   1      38.343  33.522  40.903  1.00  0.00     0.261 C 
BRANCH  28  29
ATOM     29  O   UNL A   1      39.280  34.065  39.961  1.00  0.00    -0.460 OA
BRANCH  29  30
ATOM     30  C   UNL A   1      40.266  33.213  39.570  1.00  0.00     0.338 C 
ATOM     31  O   UNL A   1      40.646  32.213  40.157  1.00  0.00    -0.246 OA
BRANCH  30  32
ATOM     32  C   UNL A   1      40.687  33.555  38.195  1.00  0.00     0.060 A 
ATOM     33  C   UNL A   1      41.980  33.191  37.786  1.00  0.00     0.016 A 
ATOM     34  C   UNL A   1      39.832  34.222  37.317  1.00  0.00     0.016 A 
ATOM     35  C   UNL A   1      42.421  33.488  36.497  1.00  0.00     0.010 A 
ATOM     36  C   UNL A   1      40.292  34.558  36.041  1.00  0.00     0.010 A 
ATOM     37  C   UNL A   1      41.592  34.208  35.631  1.00  0.00    -0.014 A 
BRANCH  37  38
ATOM     38  C   UNL A   1      42.134  34.763  34.367  1.00  0.00     0.031 A 
ATOM     39  C   UNL A   1      42.323  33.831  33.205  1.00  0.00     0.074 A 
ATOM     40  C   UNL A   1      42.475  36.059  34.259  1.00  0.00     0.049 A 
ATOM     41  N   UNL A   1      42.921  34.040  32.063  1.00  0.00    -0.248 NA
ATOM     42  C   UNL A   1      41.761  32.481  33.359  1.00  0.00     0.031 C 
ATOM     43  C   UNL A   1      42.258  37.078  35.283  1.00  0.00     0.029 A 
ATOM     44  N   UNL A   1      43.100  36.732  33.237  1.00  0.00    -0.354 N 
ATOM     45  C   UNL A   1      42.810  32.848  31.357  1.00  0.00     0.074 A 
ATOM     46  C   UNL A   1      42.107  31.915  32.213  1.00  0.00     0.031 C 
ATOM     47  C   UNL A   1      42.784  38.239  34.854  1.00  0.00     0.029 A 
ATOM     48  C   UNL A   1      43.414  38.033  33.551  1.00  0.00     0.049 A 
ATOM     49  H   UNL A   1      43.304  36.321  32.366  1.00  0.00     0.167 HD
ATOM     50  C   UNL A   1      43.255  32.558  30.111  1.00  0.00     0.034 A 
ATOM     51  C   UNL A   1      44.165  38.937  32.889  1.00  0.00     0.034 A 
ATOM     52  C   UNL A   1      43.980  33.488  29.282  1.00  0.00     0.049 A 
ATOM     53  C   UNL A   1      44.782  38.549  31.566  1.00  0.00     0.074 A 
ATOM     54  C   UNL A   1      44.468  33.304  28.001  1.00  0.00     0.029 A 
ATOM     55  N   UNL A   1      44.342  34.774  29.663  1.00  0.00    -0.354 N 
ATOM     56  N   UNL A   1      44.679  37.416  30.909  1.00  0.00    -0.248 NA
ATOM     57  C   UNL A   1      45.620  39.556  30.901  1.00  0.00     0.031 C 
ATOM     58  C   UNL A   1      45.186  34.449  27.637  1.00  0.00     0.029 A 
ATOM     59  C   UNL A   1      45.086  35.377  28.662  1.00  0.00     0.049 A 
ATOM     60  H   UNL A   1      44.105  35.196  30.521  1.00  0.00     0.167 HD
ATOM     61  C   UNL A   1      45.420  37.585  29.742  1.00  0.00     0.074 A 
ATOM     62  C   UNL A   1      45.956  38.930  29.782  1.00  0.00     0.031 C 
ATOM     63  C   UNL A   1      45.632  36.711  28.725  1.00  0.00     0.034 A 
BRANCH  50  64
ATOM     64  C   UNL A   1      43.027  31.156  29.610  1.00  0.00     0.023 A 
ATOM     65  C   UNL A   1      41.794  30.756  29.068  1.00  0.00     0.031 A 
ATOM     66  C   UNL A   1      44.046  30.193  29.720  1.00  0.00     0.131 A 
ATOM     67  C   UNL A   1      41.589  29.413  28.715  1.00  0.00     0.055 A 
ATOM     68  C   UNL A   1      43.859  28.875  29.301  1.00  0.00     0.041 A 
ATOM     69  F   UNL A   1      45.234  30.514  30.256  1.00  0.00    -0.206 F 
ATOM     70  C   UNL A   1      42.620  28.475  28.808  1.00  0.00     0.022 A 
BRANCH  67  71
ATOM     71  S   UNL A   1      39.915  28.881  28.263  1.00  0.00     0.124 S 
ATOM     72  O   UNL A   1      39.091  29.829  29.009  1.00  0.00    -0.237 OA
ATOM     73  O   UNL A   1      39.916  29.037  26.813  1.00  0.00    -0.237 OA
ATOM     74  O   UNL A   1      39.854  27.502  28.742  1.00  0.00    -0.744 OA
ENDBRANCH  67  71
ENDBRANCH  50  64
BRANCH  51  75
ATOM     75  C   UNL A   1      44.452  40.270  33.493  1.00  0.00     0.023 A 
ATOM     76  C   UNL A   1      43.597  41.363  33.283  1.00  0.00     0.031 A 
ATOM     77  C   UNL A   1      45.624  40.484  34.241  1.00  0.00     0.131 A 
ATOM     78  C   UNL A   1      43.946  42.629  33.781  1.00  0.00     0.055 A 
ATOM     79  C   UNL A   1      45.943  41.733  34.776  1.00  0.00     0.041 A 
ATOM     80  F   UNL A   1      46.478  39.473  34.469  1.00  0.00    -0.206 F 
ATOM     81  C   UNL A   1      45.107  42.819  34.536  1.00  0.00     0.022 A 
BRANCH  78  82
ATOM     82  S   UNL A   1      42.896  44.047  33.363  1.00  0.00     0.124 S 
ATOM     83  O   UNL A   1      42.292  43.610  32.109  1.00  0.00    -0.237 OA
ATOM     84  O   UNL A   1      42.005  44.111  34.516  1.00  0.00    -0.237 OA
ATOM     85  O   UNL A   1      43.846  45.152  33.248  1.00  0.00    -0.744 OA
ENDBRANCH  78  82
ENDBRANCH  51  75
BRANCH  63  86
ATOM     86  C   UNL A   1      46.453  37.200  27.558  1.00  0.00     0.023 A 
ATOM     87  C   UNL A   1      47.796  36.822  27.392  1.00  0.00     0.031 A 
ATOM     88  C   UNL A   1      45.877  38.047  26.595  1.00  0.00     0.131 A 
ATOM     89  C   UNL A   1      48.533  37.326  26.308  1.00  0.00     0.055 A 
ATOM     90  C   UNL A   1      46.600  38.503  25.492  1.00  0.00     0.041 A 
ATOM     91  F   UNL A   1      44.598  38.439  26.708  1.00  0.00    -0.206 F 
ATOM     92  C   UNL A   1      47.938  38.150  25.349  1.00  0.00     0.022 A 
BRANCH  89  93
ATOM     93  S   UNL A   1      50.302  36.939  26.200  1.00  0.00     0.124 S 
ATOM     94  O   UNL A   1      50.430  35.840  27.151  1.00  0.00    -0.237 OA
ATOM     95  O   UNL A   1      50.461  36.586  24.792  1.00  0.00    -0.237 OA
ATOM     96  O   UNL A   1      50.951  38.186  26.601  1.00  0.00    -0.744 OA
ENDBRANCH  89  93
ENDBRANCH  63  86
ENDBRANCH  37  38
ENDBRANCH  30  32
ENDBRANCH  29  30
ENDBRANCH  28  29
ENDBRANCH  27  28
ENDBRANCH  26  27
ENDBRANCH  25  26
ENDBRANCH   1  25
TORSDOF 26
ENDMDL
