MODEL 1
REMARK VINA RESULT:      -9.9      0.000      0.000
REMARK SMILES C[NH+](C)Cc1ccccc1[C@H]1[NH2+][C@@H](C(=O)OCCOCCOCCOC(=O)c2ccc(-c3c4nc(c(-c5cc(S(=O)(=O)[O-])ccc5F)c5ccc([nH]5)c(-c5cc(S(=O)(=O)[O-])ccc5F)c5nc(c(-c6cc(S(=O)(=O)[O-])ccc6F)c6ccc3[nH]6)C=C5)C=C4)cc2)C(C)(C)S1
REMARK SMILES IDX 20 1 19 2 18 3 17 4 16 5 14 6 15 7 13 8 11 9 12 10 94 11
REMARK SMILES IDX 91 14 92 15 93 16 10 17 5 18 6 19 7 20 9 21 8 22 4 23 2 24
REMARK SMILES IDX 1 25 3 26 21 28 22 29 23 30 24 31 25 32 26 33 27 34 28 35
REMARK SMILES IDX 29 36 90 37 30 38 89 39 31 40 32 41 33 42 83 43 34 44 88 45
REMARK SMILES IDX 82 46 84 47 35 48 87 49 81 50 80 51 36 53 68 54 48 55 67 56
REMARK SMILES IDX 49 57 52 58 66 59 85 60 50 61 51 62 65 64 86 65 53 66 37 67
REMARK SMILES IDX 38 68 46 69 39 70 45 71 47 72 44 73 40 74 41 75 42 76 43 77
REMARK SMILES IDX 69 78 70 79 78 80 71 81 77 82 79 83 76 84 72 85 73 86 74 87
REMARK SMILES IDX 75 88 54 89 55 90 63 91 56 92 62 93 64 94 61 95 57 96 58 97
REMARK SMILES IDX 59 98 60 99
REMARK H PARENT 12 12 12 13 2 27 84 52 52 63
REMARK Flexibility Score: inf
ROOT
ATOM      1  C   UNL A   1      33.373  29.396  26.929  1.00  0.00     0.188 C 
ENDROOT
BRANCH   1   2
ATOM      2  O   UNL A   1      31.960  29.305  27.083  1.00  0.00    -0.376 OA
BRANCH   2   3
ATOM      3  C   UNL A   1      31.379  28.088  27.529  1.00  0.00     0.202 C 
BRANCH   3   4
ATOM      4  C   UNL A   1      31.086  27.000  26.488  1.00  0.00     0.261 C 
BRANCH   4   5
ATOM      5  O   UNL A   1      32.097  25.984  26.290  1.00  0.00    -0.459 OA
BRANCH   5   6
ATOM      6  C   UNL A   1      31.685  24.685  26.251  1.00  0.00     0.366 C 
ATOM      7  O   UNL A   1      31.354  24.054  27.252  1.00  0.00    -0.245 OA
BRANCH   6   8
ATOM      8  C   UNL A   1      31.895  23.983  24.882  1.00  0.00     0.310 C 
ATOM      9  C   UNL A   1      32.517  21.896  23.940  1.00  0.00     0.275 C 
ATOM     10  N   UNL A   1      32.375  22.603  25.197  1.00  0.00    -0.319 N 
ATOM     11  S   UNL A   1      33.131  23.036  22.691  1.00  0.00    -0.081 SA
ATOM     12  H   UNL A   1      33.274  22.648  25.675  1.00  0.00     0.348 HD
ATOM     13  H   UNL A   1      31.714  22.123  25.808  1.00  0.00     0.348 HD
ATOM     14  C   UNL A   1      32.707  24.583  23.680  1.00  0.00     0.079 C 
ATOM     15  C   UNL A   1      34.007  25.370  23.936  1.00  0.00     0.030 C 
ATOM     16  C   UNL A   1      31.840  25.458  22.759  1.00  0.00     0.030 C 
BRANCH   9  17
ATOM     17  C   UNL A   1      33.110  20.483  24.032  1.00  0.00     0.029 A 
ATOM     18  C   UNL A   1      34.301  19.976  24.627  1.00  0.00     0.016 A 
ATOM     19  C   UNL A   1      34.547  18.564  24.512  1.00  0.00     0.010 A 
ATOM     20  C   UNL A   1      33.684  17.664  23.909  1.00  0.00     0.001 A 
ATOM     21  C   UNL A   1      32.248  19.511  23.420  1.00  0.00     0.011 A 
ATOM     22  C   UNL A   1      32.517  18.141  23.367  1.00  0.00     0.001 A 
BRANCH  18  23
ATOM     23  C   UNL A   1      35.500  20.569  25.365  1.00  0.00     0.299 C 
BRANCH  23  24
ATOM     24  N   UNL A   1      35.487  21.567  26.404  1.00  0.00    -0.336 N 
ATOM     25  C   UNL A   1      35.766  22.885  25.910  1.00  0.00     0.332 C 
ATOM     26  C   UNL A   1      34.391  21.462  27.345  1.00  0.00     0.332 C 
ATOM     27  H   UNL A   1      36.284  21.346  27.001  1.00  0.00     0.347 HD
ENDBRANCH  23  24
ENDBRANCH  18  23
ENDBRANCH   9  17
ENDBRANCH   6   8
ENDBRANCH   5   6
ENDBRANCH   4   5
ENDBRANCH   3   4
ENDBRANCH   2   3
ENDBRANCH   1   2
BRANCH   1  28
ATOM     28  C   UNL A   1      34.085  30.618  27.508  1.00  0.00     0.188 C 
BRANCH  28  29
ATOM     29  O   UNL A   1      33.716  31.831  26.893  1.00  0.00    -0.376 OA
BRANCH  29  30
ATOM     30  C   UNL A   1      32.753  32.635  27.540  1.00  0.00     0.202 C 
BRANCH  30  31
ATOM     31  C   UNL A   1      33.046  34.134  27.723  1.00  0.00     0.261 C 
BRANCH  31  32
ATOM     32  O   UNL A   1      34.377  34.509  28.130  1.00  0.00    -0.460 OA
BRANCH  32  33
ATOM     33  C   UNL A   1      34.681  34.377  29.447  1.00  0.00     0.338 C 
ATOM     34  O   UNL A   1      34.024  34.793  30.379  1.00  0.00    -0.246 OA
BRANCH  33  35
ATOM     35  C   UNL A   1      35.792  33.395  29.571  1.00  0.00     0.060 A 
ATOM     36  C   UNL A   1      35.533  32.179  30.218  1.00  0.00     0.016 A 
ATOM     37  C   UNL A   1      37.069  33.659  29.077  1.00  0.00     0.016 A 
ATOM     38  C   UNL A   1      36.541  31.229  30.392  1.00  0.00     0.010 A 
ATOM     39  C   UNL A   1      38.092  32.722  29.286  1.00  0.00     0.010 A 
ATOM     40  C   UNL A   1      37.843  31.515  29.972  1.00  0.00    -0.014 A 
BRANCH  40  41
ATOM     41  C   UNL A   1      38.972  30.674  30.461  1.00  0.00     0.031 A 
ATOM     42  C   UNL A   1      39.557  30.998  31.811  1.00  0.00     0.074 A 
ATOM     43  C   UNL A   1      39.429  29.612  29.771  1.00  0.00     0.049 A 
ATOM     44  N   UNL A   1      40.619  30.515  32.401  1.00  0.00    -0.248 NA
ATOM     45  C   UNL A   1      38.842  32.016  32.598  1.00  0.00     0.031 C 
ATOM     46  C   UNL A   1      38.881  29.123  28.507  1.00  0.00     0.029 A 
ATOM     47  N   UNL A   1      40.468  28.752  30.038  1.00  0.00    -0.354 N 
ATOM     48  C   UNL A   1      40.719  31.194  33.614  1.00  0.00     0.074 A 
ATOM     49  C   UNL A   1      39.624  32.138  33.658  1.00  0.00     0.031 C 
ATOM     50  C   UNL A   1      39.594  28.056  28.105  1.00  0.00     0.029 A 
ATOM     51  C   UNL A   1      40.689  27.823  29.045  1.00  0.00     0.049 A 
ATOM     52  H   UNL A   1      41.005  28.797  30.862  1.00  0.00     0.167 HD
ATOM     53  C   UNL A   1      41.637  31.038  34.599  1.00  0.00     0.034 A 
ATOM     54  C   UNL A   1      41.684  26.924  28.894  1.00  0.00     0.034 A 
ATOM     55  C   UNL A   1      42.714  30.082  34.542  1.00  0.00     0.049 A 
ATOM     56  C   UNL A   1      42.765  26.847  29.950  1.00  0.00     0.074 A 
ATOM     57  C   UNL A   1      43.706  29.843  35.476  1.00  0.00     0.029 A 
ATOM     58  N   UNL A   1      42.944  29.206  33.489  1.00  0.00    -0.354 N 
ATOM     59  N   UNL A   1      42.881  27.525  31.070  1.00  0.00    -0.248 NA
ATOM     60  C   UNL A   1      43.849  25.882  29.720  1.00  0.00     0.031 C 
ATOM     61  C   UNL A   1      44.578  28.881  34.955  1.00  0.00     0.029 A 
ATOM     62  C   UNL A   1      44.081  28.451  33.735  1.00  0.00     0.049 A 
ATOM     63  H   UNL A   1      42.381  29.130  32.684  1.00  0.00     0.167 HD
ATOM     64  C   UNL A   1      44.033  27.045  31.689  1.00  0.00     0.074 A 
ATOM     65  C   UNL A   1      44.564  26.008  30.829  1.00  0.00     0.031 C 
ATOM     66  C   UNL A   1      44.602  27.424  32.863  1.00  0.00     0.034 A 
BRANCH  53  67
ATOM     67  C   UNL A   1      41.551  31.975  35.781  1.00  0.00     0.023 A 
ATOM     68  C   UNL A   1      40.544  31.860  36.754  1.00  0.00     0.031 A 
ATOM     69  C   UNL A   1      42.474  33.029  35.912  1.00  0.00     0.131 A 
ATOM     70  C   UNL A   1      40.436  32.825  37.768  1.00  0.00     0.055 A 
ATOM     71  C   UNL A   1      42.413  33.935  36.973  1.00  0.00     0.041 A 
ATOM     72  F   UNL A   1      43.442  33.208  35.000  1.00  0.00    -0.206 F 
ATOM     73  C   UNL A   1      41.380  33.845  37.900  1.00  0.00     0.022 A 
BRANCH  70  74
ATOM     74  S   UNL A   1      38.955  32.820  38.816  1.00  0.00     0.124 S 
ATOM     75  O   UNL A   1      39.496  32.343  40.087  1.00  0.00    -0.237 OA
ATOM     76  O   UNL A   1      38.540  34.217  38.782  1.00  0.00    -0.237 OA
ATOM     77  O   UNL A   1      38.059  31.885  38.139  1.00  0.00    -0.744 OA
ENDBRANCH  70  74
ENDBRANCH  53  67
BRANCH  54  78
ATOM     78  C   UNL A   1      41.761  26.067  27.671  1.00  0.00     0.023 A 
ATOM     79  C   UNL A   1      41.245  24.760  27.661  1.00  0.00     0.031 A 
ATOM     80  C   UNL A   1      42.426  26.517  26.515  1.00  0.00     0.131 A 
ATOM     81  C   UNL A   1      41.443  23.937  26.541  1.00  0.00     0.055 A 
ATOM     82  C   UNL A   1      42.564  25.715  25.380  1.00  0.00     0.041 A 
ATOM     83  F   UNL A   1      42.954  27.750  26.471  1.00  0.00    -0.206 F 
ATOM     84  C   UNL A   1      42.083  24.410  25.394  1.00  0.00     0.022 A 
BRANCH  81  85
ATOM     85  S   UNL A   1      40.941  22.195  26.643  1.00  0.00     0.124 S 
ATOM     86  O   UNL A   1      39.532  22.271  26.273  1.00  0.00    -0.237 OA
ATOM     87  O   UNL A   1      41.828  21.567  25.669  1.00  0.00    -0.237 OA
ATOM     88  O   UNL A   1      41.203  21.846  28.037  1.00  0.00    -0.744 OA
ENDBRANCH  81  85
ENDBRANCH  54  78
BRANCH  66  89
ATOM     89  C   UNL A   1      45.834  26.671  33.309  1.00  0.00     0.023 A 
ATOM     90  C   UNL A   1      45.750  25.494  34.072  1.00  0.00     0.031 A 
ATOM     91  C   UNL A   1      47.114  27.147  32.968  1.00  0.00     0.131 A 
ATOM     92  C   UNL A   1      46.923  24.868  34.523  1.00  0.00     0.055 A 
ATOM     93  C   UNL A   1      48.276  26.481  33.359  1.00  0.00     0.041 A 
ATOM     94  F   UNL A   1      47.257  28.268  32.243  1.00  0.00    -0.206 F 
ATOM     95  C   UNL A   1      48.185  25.343  34.154  1.00  0.00     0.022 A 
BRANCH  92  96
ATOM     96  S   UNL A   1      46.779  23.485  35.687  1.00  0.00     0.124 S 
ATOM     97  O   UNL A   1      47.957  23.673  36.528  1.00  0.00    -0.237 OA
ATOM     98  O   UNL A   1      45.492  23.745  36.324  1.00  0.00    -0.237 OA
ATOM     99  O   UNL A   1      46.814  22.305  34.825  1.00  0.00    -0.744 OA
ENDBRANCH  92  96
ENDBRANCH  66  89
ENDBRANCH  40  41
ENDBRANCH  33  35
ENDBRANCH  32  33
ENDBRANCH  31  32
ENDBRANCH  30  31
ENDBRANCH  29  30
ENDBRANCH  28  29
ENDBRANCH   1  28
TORSDOF 23
ENDMDL
MODEL 2
REMARK VINA RESULT:      -9.8      1.786      2.272
REMARK SMILES C[NH+](C)Cc1ccccc1[C@H]1[NH2+][C@@H](C(=O)OCCOCCOCCOC(=O)c2ccc(-c3c4nc(c(-c5cc(S(=O)(=O)[O-])ccc5F)c5ccc([nH]5)c(-c5cc(S(=O)(=O)[O-])ccc5F)c5nc(c(-c6cc(S(=O)(=O)[O-])ccc6F)c6ccc3[nH]6)C=C5)C=C4)cc2)C(C)(C)S1
REMARK SMILES IDX 20 1 19 2 18 3 17 4 16 5 14 6 15 7 13 8 11 9 12 10 94 11
REMARK SMILES IDX 91 14 92 15 93 16 10 17 5 18 6 19 7 20 9 21 8 22 4 23 2 24
REMARK SMILES IDX 1 25 3 26 21 28 22 29 23 30 24 31 25 32 26 33 27 34 28 35
REMARK SMILES IDX 29 36 90 37 30 38 89 39 31 40 32 41 33 42 83 43 34 44 88 45
REMARK SMILES IDX 82 46 84 47 35 48 87 49 81 50 80 51 36 53 68 54 48 55 67 56
REMARK SMILES IDX 49 57 52 58 66 59 85 60 50 61 51 62 65 64 86 65 53 66 37 67
REMARK SMILES IDX 38 68 46 69 39 70 45 71 47 72 44 73 40 74 41 75 42 76 43 77
REMARK SMILES IDX 69 78 70 79 78 80 71 81 77 82 79 83 76 84 72 85 73 86 74 87
REMARK SMILES IDX 75 88 54 89 55 90 63 91 56 92 62 93 64 94 61 95 57 96 58 97
REMARK SMILES IDX 59 98 60 99
REMARK H PARENT 12 12 12 13 2 27 84 52 52 63
REMARK Flexibility Score: inf
ROOT
ATOM      1  C   UNL A   1      33.848  29.505  27.066  1.00  0.00     0.188 C 
ENDROOT
BRANCH   1   2
ATOM      2  O   UNL A   1      32.451  29.470  27.340  1.00  0.00    -0.376 OA
BRANCH   2   3
ATOM      3  C   UNL A   1      31.830  28.233  27.660  1.00  0.00     0.202 C 
BRANCH   3   4
ATOM      4  C   UNL A   1      31.470  27.285  26.508  1.00  0.00     0.261 C 
BRANCH   4   5
ATOM      5  O   UNL A   1      32.216  26.048  26.412  1.00  0.00    -0.459 OA
BRANCH   5   6
ATOM      6  C   UNL A   1      31.505  24.895  26.261  1.00  0.00     0.366 C 
ATOM      7  O   UNL A   1      30.899  24.352  27.183  1.00  0.00    -0.245 OA
BRANCH   6   8
ATOM      8  C   UNL A   1      31.714  24.181  24.897  1.00  0.00     0.310 C 
ATOM      9  C   UNL A   1      32.389  22.104  23.970  1.00  0.00     0.275 C 
ATOM     10  N   UNL A   1      32.245  22.823  25.221  1.00  0.00    -0.319 N 
ATOM     11  S   UNL A   1      32.942  23.248  22.696  1.00  0.00    -0.081 SA
ATOM     12  H   UNL A   1      33.151  22.904  25.682  1.00  0.00     0.348 HD
ATOM     13  H   UNL A   1      31.612  22.329  25.850  1.00  0.00     0.348 HD
ATOM     14  C   UNL A   1      32.483  24.793  23.673  1.00  0.00     0.079 C 
ATOM     15  C   UNL A   1      33.761  25.626  23.895  1.00  0.00     0.030 C 
ATOM     16  C   UNL A   1      31.571  25.625  22.757  1.00  0.00     0.030 C 
BRANCH   9  17
ATOM     17  C   UNL A   1      33.031  20.713  24.069  1.00  0.00     0.029 A 
ATOM     18  C   UNL A   1      34.200  20.238  24.731  1.00  0.00     0.016 A 
ATOM     19  C   UNL A   1      34.509  18.840  24.600  1.00  0.00     0.010 A 
ATOM     20  C   UNL A   1      33.724  17.923  23.921  1.00  0.00     0.001 A 
ATOM     21  C   UNL A   1      32.251  19.725  23.380  1.00  0.00     0.011 A 
ATOM     22  C   UNL A   1      32.577  18.368  23.314  1.00  0.00     0.001 A 
BRANCH  18  23
ATOM     23  C   UNL A   1      35.323  20.857  25.562  1.00  0.00     0.299 C 
BRANCH  23  24
ATOM     24  N   UNL A   1      36.192  21.944  25.192  1.00  0.00    -0.336 N 
ATOM     25  C   UNL A   1      35.937  23.139  25.946  1.00  0.00     0.332 C 
ATOM     26  C   UNL A   1      37.585  21.589  25.021  1.00  0.00     0.332 C 
ATOM     27  H   UNL A   1      35.929  22.187  24.236  1.00  0.00     0.347 HD
ENDBRANCH  23  24
ENDBRANCH  18  23
ENDBRANCH   9  17
ENDBRANCH   6   8
ENDBRANCH   5   6
ENDBRANCH   4   5
ENDBRANCH   3   4
ENDBRANCH   2   3
ENDBRANCH   1   2
BRANCH   1  28
ATOM     28  C   UNL A   1      34.692  30.579  27.752  1.00  0.00     0.188 C 
BRANCH  28  29
ATOM     29  O   UNL A   1      34.410  31.887  27.312  1.00  0.00    -0.376 OA
BRANCH  29  30
ATOM     30  C   UNL A   1      33.493  32.654  28.062  1.00  0.00     0.202 C 
BRANCH  30  31
ATOM     31  C   UNL A   1      34.040  33.706  29.044  1.00  0.00     0.261 C 
BRANCH  31  32
ATOM     32  O   UNL A   1      35.335  33.462  29.629  1.00  0.00    -0.460 OA
BRANCH  32  33
ATOM     33  C   UNL A   1      35.386  32.601  30.678  1.00  0.00     0.338 C 
ATOM     34  O   UNL A   1      34.491  32.377  31.466  1.00  0.00    -0.246 OA
BRANCH  33  35
ATOM     35  C   UNL A   1      36.610  31.766  30.533  1.00  0.00     0.060 A 
ATOM     36  C   UNL A   1      36.700  30.586  31.285  1.00  0.00     0.016 A 
ATOM     37  C   UNL A   1      37.657  32.131  29.689  1.00  0.00     0.016 A 
ATOM     38  C   UNL A   1      37.834  29.776  31.215  1.00  0.00     0.010 A 
ATOM     39  C   UNL A   1      38.814  31.339  29.647  1.00  0.00     0.010 A 
ATOM     40  C   UNL A   1      38.923  30.172  30.433  1.00  0.00    -0.014 A 
BRANCH  40  41
ATOM     41  C   UNL A   1      40.244  29.509  30.625  1.00  0.00     0.031 A 
ATOM     42  C   UNL A   1      41.140  30.032  31.719  1.00  0.00     0.074 A 
ATOM     43  C   UNL A   1      40.621  28.436  29.906  1.00  0.00     0.049 A 
ATOM     44  N   UNL A   1      42.379  29.727  32.003  1.00  0.00    -0.248 NA
ATOM     45  C   UNL A   1      40.551  31.045  32.609  1.00  0.00     0.031 C 
ATOM     46  C   UNL A   1      39.806  27.764  28.896  1.00  0.00     0.029 A 
ATOM     47  N   UNL A   1      41.796  27.722  29.916  1.00  0.00    -0.354 N 
ATOM     48  C   UNL A   1      42.729  30.534  33.083  1.00  0.00     0.074 A 
ATOM     49  C   UNL A   1      41.578  31.358  33.382  1.00  0.00     0.031 C 
ATOM     50  C   UNL A   1      40.510  26.742  28.377  1.00  0.00     0.029 A 
ATOM     51  C   UNL A   1      41.847  26.724  28.968  1.00  0.00     0.049 A 
ATOM     52  H   UNL A   1      42.534  27.908  30.541  1.00  0.00     0.167 HD
ATOM     53  C   UNL A   1      43.900  30.579  33.764  1.00  0.00     0.034 A 
ATOM     54  C   UNL A   1      42.866  25.923  28.593  1.00  0.00     0.034 A 
ATOM     55  C   UNL A   1      45.033  29.741  33.459  1.00  0.00     0.049 A 
ATOM     56  C   UNL A   1      44.202  26.069  29.289  1.00  0.00     0.074 A 
ATOM     57  C   UNL A   1      46.271  29.705  34.075  1.00  0.00     0.029 A 
ATOM     58  N   UNL A   1      45.067  28.788  32.448  1.00  0.00    -0.354 N 
ATOM     59  N   UNL A   1      44.541  26.869  30.275  1.00  0.00    -0.248 NA
ATOM     60  C   UNL A   1      45.294  25.205  28.817  1.00  0.00     0.031 C 
ATOM     61  C   UNL A   1      47.077  28.791  33.388  1.00  0.00     0.029 A 
ATOM     62  C   UNL A   1      46.315  28.186  32.401  1.00  0.00     0.049 A 
ATOM     63  H   UNL A   1      44.314  28.572  31.851  1.00  0.00     0.167 HD
ATOM     64  C   UNL A   1      45.874  26.579  30.561  1.00  0.00     0.074 A 
ATOM     65  C   UNL A   1      46.270  25.520  29.656  1.00  0.00     0.031 C 
ATOM     66  C   UNL A   1      46.697  27.135  31.487  1.00  0.00     0.034 A 
BRANCH  53  67
ATOM     67  C   UNL A   1      44.032  31.619  34.851  1.00  0.00     0.023 A 
ATOM     68  C   UNL A   1      43.800  31.318  36.205  1.00  0.00     0.031 A 
ATOM     69  C   UNL A   1      44.354  32.948  34.520  1.00  0.00     0.131 A 
ATOM     70  C   UNL A   1      43.818  32.344  37.163  1.00  0.00     0.055 A 
ATOM     71  C   UNL A   1      44.457  33.946  35.490  1.00  0.00     0.041 A 
ATOM     72  F   UNL A   1      44.560  33.303  33.241  1.00  0.00    -0.206 F 
ATOM     73  C   UNL A   1      44.173  33.651  36.819  1.00  0.00     0.022 A 
BRANCH  70  74
ATOM     74  S   UNL A   1      43.219  31.979  38.836  1.00  0.00     0.124 S 
ATOM     75  O   UNL A   1      43.595  33.194  39.555  1.00  0.00    -0.237 OA
ATOM     76  O   UNL A   1      41.790  31.779  38.623  1.00  0.00    -0.237 OA
ATOM     77  O   UNL A   1      43.968  30.782  39.215  1.00  0.00    -0.744 OA
ENDBRANCH  70  74
ENDBRANCH  53  67
BRANCH  54  78
ATOM     78  C   UNL A   1      42.706  24.956  27.464  1.00  0.00     0.023 A 
ATOM     79  C   UNL A   1      42.131  23.690  27.663  1.00  0.00     0.031 A 
ATOM     80  C   UNL A   1      43.198  25.258  26.181  1.00  0.00     0.131 A 
ATOM     81  C   UNL A   1      42.107  22.758  26.612  1.00  0.00     0.055 A 
ATOM     82  C   UNL A   1      43.114  24.350  25.123  1.00  0.00     0.041 A 
ATOM     83  F   UNL A   1      43.772  26.446  25.934  1.00  0.00    -0.206 F 
ATOM     84  C   UNL A   1      42.578  23.085  25.340  1.00  0.00     0.022 A 
BRANCH  81  85
ATOM     85  S   UNL A   1      41.544  21.068  26.961  1.00  0.00     0.124 S 
ATOM     86  O   UNL A   1      40.160  21.294  27.364  1.00  0.00    -0.237 OA
ATOM     87  O   UNL A   1      41.739  20.411  25.673  1.00  0.00    -0.237 OA
ATOM     88  O   UNL A   1      42.439  20.624  28.027  1.00  0.00    -0.744 OA
ENDBRANCH  81  85
ENDBRANCH  54  78
BRANCH  66  89
ATOM     89  C   UNL A   1      48.092  26.566  31.602  1.00  0.00     0.023 A 
ATOM     90  C   UNL A   1      48.374  25.443  32.399  1.00  0.00     0.031 A 
ATOM     91  C   UNL A   1      49.159  27.165  30.905  1.00  0.00     0.131 A 
ATOM     92  C   UNL A   1      49.697  24.994  32.531  1.00  0.00     0.055 A 
ATOM     93  C   UNL A   1      50.461  26.669  30.985  1.00  0.00     0.041 A 
ATOM     94  F   UNL A   1      48.952  28.242  30.131  1.00  0.00    -0.206 F 
ATOM     95  C   UNL A   1      50.739  25.587  31.813  1.00  0.00     0.022 A 
BRANCH  92  96
ATOM     96  S   UNL A   1      50.056  23.688  33.737  1.00  0.00     0.124 S 
ATOM     97  O   UNL A   1      50.584  22.626  32.887  1.00  0.00    -0.237 OA
ATOM     98  O   UNL A   1      51.018  24.335  34.623  1.00  0.00    -0.237 OA
ATOM     99  O   UNL A   1      48.753  23.409  34.339  1.00  0.00    -0.744 OA
ENDBRANCH  92  96
ENDBRANCH  66  89
ENDBRANCH  40  41
ENDBRANCH  33  35
ENDBRANCH  32  33
ENDBRANCH  31  32
ENDBRANCH  30  31
ENDBRANCH  29  30
ENDBRANCH  28  29
ENDBRANCH   1  28
TORSDOF 23
ENDMDL
MODEL 3
REMARK VINA RESULT:      -9.5      5.608      9.729
REMARK SMILES C[NH+](C)Cc1ccccc1[C@H]1[NH2+][C@@H](C(=O)OCCOCCOCCOC(=O)c2ccc(-c3c4nc(c(-c5cc(S(=O)(=O)[O-])ccc5F)c5ccc([nH]5)c(-c5cc(S(=O)(=O)[O-])ccc5F)c5nc(c(-c6cc(S(=O)(=O)[O-])ccc6F)c6ccc3[nH]6)C=C5)C=C4)cc2)C(C)(C)S1
REMARK SMILES IDX 20 1 19 2 18 3 17 4 16 5 14 6 15 7 13 8 11 9 12 10 94 11
REMARK SMILES IDX 91 14 92 15 93 16 10 17 5 18 6 19 7 20 9 21 8 22 4 23 2 24
REMARK SMILES IDX 1 25 3 26 21 28 22 29 23 30 24 31 25 32 26 33 27 34 28 35
REMARK SMILES IDX 29 36 90 37 30 38 89 39 31 40 32 41 33 42 83 43 34 44 88 45
REMARK SMILES IDX 82 46 84 47 35 48 87 49 81 50 80 51 36 53 68 54 48 55 67 56
REMARK SMILES IDX 49 57 52 58 66 59 85 60 50 61 51 62 65 64 86 65 53 66 37 67
REMARK SMILES IDX 38 68 46 69 39 70 45 71 47 72 44 73 40 74 41 75 42 76 43 77
REMARK SMILES IDX 69 78 70 79 78 80 71 81 77 82 79 83 76 84 72 85 73 86 74 87
REMARK SMILES IDX 75 88 54 89 55 90 63 91 56 92 62 93 64 94 61 95 57 96 58 97
REMARK SMILES IDX 59 98 60 99
REMARK H PARENT 12 12 12 13 2 27 84 52 52 63
REMARK Flexibility Score: inf
ROOT
ATOM      1  C   UNL A   1      39.307  21.512  26.093  1.00  0.00     0.188 C 
ENDROOT
BRANCH   1   2
ATOM      2  O   UNL A   1      38.177  22.325  25.793  1.00  0.00    -0.376 OA
BRANCH   2   3
ATOM      3  C   UNL A   1      37.191  21.850  24.887  1.00  0.00     0.202 C 
BRANCH   3   4
ATOM      4  C   UNL A   1      35.798  21.520  25.440  1.00  0.00     0.261 C 
BRANCH   4   5
ATOM      5  O   UNL A   1      35.342  22.283  26.581  1.00  0.00    -0.459 OA
BRANCH   5   6
ATOM      6  C   UNL A   1      34.153  22.940  26.465  1.00  0.00     0.366 C 
ATOM      7  O   UNL A   1      33.144  22.621  27.090  1.00  0.00    -0.245 OA
BRANCH   6   8
ATOM      8  C   UNL A   1      34.096  23.971  25.305  1.00  0.00     0.310 C 
ATOM      9  C   UNL A   1      33.689  26.269  24.879  1.00  0.00     0.275 C 
ATOM     10  N   UNL A   1      33.687  25.267  25.926  1.00  0.00    -0.319 N 
ATOM     11  S   UNL A   1      33.098  25.525  23.352  1.00  0.00    -0.081 SA
ATOM     12  H   UNL A   1      32.752  25.182  26.325  1.00  0.00     0.348 HD
ATOM     13  H   UNL A   1      34.328  25.526  26.675  1.00  0.00     0.348 HD
ATOM     14  C   UNL A   1      33.342  23.752  23.946  1.00  0.00     0.079 C 
ATOM     15  C   UNL A   1      31.976  23.039  23.921  1.00  0.00     0.030 C 
ATOM     16  C   UNL A   1      34.217  23.061  22.888  1.00  0.00     0.030 C 
BRANCH   9  17
ATOM     17  C   UNL A   1      33.185  27.662  25.286  1.00  0.00     0.029 A 
ATOM     18  C   UNL A   1      32.113  28.472  24.816  1.00  0.00     0.016 A 
ATOM     19  C   UNL A   1      31.933  29.755  25.440  1.00  0.00     0.010 A 
ATOM     20  C   UNL A   1      32.696  30.228  26.495  1.00  0.00     0.001 A 
ATOM     21  C   UNL A   1      33.946  28.195  26.380  1.00  0.00     0.011 A 
ATOM     22  C   UNL A   1      33.706  29.435  26.978  1.00  0.00     0.001 A 
BRANCH  18  23
ATOM     23  C   UNL A   1      31.055  28.369  23.719  1.00  0.00     0.299 C 
BRANCH  23  24
ATOM     24  N   UNL A   1      29.725  27.828  23.830  1.00  0.00    -0.336 N 
ATOM     25  C   UNL A   1      28.780  28.500  22.984  1.00  0.00     0.332 C 
ATOM     26  C   UNL A   1      29.647  26.381  23.843  1.00  0.00     0.332 C 
ATOM     27  H   UNL A   1      29.420  28.052  24.777  1.00  0.00     0.347 HD
ENDBRANCH  23  24
ENDBRANCH  18  23
ENDBRANCH   9  17
ENDBRANCH   6   8
ENDBRANCH   5   6
ENDBRANCH   4   5
ENDBRANCH   3   4
ENDBRANCH   2   3
ENDBRANCH   1   2
BRANCH   1  28
ATOM     28  C   UNL A   1      40.404  22.101  26.979  1.00  0.00     0.188 C 
BRANCH  28  29
ATOM     29  O   UNL A   1      41.225  21.129  27.583  1.00  0.00    -0.376 OA
BRANCH  29  30
ATOM     30  C   UNL A   1      41.082  19.789  27.165  1.00  0.00     0.202 C 
BRANCH  30  31
ATOM     31  C   UNL A   1      42.221  19.143  26.356  1.00  0.00     0.261 C 
BRANCH  31  32
ATOM     32  O   UNL A   1      42.602  19.776  25.118  1.00  0.00    -0.460 OA
BRANCH  32  33
ATOM     33  C   UNL A   1      43.876  20.239  25.028  1.00  0.00     0.338 C 
ATOM     34  O   UNL A   1      44.771  19.750  24.370  1.00  0.00    -0.246 OA
BRANCH  33  35
ATOM     35  C   UNL A   1      43.919  21.600  25.630  1.00  0.00     0.060 A 
ATOM     36  C   UNL A   1      43.599  22.695  24.815  1.00  0.00     0.016 A 
ATOM     37  C   UNL A   1      44.277  21.807  26.961  1.00  0.00     0.016 A 
ATOM     38  C   UNL A   1      43.650  23.998  25.313  1.00  0.00     0.010 A 
ATOM     39  C   UNL A   1      44.367  23.118  27.451  1.00  0.00     0.010 A 
ATOM     40  C   UNL A   1      44.084  24.224  26.622  1.00  0.00    -0.014 A 
BRANCH  40  41
ATOM     41  C   UNL A   1      44.471  25.601  27.038  1.00  0.00     0.031 A 
ATOM     42  C   UNL A   1      43.409  26.474  27.658  1.00  0.00     0.074 A 
ATOM     43  C   UNL A   1      45.735  26.055  26.938  1.00  0.00     0.049 A 
ATOM     44  N   UNL A   1      43.448  27.741  27.977  1.00  0.00    -0.248 NA
ATOM     45  C   UNL A   1      42.124  25.819  27.949  1.00  0.00     0.031 C 
ATOM     46  C   UNL A   1      46.877  25.278  26.461  1.00  0.00     0.029 A 
ATOM     47  N   UNL A   1      46.268  27.287  27.232  1.00  0.00    -0.354 N 
ATOM     48  C   UNL A   1      42.183  28.044  28.476  1.00  0.00     0.074 A 
ATOM     49  C   UNL A   1      41.397  26.832  28.390  1.00  0.00     0.031 C 
ATOM     50  C   UNL A   1      47.975  26.056  26.486  1.00  0.00     0.029 A 
ATOM     51  C   UNL A   1      47.604  27.402  26.918  1.00  0.00     0.049 A 
ATOM     52  H   UNL A   1      45.743  28.020  27.629  1.00  0.00     0.167 HD
ATOM     53  C   UNL A   1      41.724  29.222  28.964  1.00  0.00     0.034 A 
ATOM     54  C   UNL A   1      48.418  28.479  26.935  1.00  0.00     0.034 A 
ATOM     55  C   UNL A   1      42.527  30.416  29.053  1.00  0.00     0.049 A 
ATOM     56  C   UNL A   1      47.854  29.813  27.374  1.00  0.00     0.074 A 
ATOM     57  C   UNL A   1      42.165  31.666  29.522  1.00  0.00     0.029 A 
ATOM     58  N   UNL A   1      43.857  30.510  28.663  1.00  0.00    -0.354 N 
ATOM     59  N   UNL A   1      46.644  30.103  27.797  1.00  0.00    -0.248 NA
ATOM     60  C   UNL A   1      48.766  30.964  27.336  1.00  0.00     0.031 C 
ATOM     61  C   UNL A   1      43.248  32.533  29.342  1.00  0.00     0.029 A 
ATOM     62  C   UNL A   1      44.319  31.804  28.846  1.00  0.00     0.049 A 
ATOM     63  H   UNL A   1      44.395  29.765  28.307  1.00  0.00     0.167 HD
ATOM     64  C   UNL A   1      46.663  31.463  28.104  1.00  0.00     0.074 A 
ATOM     65  C   UNL A   1      48.007  31.929  27.836  1.00  0.00     0.031 C 
ATOM     66  C   UNL A   1      45.662  32.255  28.567  1.00  0.00     0.034 A 
BRANCH  53  67
ATOM     67  C   UNL A   1      40.269  29.287  29.366  1.00  0.00     0.023 A 
ATOM     68  C   UNL A   1      39.864  29.262  30.711  1.00  0.00     0.031 A 
ATOM     69  C   UNL A   1      39.268  29.332  28.379  1.00  0.00     0.131 A 
ATOM     70  C   UNL A   1      38.498  29.205  31.030  1.00  0.00     0.055 A 
ATOM     71  C   UNL A   1      37.910  29.364  28.706  1.00  0.00     0.041 A 
ATOM     72  F   UNL A   1      39.591  29.330  27.076  1.00  0.00    -0.206 F 
ATOM     73  C   UNL A   1      37.518  29.284  30.038  1.00  0.00     0.022 A 
BRANCH  70  74
ATOM     74  S   UNL A   1      38.022  28.867  32.748  1.00  0.00     0.124 S 
ATOM     75  O   UNL A   1      38.051  27.406  32.779  1.00  0.00    -0.237 OA
ATOM     76  O   UNL A   1      39.068  29.543  33.505  1.00  0.00    -0.237 OA
ATOM     77  O   UNL A   1      36.689  29.458  32.857  1.00  0.00    -0.744 OA
ENDBRANCH  70  74
ENDBRANCH  53  67
BRANCH  54  78
ATOM     78  C   UNL A   1      49.833  28.378  26.463  1.00  0.00     0.023 A 
ATOM     79  C   UNL A   1      50.164  28.542  25.107  1.00  0.00     0.031 A 
ATOM     80  C   UNL A   1      50.868  28.036  27.353  1.00  0.00     0.131 A 
ATOM     81  C   UNL A   1      51.481  28.318  24.675  1.00  0.00     0.055 A 
ATOM     82  C   UNL A   1      52.189  27.877  26.927  1.00  0.00     0.041 A 
ATOM     83  F   UNL A   1      50.611  27.851  28.657  1.00  0.00    -0.206 F 
ATOM     84  C   UNL A   1      52.499  28.004  25.577  1.00  0.00     0.022 A 
BRANCH  81  85
ATOM     85  S   UNL A   1      51.827  28.341  22.893  1.00  0.00     0.124 S 
ATOM     86  O   UNL A   1      52.117  26.936  22.630  1.00  0.00    -0.237 OA
ATOM     87  O   UNL A   1      50.574  28.851  22.347  1.00  0.00    -0.237 OA
ATOM     88  O   UNL A   1      52.969  29.246  22.779  1.00  0.00    -0.744 OA
ENDBRANCH  81  85
ENDBRANCH  54  78
BRANCH  66  89
ATOM     89  C   UNL A   1      46.004  33.697  28.865  1.00  0.00     0.023 A 
ATOM     90  C   UNL A   1      46.473  34.105  30.125  1.00  0.00     0.031 A 
ATOM     91  C   UNL A   1      45.849  34.680  27.869  1.00  0.00     0.131 A 
ATOM     92  C   UNL A   1      46.709  35.466  30.376  1.00  0.00     0.055 A 
ATOM     93  C   UNL A   1      46.154  36.021  28.103  1.00  0.00     0.041 A 
ATOM     94  F   UNL A   1      45.402  34.350  26.646  1.00  0.00    -0.206 F 
ATOM     95  C   UNL A   1      46.573  36.423  29.367  1.00  0.00     0.022 A 
BRANCH  92  96
ATOM     96  S   UNL A   1      47.097  35.983  32.071  1.00  0.00     0.124 S 
ATOM     97  O   UNL A   1      47.294  37.420  31.911  1.00  0.00    -0.237 OA
ATOM     98  O   UNL A   1      45.901  35.580  32.802  1.00  0.00    -0.237 OA
ATOM     99  O   UNL A   1      48.304  35.224  32.394  1.00  0.00    -0.744 OA
ENDBRANCH  92  96
ENDBRANCH  66  89
ENDBRANCH  40  41
ENDBRANCH  33  35
ENDBRANCH  32  33
ENDBRANCH  31  32
ENDBRANCH  30  31
ENDBRANCH  29  30
ENDBRANCH  28  29
ENDBRANCH   1  28
TORSDOF 23
ENDMDL
