MODEL 1
REMARK VINA RESULT:     -10.5      0.000      0.000
REMARK SMILES N#Cc1ccn2cc(C(=O)OCCOCCOCCOC(=O)c3ccc(-c4c5nc(c(-c6cc(S(=O)(=O)[O-])ccc6F)c6ccc([nH]6)c(-c6cc(S(=O)(=O)[O-])ccc6F)c6nc(c(-c7cc(S(=O)(=O)[O-])ccc7F)c7ccc4[nH]7)C=C6)C=C5)cc3)nc2c1
REMARK SMILES IDX 16 1 15 2 14 3 13 4 12 5 11 6 9 7 10 8 8 9 3 10 4 11 88 12
REMARK SMILES IDX 5 13 87 14 6 15 86 16 7 17 2 18 1 19 17 20 18 21 19 22 20 23
REMARK SMILES IDX 21 24 22 25 23 26 24 27 85 28 25 29 84 30 26 31 27 32 28 33
REMARK SMILES IDX 78 34 29 35 83 36 77 37 79 38 30 39 82 40 76 41 75 42 31 44
REMARK SMILES IDX 63 45 43 46 62 47 44 48 47 49 61 50 80 51 45 52 46 53 60 55
REMARK SMILES IDX 81 56 48 57 32 58 33 59 41 60 34 61 40 62 42 63 39 64 35 65
REMARK SMILES IDX 36 66 37 67 38 68 64 69 65 70 73 71 66 72 72 73 74 74 71 75
REMARK SMILES IDX 67 76 68 77 69 78 70 79 49 80 50 81 58 82 51 83 57 84 59 85
REMARK SMILES IDX 56 86 52 87 53 88 54 89 55 90
REMARK H PARENT 79 43 47 54
REMARK Flexibility Score: inf
ROOT
ATOM      1  C   UNL A   1      36.915  21.576  24.501  1.00  0.00     0.188 C 
ENDROOT
BRANCH   1   2
ATOM      2  C   UNL A   1      35.624  21.035  25.155  1.00  0.00     0.188 C 
BRANCH   2   3
ATOM      3  O   UNL A   1      35.118  21.690  26.309  1.00  0.00    -0.376 OA
BRANCH   3   4
ATOM      4  C   UNL A   1      33.819  21.318  26.753  1.00  0.00     0.202 C 
BRANCH   4   5
ATOM      5  C   UNL A   1      32.696  22.156  26.153  1.00  0.00     0.261 C 
BRANCH   5   6
ATOM      6  O   UNL A   1      32.489  23.282  27.017  1.00  0.00    -0.458 OA
BRANCH   6   7
ATOM      7  C   UNL A   1      31.348  23.973  26.777  1.00  0.00     0.358 C 
ATOM      8  O   UNL A   1      30.250  23.634  27.194  1.00  0.00    -0.244 OA
BRANCH   7   9
ATOM      9  C   UNL A   1      31.578  25.193  26.003  1.00  0.00     0.167 A 
ATOM     10  C   UNL A   1      30.328  28.921  23.937  1.00  0.00     0.057 A 
ATOM     11  C   UNL A   1      31.275  29.545  24.825  1.00  0.00     0.038 A 
ATOM     12  C   UNL A   1      30.168  27.577  23.885  1.00  0.00     0.067 A 
ATOM     13  C   UNL A   1      32.032  28.727  25.582  1.00  0.00     0.094 A 
ATOM     14  C   UNL A   1      30.913  26.736  24.716  1.00  0.00     0.139 A 
ATOM     15  N   UNL A   1      31.838  27.339  25.541  1.00  0.00    -0.306 N 
ATOM     16  N   UNL A   1      30.833  25.442  24.883  1.00  0.00    -0.221 NA
ATOM     17  C   UNL A   1      32.323  26.323  26.342  1.00  0.00     0.128 A 
BRANCH  10  18
ATOM     18  C   UNL A   1      29.975  29.413  22.543  1.00  0.00     0.099 C 
ATOM     19  N   UNL A   1      29.682  29.821  21.386  1.00  0.00    -0.192 NA
ENDBRANCH  10  18
ENDBRANCH   7   9
ENDBRANCH   6   7
ENDBRANCH   5   6
ENDBRANCH   4   5
ENDBRANCH   3   4
ENDBRANCH   2   3
ENDBRANCH   1   2
BRANCH   1  20
ATOM     20  O   UNL A   1      38.162  21.074  24.962  1.00  0.00    -0.376 OA
BRANCH  20  21
ATOM     21  C   UNL A   1      38.791  21.783  26.022  1.00  0.00     0.202 C 
BRANCH  21  22
ATOM     22  C   UNL A   1      40.156  21.233  26.446  1.00  0.00     0.261 C 
BRANCH  22  23
ATOM     23  O   UNL A   1      41.137  22.286  26.416  1.00  0.00    -0.460 OA
BRANCH  23  24
ATOM     24  C   UNL A   1      41.815  22.495  27.572  1.00  0.00     0.338 C 
ATOM     25  O   UNL A   1      42.572  21.707  28.108  1.00  0.00    -0.246 OA
BRANCH  24  26
ATOM     26  C   UNL A   1      41.744  23.948  27.897  1.00  0.00     0.060 A 
ATOM     27  C   UNL A   1      42.810  24.691  28.428  1.00  0.00     0.016 A 
ATOM     28  C   UNL A   1      40.498  24.552  27.769  1.00  0.00     0.016 A 
ATOM     29  C   UNL A   1      42.592  25.981  28.957  1.00  0.00     0.010 A 
ATOM     30  C   UNL A   1      40.311  25.853  28.237  1.00  0.00     0.010 A 
ATOM     31  C   UNL A   1      41.320  26.556  28.918  1.00  0.00    -0.014 A 
BRANCH  31  32
ATOM     32  C   UNL A   1      41.047  27.961  29.299  1.00  0.00     0.031 A 
ATOM     33  C   UNL A   1      41.873  28.940  28.584  1.00  0.00     0.074 A 
ATOM     34  C   UNL A   1      40.188  28.513  30.191  1.00  0.00     0.049 A 
ATOM     35  N   UNL A   1      42.834  29.585  29.158  1.00  0.00    -0.248 NA
ATOM     36  C   UNL A   1      41.740  29.159  27.149  1.00  0.00     0.031 C 
ATOM     37  C   UNL A   1      39.451  27.856  31.250  1.00  0.00     0.029 A 
ATOM     38  N   UNL A   1      39.765  29.828  30.311  1.00  0.00    -0.354 N 
ATOM     39  C   UNL A   1      43.319  30.451  28.204  1.00  0.00     0.074 A 
ATOM     40  C   UNL A   1      42.724  30.039  26.951  1.00  0.00     0.031 C 
ATOM     41  C   UNL A   1      38.523  28.697  31.766  1.00  0.00     0.029 A 
ATOM     42  C   UNL A   1      38.644  30.001  31.120  1.00  0.00     0.049 A 
ATOM     43  H   UNL A   1      40.220  30.576  29.862  1.00  0.00     0.167 HD
ATOM     44  C   UNL A   1      44.018  31.560  28.561  1.00  0.00     0.034 A 
ATOM     45  C   UNL A   1      38.140  31.111  31.718  1.00  0.00     0.034 A 
ATOM     46  C   UNL A   1      44.386  31.558  29.955  1.00  0.00     0.049 A 
ATOM     47  C   UNL A   1      39.260  32.008  32.060  1.00  0.00     0.074 A 
ATOM     48  C   UNL A   1      45.226  30.802  30.745  1.00  0.00     0.029 A 
ATOM     49  N   UNL A   1      43.572  32.265  30.804  1.00  0.00    -0.354 N 
ATOM     50  N   UNL A   1      40.056  31.819  33.071  1.00  0.00    -0.248 NA
ATOM     51  C   UNL A   1      39.670  33.051  31.125  1.00  0.00     0.031 C 
ATOM     52  C   UNL A   1      44.714  30.885  32.070  1.00  0.00     0.029 A 
ATOM     53  C   UNL A   1      43.568  31.679  32.048  1.00  0.00     0.049 A 
ATOM     54  H   UNL A   1      43.066  33.074  30.558  1.00  0.00     0.167 HD
ATOM     55  C   UNL A   1      41.257  32.342  32.643  1.00  0.00     0.074 A 
ATOM     56  C   UNL A   1      40.910  33.262  31.571  1.00  0.00     0.031 C 
ATOM     57  C   UNL A   1      42.435  31.734  32.959  1.00  0.00     0.034 A 
BRANCH  44  58
ATOM     58  C   UNL A   1      44.122  32.774  27.692  1.00  0.00     0.023 A 
ATOM     59  C   UNL A   1      43.586  34.014  28.078  1.00  0.00     0.031 A 
ATOM     60  C   UNL A   1      44.893  32.764  26.518  1.00  0.00     0.131 A 
ATOM     61  C   UNL A   1      43.708  35.145  27.269  1.00  0.00     0.055 A 
ATOM     62  C   UNL A   1      45.096  33.919  25.755  1.00  0.00     0.041 A 
ATOM     63  F   UNL A   1      45.493  31.641  26.095  1.00  0.00    -0.206 F 
ATOM     64  C   UNL A   1      44.481  35.114  26.115  1.00  0.00     0.022 A 
BRANCH  61  65
ATOM     65  S   UNL A   1      42.790  36.651  27.684  1.00  0.00     0.124 S 
ATOM     66  O   UNL A   1      42.679  37.300  26.384  1.00  0.00    -0.237 OA
ATOM     67  O   UNL A   1      41.551  36.105  28.232  1.00  0.00    -0.237 OA
ATOM     68  O   UNL A   1      43.653  37.313  28.661  1.00  0.00    -0.744 OA
ENDBRANCH  61  65
ENDBRANCH  44  58
BRANCH  45  69
ATOM     69  C   UNL A   1      36.808  31.705  31.431  1.00  0.00     0.023 A 
ATOM     70  C   UNL A   1      36.307  31.802  30.123  1.00  0.00     0.031 A 
ATOM     71  C   UNL A   1      36.103  32.379  32.446  1.00  0.00     0.131 A 
ATOM     72  C   UNL A   1      35.156  32.567  29.860  1.00  0.00     0.055 A 
ATOM     73  C   UNL A   1      34.945  33.122  32.184  1.00  0.00     0.041 A 
ATOM     74  F   UNL A   1      36.554  32.360  33.710  1.00  0.00    -0.206 F 
ATOM     75  C   UNL A   1      34.466  33.220  30.883  1.00  0.00     0.022 A 
BRANCH  72  76
ATOM     76  S   UNL A   1      34.573  32.793  28.154  1.00  0.00     0.124 S 
ATOM     77  O   UNL A   1      33.328  33.533  28.338  1.00  0.00    -0.237 OA
ATOM     78  O   UNL A   1      35.670  33.563  27.578  1.00  0.00    -0.237 OA
ATOM     79  O   UNL A   1      34.442  31.419  27.673  1.00  0.00    -0.744 OA
ENDBRANCH  72  76
ENDBRANCH  45  69
BRANCH  57  80
ATOM     80  C   UNL A   1      42.478  30.835  34.177  1.00  0.00     0.023 A 
ATOM     81  C   UNL A   1      42.293  29.454  33.975  1.00  0.00     0.031 A 
ATOM     82  C   UNL A   1      42.526  31.291  35.507  1.00  0.00     0.131 A 
ATOM     83  C   UNL A   1      42.119  28.598  35.069  1.00  0.00     0.055 A 
ATOM     84  C   UNL A   1      42.427  30.421  36.598  1.00  0.00     0.041 A 
ATOM     85  F   UNL A   1      42.590  32.594  35.795  1.00  0.00    -0.206 F 
ATOM     86  C   UNL A   1      42.205  29.068  36.382  1.00  0.00     0.022 A 
BRANCH  83  87
ATOM     87  S   UNL A   1      41.637  26.870  34.817  1.00  0.00     0.124 S 
ATOM     88  O   UNL A   1      41.330  26.429  36.175  1.00  0.00    -0.237 OA
ATOM     89  O   UNL A   1      40.484  27.001  33.928  1.00  0.00    -0.237 OA
ATOM     90  O   UNL A   1      42.817  26.257  34.214  1.00  0.00    -0.744 OA
ENDBRANCH  83  87
ENDBRANCH  57  80
ENDBRANCH  31  32
ENDBRANCH  24  26
ENDBRANCH  23  24
ENDBRANCH  22  23
ENDBRANCH  21  22
ENDBRANCH  20  21
ENDBRANCH   1  20
TORSDOF 21
ENDMDL
MODEL 2
REMARK VINA RESULT:     -10.5      3.174      9.433
REMARK SMILES N#Cc1ccn2cc(C(=O)OCCOCCOCCOC(=O)c3ccc(-c4c5nc(c(-c6cc(S(=O)(=O)[O-])ccc6F)c6ccc([nH]6)c(-c6cc(S(=O)(=O)[O-])ccc6F)c6nc(c(-c7cc(S(=O)(=O)[O-])ccc7F)c7ccc4[nH]7)C=C6)C=C5)cc3)nc2c1
REMARK SMILES IDX 16 1 15 2 14 3 13 4 12 5 11 6 9 7 10 8 8 9 3 10 4 11 88 12
REMARK SMILES IDX 5 13 87 14 6 15 86 16 7 17 2 18 1 19 17 20 18 21 19 22 20 23
REMARK SMILES IDX 21 24 22 25 23 26 24 27 85 28 25 29 84 30 26 31 27 32 28 33
REMARK SMILES IDX 78 34 29 35 83 36 77 37 79 38 30 39 82 40 76 41 75 42 31 44
REMARK SMILES IDX 63 45 43 46 62 47 44 48 47 49 61 50 80 51 45 52 46 53 60 55
REMARK SMILES IDX 81 56 48 57 32 58 33 59 41 60 34 61 40 62 42 63 39 64 35 65
REMARK SMILES IDX 36 66 37 67 38 68 64 69 65 70 73 71 66 72 72 73 74 74 71 75
REMARK SMILES IDX 67 76 68 77 69 78 70 79 49 80 50 81 58 82 51 83 57 84 59 85
REMARK SMILES IDX 56 86 52 87 53 88 54 89 55 90
REMARK H PARENT 79 43 47 54
REMARK Flexibility Score: inf
ROOT
ATOM      1  C   UNL A   1      33.474  30.760  27.590  1.00  0.00     0.188 C 
ENDROOT
BRANCH   1   2
ATOM      2  C   UNL A   1      33.130  29.552  26.688  1.00  0.00     0.188 C 
BRANCH   2   3
ATOM      3  O   UNL A   1      32.685  29.797  25.361  1.00  0.00    -0.376 OA
BRANCH   3   4
ATOM      4  C   UNL A   1      33.119  28.895  24.352  1.00  0.00     0.202 C 
BRANCH   4   5
ATOM      5  C   UNL A   1      33.362  27.477  24.853  1.00  0.00     0.261 C 
BRANCH   5   6
ATOM      6  O   UNL A   1      32.097  26.799  24.862  1.00  0.00    -0.458 OA
BRANCH   6   7
ATOM      7  C   UNL A   1      31.802  26.174  26.028  1.00  0.00     0.358 C 
ATOM      8  O   UNL A   1      31.084  26.656  26.892  1.00  0.00    -0.244 OA
BRANCH   7   9
ATOM      9  C   UNL A   1      32.399  24.842  26.123  1.00  0.00     0.167 A 
ATOM     10  C   UNL A   1      33.144  20.681  24.758  1.00  0.00     0.057 A 
ATOM     11  C   UNL A   1      34.526  21.083  24.793  1.00  0.00     0.038 A 
ATOM     12  C   UNL A   1      32.147  21.493  25.186  1.00  0.00     0.067 A 
ATOM     13  C   UNL A   1      34.795  22.298  25.309  1.00  0.00     0.094 A 
ATOM     14  C   UNL A   1      32.426  22.775  25.664  1.00  0.00     0.139 A 
ATOM     15  N   UNL A   1      33.754  23.142  25.721  1.00  0.00    -0.306 N 
ATOM     16  N   UNL A   1      31.608  23.730  26.022  1.00  0.00    -0.221 NA
ATOM     17  C   UNL A   1      33.745  24.475  26.083  1.00  0.00     0.128 A 
BRANCH  10  18
ATOM     18  C   UNL A   1      32.633  19.270  25.003  1.00  0.00     0.099 C 
ATOM     19  N   UNL A   1      32.210  18.100  25.206  1.00  0.00    -0.192 NA
ENDBRANCH  10  18
ENDBRANCH   7   9
ENDBRANCH   6   7
ENDBRANCH   5   6
ENDBRANCH   4   5
ENDBRANCH   3   4
ENDBRANCH   2   3
ENDBRANCH   1   2
BRANCH   1  20
ATOM     20  O   UNL A   1      32.946  32.031  27.238  1.00  0.00    -0.376 OA
BRANCH  20  21
ATOM     21  C   UNL A   1      33.422  33.153  27.971  1.00  0.00     0.202 C 
BRANCH  21  22
ATOM     22  C   UNL A   1      34.942  33.345  27.942  1.00  0.00     0.261 C 
BRANCH  22  23
ATOM     23  O   UNL A   1      35.414  33.698  29.256  1.00  0.00    -0.460 OA
BRANCH  23  24
ATOM     24  C   UNL A   1      35.372  32.710  30.183  1.00  0.00     0.338 C 
ATOM     25  O   UNL A   1      34.451  32.488  30.948  1.00  0.00    -0.246 OA
BRANCH  24  26
ATOM     26  C   UNL A   1      36.475  31.751  29.893  1.00  0.00     0.060 A 
ATOM     27  C   UNL A   1      36.284  30.387  29.623  1.00  0.00     0.016 A 
ATOM     28  C   UNL A   1      37.771  32.238  30.023  1.00  0.00     0.016 A 
ATOM     29  C   UNL A   1      37.377  29.495  29.624  1.00  0.00     0.010 A 
ATOM     30  C   UNL A   1      38.850  31.355  29.957  1.00  0.00     0.010 A 
ATOM     31  C   UNL A   1      38.673  29.965  29.849  1.00  0.00    -0.014 A 
BRANCH  31  32
ATOM     32  C   UNL A   1      39.883  29.124  29.702  1.00  0.00     0.031 A 
ATOM     33  C   UNL A   1      40.513  28.766  30.978  1.00  0.00     0.074 A 
ATOM     34  C   UNL A   1      40.526  28.633  28.614  1.00  0.00     0.049 A 
ATOM     35  N   UNL A   1      41.632  29.282  31.366  1.00  0.00    -0.248 NA
ATOM     36  C   UNL A   1      39.857  27.893  31.943  1.00  0.00     0.031 C 
ATOM     37  C   UNL A   1      40.361  29.016  27.227  1.00  0.00     0.029 A 
ATOM     38  N   UNL A   1      41.476  27.627  28.530  1.00  0.00    -0.354 N 
ATOM     39  C   UNL A   1      41.936  28.656  32.553  1.00  0.00     0.074 A 
ATOM     40  C   UNL A   1      40.743  27.935  32.941  1.00  0.00     0.031 C 
ATOM     41  C   UNL A   1      41.000  28.136  26.419  1.00  0.00     0.029 A 
ATOM     42  C   UNL A   1      41.696  27.148  27.240  1.00  0.00     0.049 A 
ATOM     43  H   UNL A   1      41.955  27.280  29.316  1.00  0.00     0.167 HD
ATOM     44  C   UNL A   1      43.212  28.624  33.017  1.00  0.00     0.034 A 
ATOM     45  C   UNL A   1      42.724  26.428  26.720  1.00  0.00     0.034 A 
ATOM     46  C   UNL A   1      44.089  29.505  32.287  1.00  0.00     0.049 A 
ATOM     47  C   UNL A   1      43.961  26.795  27.434  1.00  0.00     0.074 A 
ATOM     48  C   UNL A   1      44.202  30.871  32.136  1.00  0.00     0.029 A 
ATOM     49  N   UNL A   1      44.843  28.932  31.293  1.00  0.00    -0.354 N 
ATOM     50  N   UNL A   1      44.620  27.896  27.221  1.00  0.00    -0.248 NA
ATOM     51  C   UNL A   1      44.389  26.023  28.596  1.00  0.00     0.031 C 
ATOM     52  C   UNL A   1      44.828  31.086  30.876  1.00  0.00     0.029 A 
ATOM     53  C   UNL A   1      45.068  29.844  30.289  1.00  0.00     0.049 A 
ATOM     54  H   UNL A   1      45.174  28.005  31.299  1.00  0.00     0.167 HD
ATOM     55  C   UNL A   1      45.173  28.188  28.450  1.00  0.00     0.074 A 
ATOM     56  C   UNL A   1      45.190  26.923  29.169  1.00  0.00     0.031 C 
ATOM     57  C   UNL A   1      45.248  29.475  28.893  1.00  0.00     0.034 A 
BRANCH  44  58
ATOM     58  C   UNL A   1      43.711  27.578  33.963  1.00  0.00     0.023 A 
ATOM     59  C   UNL A   1      43.778  26.221  33.604  1.00  0.00     0.031 A 
ATOM     60  C   UNL A   1      44.277  27.925  35.201  1.00  0.00     0.131 A 
ATOM     61  C   UNL A   1      44.266  25.256  34.488  1.00  0.00     0.055 A 
ATOM     62  C   UNL A   1      44.852  26.972  36.048  1.00  0.00     0.041 A 
ATOM     63  F   UNL A   1      44.311  29.203  35.610  1.00  0.00    -0.206 F 
ATOM     64  C   UNL A   1      44.827  25.624  35.704  1.00  0.00     0.022 A 
BRANCH  61  65
ATOM     65  S   UNL A   1      44.100  23.498  34.080  1.00  0.00     0.124 S 
ATOM     66  O   UNL A   1      45.194  22.911  34.843  1.00  0.00    -0.237 OA
ATOM     67  O   UNL A   1      42.754  23.204  34.566  1.00  0.00    -0.237 OA
ATOM     68  O   UNL A   1      44.245  23.474  32.626  1.00  0.00    -0.744 OA
ENDBRANCH  61  65
ENDBRANCH  44  58
BRANCH  45  69
ATOM     69  C   UNL A   1      42.604  25.061  26.149  1.00  0.00     0.023 A 
ATOM     70  C   UNL A   1      41.618  24.161  26.584  1.00  0.00     0.031 A 
ATOM     71  C   UNL A   1      43.612  24.558  25.304  1.00  0.00     0.131 A 
ATOM     72  C   UNL A   1      41.671  22.810  26.194  1.00  0.00     0.055 A 
ATOM     73  C   UNL A   1      43.649  23.219  24.900  1.00  0.00     0.041 A 
ATOM     74  F   UNL A   1      44.606  25.359  24.888  1.00  0.00    -0.206 F 
ATOM     75  C   UNL A   1      42.674  22.334  25.347  1.00  0.00     0.022 A 
BRANCH  72  76
ATOM     76  S   UNL A   1      40.468  21.617  26.851  1.00  0.00     0.124 S 
ATOM     77  O   UNL A   1      40.826  20.386  26.151  1.00  0.00    -0.237 OA
ATOM     78  O   UNL A   1      40.792  21.637  28.273  1.00  0.00    -0.237 OA
ATOM     79  O   UNL A   1      39.186  22.217  26.484  1.00  0.00    -0.744 OA
ENDBRANCH  72  76
ENDBRANCH  45  69
BRANCH  57  80
ATOM     80  C   UNL A   1      45.231  30.591  27.871  1.00  0.00     0.023 A 
ATOM     81  C   UNL A   1      46.454  31.219  27.571  1.00  0.00     0.031 A 
ATOM     82  C   UNL A   1      44.066  31.156  27.321  1.00  0.00     0.131 A 
ATOM     83  C   UNL A   1      46.479  32.385  26.795  1.00  0.00     0.055 A 
ATOM     84  C   UNL A   1      44.102  32.276  26.484  1.00  0.00     0.041 A 
ATOM     85  F   UNL A   1      42.852  30.695  27.636  1.00  0.00    -0.206 F 
ATOM     86  C   UNL A   1      45.313  32.908  26.231  1.00  0.00     0.022 A 
BRANCH  83  87
ATOM     87  S   UNL A   1      48.010  33.335  26.610  1.00  0.00     0.124 S 
ATOM     88  O   UNL A   1      49.003  32.288  26.380  1.00  0.00    -0.237 OA
ATOM     89  O   UNL A   1      47.710  34.176  25.453  1.00  0.00    -0.237 OA
ATOM     90  O   UNL A   1      48.139  34.049  27.877  1.00  0.00    -0.744 OA
ENDBRANCH  83  87
ENDBRANCH  57  80
ENDBRANCH  31  32
ENDBRANCH  24  26
ENDBRANCH  23  24
ENDBRANCH  22  23
ENDBRANCH  21  22
ENDBRANCH  20  21
ENDBRANCH   1  20
TORSDOF 21
ENDMDL
MODEL 3
REMARK VINA RESULT:     -10.3      4.085      7.565
REMARK SMILES N#Cc1ccn2cc(C(=O)OCCOCCOCCOC(=O)c3ccc(-c4c5nc(c(-c6cc(S(=O)(=O)[O-])ccc6F)c6ccc([nH]6)c(-c6cc(S(=O)(=O)[O-])ccc6F)c6nc(c(-c7cc(S(=O)(=O)[O-])ccc7F)c7ccc4[nH]7)C=C6)C=C5)cc3)nc2c1
REMARK SMILES IDX 16 1 15 2 14 3 13 4 12 5 11 6 9 7 10 8 8 9 3 10 4 11 88 12
REMARK SMILES IDX 5 13 87 14 6 15 86 16 7 17 2 18 1 19 17 20 18 21 19 22 20 23
REMARK SMILES IDX 21 24 22 25 23 26 24 27 85 28 25 29 84 30 26 31 27 32 28 33
REMARK SMILES IDX 78 34 29 35 83 36 77 37 79 38 30 39 82 40 76 41 75 42 31 44
REMARK SMILES IDX 63 45 43 46 62 47 44 48 47 49 61 50 80 51 45 52 46 53 60 55
REMARK SMILES IDX 81 56 48 57 32 58 33 59 41 60 34 61 40 62 42 63 39 64 35 65
REMARK SMILES IDX 36 66 37 67 38 68 64 69 65 70 73 71 66 72 72 73 74 74 71 75
REMARK SMILES IDX 67 76 68 77 69 78 70 79 49 80 50 81 58 82 51 83 57 84 59 85
REMARK SMILES IDX 56 86 52 87 53 88 54 89 55 90
REMARK H PARENT 79 43 47 54
REMARK Flexibility Score: inf
ROOT
ATOM      1  C   UNL A   1      43.674  23.241  24.659  1.00  0.00     0.188 C 
ENDROOT
BRANCH   1   2
ATOM      2  C   UNL A   1      45.179  23.531  24.864  1.00  0.00     0.188 C 
BRANCH   2   3
ATOM      3  O   UNL A   1      45.674  24.824  24.545  1.00  0.00    -0.376 OA
BRANCH   3   4
ATOM      4  C   UNL A   1      46.866  25.243  25.196  1.00  0.00     0.202 C 
BRANCH   4   5
ATOM      5  C   UNL A   1      46.901  26.731  25.524  1.00  0.00     0.261 C 
BRANCH   5   6
ATOM      6  O   UNL A   1      46.943  26.858  26.953  1.00  0.00    -0.458 OA
BRANCH   6   7
ATOM      7  C   UNL A   1      47.660  25.894  27.582  1.00  0.00     0.358 C 
ATOM      8  O   UNL A   1      48.714  25.446  27.157  1.00  0.00    -0.244 OA
BRANCH   7   9
ATOM      9  C   UNL A   1      47.057  25.479  28.849  1.00  0.00     0.167 A 
ATOM     10  C   UNL A   1      45.269  26.181  32.854  1.00  0.00     0.057 A 
ATOM     11  C   UNL A   1      44.156  25.444  32.314  1.00  0.00     0.038 A 
ATOM     12  C   UNL A   1      46.424  26.346  32.166  1.00  0.00     0.067 A 
ATOM     13  C   UNL A   1      44.325  24.886  31.099  1.00  0.00     0.094 A 
ATOM     14  C   UNL A   1      46.573  25.817  30.882  1.00  0.00     0.139 A 
ATOM     15  N   UNL A   1      45.514  25.089  30.383  1.00  0.00    -0.306 N 
ATOM     16  N   UNL A   1      47.556  25.953  30.032  1.00  0.00    -0.221 NA
ATOM     17  C   UNL A   1      45.853  24.809  29.074  1.00  0.00     0.128 A 
BRANCH  10  18
ATOM     18  C   UNL A   1      45.676  26.209  34.318  1.00  0.00     0.099 C 
ATOM     19  N   UNL A   1      46.014  26.232  35.533  1.00  0.00    -0.192 NA
ENDBRANCH  10  18
ENDBRANCH   7   9
ENDBRANCH   6   7
ENDBRANCH   5   6
ENDBRANCH   4   5
ENDBRANCH   3   4
ENDBRANCH   2   3
ENDBRANCH   1   2
BRANCH   1  20
ATOM     20  O   UNL A   1      43.232  21.894  24.752  1.00  0.00    -0.376 OA
BRANCH  20  21
ATOM     21  C   UNL A   1      43.263  21.292  26.039  1.00  0.00     0.202 C 
BRANCH  21  22
ATOM     22  C   UNL A   1      42.007  20.496  26.411  1.00  0.00     0.261 C 
BRANCH  22  23
ATOM     23  O   UNL A   1      41.146  21.302  27.237  1.00  0.00    -0.460 OA
BRANCH  23  24
ATOM     24  C   UNL A   1      40.253  22.079  26.577  1.00  0.00     0.338 C 
ATOM     25  O   UNL A   1      39.305  21.682  25.925  1.00  0.00    -0.246 OA
BRANCH  24  26
ATOM     26  C   UNL A   1      40.421  23.484  27.049  1.00  0.00     0.060 A 
ATOM     27  C   UNL A   1      41.582  23.975  27.665  1.00  0.00     0.016 A 
ATOM     28  C   UNL A   1      39.300  24.303  26.969  1.00  0.00     0.016 A 
ATOM     29  C   UNL A   1      41.572  25.225  28.321  1.00  0.00     0.010 A 
ATOM     30  C   UNL A   1      39.323  25.564  27.566  1.00  0.00     0.010 A 
ATOM     31  C   UNL A   1      40.418  26.011  28.326  1.00  0.00    -0.014 A 
BRANCH  31  32
ATOM     32  C   UNL A   1      40.377  27.397  28.846  1.00  0.00     0.031 A 
ATOM     33  C   UNL A   1      41.326  28.304  28.190  1.00  0.00     0.074 A 
ATOM     34  C   UNL A   1      39.638  27.985  29.819  1.00  0.00     0.049 A 
ATOM     35  N   UNL A   1      42.390  28.737  28.781  1.00  0.00    -0.248 NA
ATOM     36  C   UNL A   1      41.191  28.680  26.789  1.00  0.00     0.031 C 
ATOM     37  C   UNL A   1      38.835  27.348  30.843  1.00  0.00     0.029 A 
ATOM     38  N   UNL A   1      39.428  29.331  30.077  1.00  0.00    -0.354 N 
ATOM     39  C   UNL A   1      42.978  29.607  27.892  1.00  0.00     0.074 A 
ATOM     40  C   UNL A   1      42.294  29.414  26.632  1.00  0.00     0.031 C 
ATOM     41  C   UNL A   1      38.064  28.266  31.472  1.00  0.00     0.029 A 
ATOM     42  C   UNL A   1      38.369  29.593  30.944  1.00  0.00     0.049 A 
ATOM     43  H   UNL A   1      39.981  30.041  29.681  1.00  0.00     0.167 HD
ATOM     44  C   UNL A   1      43.850  30.556  28.321  1.00  0.00     0.034 A 
ATOM     45  C   UNL A   1      38.060  30.704  31.662  1.00  0.00     0.034 A 
ATOM     46  C   UNL A   1      44.251  30.363  29.692  1.00  0.00     0.049 A 
ATOM     47  C   UNL A   1      39.314  31.382  32.038  1.00  0.00     0.074 A 
ATOM     48  C   UNL A   1      44.983  29.415  30.374  1.00  0.00     0.029 A 
ATOM     49  N   UNL A   1      43.579  31.100  30.636  1.00  0.00    -0.354 N 
ATOM     50  N   UNL A   1      40.098  30.976  32.994  1.00  0.00    -0.248 NA
ATOM     51  C   UNL A   1      39.857  32.436  31.188  1.00  0.00     0.031 C 
ATOM     52  C   UNL A   1      44.526  29.446  31.721  1.00  0.00     0.029 A 
ATOM     53  C   UNL A   1      43.517  30.403  31.819  1.00  0.00     0.049 A 
ATOM     54  H   UNL A   1      43.199  31.996  30.486  1.00  0.00     0.167 HD
ATOM     55  C   UNL A   1      41.354  31.350  32.567  1.00  0.00     0.074 A 
ATOM     56  C   UNL A   1      41.126  32.412  31.599  1.00  0.00     0.031 C 
ATOM     57  C   UNL A   1      42.430  30.541  32.777  1.00  0.00     0.034 A 
BRANCH  44  58
ATOM     58  C   UNL A   1      44.119  31.819  27.564  1.00  0.00     0.023 A 
ATOM     59  C   UNL A   1      43.604  33.059  27.977  1.00  0.00     0.031 A 
ATOM     60  C   UNL A   1      45.024  31.845  26.489  1.00  0.00     0.131 A 
ATOM     61  C   UNL A   1      43.880  34.234  27.275  1.00  0.00     0.055 A 
ATOM     62  C   UNL A   1      45.375  33.035  25.844  1.00  0.00     0.041 A 
ATOM     63  F   UNL A   1      45.612  30.720  26.055  1.00  0.00    -0.206 F 
ATOM     64  C   UNL A   1      44.783  34.237  26.220  1.00  0.00     0.022 A 
BRANCH  61  65
ATOM     65  S   UNL A   1      42.996  35.760  27.694  1.00  0.00     0.124 S 
ATOM     66  O   UNL A   1      44.087  36.628  28.121  1.00  0.00    -0.237 OA
ATOM     67  O   UNL A   1      42.371  36.103  26.419  1.00  0.00    -0.237 OA
ATOM     68  O   UNL A   1      42.066  35.335  28.738  1.00  0.00    -0.744 OA
ENDBRANCH  61  65
ENDBRANCH  44  58
BRANCH  45  69
ATOM     69  C   UNL A   1      36.829  31.518  31.486  1.00  0.00     0.023 A 
ATOM     70  C   UNL A   1      36.364  31.891  30.215  1.00  0.00     0.031 A 
ATOM     71  C   UNL A   1      36.214  32.117  32.601  1.00  0.00     0.131 A 
ATOM     72  C   UNL A   1      35.336  32.844  30.088  1.00  0.00     0.055 A 
ATOM     73  C   UNL A   1      35.176  33.049  32.473  1.00  0.00     0.041 A 
ATOM     74  F   UNL A   1      36.641  31.834  33.842  1.00  0.00    -0.206 F 
ATOM     75  C   UNL A   1      34.733  33.418  31.208  1.00  0.00     0.022 A 
BRANCH  72  76
ATOM     76  S   UNL A   1      34.814  33.418  28.445  1.00  0.00     0.124 S 
ATOM     77  O   UNL A   1      33.619  32.617  28.192  1.00  0.00    -0.237 OA
ATOM     78  O   UNL A   1      34.567  34.833  28.701  1.00  0.00    -0.237 OA
ATOM     79  O   UNL A   1      35.979  33.118  27.613  1.00  0.00    -0.744 OA
ENDBRANCH  72  76
ENDBRANCH  45  69
BRANCH  57  80
ATOM     80  C   UNL A   1      42.366  29.532  33.904  1.00  0.00     0.023 A 
ATOM     81  C   UNL A   1      43.112  29.804  35.066  1.00  0.00     0.031 A 
ATOM     82  C   UNL A   1      41.750  28.271  33.815  1.00  0.00     0.131 A 
ATOM     83  C   UNL A   1      43.260  28.825  36.057  1.00  0.00     0.055 A 
ATOM     84  C   UNL A   1      41.837  27.324  34.841  1.00  0.00     0.041 A 
ATOM     85  F   UNL A   1      41.112  27.883  32.707  1.00  0.00    -0.206 F 
ATOM     86  C   UNL A   1      42.610  27.592  35.963  1.00  0.00     0.022 A 
BRANCH  83  87
ATOM     87  S   UNL A   1      44.414  29.073  37.431  1.00  0.00     0.124 S 
ATOM     88  O   UNL A   1      44.389  27.775  38.099  1.00  0.00    -0.237 OA
ATOM     89  O   UNL A   1      45.657  29.393  36.732  1.00  0.00    -0.237 OA
ATOM     90  O   UNL A   1      43.830  30.176  38.189  1.00  0.00    -0.744 OA
ENDBRANCH  83  87
ENDBRANCH  57  80
ENDBRANCH  31  32
ENDBRANCH  24  26
ENDBRANCH  23  24
ENDBRANCH  22  23
ENDBRANCH  21  22
ENDBRANCH  20  21
ENDBRANCH   1  20
TORSDOF 21
ENDMDL
