MODEL 1
REMARK VINA RESULT:     -10.5      0.000      0.000
REMARK SMILES O=C(OCCOCCOCCOC(=O)c1cc(Br)ccc1NC(=O)c1ccc(Br)s1)c1ccc(-c2c3nc(c(-c4cc(S(=O)(=O)[O-])ccc4F)c4ccc([nH]4)c(-c4cc(S(=O)(=O)[O-])ccc4F)c4nc(c(-c5cc(S(=O)(=O)[O-])ccc5F)c5ccc2[nH]5)C=C4)C=C3)cc1
REMARK SMILES IDX 7 1 6 2 5 3 4 4 3 5 2 6 1 7 31 8 32 9 93 10 33 11 92 12
REMARK SMILES IDX 34 13 35 14 36 15 86 16 37 17 91 18 85 19 87 20 38 21 90 22
REMARK SMILES IDX 84 23 83 24 39 26 71 27 51 28 70 29 52 30 55 31 69 32 88 33
REMARK SMILES IDX 53 34 54 35 68 37 89 38 56 39 40 40 41 41 49 42 42 43 48 44
REMARK SMILES IDX 50 45 47 46 43 47 44 48 45 49 46 50 72 51 73 52 81 53 74 54
REMARK SMILES IDX 80 55 82 56 79 57 75 58 76 59 77 60 78 61 57 62 58 63 66 64
REMARK SMILES IDX 59 65 65 66 67 67 64 68 60 69 61 70 62 71 63 72 8 73 9 74
REMARK SMILES IDX 10 75 11 76 12 77 13 78 14 79 15 80 16 81 21 82 17 83 20 84
REMARK SMILES IDX 18 85 19 86 22 87 23 88 24 90 25 91 26 92 30 93 27 94 28 95
REMARK SMILES IDX 29 96
REMARK H PARENT 87 25 55 36 22 89
REMARK Flexibility Score: inf
ROOT
ATOM      1  C   UNL A   1      35.904  22.489  25.750  1.00  0.00     0.188 C 
ENDROOT
BRANCH   1   2
ATOM      2  O   UNL A   1      35.415  21.205  25.373  1.00  0.00    -0.376 OA
BRANCH   2   3
ATOM      3  C   UNL A   1      36.431  20.271  25.018  1.00  0.00     0.202 C 
BRANCH   3   4
ATOM      4  C   UNL A   1      37.843  20.875  24.937  1.00  0.00     0.261 C 
BRANCH   4   5
ATOM      5  O   UNL A   1      38.816  20.169  25.729  1.00  0.00    -0.460 OA
BRANCH   5   6
ATOM      6  C   UNL A   1      39.972  20.605  26.288  1.00  0.00     0.338 C 
ATOM      7  O   UNL A   1      40.894  19.793  26.382  1.00  0.00    -0.246 OA
BRANCH   6   8
ATOM      8  C   UNL A   1      40.204  21.985  26.844  1.00  0.00     0.060 A 
ATOM      9  C   UNL A   1      39.580  23.160  26.422  1.00  0.00     0.016 A 
ATOM     10  C   UNL A   1      41.145  22.098  27.888  1.00  0.00     0.016 A 
ATOM     11  C   UNL A   1      39.918  24.403  26.951  1.00  0.00     0.010 A 
ATOM     12  C   UNL A   1      41.489  23.342  28.434  1.00  0.00     0.010 A 
ATOM     13  C   UNL A   1      40.905  24.506  27.925  1.00  0.00    -0.014 A 
BRANCH  13  14
ATOM     14  C   UNL A   1      41.473  25.844  28.183  1.00  0.00     0.031 A 
ATOM     15  C   UNL A   1      42.863  26.113  27.683  1.00  0.00     0.074 A 
ATOM     16  C   UNL A   1      40.717  26.832  28.690  1.00  0.00     0.049 A 
ATOM     17  N   UNL A   1      43.573  27.207  27.748  1.00  0.00    -0.248 NA
ATOM     18  C   UNL A   1      43.526  25.001  26.980  1.00  0.00     0.031 C 
ATOM     19  C   UNL A   1      39.303  26.712  29.042  1.00  0.00     0.029 A 
ATOM     20  N   UNL A   1      41.024  28.135  28.977  1.00  0.00    -0.354 N 
ATOM     21  C   UNL A   1      44.759  26.921  27.081  1.00  0.00     0.074 A 
ATOM     22  C   UNL A   1      44.689  25.540  26.659  1.00  0.00     0.031 C 
ATOM     23  C   UNL A   1      38.875  27.888  29.531  1.00  0.00     0.029 A 
ATOM     24  C   UNL A   1      39.988  28.826  29.560  1.00  0.00     0.049 A 
ATOM     25  H   UNL A   1      41.901  28.538  28.785  1.00  0.00     0.167 HD
ATOM     26  C   UNL A   1      45.805  27.745  26.835  1.00  0.00     0.034 A 
ATOM     27  C   UNL A   1      39.959  30.066  30.084  1.00  0.00     0.034 A 
ATOM     28  C   UNL A   1      45.861  29.103  27.311  1.00  0.00     0.049 A 
ATOM     29  C   UNL A   1      41.201  30.910  29.967  1.00  0.00     0.074 A 
ATOM     30  C   UNL A   1      46.892  30.017  27.205  1.00  0.00     0.029 A 
ATOM     31  N   UNL A   1      44.835  29.736  28.006  1.00  0.00    -0.354 N 
ATOM     32  N   UNL A   1      42.345  30.615  29.392  1.00  0.00    -0.248 NA
ATOM     33  C   UNL A   1      41.145  32.254  30.551  1.00  0.00     0.031 C 
ATOM     34  C   UNL A   1      46.518  31.175  27.898  1.00  0.00     0.029 A 
ATOM     35  C   UNL A   1      45.223  31.016  28.366  1.00  0.00     0.049 A 
ATOM     36  H   UNL A   1      43.961  29.333  28.211  1.00  0.00     0.167 HD
ATOM     37  C   UNL A   1      43.135  31.750  29.515  1.00  0.00     0.074 A 
ATOM     38  C   UNL A   1      42.333  32.736  30.215  1.00  0.00     0.031 C 
ATOM     39  C   UNL A   1      44.403  31.969  29.079  1.00  0.00     0.034 A 
BRANCH  26  40
ATOM     40  C   UNL A   1      46.982  27.141  26.109  1.00  0.00     0.023 A 
ATOM     41  C   UNL A   1      48.013  26.473  26.795  1.00  0.00     0.031 A 
ATOM     42  C   UNL A   1      47.132  27.339  24.725  1.00  0.00     0.131 A 
ATOM     43  C   UNL A   1      49.187  26.113  26.113  1.00  0.00     0.055 A 
ATOM     44  C   UNL A   1      48.266  26.901  24.038  1.00  0.00     0.041 A 
ATOM     45  F   UNL A   1      46.196  27.998  24.024  1.00  0.00    -0.206 F 
ATOM     46  C   UNL A   1      49.310  26.302  24.735  1.00  0.00     0.022 A 
BRANCH  43  47
ATOM     47  S   UNL A   1      50.618  25.560  27.083  1.00  0.00     0.124 S 
ATOM     48  O   UNL A   1      51.648  25.446  26.052  1.00  0.00    -0.237 OA
ATOM     49  O   UNL A   1      50.791  26.646  28.040  1.00  0.00    -0.237 OA
ATOM     50  O   UNL A   1      50.176  24.289  27.654  1.00  0.00    -0.744 OA
ENDBRANCH  43  47
ENDBRANCH  26  40
BRANCH  27  51
ATOM     51  C   UNL A   1      38.762  30.554  30.825  1.00  0.00     0.023 A 
ATOM     52  C   UNL A   1      37.824  31.414  30.236  1.00  0.00     0.031 A 
ATOM     53  C   UNL A   1      38.581  30.208  32.178  1.00  0.00     0.131 A 
ATOM     54  C   UNL A   1      36.768  31.930  31.005  1.00  0.00     0.055 A 
ATOM     55  C   UNL A   1      37.513  30.701  32.931  1.00  0.00     0.041 A 
ATOM     56  F   UNL A   1      39.440  29.375  32.787  1.00  0.00    -0.206 F 
ATOM     57  C   UNL A   1      36.601  31.572  32.345  1.00  0.00     0.022 A 
BRANCH  54  58
ATOM     58  S   UNL A   1      35.641  33.135  30.249  1.00  0.00     0.124 S 
ATOM     59  O   UNL A   1      35.322  33.995  31.383  1.00  0.00    -0.237 OA
ATOM     60  O   UNL A   1      36.483  33.726  29.212  1.00  0.00    -0.237 OA
ATOM     61  O   UNL A   1      34.539  32.311  29.758  1.00  0.00    -0.744 OA
ENDBRANCH  54  58
ENDBRANCH  27  51
BRANCH  39  62
ATOM     62  C   UNL A   1      44.969  33.343  29.316  1.00  0.00     0.023 A 
ATOM     63  C   UNL A   1      44.790  34.383  28.389  1.00  0.00     0.031 A 
ATOM     64  C   UNL A   1      45.705  33.609  30.483  1.00  0.00     0.131 A 
ATOM     65  C   UNL A   1      45.390  35.630  28.619  1.00  0.00     0.055 A 
ATOM     66  C   UNL A   1      46.245  34.869  30.737  1.00  0.00     0.041 A 
ATOM     67  F   UNL A   1      45.907  32.647  31.398  1.00  0.00    -0.206 F 
ATOM     68  C   UNL A   1      46.099  35.885  29.797  1.00  0.00     0.022 A 
BRANCH  65  69
ATOM     69  S   UNL A   1      45.308  36.886  27.316  1.00  0.00     0.124 S 
ATOM     70  O   UNL A   1      43.905  36.815  26.916  1.00  0.00    -0.237 OA
ATOM     71  O   UNL A   1      45.707  38.098  28.024  1.00  0.00    -0.237 OA
ATOM     72  O   UNL A   1      46.263  36.408  26.318  1.00  0.00    -0.744 OA
ENDBRANCH  65  69
ENDBRANCH  39  62
ENDBRANCH  13  14
ENDBRANCH   6   8
ENDBRANCH   5   6
ENDBRANCH   4   5
ENDBRANCH   3   4
ENDBRANCH   2   3
ENDBRANCH   1   2
BRANCH   1  73
ATOM     73  C   UNL A   1      34.992  23.662  25.389  1.00  0.00     0.188 C 
BRANCH  73  74
ATOM     74  O   UNL A   1      34.254  23.451  24.193  1.00  0.00    -0.376 OA
BRANCH  74  75
ATOM     75  C   UNL A   1      34.759  24.176  23.073  1.00  0.00     0.202 C 
BRANCH  75  76
ATOM     76  C   UNL A   1      33.832  25.282  22.555  1.00  0.00     0.261 C 
BRANCH  76  77
ATOM     77  O   UNL A   1      33.078  26.016  23.546  1.00  0.00    -0.460 OA
BRANCH  77  78
ATOM     78  C   UNL A   1      33.179  27.360  23.549  1.00  0.00     0.340 C 
ATOM     79  O   UNL A   1      33.566  28.079  22.640  1.00  0.00    -0.246 OA
BRANCH  78  80
ATOM     80  C   UNL A   1      32.954  27.824  24.928  1.00  0.00     0.084 A 
ATOM     81  C   UNL A   1      34.100  28.345  25.545  1.00  0.00     0.033 A 
ATOM     82  C   UNL A   1      31.720  27.768  25.608  1.00  0.00     0.056 A 
ATOM     83  C   UNL A   1      34.038  28.772  26.861  1.00  0.00     0.018 A 
ATOM     84  C   UNL A   1      31.736  28.056  26.976  1.00  0.00     0.028 A 
ATOM     85  Br  UNL A   1      35.547  29.588  27.637  1.00  0.00    -0.051 Br
ATOM     86  C   UNL A   1      32.873  28.590  27.594  1.00  0.00     0.018 A 
BRANCH  82  87
ATOM     87  N   UNL A   1      30.538  27.457  24.903  1.00  0.00    -0.320 N 
ATOM     88  C   UNL A   1      29.911  26.277  24.542  1.00  0.00     0.265 C 
ATOM     89  H   UNL A   1      30.051  28.257  24.600  1.00  0.00     0.170 HD
ATOM     90  O   UNL A   1      28.941  26.394  23.787  1.00  0.00    -0.268 OA
BRANCH  88  91
ATOM     91  C   UNL A   1      30.319  24.999  25.090  1.00  0.00     0.093 A 
ATOM     92  C   UNL A   1      30.359  24.572  26.407  1.00  0.00     0.027 A 
ATOM     93  S   UNL A   1      30.782  23.740  24.018  1.00  0.00    -0.123 S 
ATOM     94  C   UNL A   1      30.909  23.260  26.535  1.00  0.00     0.028 A 
ATOM     95  C   UNL A   1      31.192  22.721  25.306  1.00  0.00     0.071 A 
ATOM     96  Br  UNL A   1      31.950  21.025  25.070  1.00  0.00    -0.039 Br
ENDBRANCH  88  91
ENDBRANCH  82  87
ENDBRANCH  78  80
ENDBRANCH  77  78
ENDBRANCH  76  77
ENDBRANCH  75  76
ENDBRANCH  74  75
ENDBRANCH  73  74
ENDBRANCH   1  73
TORSDOF 22
ENDMDL
MODEL 2
REMARK VINA RESULT:     -10.3      1.997      2.618
REMARK SMILES O=C(OCCOCCOCCOC(=O)c1cc(Br)ccc1NC(=O)c1ccc(Br)s1)c1ccc(-c2c3nc(c(-c4cc(S(=O)(=O)[O-])ccc4F)c4ccc([nH]4)c(-c4cc(S(=O)(=O)[O-])ccc4F)c4nc(c(-c5cc(S(=O)(=O)[O-])ccc5F)c5ccc2[nH]5)C=C4)C=C3)cc1
REMARK SMILES IDX 7 1 6 2 5 3 4 4 3 5 2 6 1 7 31 8 32 9 93 10 33 11 92 12
REMARK SMILES IDX 34 13 35 14 36 15 86 16 37 17 91 18 85 19 87 20 38 21 90 22
REMARK SMILES IDX 84 23 83 24 39 26 71 27 51 28 70 29 52 30 55 31 69 32 88 33
REMARK SMILES IDX 53 34 54 35 68 37 89 38 56 39 40 40 41 41 49 42 42 43 48 44
REMARK SMILES IDX 50 45 47 46 43 47 44 48 45 49 46 50 72 51 73 52 81 53 74 54
REMARK SMILES IDX 80 55 82 56 79 57 75 58 76 59 77 60 78 61 57 62 58 63 66 64
REMARK SMILES IDX 59 65 65 66 67 67 64 68 60 69 61 70 62 71 63 72 8 73 9 74
REMARK SMILES IDX 10 75 11 76 12 77 13 78 14 79 15 80 16 81 21 82 17 83 20 84
REMARK SMILES IDX 18 85 19 86 22 87 23 88 24 90 25 91 26 92 30 93 27 94 28 95
REMARK SMILES IDX 29 96
REMARK H PARENT 87 25 55 36 22 89
REMARK Flexibility Score: inf
ROOT
ATOM      1  C   UNL A   1      35.777  22.282  25.356  1.00  0.00     0.188 C 
ENDROOT
BRANCH   1   2
ATOM      2  O   UNL A   1      35.449  20.916  25.124  1.00  0.00    -0.376 OA
BRANCH   2   3
ATOM      3  C   UNL A   1      36.577  20.055  24.995  1.00  0.00     0.202 C 
BRANCH   3   4
ATOM      4  C   UNL A   1      37.931  20.785  24.987  1.00  0.00     0.261 C 
BRANCH   4   5
ATOM      5  O   UNL A   1      38.963  20.089  25.710  1.00  0.00    -0.460 OA
BRANCH   5   6
ATOM      6  C   UNL A   1      40.119  20.552  26.246  1.00  0.00     0.338 C 
ATOM      7  O   UNL A   1      41.072  19.773  26.288  1.00  0.00    -0.246 OA
BRANCH   6   8
ATOM      8  C   UNL A   1      40.319  21.924  26.835  1.00  0.00     0.060 A 
ATOM      9  C   UNL A   1      39.649  23.089  26.458  1.00  0.00     0.016 A 
ATOM     10  C   UNL A   1      41.276  22.039  27.864  1.00  0.00     0.016 A 
ATOM     11  C   UNL A   1      39.957  24.328  27.014  1.00  0.00     0.010 A 
ATOM     12  C   UNL A   1      41.591  23.279  28.437  1.00  0.00     0.010 A 
ATOM     13  C   UNL A   1      40.959  24.436  27.972  1.00  0.00    -0.014 A 
BRANCH  13  14
ATOM     14  C   UNL A   1      41.489  25.784  28.256  1.00  0.00     0.031 A 
ATOM     15  C   UNL A   1      42.873  26.100  27.766  1.00  0.00     0.074 A 
ATOM     16  C   UNL A   1      40.705  26.742  28.777  1.00  0.00     0.049 A 
ATOM     17  N   UNL A   1      43.552  27.212  27.853  1.00  0.00    -0.248 NA
ATOM     18  C   UNL A   1      43.569  25.020  27.047  1.00  0.00     0.031 C 
ATOM     19  C   UNL A   1      39.293  26.577  29.120  1.00  0.00     0.029 A 
ATOM     20  N   UNL A   1      40.974  28.048  29.088  1.00  0.00    -0.354 N 
ATOM     21  C   UNL A   1      44.748  26.971  27.187  1.00  0.00     0.074 A 
ATOM     22  C   UNL A   1      44.718  25.596  26.740  1.00  0.00     0.031 C 
ATOM     23  C   UNL A   1      38.831  27.732  29.628  1.00  0.00     0.029 A 
ATOM     24  C   UNL A   1      39.918  28.700  29.678  1.00  0.00     0.049 A 
ATOM     25  H   UNL A   1      41.840  28.478  28.907  1.00  0.00     0.167 HD
ATOM     26  C   UNL A   1      45.773  27.827  26.960  1.00  0.00     0.034 A 
ATOM     27  C   UNL A   1      39.852  29.929  30.223  1.00  0.00     0.034 A 
ATOM     28  C   UNL A   1      45.789  29.178  27.460  1.00  0.00     0.049 A 
ATOM     29  C   UNL A   1      41.071  30.809  30.127  1.00  0.00     0.074 A 
ATOM     30  C   UNL A   1      46.795  30.122  27.375  1.00  0.00     0.029 A 
ATOM     31  N   UNL A   1      44.744  29.770  28.161  1.00  0.00    -0.354 N 
ATOM     32  N   UNL A   1      42.224  30.555  29.552  1.00  0.00    -0.248 NA
ATOM     33  C   UNL A   1      40.975  32.140  30.734  1.00  0.00     0.031 C 
ATOM     34  C   UNL A   1      46.386  31.257  28.085  1.00  0.00     0.029 A 
ATOM     35  C   UNL A   1      45.094  31.054  28.545  1.00  0.00     0.049 A 
ATOM     36  H   UNL A   1      43.880  29.340  28.356  1.00  0.00     0.167 HD
ATOM     37  C   UNL A   1      42.983  31.710  29.698  1.00  0.00     0.074 A 
ATOM     38  C   UNL A   1      42.151  32.661  30.412  1.00  0.00     0.031 C 
ATOM     39  C   UNL A   1      44.246  31.971  29.272  1.00  0.00     0.034 A 
BRANCH  26  40
ATOM     40  C   UNL A   1      46.969  27.269  26.228  1.00  0.00     0.023 A 
ATOM     41  C   UNL A   1      48.070  26.726  26.915  1.00  0.00     0.031 A 
ATOM     42  C   UNL A   1      47.057  27.389  24.831  1.00  0.00     0.131 A 
ATOM     43  C   UNL A   1      49.246  26.413  26.213  1.00  0.00     0.055 A 
ATOM     44  C   UNL A   1      48.198  26.995  24.129  1.00  0.00     0.041 A 
ATOM     45  F   UNL A   1      46.050  27.929  24.126  1.00  0.00    -0.206 F 
ATOM     46  C   UNL A   1      49.308  26.522  24.822  1.00  0.00     0.022 A 
BRANCH  43  47
ATOM     47  S   UNL A   1      50.747  26.033  27.160  1.00  0.00     0.124 S 
ATOM     48  O   UNL A   1      51.507  27.273  27.021  1.00  0.00    -0.237 OA
ATOM     49  O   UNL A   1      50.220  25.754  28.490  1.00  0.00    -0.237 OA
ATOM     50  O   UNL A   1      51.313  24.882  26.459  1.00  0.00    -0.744 OA
ENDBRANCH  43  47
ENDBRANCH  26  40
BRANCH  27  51
ATOM     51  C   UNL A   1      38.639  30.371  30.968  1.00  0.00     0.023 A 
ATOM     52  C   UNL A   1      37.627  31.124  30.356  1.00  0.00     0.031 A 
ATOM     53  C   UNL A   1      38.516  30.092  32.343  1.00  0.00     0.131 A 
ATOM     54  C   UNL A   1      36.553  31.605  31.124  1.00  0.00     0.055 A 
ATOM     55  C   UNL A   1      37.431  30.549  33.095  1.00  0.00     0.041 A 
ATOM     56  F   UNL A   1      39.448  29.361  32.974  1.00  0.00    -0.206 F 
ATOM     57  C   UNL A   1      36.444  31.315  32.486  1.00  0.00     0.022 A 
BRANCH  54  58
ATOM     58  S   UNL A   1      35.323  32.679  30.331  1.00  0.00     0.124 S 
ATOM     59  O   UNL A   1      34.865  31.842  29.228  1.00  0.00    -0.237 OA
ATOM     60  O   UNL A   1      34.366  32.894  31.413  1.00  0.00    -0.237 OA
ATOM     61  O   UNL A   1      36.097  33.856  29.944  1.00  0.00    -0.744 OA
ENDBRANCH  54  58
ENDBRANCH  27  51
BRANCH  39  62
ATOM     62  C   UNL A   1      44.773  33.356  29.535  1.00  0.00     0.023 A 
ATOM     63  C   UNL A   1      45.433  33.678  30.732  1.00  0.00     0.031 A 
ATOM     64  C   UNL A   1      44.602  34.367  28.573  1.00  0.00     0.131 A 
ATOM     65  C   UNL A   1      45.850  34.998  30.961  1.00  0.00     0.055 A 
ATOM     66  C   UNL A   1      45.076  35.662  28.781  1.00  0.00     0.041 A 
ATOM     67  F   UNL A   1      43.974  34.110  27.415  1.00  0.00    -0.206 F 
ATOM     68  C   UNL A   1      45.693  35.987  29.986  1.00  0.00     0.022 A 
BRANCH  65  69
ATOM     69  S   UNL A   1      46.518  35.424  32.591  1.00  0.00     0.124 S 
ATOM     70  O   UNL A   1      47.134  34.167  33.004  1.00  0.00    -0.237 OA
ATOM     71  O   UNL A   1      47.441  36.511  32.276  1.00  0.00    -0.237 OA
ATOM     72  O   UNL A   1      45.336  35.817  33.354  1.00  0.00    -0.744 OA
ENDBRANCH  65  69
ENDBRANCH  39  62
ENDBRANCH  13  14
ENDBRANCH   6   8
ENDBRANCH   5   6
ENDBRANCH   4   5
ENDBRANCH   3   4
ENDBRANCH   2   3
ENDBRANCH   1   2
BRANCH   1  73
ATOM     73  C   UNL A   1      34.676  23.282  25.001  1.00  0.00     0.188 C 
BRANCH  73  74
ATOM     74  O   UNL A   1      33.588  22.693  24.301  1.00  0.00    -0.376 OA
BRANCH  74  75
ATOM     75  C   UNL A   1      33.575  22.992  22.906  1.00  0.00     0.202 C 
BRANCH  75  76
ATOM     76  C   UNL A   1      32.474  23.967  22.471  1.00  0.00     0.261 C 
BRANCH  76  77
ATOM     77  O   UNL A   1      32.066  24.960  23.437  1.00  0.00    -0.460 OA
BRANCH  77  78
ATOM     78  C   UNL A   1      32.642  26.177  23.375  1.00  0.00     0.340 C 
ATOM     79  O   UNL A   1      33.398  26.600  22.512  1.00  0.00    -0.246 OA
BRANCH  78  80
ATOM     80  C   UNL A   1      32.391  26.859  24.655  1.00  0.00     0.084 A 
ATOM     81  C   UNL A   1      33.503  27.545  25.161  1.00  0.00     0.033 A 
ATOM     82  C   UNL A   1      31.162  26.849  25.347  1.00  0.00     0.056 A 
ATOM     83  C   UNL A   1      33.416  28.189  26.384  1.00  0.00     0.018 A 
ATOM     84  C   UNL A   1      31.161  27.370  26.645  1.00  0.00     0.028 A 
ATOM     85  Br  UNL A   1      34.874  29.214  26.992  1.00  0.00    -0.051 Br
ATOM     86  C   UNL A   1      32.264  28.069  27.150  1.00  0.00     0.018 A 
BRANCH  82  87
ATOM     87  N   UNL A   1      30.000  26.352  24.719  1.00  0.00    -0.320 N 
ATOM     88  C   UNL A   1      29.079  26.884  23.833  1.00  0.00     0.265 C 
ATOM     89  H   UNL A   1      29.800  25.420  24.966  1.00  0.00     0.170 HD
ATOM     90  O   UNL A   1      28.089  26.184  23.605  1.00  0.00    -0.268 OA
BRANCH  88  91
ATOM     91  C   UNL A   1      29.314  28.142  23.153  1.00  0.00     0.093 A 
ATOM     92  C   UNL A   1      30.422  28.570  22.440  1.00  0.00     0.027 A 
ATOM     93  S   UNL A   1      28.065  29.320  23.121  1.00  0.00    -0.123 S 
ATOM     94  C   UNL A   1      30.291  29.922  21.996  1.00  0.00     0.028 A 
ATOM     95  C   UNL A   1      29.062  30.433  22.326  1.00  0.00     0.071 A 
ATOM     96  Br  UNL A   1      28.532  32.186  21.933  1.00  0.00    -0.039 Br
ENDBRANCH  88  91
ENDBRANCH  82  87
ENDBRANCH  78  80
ENDBRANCH  77  78
ENDBRANCH  76  77
ENDBRANCH  75  76
ENDBRANCH  74  75
ENDBRANCH  73  74
ENDBRANCH   1  73
TORSDOF 22
ENDMDL
MODEL 3
REMARK VINA RESULT:     -10.2      2.036      7.773
REMARK SMILES O=C(OCCOCCOCCOC(=O)c1cc(Br)ccc1NC(=O)c1ccc(Br)s1)c1ccc(-c2c3nc(c(-c4cc(S(=O)(=O)[O-])ccc4F)c4ccc([nH]4)c(-c4cc(S(=O)(=O)[O-])ccc4F)c4nc(c(-c5cc(S(=O)(=O)[O-])ccc5F)c5ccc2[nH]5)C=C4)C=C3)cc1
REMARK SMILES IDX 7 1 6 2 5 3 4 4 3 5 2 6 1 7 31 8 32 9 93 10 33 11 92 12
REMARK SMILES IDX 34 13 35 14 36 15 86 16 37 17 91 18 85 19 87 20 38 21 90 22
REMARK SMILES IDX 84 23 83 24 39 26 71 27 51 28 70 29 52 30 55 31 69 32 88 33
REMARK SMILES IDX 53 34 54 35 68 37 89 38 56 39 40 40 41 41 49 42 42 43 48 44
REMARK SMILES IDX 50 45 47 46 43 47 44 48 45 49 46 50 72 51 73 52 81 53 74 54
REMARK SMILES IDX 80 55 82 56 79 57 75 58 76 59 77 60 78 61 57 62 58 63 66 64
REMARK SMILES IDX 59 65 65 66 67 67 64 68 60 69 61 70 62 71 63 72 8 73 9 74
REMARK SMILES IDX 10 75 11 76 12 77 13 78 14 79 15 80 16 81 21 82 17 83 20 84
REMARK SMILES IDX 18 85 19 86 22 87 23 88 24 90 25 91 26 92 30 93 27 94 28 95
REMARK SMILES IDX 29 96
REMARK H PARENT 87 25 55 36 22 89
REMARK Flexibility Score: inf
ROOT
ATOM      1  C   UNL A   1      35.899  21.565  25.614  1.00  0.00     0.188 C 
ENDROOT
BRANCH   1   2
ATOM      2  O   UNL A   1      36.029  20.290  24.993  1.00  0.00    -0.376 OA
BRANCH   2   3
ATOM      3  C   UNL A   1      37.374  19.853  24.823  1.00  0.00     0.202 C 
BRANCH   3   4
ATOM      4  C   UNL A   1      38.425  20.799  25.429  1.00  0.00     0.261 C 
BRANCH   4   5
ATOM      5  O   UNL A   1      39.501  20.111  26.094  1.00  0.00    -0.460 OA
BRANCH   5   6
ATOM      6  C   UNL A   1      40.607  20.602  26.707  1.00  0.00     0.338 C 
ATOM      7  O   UNL A   1      41.463  19.789  27.059  1.00  0.00    -0.246 OA
BRANCH   6   8
ATOM      8  C   UNL A   1      40.851  22.051  27.033  1.00  0.00     0.060 A 
ATOM      9  C   UNL A   1      40.484  23.147  26.249  1.00  0.00     0.016 A 
ATOM     10  C   UNL A   1      41.516  22.325  28.246  1.00  0.00     0.016 A 
ATOM     11  C   UNL A   1      40.820  24.450  26.603  1.00  0.00     0.010 A 
ATOM     12  C   UNL A   1      41.855  23.633  28.618  1.00  0.00     0.010 A 
ATOM     13  C   UNL A   1      41.546  24.697  27.764  1.00  0.00    -0.014 A 
BRANCH  13  14
ATOM     14  C   UNL A   1      42.181  26.022  27.904  1.00  0.00     0.031 A 
ATOM     15  C   UNL A   1      41.414  27.082  28.640  1.00  0.00     0.074 A 
ATOM     16  C   UNL A   1      43.459  26.220  27.540  1.00  0.00     0.049 A 
ATOM     17  N   UNL A   1      41.757  28.308  28.929  1.00  0.00    -0.248 NA
ATOM     18  C   UNL A   1      40.090  26.688  29.151  1.00  0.00     0.031 C 
ATOM     19  C   UNL A   1      44.340  25.199  26.978  1.00  0.00     0.029 A 
ATOM     20  N   UNL A   1      44.244  27.339  27.607  1.00  0.00    -0.354 N 
ATOM     21  C   UNL A   1      40.701  28.826  29.669  1.00  0.00     0.074 A 
ATOM     22  C   UNL A   1      39.688  27.797  29.746  1.00  0.00     0.031 C 
ATOM     23  C   UNL A   1      45.538  25.750  26.720  1.00  0.00     0.029 A 
ATOM     24  C   UNL A   1      45.494  27.165  27.063  1.00  0.00     0.049 A 
ATOM     25  H   UNL A   1      43.943  28.187  28.006  1.00  0.00     0.167 HD
ATOM     26  C   UNL A   1      40.594  30.049  30.241  1.00  0.00     0.034 A 
ATOM     27  C   UNL A   1      46.477  28.059  26.841  1.00  0.00     0.034 A 
ATOM     28  C   UNL A   1      41.603  31.068  30.104  1.00  0.00     0.049 A 
ATOM     29  C   UNL A   1      46.266  29.471  27.321  1.00  0.00     0.074 A 
ATOM     30  C   UNL A   1      41.586  32.373  30.560  1.00  0.00     0.029 A 
ATOM     31  N   UNL A   1      42.813  30.893  29.440  1.00  0.00    -0.354 N 
ATOM     32  N   UNL A   1      45.238  29.976  27.964  1.00  0.00    -0.248 NA
ATOM     33  C   UNL A   1      47.348  30.426  27.062  1.00  0.00     0.031 C 
ATOM     34  C   UNL A   1      42.751  33.005  30.110  1.00  0.00     0.029 A 
ATOM     35  C   UNL A   1      43.534  32.075  29.443  1.00  0.00     0.049 A 
ATOM     36  H   UNL A   1      43.113  30.051  29.028  1.00  0.00     0.167 HD
ATOM     37  C   UNL A   1      45.564  31.302  28.218  1.00  0.00     0.074 A 
ATOM     38  C   UNL A   1      46.887  31.515  27.661  1.00  0.00     0.031 C 
ATOM     39  C   UNL A   1      44.845  32.258  28.863  1.00  0.00     0.034 A 
BRANCH  26  40
ATOM     40  C   UNL A   1      39.303  30.346  30.963  1.00  0.00     0.023 A 
ATOM     41  C   UNL A   1      38.271  31.088  30.361  1.00  0.00     0.031 A 
ATOM     42  C   UNL A   1      39.152  29.980  32.312  1.00  0.00     0.131 A 
ATOM     43  C   UNL A   1      37.180  31.521  31.132  1.00  0.00     0.055 A 
ATOM     44  C   UNL A   1      38.023  30.342  33.050  1.00  0.00     0.041 A 
ATOM     45  F   UNL A   1      40.118  29.299  32.948  1.00  0.00    -0.206 F 
ATOM     46  C   UNL A   1      37.038  31.133  32.466  1.00  0.00     0.022 A 
BRANCH  43  47
ATOM     47  S   UNL A   1      36.044  32.744  30.419  1.00  0.00     0.124 S 
ATOM     48  O   UNL A   1      36.378  33.942  31.187  1.00  0.00    -0.237 OA
ATOM     49  O   UNL A   1      36.434  32.758  29.015  1.00  0.00    -0.237 OA
ATOM     50  O   UNL A   1      34.721  32.186  30.694  1.00  0.00    -0.744 OA
ENDBRANCH  43  47
ENDBRANCH  26  40
BRANCH  27  51
ATOM     51  C   UNL A   1      47.697  27.679  26.075  1.00  0.00     0.023 A 
ATOM     52  C   UNL A   1      47.774  27.829  24.682  1.00  0.00     0.031 A 
ATOM     53  C   UNL A   1      48.791  27.091  26.737  1.00  0.00     0.131 A 
ATOM     54  C   UNL A   1      48.905  27.362  23.991  1.00  0.00     0.055 A 
ATOM     55  C   UNL A   1      49.924  26.654  26.048  1.00  0.00     0.041 A 
ATOM     56  F   UNL A   1      48.776  26.939  28.071  1.00  0.00    -0.206 F 
ATOM     57  C   UNL A   1      49.983  26.784  24.665  1.00  0.00     0.022 A 
BRANCH  54  58
ATOM     58  S   UNL A   1      48.923  27.458  22.178  1.00  0.00     0.124 S 
ATOM     59  O   UNL A   1      50.281  27.923  21.919  1.00  0.00    -0.237 OA
ATOM     60  O   UNL A   1      48.632  26.079  21.799  1.00  0.00    -0.237 OA
ATOM     61  O   UNL A   1      47.865  28.420  21.877  1.00  0.00    -0.744 OA
ENDBRANCH  54  58
ENDBRANCH  27  51
BRANCH  39  62
ATOM     62  C   UNL A   1      45.507  33.599  29.032  1.00  0.00     0.023 A 
ATOM     63  C   UNL A   1      45.256  34.661  28.147  1.00  0.00     0.031 A 
ATOM     64  C   UNL A   1      46.408  33.810  30.090  1.00  0.00     0.131 A 
ATOM     65  C   UNL A   1      45.944  35.873  28.305  1.00  0.00     0.055 A 
ATOM     66  C   UNL A   1      47.041  35.038  30.278  1.00  0.00     0.041 A 
ATOM     67  F   UNL A   1      46.684  32.825  30.959  1.00  0.00    -0.206 F 
ATOM     68  C   UNL A   1      46.820  36.074  29.376  1.00  0.00     0.022 A 
BRANCH  65  69
ATOM     69  S   UNL A   1      45.748  37.152  27.036  1.00  0.00     0.124 S 
ATOM     70  O   UNL A   1      46.270  38.334  27.715  1.00  0.00    -0.237 OA
ATOM     71  O   UNL A   1      46.563  36.635  25.941  1.00  0.00    -0.237 OA
ATOM     72  O   UNL A   1      44.308  37.166  26.783  1.00  0.00    -0.744 OA
ENDBRANCH  65  69
ENDBRANCH  39  62
ENDBRANCH  13  14
ENDBRANCH   6   8
ENDBRANCH   5   6
ENDBRANCH   4   5
ENDBRANCH   3   4
ENDBRANCH   2   3
ENDBRANCH   1   2
BRANCH   1  73
ATOM     73  C   UNL A   1      35.000  22.557  24.877  1.00  0.00     0.188 C 
BRANCH  73  74
ATOM     74  O   UNL A   1      33.618  22.235  24.965  1.00  0.00    -0.376 OA
BRANCH  74  75
ATOM     75  C   UNL A   1      32.941  22.271  23.710  1.00  0.00     0.202 C 
BRANCH  75  76
ATOM     76  C   UNL A   1      32.536  23.674  23.241  1.00  0.00     0.261 C 
BRANCH  76  77
ATOM     77  O   UNL A   1      32.425  24.693  24.260  1.00  0.00    -0.460 OA
BRANCH  77  78
ATOM     78  C   UNL A   1      32.970  25.901  24.008  1.00  0.00     0.340 C 
ATOM     79  O   UNL A   1      33.787  26.183  23.144  1.00  0.00    -0.246 OA
BRANCH  78  80
ATOM     80  C   UNL A   1      32.586  26.804  25.105  1.00  0.00     0.084 A 
ATOM     81  C   UNL A   1      33.647  27.569  25.608  1.00  0.00     0.033 A 
ATOM     82  C   UNL A   1      31.284  26.920  25.636  1.00  0.00     0.056 A 
ATOM     83  C   UNL A   1      33.431  28.424  26.676  1.00  0.00     0.018 A 
ATOM     84  C   UNL A   1      31.143  27.668  26.810  1.00  0.00     0.028 A 
ATOM     85  Br  UNL A   1      34.831  29.541  27.259  1.00  0.00    -0.051 Br
ATOM     86  C   UNL A   1      32.195  28.446  27.308  1.00  0.00     0.018 A 
BRANCH  82  87
ATOM     87  N   UNL A   1      30.193  26.319  24.974  1.00  0.00    -0.320 N 
ATOM     88  C   UNL A   1      29.302  26.741  24.003  1.00  0.00     0.265 C 
ATOM     89  H   UNL A   1      30.029  25.394  25.269  1.00  0.00     0.170 HD
ATOM     90  O   UNL A   1      28.367  25.971  23.762  1.00  0.00    -0.268 OA
BRANCH  88  91
ATOM     91  C   UNL A   1      29.510  27.966  23.258  1.00  0.00     0.093 A 
ATOM     92  C   UNL A   1      30.635  28.413  22.584  1.00  0.00     0.027 A 
ATOM     93  S   UNL A   1      28.204  29.066  23.078  1.00  0.00    -0.123 S 
ATOM     94  C   UNL A   1      30.459  29.725  22.047  1.00  0.00     0.028 A 
ATOM     95  C   UNL A   1      29.186  30.184  22.272  1.00  0.00     0.071 A 
ATOM     96  Br  UNL A   1      28.587  31.876  21.736  1.00  0.00    -0.039 Br
ENDBRANCH  88  91
ENDBRANCH  82  87
ENDBRANCH  78  80
ENDBRANCH  77  78
ENDBRANCH  76  77
ENDBRANCH  75  76
ENDBRANCH  74  75
ENDBRANCH  73  74
ENDBRANCH   1  73
TORSDOF 22
ENDMDL
