MODEL 1
REMARK VINA RESULT:     -11.3      0.000      0.000
REMARK SMILES C[C@H]1[C@@H](C(=O)OCCOCCOCCOC(=O)c2ccc(-c3c4nc(c(-c5cc(S(=O)(=O)[O-])ccc5F)c5ccc([nH]5)c(-c5cc(S(=O)(=O)[O-])ccc5F)c5nc(c(-c6cc(S(=O)(=O)[O-])ccc6F)c6ccc3[nH]6)C=C5)C=C4)cc2)CCN1C(=O)c1cc2cc(F)ccc2s1
REMARK SMILES IDX 11 1 10 2 9 3 8 4 7 5 6 6 4 7 5 8 3 9 1 10 2 11 83 12 81 13
REMARK SMILES IDX 82 14 84 15 85 16 86 17 87 18 95 19 88 20 94 21 89 22 93 23
REMARK SMILES IDX 90 24 92 25 91 26 12 27 13 28 14 29 15 30 16 31 17 32 18 33
REMARK SMILES IDX 19 34 80 35 20 36 79 37 21 38 22 39 23 40 73 41 24 42 78 43
REMARK SMILES IDX 72 44 74 45 25 46 77 47 71 48 70 49 26 51 58 52 38 53 57 54
REMARK SMILES IDX 39 55 42 56 56 57 75 58 40 59 41 60 55 62 76 63 43 64 27 65
REMARK SMILES IDX 28 66 36 67 29 68 35 69 37 70 34 71 30 72 31 73 32 74 33 75
REMARK SMILES IDX 59 76 60 77 68 78 61 79 67 80 69 81 66 82 62 83 63 84 64 85
REMARK SMILES IDX 65 86 44 87 45 88 53 89 46 90 52 91 54 92 51 93 47 94 48 95
REMARK SMILES IDX 49 96 50 97
REMARK H PARENT 74 50 42 61
REMARK Flexibility Score: inf
ROOT
ATOM      1  C   UNL A   1      36.901  21.818  25.366  1.00  0.00     0.188 C 
ENDROOT
BRANCH   1   2
ATOM      2  C   UNL A   1      35.371  21.671  25.256  1.00  0.00     0.188 C 
BRANCH   2   3
ATOM      3  O   UNL A   1      34.746  20.480  25.696  1.00  0.00    -0.376 OA
BRANCH   3   4
ATOM      4  C   UNL A   1      34.369  19.505  24.734  1.00  0.00     0.202 C 
BRANCH   4   5
ATOM      5  C   UNL A   1      32.885  19.185  24.551  1.00  0.00     0.261 C 
BRANCH   5   6
ATOM      6  O   UNL A   1      32.019  20.162  25.165  1.00  0.00    -0.463 OA
BRANCH   6   7
ATOM      7  C   UNL A   1      31.811  21.292  24.452  1.00  0.00     0.311 C 
ATOM      8  O   UNL A   1      31.994  21.374  23.240  1.00  0.00    -0.252 OA
BRANCH   7   9
ATOM      9  C   UNL A   1      31.230  22.464  25.225  1.00  0.00     0.123 C 
ATOM     10  C   UNL A   1      31.110  24.054  23.134  1.00  0.00     0.032 C 
ATOM     11  C   UNL A   1      30.923  23.857  24.630  1.00  0.00     0.096 C 
ATOM     12  N   UNL A   1      31.620  24.814  25.497  1.00  0.00    -0.334 N 
ATOM     13  C   UNL A   1      32.060  22.695  26.493  1.00  0.00     0.039 C 
ATOM     14  C   UNL A   1      32.349  24.172  26.567  1.00  0.00     0.121 C 
BRANCH  12  15
ATOM     15  C   UNL A   1      31.346  26.163  25.671  1.00  0.00     0.264 C 
ATOM     16  O   UNL A   1      30.675  26.537  26.636  1.00  0.00    -0.268 OA
BRANCH  15  17
ATOM     17  C   UNL A   1      31.928  27.155  24.789  1.00  0.00     0.093 A 
ATOM     18  C   UNL A   1      31.294  28.309  24.351  1.00  0.00     0.034 A 
ATOM     19  S   UNL A   1      33.583  27.562  25.089  1.00  0.00    -0.130 S 
ATOM     20  C   UNL A   1      31.795  29.400  25.165  1.00  0.00    -0.004 A 
ATOM     21  C   UNL A   1      33.036  29.078  25.731  1.00  0.00     0.035 A 
ATOM     22  C   UNL A   1      31.175  30.610  25.556  1.00  0.00     0.048 A 
ATOM     23  C   UNL A   1      33.658  29.892  26.694  1.00  0.00     0.022 A 
ATOM     24  C   UNL A   1      31.759  31.377  26.562  1.00  0.00     0.123 A 
ATOM     25  C   UNL A   1      32.970  31.026  27.137  1.00  0.00     0.041 A 
ATOM     26  F   UNL A   1      31.110  32.461  27.011  1.00  0.00    -0.207 F 
ENDBRANCH  15  17
ENDBRANCH  12  15
ENDBRANCH   7   9
ENDBRANCH   6   7
ENDBRANCH   5   6
ENDBRANCH   4   5
ENDBRANCH   3   4
ENDBRANCH   2   3
ENDBRANCH   1   2
BRANCH   1  27
ATOM     27  O   UNL A   1      37.782  21.014  24.610  1.00  0.00    -0.376 OA
BRANCH  27  28
ATOM     28  C   UNL A   1      37.985  19.657  24.958  1.00  0.00     0.202 C 
BRANCH  28  29
ATOM     29  C   UNL A   1      39.208  19.203  25.761  1.00  0.00     0.261 C 
BRANCH  29  30
ATOM     30  O   UNL A   1      40.285  20.141  25.835  1.00  0.00    -0.460 OA
BRANCH  30  31
ATOM     31  C   UNL A   1      40.796  20.332  27.077  1.00  0.00     0.338 C 
ATOM     32  O   UNL A   1      41.225  19.478  27.838  1.00  0.00    -0.246 OA
BRANCH  31  33
ATOM     33  C   UNL A   1      40.923  21.778  27.317  1.00  0.00     0.060 A 
ATOM     34  C   UNL A   1      40.164  22.671  26.547  1.00  0.00     0.016 A 
ATOM     35  C   UNL A   1      41.816  22.246  28.279  1.00  0.00     0.016 A 
ATOM     36  C   UNL A   1      40.295  24.046  26.740  1.00  0.00     0.010 A 
ATOM     37  C   UNL A   1      41.969  23.621  28.448  1.00  0.00     0.010 A 
ATOM     38  C   UNL A   1      41.225  24.527  27.668  1.00  0.00    -0.014 A 
BRANCH  38  39
ATOM     39  C   UNL A   1      41.589  25.963  27.713  1.00  0.00     0.031 A 
ATOM     40  C   UNL A   1      42.896  26.373  27.099  1.00  0.00     0.074 A 
ATOM     41  C   UNL A   1      40.811  26.865  28.336  1.00  0.00     0.049 A 
ATOM     42  N   UNL A   1      43.559  27.490  27.223  1.00  0.00    -0.248 NA
ATOM     43  C   UNL A   1      43.547  25.371  26.240  1.00  0.00     0.031 C 
ATOM     44  C   UNL A   1      39.486  26.600  28.889  1.00  0.00     0.029 A 
ATOM     45  N   UNL A   1      41.045  28.185  28.631  1.00  0.00    -0.354 N 
ATOM     46  C   UNL A   1      44.723  27.319  26.483  1.00  0.00     0.074 A 
ATOM     47  C   UNL A   1      44.679  25.982  25.928  1.00  0.00     0.031 C 
ATOM     48  C   UNL A   1      39.035  27.718  29.487  1.00  0.00     0.029 A 
ATOM     49  C   UNL A   1      40.068  28.751  29.418  1.00  0.00     0.049 A 
ATOM     50  H   UNL A   1      41.835  28.679  28.311  1.00  0.00     0.167 HD
ATOM     51  C   UNL A   1      45.738  28.197  26.294  1.00  0.00     0.034 A 
ATOM     52  C   UNL A   1      40.042  29.940  30.056  1.00  0.00     0.034 A 
ATOM     53  C   UNL A   1      45.760  29.517  26.872  1.00  0.00     0.049 A 
ATOM     54  C   UNL A   1      41.236  30.863  29.930  1.00  0.00     0.074 A 
ATOM     55  C   UNL A   1      46.735  30.492  26.755  1.00  0.00     0.029 A 
ATOM     56  N   UNL A   1      44.768  30.044  27.689  1.00  0.00    -0.354 N 
ATOM     57  N   UNL A   1      42.353  30.684  29.262  1.00  0.00    -0.248 NA
ATOM     58  C   UNL A   1      41.170  32.144  30.650  1.00  0.00     0.031 C 
ATOM     59  C   UNL A   1      46.372  31.573  27.564  1.00  0.00     0.029 A 
ATOM     60  C   UNL A   1      45.122  31.315  28.108  1.00  0.00     0.049 A 
ATOM     61  H   UNL A   1      43.933  29.581  27.933  1.00  0.00     0.167 HD
ATOM     62  C   UNL A   1      43.097  31.849  29.442  1.00  0.00     0.074 A 
ATOM     63  C   UNL A   1      42.309  32.719  30.289  1.00  0.00     0.031 C 
ATOM     64  C   UNL A   1      44.316  32.175  28.943  1.00  0.00     0.034 A 
BRANCH  51  65
ATOM     65  C   UNL A   1      46.927  27.726  25.495  1.00  0.00     0.023 A 
ATOM     66  C   UNL A   1      47.120  28.101  24.156  1.00  0.00     0.031 A 
ATOM     67  C   UNL A   1      47.864  26.852  26.077  1.00  0.00     0.131 A 
ATOM     68  C   UNL A   1      48.182  27.551  23.421  1.00  0.00     0.055 A 
ATOM     69  C   UNL A   1      48.966  26.376  25.366  1.00  0.00     0.041 A 
ATOM     70  F   UNL A   1      47.715  26.434  27.344  1.00  0.00    -0.206 F 
ATOM     71  C   UNL A   1      49.122  26.712  24.025  1.00  0.00     0.022 A 
BRANCH  68  72
ATOM     72  S   UNL A   1      48.227  27.822  21.629  1.00  0.00     0.124 S 
ATOM     73  O   UNL A   1      49.279  28.829  21.510  1.00  0.00    -0.237 OA
ATOM     74  O   UNL A   1      48.550  26.496  21.118  1.00  0.00    -0.237 OA
ATOM     75  O   UNL A   1      46.880  28.299  21.321  1.00  0.00    -0.744 OA
ENDBRANCH  68  72
ENDBRANCH  51  65
BRANCH  52  76
ATOM     76  C   UNL A   1      38.887  30.311  30.924  1.00  0.00     0.023 A 
ATOM     77  C   UNL A   1      37.814  31.065  30.423  1.00  0.00     0.031 A 
ATOM     78  C   UNL A   1      38.864  29.966  32.289  1.00  0.00     0.131 A 
ATOM     79  C   UNL A   1      36.793  31.492  31.286  1.00  0.00     0.055 A 
ATOM     80  C   UNL A   1      37.815  30.340  33.130  1.00  0.00     0.041 A 
ATOM     81  F   UNL A   1      39.868  29.254  32.826  1.00  0.00    -0.206 F 
ATOM     82  C   UNL A   1      36.777  31.120  32.633  1.00  0.00     0.022 A 
BRANCH  79  83
ATOM     83  S   UNL A   1      35.534  32.630  30.645  1.00  0.00     0.124 S 
ATOM     84  O   UNL A   1      34.452  32.442  31.604  1.00  0.00    -0.237 OA
ATOM     85  O   UNL A   1      36.227  33.913  30.701  1.00  0.00    -0.237 OA
ATOM     86  O   UNL A   1      35.272  32.123  29.300  1.00  0.00    -0.744 OA
ENDBRANCH  79  83
ENDBRANCH  52  76
BRANCH  64  87
ATOM     87  C   UNL A   1      44.841  33.564  29.215  1.00  0.00     0.023 A 
ATOM     88  C   UNL A   1      44.509  34.667  28.410  1.00  0.00     0.031 A 
ATOM     89  C   UNL A   1      45.649  33.788  30.347  1.00  0.00     0.131 A 
ATOM     90  C   UNL A   1      45.006  35.940  28.735  1.00  0.00     0.055 A 
ATOM     91  C   UNL A   1      46.091  35.064  30.695  1.00  0.00     0.041 A 
ATOM     92  F   UNL A   1      45.997  32.769  31.149  1.00  0.00    -0.206 F 
ATOM     93  C   UNL A   1      45.775  36.148  29.884  1.00  0.00     0.022 A 
BRANCH  90  94
ATOM     94  S   UNL A   1      44.674  37.325  27.610  1.00  0.00     0.124 S 
ATOM     95  O   UNL A   1      45.934  37.431  26.881  1.00  0.00    -0.237 OA
ATOM     96  O   UNL A   1      43.532  36.839  26.842  1.00  0.00    -0.237 OA
ATOM     97  O   UNL A   1      44.384  38.438  28.511  1.00  0.00    -0.744 OA
ENDBRANCH  90  94
ENDBRANCH  64  87
ENDBRANCH  38  39
ENDBRANCH  31  33
ENDBRANCH  30  31
ENDBRANCH  29  30
ENDBRANCH  28  29
ENDBRANCH  27  28
ENDBRANCH   1  27
TORSDOF 22
ENDMDL
MODEL 2
REMARK VINA RESULT:     -11.0      4.674      8.833
REMARK SMILES C[C@H]1[C@@H](C(=O)OCCOCCOCCOC(=O)c2ccc(-c3c4nc(c(-c5cc(S(=O)(=O)[O-])ccc5F)c5ccc([nH]5)c(-c5cc(S(=O)(=O)[O-])ccc5F)c5nc(c(-c6cc(S(=O)(=O)[O-])ccc6F)c6ccc3[nH]6)C=C5)C=C4)cc2)CCN1C(=O)c1cc2cc(F)ccc2s1
REMARK SMILES IDX 11 1 10 2 9 3 8 4 7 5 6 6 4 7 5 8 3 9 1 10 2 11 83 12 81 13
REMARK SMILES IDX 82 14 84 15 85 16 86 17 87 18 95 19 88 20 94 21 89 22 93 23
REMARK SMILES IDX 90 24 92 25 91 26 12 27 13 28 14 29 15 30 16 31 17 32 18 33
REMARK SMILES IDX 19 34 80 35 20 36 79 37 21 38 22 39 23 40 73 41 24 42 78 43
REMARK SMILES IDX 72 44 74 45 25 46 77 47 71 48 70 49 26 51 58 52 38 53 57 54
REMARK SMILES IDX 39 55 42 56 56 57 75 58 40 59 41 60 55 62 76 63 43 64 27 65
REMARK SMILES IDX 28 66 36 67 29 68 35 69 37 70 34 71 30 72 31 73 32 74 33 75
REMARK SMILES IDX 59 76 60 77 68 78 61 79 67 80 69 81 66 82 62 83 63 84 64 85
REMARK SMILES IDX 65 86 44 87 45 88 53 89 46 90 52 91 54 92 51 93 47 94 48 95
REMARK SMILES IDX 49 96 50 97
REMARK H PARENT 74 50 42 61
REMARK Flexibility Score: inf
ROOT
ATOM      1  C   UNL A   1      42.107  20.838  26.440  1.00  0.00     0.188 C 
ENDROOT
BRANCH   1   2
ATOM      2  C   UNL A   1      40.610  20.529  26.245  1.00  0.00     0.188 C 
BRANCH   2   3
ATOM      3  O   UNL A   1      39.635  21.385  26.811  1.00  0.00    -0.376 OA
BRANCH   3   4
ATOM      4  C   UNL A   1      38.961  22.310  25.971  1.00  0.00     0.202 C 
BRANCH   4   5
ATOM      5  C   UNL A   1      37.529  22.000  25.532  1.00  0.00     0.261 C 
BRANCH   5   6
ATOM      6  O   UNL A   1      36.561  22.915  26.087  1.00  0.00    -0.463 OA
BRANCH   6   7
ATOM      7  C   UNL A   1      35.290  22.459  26.149  1.00  0.00     0.311 C 
ATOM      8  O   UNL A   1      34.979  21.378  26.643  1.00  0.00    -0.252 OA
BRANCH   7   9
ATOM      9  C   UNL A   1      34.219  23.415  25.651  1.00  0.00     0.123 C 
ATOM     10  C   UNL A   1      33.540  21.916  23.600  1.00  0.00     0.032 C 
ATOM     11  C   UNL A   1      33.374  23.216  24.373  1.00  0.00     0.096 C 
ATOM     12  N   UNL A   1      33.542  24.450  23.598  1.00  0.00    -0.334 N 
ATOM     13  C   UNL A   1      34.797  24.833  25.586  1.00  0.00     0.039 C 
ATOM     14  C   UNL A   1      34.416  25.402  24.244  1.00  0.00     0.121 C 
BRANCH  12  15
ATOM     15  C   UNL A   1      32.703  24.962  22.618  1.00  0.00     0.264 C 
ATOM     16  O   UNL A   1      33.037  24.910  21.431  1.00  0.00    -0.268 OA
BRANCH  15  17
ATOM     17  C   UNL A   1      31.388  25.466  22.960  1.00  0.00     0.093 A 
ATOM     18  C   UNL A   1      30.746  25.273  24.175  1.00  0.00     0.034 A 
ATOM     19  S   UNL A   1      31.034  27.079  22.445  1.00  0.00    -0.130 S 
ATOM     20  C   UNL A   1      30.915  26.494  24.940  1.00  0.00    -0.004 A 
ATOM     21  C   UNL A   1      31.186  27.582  24.098  1.00  0.00     0.035 A 
ATOM     22  C   UNL A   1      30.981  26.697  26.338  1.00  0.00     0.048 A 
ATOM     23  C   UNL A   1      31.557  28.843  24.596  1.00  0.00     0.022 A 
ATOM     24  C   UNL A   1      31.417  27.928  26.826  1.00  0.00     0.123 A 
ATOM     25  C   UNL A   1      31.715  28.982  25.978  1.00  0.00     0.041 A 
ATOM     26  F   UNL A   1      31.589  28.078  28.146  1.00  0.00    -0.207 F 
ENDBRANCH  15  17
ENDBRANCH  12  15
ENDBRANCH   7   9
ENDBRANCH   6   7
ENDBRANCH   5   6
ENDBRANCH   4   5
ENDBRANCH   3   4
ENDBRANCH   2   3
ENDBRANCH   1   2
BRANCH   1  27
ATOM     27  O   UNL A   1      43.038  20.704  25.388  1.00  0.00    -0.376 OA
BRANCH  27  28
ATOM     28  C   UNL A   1      44.115  21.615  25.269  1.00  0.00     0.202 C 
BRANCH  28  29
ATOM     29  C   UNL A   1      44.059  22.813  24.316  1.00  0.00     0.261 C 
BRANCH  29  30
ATOM     30  O   UNL A   1      43.313  23.941  24.782  1.00  0.00    -0.460 OA
BRANCH  30  31
ATOM     31  C   UNL A   1      44.062  24.992  25.200  1.00  0.00     0.338 C 
ATOM     32  O   UNL A   1      45.112  25.389  24.716  1.00  0.00    -0.246 OA
BRANCH  31  33
ATOM     33  C   UNL A   1      43.320  25.712  26.247  1.00  0.00     0.060 A 
ATOM     34  C   UNL A   1      43.715  27.011  26.598  1.00  0.00     0.016 A 
ATOM     35  C   UNL A   1      42.259  25.088  26.899  1.00  0.00     0.016 A 
ATOM     36  C   UNL A   1      43.043  27.697  27.609  1.00  0.00     0.010 A 
ATOM     37  C   UNL A   1      41.609  25.763  27.931  1.00  0.00     0.010 A 
ATOM     38  C   UNL A   1      42.008  27.061  28.304  1.00  0.00    -0.014 A 
BRANCH  38  39
ATOM     39  C   UNL A   1      41.453  27.640  29.549  1.00  0.00     0.031 A 
ATOM     40  C   UNL A   1      40.161  28.399  29.453  1.00  0.00     0.074 A 
ATOM     41  C   UNL A   1      42.109  27.549  30.719  1.00  0.00     0.049 A 
ATOM     42  N   UNL A   1      39.604  29.204  30.316  1.00  0.00    -0.248 NA
ATOM     43  C   UNL A   1      39.409  28.236  28.199  1.00  0.00     0.031 C 
ATOM     44  C   UNL A   1      43.320  26.767  30.950  1.00  0.00     0.029 A 
ATOM     45  N   UNL A   1      41.856  28.149  31.928  1.00  0.00    -0.354 N 
ATOM     46  C   UNL A   1      38.447  29.669  29.700  1.00  0.00     0.074 A 
ATOM     47  C   UNL A   1      38.396  29.067  28.384  1.00  0.00     0.031 C 
ATOM     48  C   UNL A   1      43.725  26.960  32.218  1.00  0.00     0.029 A 
ATOM     49  C   UNL A   1      42.842  27.932  32.863  1.00  0.00     0.049 A 
ATOM     50  H   UNL A   1      41.048  28.683  32.108  1.00  0.00     0.167 HD
ATOM     51  C   UNL A   1      37.520  30.529  30.189  1.00  0.00     0.034 A 
ATOM     52  C   UNL A   1      43.037  28.499  34.072  1.00  0.00     0.034 A 
ATOM     53  C   UNL A   1      37.605  31.124  31.499  1.00  0.00     0.049 A 
ATOM     54  C   UNL A   1      42.055  29.545  34.555  1.00  0.00     0.074 A 
ATOM     55  C   UNL A   1      36.730  32.011  32.101  1.00  0.00     0.029 A 
ATOM     56  N   UNL A   1      38.635  30.905  32.406  1.00  0.00    -0.354 N 
ATOM     57  N   UNL A   1      40.984  30.014  33.957  1.00  0.00    -0.248 NA
ATOM     58  C   UNL A   1      42.312  30.145  35.874  1.00  0.00     0.031 C 
ATOM     59  C   UNL A   1      37.269  32.389  33.333  1.00  0.00     0.029 A 
ATOM     60  C   UNL A   1      38.432  31.663  33.547  1.00  0.00     0.049 A 
ATOM     61  H   UNL A   1      39.396  30.298  32.259  1.00  0.00     0.167 HD
ATOM     62  C   UNL A   1      40.415  30.924  34.845  1.00  0.00     0.074 A 
ATOM     63  C   UNL A   1      41.266  30.948  36.016  1.00  0.00     0.031 C 
ATOM     64  C   UNL A   1      39.285  31.664  34.712  1.00  0.00     0.034 A 
BRANCH  51  65
ATOM     65  C   UNL A   1      36.388  30.925  29.276  1.00  0.00     0.023 A 
ATOM     66  C   UNL A   1      35.946  32.254  29.170  1.00  0.00     0.031 A 
ATOM     67  C   UNL A   1      35.714  29.945  28.524  1.00  0.00     0.131 A 
ATOM     68  C   UNL A   1      34.819  32.556  28.390  1.00  0.00     0.055 A 
ATOM     69  C   UNL A   1      34.648  30.265  27.683  1.00  0.00     0.041 A 
ATOM     70  F   UNL A   1      36.072  28.653  28.607  1.00  0.00    -0.206 F 
ATOM     71  C   UNL A   1      34.184  31.575  27.624  1.00  0.00     0.022 A 
BRANCH  68  72
ATOM     72  S   UNL A   1      34.101  34.217  28.513  1.00  0.00     0.124 S 
ATOM     73  O   UNL A   1      34.246  34.495  29.940  1.00  0.00    -0.237 OA
ATOM     74  O   UNL A   1      34.951  34.994  27.620  1.00  0.00    -0.237 OA
ATOM     75  O   UNL A   1      32.724  34.029  28.059  1.00  0.00    -0.744 OA
ENDBRANCH  68  72
ENDBRANCH  51  65
BRANCH  52  76
ATOM     76  C   UNL A   1      44.236  28.152  34.889  1.00  0.00     0.023 A 
ATOM     77  C   UNL A   1      44.162  27.202  35.920  1.00  0.00     0.031 A 
ATOM     78  C   UNL A   1      45.465  28.809  34.690  1.00  0.00     0.131 A 
ATOM     79  C   UNL A   1      45.275  26.972  36.743  1.00  0.00     0.055 A 
ATOM     80  C   UNL A   1      46.588  28.530  35.471  1.00  0.00     0.041 A 
ATOM     81  F   UNL A   1      45.593  29.733  33.725  1.00  0.00    -0.206 F 
ATOM     82  C   UNL A   1      46.493  27.617  36.515  1.00  0.00     0.022 A 
BRANCH  79  83
ATOM     83  S   UNL A   1      45.079  25.889  38.185  1.00  0.00     0.124 S 
ATOM     84  O   UNL A   1      46.457  25.757  38.644  1.00  0.00    -0.237 OA
ATOM     85  O   UNL A   1      44.190  26.674  39.036  1.00  0.00    -0.237 OA
ATOM     86  O   UNL A   1      44.490  24.677  37.622  1.00  0.00    -0.744 OA
ENDBRANCH  79  83
ENDBRANCH  52  76
BRANCH  64  87
ATOM     87  C   UNL A   1      38.843  32.495  35.893  1.00  0.00     0.023 A 
ATOM     88  C   UNL A   1      38.105  31.955  36.960  1.00  0.00     0.031 A 
ATOM     89  C   UNL A   1      39.224  33.848  35.967  1.00  0.00     0.131 A 
ATOM     90  C   UNL A   1      37.751  32.774  38.044  1.00  0.00     0.055 A 
ATOM     91  C   UNL A   1      38.917  34.641  37.073  1.00  0.00     0.041 A 
ATOM     92  F   UNL A   1      39.929  34.414  34.973  1.00  0.00    -0.206 F 
ATOM     93  C   UNL A   1      38.171  34.106  38.117  1.00  0.00     0.022 A 
BRANCH  90  94
ATOM     94  S   UNL A   1      36.687  32.093  39.348  1.00  0.00     0.124 S 
ATOM     95  O   UNL A   1      36.754  30.660  39.075  1.00  0.00    -0.237 OA
ATOM     96  O   UNL A   1      37.354  32.542  40.565  1.00  0.00    -0.237 OA
ATOM     97  O   UNL A   1      35.388  32.712  39.090  1.00  0.00    -0.744 OA
ENDBRANCH  90  94
ENDBRANCH  64  87
ENDBRANCH  38  39
ENDBRANCH  31  33
ENDBRANCH  30  31
ENDBRANCH  29  30
ENDBRANCH  28  29
ENDBRANCH  27  28
ENDBRANCH   1  27
TORSDOF 22
ENDMDL
MODEL 3
REMARK VINA RESULT:     -11.0      1.841      2.192
REMARK SMILES C[C@H]1[C@@H](C(=O)OCCOCCOCCOC(=O)c2ccc(-c3c4nc(c(-c5cc(S(=O)(=O)[O-])ccc5F)c5ccc([nH]5)c(-c5cc(S(=O)(=O)[O-])ccc5F)c5nc(c(-c6cc(S(=O)(=O)[O-])ccc6F)c6ccc3[nH]6)C=C5)C=C4)cc2)CCN1C(=O)c1cc2cc(F)ccc2s1
REMARK SMILES IDX 11 1 10 2 9 3 8 4 7 5 6 6 4 7 5 8 3 9 1 10 2 11 83 12 81 13
REMARK SMILES IDX 82 14 84 15 85 16 86 17 87 18 95 19 88 20 94 21 89 22 93 23
REMARK SMILES IDX 90 24 92 25 91 26 12 27 13 28 14 29 15 30 16 31 17 32 18 33
REMARK SMILES IDX 19 34 80 35 20 36 79 37 21 38 22 39 23 40 73 41 24 42 78 43
REMARK SMILES IDX 72 44 74 45 25 46 77 47 71 48 70 49 26 51 58 52 38 53 57 54
REMARK SMILES IDX 39 55 42 56 56 57 75 58 40 59 41 60 55 62 76 63 43 64 27 65
REMARK SMILES IDX 28 66 36 67 29 68 35 69 37 70 34 71 30 72 31 73 32 74 33 75
REMARK SMILES IDX 59 76 60 77 68 78 61 79 67 80 69 81 66 82 62 83 63 84 64 85
REMARK SMILES IDX 65 86 44 87 45 88 53 89 46 90 52 91 54 92 51 93 47 94 48 95
REMARK SMILES IDX 49 96 50 97
REMARK H PARENT 74 50 42 61
REMARK Flexibility Score: inf
ROOT
ATOM      1  C   UNL A   1      37.006  21.816  25.213  1.00  0.00     0.188 C 
ENDROOT
BRANCH   1   2
ATOM      2  C   UNL A   1      35.708  21.360  25.906  1.00  0.00     0.188 C 
BRANCH   2   3
ATOM      3  O   UNL A   1      34.882  20.392  25.286  1.00  0.00    -0.376 OA
BRANCH   3   4
ATOM      4  C   UNL A   1      34.043  20.791  24.212  1.00  0.00     0.202 C 
BRANCH   4   5
ATOM      5  C   UNL A   1      32.527  20.680  24.380  1.00  0.00     0.261 C 
BRANCH   5   6
ATOM      6  O   UNL A   1      32.043  21.347  25.565  1.00  0.00    -0.463 OA
BRANCH   6   7
ATOM      7  C   UNL A   1      31.864  22.682  25.455  1.00  0.00     0.311 C 
ATOM      8  O   UNL A   1      31.532  23.403  26.393  1.00  0.00    -0.252 OA
BRANCH   7   9
ATOM      9  C   UNL A   1      32.194  23.285  24.100  1.00  0.00     0.123 C 
ATOM     10  C   UNL A   1      33.972  24.974  25.052  1.00  0.00     0.032 C 
ATOM     11  C   UNL A   1      33.182  24.450  23.862  1.00  0.00     0.096 C 
ATOM     12  N   UNL A   1      32.428  25.452  23.100  1.00  0.00    -0.334 N 
ATOM     13  C   UNL A   1      30.893  23.651  23.377  1.00  0.00     0.039 C 
ATOM     14  C   UNL A   1      31.063  25.051  22.846  1.00  0.00     0.121 C 
BRANCH  12  15
ATOM     15  C   UNL A   1      32.928  26.458  22.286  1.00  0.00     0.264 C 
ATOM     16  O   UNL A   1      33.471  26.173  21.215  1.00  0.00    -0.268 OA
BRANCH  15  17
ATOM     17  C   UNL A   1      32.728  27.852  22.628  1.00  0.00     0.093 A 
ATOM     18  C   UNL A   1      31.636  28.361  23.318  1.00  0.00     0.034 A 
ATOM     19  S   UNL A   1      34.127  28.707  23.182  1.00  0.00    -0.130 S 
ATOM     20  C   UNL A   1      32.058  28.554  24.692  1.00  0.00    -0.004 A 
ATOM     21  C   UNL A   1      33.454  28.663  24.780  1.00  0.00     0.035 A 
ATOM     22  C   UNL A   1      31.315  28.507  25.894  1.00  0.00     0.048 A 
ATOM     23  C   UNL A   1      34.130  28.686  26.012  1.00  0.00     0.022 A 
ATOM     24  C   UNL A   1      31.992  28.459  27.111  1.00  0.00     0.123 A 
ATOM     25  C   UNL A   1      33.374  28.532  27.178  1.00  0.00     0.041 A 
ATOM     26  F   UNL A   1      31.287  28.298  28.240  1.00  0.00    -0.207 F 
ENDBRANCH  15  17
ENDBRANCH  12  15
ENDBRANCH   7   9
ENDBRANCH   6   7
ENDBRANCH   5   6
ENDBRANCH   4   5
ENDBRANCH   3   4
ENDBRANCH   2   3
ENDBRANCH   1   2
BRANCH   1  27
ATOM     27  O   UNL A   1      37.788  20.931  24.441  1.00  0.00    -0.376 OA
BRANCH  27  28
ATOM     28  C   UNL A   1      38.161  19.669  24.963  1.00  0.00     0.202 C 
BRANCH  28  29
ATOM     29  C   UNL A   1      39.183  19.532  26.095  1.00  0.00     0.261 C 
BRANCH  29  30
ATOM     30  O   UNL A   1      40.555  19.506  25.692  1.00  0.00    -0.460 OA
BRANCH  30  31
ATOM     31  C   UNL A   1      41.448  19.769  26.679  1.00  0.00     0.338 C 
ATOM     32  O   UNL A   1      42.217  18.981  27.209  1.00  0.00    -0.246 OA
BRANCH  31  33
ATOM     33  C   UNL A   1      41.481  21.222  26.909  1.00  0.00     0.060 A 
ATOM     34  C   UNL A   1      40.882  22.079  25.975  1.00  0.00     0.016 A 
ATOM     35  C   UNL A   1      42.132  21.732  28.030  1.00  0.00     0.016 A 
ATOM     36  C   UNL A   1      40.931  23.460  26.161  1.00  0.00     0.010 A 
ATOM     37  C   UNL A   1      42.208  23.114  28.198  1.00  0.00     0.010 A 
ATOM     38  C   UNL A   1      41.626  23.984  27.257  1.00  0.00    -0.014 A 
BRANCH  38  39
ATOM     39  C   UNL A   1      41.933  25.431  27.348  1.00  0.00     0.031 A 
ATOM     40  C   UNL A   1      43.271  25.895  26.850  1.00  0.00     0.074 A 
ATOM     41  C   UNL A   1      41.073  26.297  27.912  1.00  0.00     0.049 A 
ATOM     42  N   UNL A   1      43.880  27.033  27.042  1.00  0.00    -0.248 NA
ATOM     43  C   UNL A   1      44.028  24.928  26.039  1.00  0.00     0.031 C 
ATOM     44  C   UNL A   1      39.717  25.979  28.348  1.00  0.00     0.029 A 
ATOM     45  N   UNL A   1      41.233  27.621  28.240  1.00  0.00    -0.354 N 
ATOM     46  C   UNL A   1      45.108  26.913  26.401  1.00  0.00     0.074 A 
ATOM     47  C   UNL A   1      45.159  25.583  25.830  1.00  0.00     0.031 C 
ATOM     48  C   UNL A   1      39.177  27.071  28.918  1.00  0.00     0.029 A 
ATOM     49  C   UNL A   1      40.174  28.141  28.948  1.00  0.00     0.049 A 
ATOM     50  H   UNL A   1      42.029  28.146  27.993  1.00  0.00     0.167 HD
ATOM     51  C   UNL A   1      46.103  27.829  26.309  1.00  0.00     0.034 A 
ATOM     52  C   UNL A   1      40.052  29.320  29.593  1.00  0.00     0.034 A 
ATOM     53  C   UNL A   1      46.029  29.141  26.900  1.00  0.00     0.049 A 
ATOM     54  C   UNL A   1      41.218  30.285  29.579  1.00  0.00     0.074 A 
ATOM     55  C   UNL A   1      46.974  30.151  26.876  1.00  0.00     0.029 A 
ATOM     56  N   UNL A   1      44.953  29.621  27.636  1.00  0.00    -0.354 N 
ATOM     57  N   UNL A   1      42.393  30.155  29.006  1.00  0.00    -0.248 NA
ATOM     58  C   UNL A   1      41.045  31.553  30.304  1.00  0.00     0.031 C 
ATOM     59  C   UNL A   1      46.506  31.207  27.663  1.00  0.00     0.029 A 
ATOM     60  C   UNL A   1      45.225  30.898  28.097  1.00  0.00     0.049 A 
ATOM     61  H   UNL A   1      44.118  29.126  27.803  1.00  0.00     0.167 HD
ATOM     62  C   UNL A   1      43.077  31.342  29.261  1.00  0.00     0.074 A 
ATOM     63  C   UNL A   1      42.189  32.172  30.047  1.00  0.00     0.031 C 
ATOM     64  C   UNL A   1      44.320  31.718  28.869  1.00  0.00     0.034 A 
BRANCH  51  65
ATOM     65  C   UNL A   1      47.371  27.410  25.608  1.00  0.00     0.023 A 
ATOM     66  C   UNL A   1      48.466  26.875  26.306  1.00  0.00     0.031 A 
ATOM     67  C   UNL A   1      47.498  27.586  24.218  1.00  0.00     0.131 A 
ATOM     68  C   UNL A   1      49.663  26.602  25.627  1.00  0.00     0.055 A 
ATOM     69  C   UNL A   1      48.662  27.232  23.534  1.00  0.00     0.041 A 
ATOM     70  F   UNL A   1      46.497  28.121  23.502  1.00  0.00    -0.206 F 
ATOM     71  C   UNL A   1      49.759  26.751  24.241  1.00  0.00     0.022 A 
BRANCH  68  72
ATOM     72  S   UNL A   1      51.138  26.198  26.601  1.00  0.00     0.124 S 
ATOM     73  O   UNL A   1      51.069  27.195  27.666  1.00  0.00    -0.237 OA
ATOM     74  O   UNL A   1      50.886  24.819  26.998  1.00  0.00    -0.237 OA
ATOM     75  O   UNL A   1      52.236  26.385  25.653  1.00  0.00    -0.744 OA
ENDBRANCH  68  72
ENDBRANCH  51  65
BRANCH  52  76
ATOM     76  C   UNL A   1      38.815  29.637  30.365  1.00  0.00     0.023 A 
ATOM     77  C   UNL A   1      37.821  30.472  29.831  1.00  0.00     0.031 A 
ATOM     78  C   UNL A   1      38.634  29.159  31.676  1.00  0.00     0.131 A 
ATOM     79  C   UNL A   1      36.719  30.842  30.618  1.00  0.00     0.055 A 
ATOM     80  C   UNL A   1      37.505  29.479  32.432  1.00  0.00     0.041 A 
ATOM     81  F   UNL A   1      39.556  28.364  32.243  1.00  0.00    -0.206 F 
ATOM     82  C   UNL A   1      36.545  30.338  31.909  1.00  0.00     0.022 A 
BRANCH  79  83
ATOM     83  S   UNL A   1      35.562  32.078  29.965  1.00  0.00     0.124 S 
ATOM     84  O   UNL A   1      34.697  32.309  31.115  1.00  0.00    -0.237 OA
ATOM     85  O   UNL A   1      36.458  33.172  29.604  1.00  0.00    -0.237 OA
ATOM     86  O   UNL A   1      34.934  31.393  28.838  1.00  0.00    -0.744 OA
ENDBRANCH  79  83
ENDBRANCH  52  76
BRANCH  64  87
ATOM     87  C   UNL A   1      44.770  33.121  29.200  1.00  0.00     0.023 A 
ATOM     88  C   UNL A   1      44.415  34.231  28.415  1.00  0.00     0.031 A 
ATOM     89  C   UNL A   1      45.527  33.347  30.366  1.00  0.00     0.131 A 
ATOM     90  C   UNL A   1      44.840  35.515  28.794  1.00  0.00     0.055 A 
ATOM     91  C   UNL A   1      45.898  34.631  30.766  1.00  0.00     0.041 A 
ATOM     92  F   UNL A   1      45.895  32.321  31.150  1.00  0.00    -0.206 F 
ATOM     93  C   UNL A   1      45.559  35.723  29.975  1.00  0.00     0.022 A 
BRANCH  90  94
ATOM     94  S   UNL A   1      44.482  36.917  27.698  1.00  0.00     0.124 S 
ATOM     95  O   UNL A   1      43.843  37.860  28.611  1.00  0.00    -0.237 OA
ATOM     96  O   UNL A   1      45.810  37.290  27.222  1.00  0.00    -0.237 OA
ATOM     97  O   UNL A   1      43.601  36.342  26.683  1.00  0.00    -0.744 OA
ENDBRANCH  90  94
ENDBRANCH  64  87
ENDBRANCH  38  39
ENDBRANCH  31  33
ENDBRANCH  30  31
ENDBRANCH  29  30
ENDBRANCH  28  29
ENDBRANCH  27  28
ENDBRANCH   1  27
TORSDOF 22
ENDMDL
