MODEL 1
REMARK VINA RESULT:     -11.4      0.000      0.000
REMARK SMILES Cn1cc(Cl)cc1C(=O)N[C@H]1C=C[C@H](C(=O)OCCOCCOCCOC(=O)c2ccc(-c3c4nc(c(-c5cc(S(=O)(=O)[O-])ccc5F)c5ccc([nH]5)c(-c5cc(S(=O)(=O)[O-])ccc5F)c5nc(c(-c6cc(S(=O)(=O)[O-])ccc6F)c6ccc3[nH]6)C=C5)C=C4)cc2)C1
REMARK SMILES IDX 22 1 21 2 20 3 19 4 18 5 17 6 15 7 16 8 14 9 11 10 12 11
REMARK SMILES IDX 92 12 13 13 10 14 8 15 9 16 7 18 1 19 2 20 3 21 4 22 6 23
REMARK SMILES IDX 5 24 23 25 24 26 25 27 26 28 27 29 28 30 29 31 30 32 91 33
REMARK SMILES IDX 31 34 90 35 32 36 33 37 34 38 84 39 35 40 89 41 83 42 85 43
REMARK SMILES IDX 36 44 88 45 82 46 81 47 37 49 69 50 49 51 68 52 50 53 53 54
REMARK SMILES IDX 67 55 86 56 51 57 52 58 66 60 87 61 54 62 38 63 39 64 47 65
REMARK SMILES IDX 40 66 46 67 48 68 45 69 41 70 42 71 43 72 44 73 70 74 71 75
REMARK SMILES IDX 79 76 72 77 78 78 80 79 77 80 73 81 74 82 75 83 76 84 55 85
REMARK SMILES IDX 56 86 64 87 57 88 63 89 65 90 62 91 58 92 59 93 60 94 61 95
REMARK H PARENT 10 17 85 48 53 59
REMARK Flexibility Score: inf
ROOT
ATOM      1  C   UNL A   1      32.831  30.041  27.036  1.00  0.00     0.188 C 
ENDROOT
BRANCH   1   2
ATOM      2  C   UNL A   1      31.792  30.173  25.903  1.00  0.00     0.188 C 
BRANCH   2   3
ATOM      3  O   UNL A   1      31.641  29.173  24.906  1.00  0.00    -0.376 OA
BRANCH   3   4
ATOM      4  C   UNL A   1      30.728  29.378  23.847  1.00  0.00     0.202 C 
BRANCH   4   5
ATOM      5  C   UNL A   1      31.090  28.807  22.473  1.00  0.00     0.261 C 
BRANCH   5   6
ATOM      6  O   UNL A   1      30.505  27.538  22.120  1.00  0.00    -0.463 OA
BRANCH   6   7
ATOM      7  C   UNL A   1      31.178  26.437  22.562  1.00  0.00     0.312 C 
ATOM      8  O   UNL A   1      32.275  26.085  22.144  1.00  0.00    -0.252 OA
BRANCH   7   9
ATOM      9  C   UNL A   1      30.366  25.677  23.622  1.00  0.00     0.124 C 
ATOM     10  C   UNL A   1      31.922  24.699  25.242  1.00  0.00     0.106 C 
ATOM     11  C   UNL A   1      31.423  23.679  24.259  1.00  0.00    -0.006 C 
ATOM     12  C   UNL A   1      30.888  25.822  25.061  1.00  0.00     0.048 C 
ATOM     13  C   UNL A   1      30.548  24.202  23.392  1.00  0.00    -0.014 C 
BRANCH  10  14
ATOM     14  N   UNL A   1      31.986  24.051  26.532  1.00  0.00    -0.345 N 
ATOM     15  C   UNL A   1      32.508  22.880  27.006  1.00  0.00     0.268 C 
ATOM     16  O   UNL A   1      32.249  22.626  28.185  1.00  0.00    -0.268 OA
ATOM     17  H   UNL A   1      31.550  24.580  27.239  1.00  0.00     0.164 HD
BRANCH  15  18
ATOM     18  C   UNL A   1      33.407  22.064  26.231  1.00  0.00     0.108 A 
ATOM     19  C   UNL A   1      35.324  23.588  25.599  1.00  0.00     0.150 C 
ATOM     20  N   UNL A   1      34.696  22.303  25.806  1.00  0.00    -0.345 N 
ATOM     21  C   UNL A   1      35.251  21.128  25.368  1.00  0.00     0.106 A 
ATOM     22  C   UNL A   1      34.221  20.260  25.112  1.00  0.00     0.059 A 
ATOM     23  C   UNL A   1      33.056  20.855  25.628  1.00  0.00     0.054 A 
ATOM     24  Cl  UNL A   1      34.309  18.754  24.345  1.00  0.00    -0.083 Cl
ENDBRANCH  15  18
ENDBRANCH  10  14
ENDBRANCH   7   9
ENDBRANCH   6   7
ENDBRANCH   5   6
ENDBRANCH   4   5
ENDBRANCH   3   4
ENDBRANCH   2   3
ENDBRANCH   1   2
BRANCH   1  25
ATOM     25  O   UNL A   1      33.366  31.272  27.503  1.00  0.00    -0.376 OA
BRANCH  25  26
ATOM     26  C   UNL A   1      34.779  31.315  27.643  1.00  0.00     0.202 C 
BRANCH  26  27
ATOM     27  C   UNL A   1      35.202  31.691  29.060  1.00  0.00     0.261 C 
BRANCH  27  28
ATOM     28  O   UNL A   1      36.527  31.296  29.415  1.00  0.00    -0.460 OA
BRANCH  28  29
ATOM     29  C   UNL A   1      36.615  30.163  30.142  1.00  0.00     0.338 C 
ATOM     30  O   UNL A   1      36.051  29.916  31.191  1.00  0.00    -0.246 OA
BRANCH  29  31
ATOM     31  C   UNL A   1      37.565  29.250  29.504  1.00  0.00     0.060 A 
ATOM     32  C   UNL A   1      38.088  28.227  30.298  1.00  0.00     0.016 A 
ATOM     33  C   UNL A   1      38.099  29.560  28.245  1.00  0.00     0.016 A 
ATOM     34  C   UNL A   1      39.237  27.593  29.898  1.00  0.00     0.010 A 
ATOM     35  C   UNL A   1      39.277  28.958  27.864  1.00  0.00     0.010 A 
ATOM     36  C   UNL A   1      39.863  28.041  28.736  1.00  0.00    -0.014 A 
BRANCH  36  37
ATOM     37  C   UNL A   1      41.233  27.613  28.554  1.00  0.00     0.031 A 
ATOM     38  C   UNL A   1      41.412  26.275  27.961  1.00  0.00     0.074 A 
ATOM     39  C   UNL A   1      42.239  28.438  28.894  1.00  0.00     0.049 A 
ATOM     40  N   UNL A   1      42.072  25.274  28.435  1.00  0.00    -0.248 NA
ATOM     41  C   UNL A   1      40.675  25.984  26.721  1.00  0.00     0.031 C 
ATOM     42  C   UNL A   1      42.130  29.858  29.250  1.00  0.00     0.029 A 
ATOM     43  N   UNL A   1      43.581  28.222  28.860  1.00  0.00    -0.354 N 
ATOM     44  C   UNL A   1      42.019  24.294  27.452  1.00  0.00     0.074 A 
ATOM     45  C   UNL A   1      41.019  24.716  26.509  1.00  0.00     0.031 C 
ATOM     46  C   UNL A   1      43.350  30.426  29.156  1.00  0.00     0.029 A 
ATOM     47  C   UNL A   1      44.323  29.393  28.842  1.00  0.00     0.049 A 
ATOM     48  H   UNL A   1      43.984  27.324  28.851  1.00  0.00     0.167 HD
ATOM     49  C   UNL A   1      42.972  23.330  27.363  1.00  0.00     0.034 A 
ATOM     50  C   UNL A   1      45.617  29.525  28.461  1.00  0.00     0.034 A 
ATOM     51  C   UNL A   1      43.631  23.119  28.629  1.00  0.00     0.049 A 
ATOM     52  C   UNL A   1      46.257  28.191  28.566  1.00  0.00     0.074 A 
ATOM     53  C   UNL A   1      43.190  22.765  29.892  1.00  0.00     0.029 A 
ATOM     54  N   UNL A   1      44.911  23.591  28.803  1.00  0.00    -0.354 N 
ATOM     55  N   UNL A   1      46.449  27.563  29.694  1.00  0.00    -0.248 NA
ATOM     56  C   UNL A   1      46.308  27.350  27.379  1.00  0.00     0.031 C 
ATOM     57  C   UNL A   1      44.036  23.469  30.797  1.00  0.00     0.029 A 
ATOM     58  C   UNL A   1      44.968  24.183  30.042  1.00  0.00     0.049 A 
ATOM     59  H   UNL A   1      45.650  23.519  28.158  1.00  0.00     0.167 HD
ATOM     60  C   UNL A   1      46.228  26.225  29.405  1.00  0.00     0.074 A 
ATOM     61  C   UNL A   1      46.269  26.143  27.950  1.00  0.00     0.031 C 
ATOM     62  C   UNL A   1      45.753  25.363  30.353  1.00  0.00     0.034 A 
BRANCH  49  63
ATOM     63  C   UNL A   1      43.520  22.828  26.047  1.00  0.00     0.023 A 
ATOM     64  C   UNL A   1      43.641  21.437  25.883  1.00  0.00     0.031 A 
ATOM     65  C   UNL A   1      44.180  23.619  25.075  1.00  0.00     0.131 A 
ATOM     66  C   UNL A   1      44.447  20.898  24.866  1.00  0.00     0.055 A 
ATOM     67  C   UNL A   1      44.916  23.077  24.019  1.00  0.00     0.041 A 
ATOM     68  F   UNL A   1      44.236  24.955  25.140  1.00  0.00    -0.206 F 
ATOM     69  C   UNL A   1      45.081  21.707  23.927  1.00  0.00     0.022 A 
BRANCH  66  70
ATOM     70  S   UNL A   1      44.815  19.126  24.913  1.00  0.00     0.124 S 
ATOM     71  O   UNL A   1      44.777  18.779  23.497  1.00  0.00    -0.237 OA
ATOM     72  O   UNL A   1      46.129  19.113  25.546  1.00  0.00    -0.237 OA
ATOM     73  O   UNL A   1      43.726  18.576  25.719  1.00  0.00    -0.744 OA
ENDBRANCH  66  70
ENDBRANCH  49  63
BRANCH  50  74
ATOM     74  C   UNL A   1      46.168  30.664  27.682  1.00  0.00     0.023 A 
ATOM     75  C   UNL A   1      45.347  31.537  26.949  1.00  0.00     0.031 A 
ATOM     76  C   UNL A   1      47.530  31.031  27.814  1.00  0.00     0.131 A 
ATOM     77  C   UNL A   1      45.895  32.702  26.368  1.00  0.00     0.055 A 
ATOM     78  C   UNL A   1      48.072  32.166  27.214  1.00  0.00     0.041 A 
ATOM     79  F   UNL A   1      48.369  30.337  28.601  1.00  0.00    -0.206 F 
ATOM     80  C   UNL A   1      47.252  33.013  26.490  1.00  0.00     0.022 A 
BRANCH  77  81
ATOM     81  S   UNL A   1      44.808  33.897  25.533  1.00  0.00     0.124 S 
ATOM     82  O   UNL A   1      45.627  35.104  25.524  1.00  0.00    -0.237 OA
ATOM     83  O   UNL A   1      44.575  33.259  24.243  1.00  0.00    -0.237 OA
ATOM     84  O   UNL A   1      43.634  33.955  26.406  1.00  0.00    -0.744 OA
ENDBRANCH  77  81
ENDBRANCH  50  74
BRANCH  62  85
ATOM     85  C   UNL A   1      45.814  25.783  31.808  1.00  0.00     0.023 A 
ATOM     86  C   UNL A   1      46.933  25.595  32.647  1.00  0.00     0.031 A 
ATOM     87  C   UNL A   1      44.730  26.518  32.321  1.00  0.00     0.131 A 
ATOM     88  C   UNL A   1      46.933  26.124  33.952  1.00  0.00     0.055 A 
ATOM     89  C   UNL A   1      44.740  27.056  33.608  1.00  0.00     0.041 A 
ATOM     90  F   UNL A   1      43.650  26.760  31.560  1.00  0.00    -0.206 F 
ATOM     91  C   UNL A   1      45.841  26.854  34.432  1.00  0.00     0.022 A 
BRANCH  88  92
ATOM     92  S   UNL A   1      48.357  25.861  35.057  1.00  0.00     0.124 S 
ATOM     93  O   UNL A   1      48.823  27.212  35.344  1.00  0.00    -0.237 OA
ATOM     94  O   UNL A   1      47.755  25.140  36.175  1.00  0.00    -0.237 OA
ATOM     95  O   UNL A   1      49.275  25.061  34.242  1.00  0.00    -0.744 OA
ENDBRANCH  88  92
ENDBRANCH  62  85
ENDBRANCH  36  37
ENDBRANCH  29  31
ENDBRANCH  28  29
ENDBRANCH  27  28
ENDBRANCH  26  27
ENDBRANCH  25  26
ENDBRANCH   1  25
TORSDOF 22
ENDMDL
MODEL 2
REMARK VINA RESULT:     -11.4      1.547      1.934
REMARK SMILES Cn1cc(Cl)cc1C(=O)N[C@H]1C=C[C@H](C(=O)OCCOCCOCCOC(=O)c2ccc(-c3c4nc(c(-c5cc(S(=O)(=O)[O-])ccc5F)c5ccc([nH]5)c(-c5cc(S(=O)(=O)[O-])ccc5F)c5nc(c(-c6cc(S(=O)(=O)[O-])ccc6F)c6ccc3[nH]6)C=C5)C=C4)cc2)C1
REMARK SMILES IDX 22 1 21 2 20 3 19 4 18 5 17 6 15 7 16 8 14 9 11 10 12 11
REMARK SMILES IDX 92 12 13 13 10 14 8 15 9 16 7 18 1 19 2 20 3 21 4 22 6 23
REMARK SMILES IDX 5 24 23 25 24 26 25 27 26 28 27 29 28 30 29 31 30 32 91 33
REMARK SMILES IDX 31 34 90 35 32 36 33 37 34 38 84 39 35 40 89 41 83 42 85 43
REMARK SMILES IDX 36 44 88 45 82 46 81 47 37 49 69 50 49 51 68 52 50 53 53 54
REMARK SMILES IDX 67 55 86 56 51 57 52 58 66 60 87 61 54 62 38 63 39 64 47 65
REMARK SMILES IDX 40 66 46 67 48 68 45 69 41 70 42 71 43 72 44 73 70 74 71 75
REMARK SMILES IDX 79 76 72 77 78 78 80 79 77 80 73 81 74 82 75 83 76 84 55 85
REMARK SMILES IDX 56 86 64 87 57 88 63 89 65 90 62 91 58 92 59 93 60 94 61 95
REMARK H PARENT 10 17 85 48 53 59
REMARK Flexibility Score: inf
ROOT
ATOM      1  C   UNL A   1      32.748  31.177  26.971  1.00  0.00     0.188 C 
ENDROOT
BRANCH   1   2
ATOM      2  C   UNL A   1      32.605  29.895  26.125  1.00  0.00     0.188 C 
BRANCH   2   3
ATOM      3  O   UNL A   1      33.692  29.002  25.932  1.00  0.00    -0.376 OA
BRANCH   3   4
ATOM      4  C   UNL A   1      34.202  28.798  24.630  1.00  0.00     0.202 C 
BRANCH   4   5
ATOM      5  C   UNL A   1      33.213  28.846  23.461  1.00  0.00     0.261 C 
BRANCH   5   6
ATOM      6  O   UNL A   1      32.711  27.585  22.980  1.00  0.00    -0.463 OA
BRANCH   6   7
ATOM      7  C   UNL A   1      31.359  27.516  22.811  1.00  0.00     0.312 C 
ATOM      8  O   UNL A   1      30.803  27.436  21.722  1.00  0.00    -0.252 OA
BRANCH   7   9
ATOM      9  C   UNL A   1      30.626  27.587  24.159  1.00  0.00     0.124 C 
ATOM     10  C   UNL A   1      30.425  25.317  25.058  1.00  0.00     0.106 C 
ATOM     11  C   UNL A   1      29.142  25.789  24.438  1.00  0.00    -0.006 C 
ATOM     12  C   UNL A   1      31.176  26.645  25.244  1.00  0.00     0.048 C 
ATOM     13  C   UNL A   1      29.237  27.041  23.974  1.00  0.00    -0.014 C 
BRANCH  10  14
ATOM     14  N   UNL A   1      30.075  24.576  26.249  1.00  0.00    -0.345 N 
ATOM     15  C   UNL A   1      30.328  23.317  26.718  1.00  0.00     0.268 C 
ATOM     16  O   UNL A   1      29.739  23.014  27.759  1.00  0.00    -0.268 OA
ATOM     17  H   UNL A   1      29.524  25.104  26.871  1.00  0.00     0.164 HD
BRANCH  15  18
ATOM     18  C   UNL A   1      31.312  22.451  26.120  1.00  0.00     0.108 A 
ATOM     19  C   UNL A   1      33.440  22.847  27.428  1.00  0.00     0.150 C 
ATOM     20  N   UNL A   1      32.574  22.099  26.545  1.00  0.00    -0.345 N 
ATOM     21  C   UNL A   1      33.011  21.023  25.816  1.00  0.00     0.106 A 
ATOM     22  C   UNL A   1      32.248  20.964  24.678  1.00  0.00     0.059 A 
ATOM     23  C   UNL A   1      31.194  21.878  24.853  1.00  0.00     0.054 A 
ATOM     24  Cl  UNL A   1      32.491  19.979  23.324  1.00  0.00    -0.083 Cl
ENDBRANCH  15  18
ENDBRANCH  10  14
ENDBRANCH   7   9
ENDBRANCH   6   7
ENDBRANCH   5   6
ENDBRANCH   4   5
ENDBRANCH   3   4
ENDBRANCH   2   3
ENDBRANCH   1   2
BRANCH   1  25
ATOM     25  O   UNL A   1      34.060  31.435  27.450  1.00  0.00    -0.376 OA
BRANCH  25  26
ATOM     26  C   UNL A   1      34.154  32.366  28.519  1.00  0.00     0.202 C 
BRANCH  26  27
ATOM     27  C   UNL A   1      35.232  31.974  29.525  1.00  0.00     0.261 C 
BRANCH  27  28
ATOM     28  O   UNL A   1      36.182  31.023  29.048  1.00  0.00    -0.460 OA
BRANCH  28  29
ATOM     29  C   UNL A   1      36.555  30.083  29.941  1.00  0.00     0.338 C 
ATOM     30  O   UNL A   1      36.185  29.979  31.096  1.00  0.00    -0.246 OA
BRANCH  29  31
ATOM     31  C   UNL A   1      37.550  29.201  29.331  1.00  0.00     0.060 A 
ATOM     32  C   UNL A   1      38.079  28.191  30.138  1.00  0.00     0.016 A 
ATOM     33  C   UNL A   1      38.113  29.531  28.089  1.00  0.00     0.016 A 
ATOM     34  C   UNL A   1      39.258  27.593  29.772  1.00  0.00     0.010 A 
ATOM     35  C   UNL A   1      39.319  28.964  27.743  1.00  0.00     0.010 A 
ATOM     36  C   UNL A   1      39.906  28.063  28.631  1.00  0.00    -0.014 A 
BRANCH  36  37
ATOM     37  C   UNL A   1      41.292  27.676  28.489  1.00  0.00     0.031 A 
ATOM     38  C   UNL A   1      41.529  26.353  27.882  1.00  0.00     0.074 A 
ATOM     39  C   UNL A   1      42.263  28.523  28.876  1.00  0.00     0.049 A 
ATOM     40  N   UNL A   1      42.200  25.363  28.363  1.00  0.00    -0.248 NA
ATOM     41  C   UNL A   1      40.843  26.062  26.613  1.00  0.00     0.031 C 
ATOM     42  C   UNL A   1      42.102  29.933  29.250  1.00  0.00     0.029 A 
ATOM     43  N   UNL A   1      43.610  28.344  28.885  1.00  0.00    -0.354 N 
ATOM     44  C   UNL A   1      42.208  24.398  27.363  1.00  0.00     0.074 A 
ATOM     45  C   UNL A   1      41.229  24.808  26.393  1.00  0.00     0.031 C 
ATOM     46  C   UNL A   1      43.308  30.535  29.207  1.00  0.00     0.029 A 
ATOM     47  C   UNL A   1      44.319  29.535  28.911  1.00  0.00     0.049 A 
ATOM     48  H   UNL A   1      44.039  27.458  28.876  1.00  0.00     0.167 HD
ATOM     49  C   UNL A   1      43.190  23.463  27.293  1.00  0.00     0.034 A 
ATOM     50  C   UNL A   1      45.622  29.709  28.576  1.00  0.00     0.034 A 
ATOM     51  C   UNL A   1      43.812  23.249  28.577  1.00  0.00     0.049 A 
ATOM     52  C   UNL A   1      46.294  28.392  28.683  1.00  0.00     0.074 A 
ATOM     53  C   UNL A   1      43.339  22.862  29.819  1.00  0.00     0.029 A 
ATOM     54  N   UNL A   1      45.071  23.753  28.802  1.00  0.00    -0.354 N 
ATOM     55  N   UNL A   1      46.466  27.751  29.807  1.00  0.00    -0.248 NA
ATOM     56  C   UNL A   1      46.410  27.572  27.485  1.00  0.00     0.031 C 
ATOM     57  C   UNL A   1      44.133  23.574  30.763  1.00  0.00     0.029 A 
ATOM     58  C   UNL A   1      45.070  24.326  30.052  1.00  0.00     0.049 A 
ATOM     59  H   UNL A   1      45.834  23.712  28.182  1.00  0.00     0.167 HD
ATOM     60  C   UNL A   1      46.293  26.412  29.490  1.00  0.00     0.074 A 
ATOM     61  C   UNL A   1      46.385  26.355  28.036  1.00  0.00     0.031 C 
ATOM     62  C   UNL A   1      45.810  25.522  30.408  1.00  0.00     0.034 A 
BRANCH  49  63
ATOM     63  C   UNL A   1      43.797  22.997  25.988  1.00  0.00     0.023 A 
ATOM     64  C   UNL A   1      43.816  21.614  25.739  1.00  0.00     0.031 A 
ATOM     65  C   UNL A   1      44.594  23.787  25.124  1.00  0.00     0.131 A 
ATOM     66  C   UNL A   1      44.652  21.072  24.749  1.00  0.00     0.055 A 
ATOM     67  C   UNL A   1      45.363  23.249  24.090  1.00  0.00     0.041 A 
ATOM     68  F   UNL A   1      44.754  25.106  25.284  1.00  0.00    -0.206 F 
ATOM     69  C   UNL A   1      45.422  21.879  23.916  1.00  0.00     0.022 A 
BRANCH  66  70
ATOM     70  S   UNL A   1      44.868  19.274  24.701  1.00  0.00     0.124 S 
ATOM     71  O   UNL A   1      46.267  19.135  25.090  1.00  0.00    -0.237 OA
ATOM     72  O   UNL A   1      43.879  18.831  25.677  1.00  0.00    -0.237 OA
ATOM     73  O   UNL A   1      44.572  18.935  23.311  1.00  0.00    -0.744 OA
ENDBRANCH  66  70
ENDBRANCH  49  63
BRANCH  50  74
ATOM     74  C   UNL A   1      46.166  30.875  27.834  1.00  0.00     0.023 A 
ATOM     75  C   UNL A   1      45.371  31.658  26.982  1.00  0.00     0.031 A 
ATOM     76  C   UNL A   1      47.466  31.362  28.118  1.00  0.00     0.131 A 
ATOM     77  C   UNL A   1      45.886  32.854  26.435  1.00  0.00     0.055 A 
ATOM     78  C   UNL A   1      47.980  32.528  27.553  1.00  0.00     0.041 A 
ATOM     79  F   UNL A   1      48.257  30.761  29.022  1.00  0.00    -0.206 F 
ATOM     80  C   UNL A   1      47.187  33.285  26.709  1.00  0.00     0.022 A 
BRANCH  77  81
ATOM     81  S   UNL A   1      44.813  33.934  25.439  1.00  0.00     0.124 S 
ATOM     82  O   UNL A   1      43.684  34.157  26.334  1.00  0.00    -0.237 OA
ATOM     83  O   UNL A   1      45.677  35.080  25.182  1.00  0.00    -0.237 OA
ATOM     84  O   UNL A   1      44.514  33.119  24.260  1.00  0.00    -0.744 OA
ENDBRANCH  77  81
ENDBRANCH  50  74
BRANCH  62  85
ATOM     85  C   UNL A   1      45.810  25.919  31.870  1.00  0.00     0.023 A 
ATOM     86  C   UNL A   1      44.674  26.377  32.572  1.00  0.00     0.031 A 
ATOM     87  C   UNL A   1      46.988  25.701  32.607  1.00  0.00     0.131 A 
ATOM     88  C   UNL A   1      44.749  26.611  33.959  1.00  0.00     0.055 A 
ATOM     89  C   UNL A   1      47.054  25.917  33.983  1.00  0.00     0.041 A 
ATOM     90  F   UNL A   1      48.093  25.233  32.002  1.00  0.00    -0.206 F 
ATOM     91  C   UNL A   1      45.935  26.381  34.664  1.00  0.00     0.022 A 
BRANCH  88  92
ATOM     92  S   UNL A   1      43.300  27.233  34.872  1.00  0.00     0.124 S 
ATOM     93  O   UNL A   1      43.879  27.819  36.075  1.00  0.00    -0.237 OA
ATOM     94  O   UNL A   1      42.713  28.173  33.921  1.00  0.00    -0.237 OA
ATOM     95  O   UNL A   1      42.504  26.027  35.105  1.00  0.00    -0.744 OA
ENDBRANCH  88  92
ENDBRANCH  62  85
ENDBRANCH  36  37
ENDBRANCH  29  31
ENDBRANCH  28  29
ENDBRANCH  27  28
ENDBRANCH  26  27
ENDBRANCH  25  26
ENDBRANCH   1  25
TORSDOF 22
ENDMDL
MODEL 3
REMARK VINA RESULT:     -10.9      4.706      9.711
REMARK SMILES Cn1cc(Cl)cc1C(=O)N[C@H]1C=C[C@H](C(=O)OCCOCCOCCOC(=O)c2ccc(-c3c4nc(c(-c5cc(S(=O)(=O)[O-])ccc5F)c5ccc([nH]5)c(-c5cc(S(=O)(=O)[O-])ccc5F)c5nc(c(-c6cc(S(=O)(=O)[O-])ccc6F)c6ccc3[nH]6)C=C5)C=C4)cc2)C1
REMARK SMILES IDX 22 1 21 2 20 3 19 4 18 5 17 6 15 7 16 8 14 9 11 10 12 11
REMARK SMILES IDX 92 12 13 13 10 14 8 15 9 16 7 18 1 19 2 20 3 21 4 22 6 23
REMARK SMILES IDX 5 24 23 25 24 26 25 27 26 28 27 29 28 30 29 31 30 32 91 33
REMARK SMILES IDX 31 34 90 35 32 36 33 37 34 38 84 39 35 40 89 41 83 42 85 43
REMARK SMILES IDX 36 44 88 45 82 46 81 47 37 49 69 50 49 51 68 52 50 53 53 54
REMARK SMILES IDX 67 55 86 56 51 57 52 58 66 60 87 61 54 62 38 63 39 64 47 65
REMARK SMILES IDX 40 66 46 67 48 68 45 69 41 70 42 71 43 72 44 73 70 74 71 75
REMARK SMILES IDX 79 76 72 77 78 78 80 79 77 80 73 81 74 82 75 83 76 84 55 85
REMARK SMILES IDX 56 86 64 87 57 88 63 89 65 90 62 91 58 92 59 93 60 94 61 95
REMARK H PARENT 10 17 85 48 53 59
REMARK Flexibility Score: inf
ROOT
ATOM      1  C   UNL A   1      32.903  35.801  29.303  1.00  0.00     0.188 C 
ENDROOT
BRANCH   1   2
ATOM      2  C   UNL A   1      32.957  36.085  30.818  1.00  0.00     0.188 C 
BRANCH   2   3
ATOM      3  O   UNL A   1      33.970  35.533  31.647  1.00  0.00    -0.376 OA
BRANCH   3   4
ATOM      4  C   UNL A   1      33.624  35.008  32.912  1.00  0.00     0.202 C 
BRANCH   4   5
ATOM      5  C   UNL A   1      33.918  33.528  33.174  1.00  0.00     0.261 C 
BRANCH   5   6
ATOM      6  O   UNL A   1      35.288  33.174  33.446  1.00  0.00    -0.463 OA
BRANCH   6   7
ATOM      7  C   UNL A   1      35.878  32.358  32.525  1.00  0.00     0.312 C 
ATOM      8  O   UNL A   1      35.268  31.590  31.791  1.00  0.00    -0.252 OA
BRANCH   7   9
ATOM      9  C   UNL A   1      37.407  32.502  32.554  1.00  0.00     0.124 C 
ATOM     10  C   UNL A   1      38.230  31.650  34.698  1.00  0.00     0.106 C 
ATOM     11  C   UNL A   1      38.179  33.150  34.675  1.00  0.00    -0.006 C 
ATOM     12  C   UNL A   1      38.155  31.323  33.198  1.00  0.00     0.048 C 
ATOM     13  C   UNL A   1      37.761  33.621  33.494  1.00  0.00    -0.014 C 
BRANCH  10  14
ATOM     14  N   UNL A   1      39.435  31.275  35.404  1.00  0.00    -0.345 N 
ATOM     15  C   UNL A   1      40.774  31.470  35.211  1.00  0.00     0.268 C 
ATOM     16  O   UNL A   1      41.512  30.877  36.000  1.00  0.00    -0.268 OA
ATOM     17  H   UNL A   1      39.245  30.756  36.219  1.00  0.00     0.164 HD
BRANCH  15  18
ATOM     18  C   UNL A   1      41.288  32.405  34.242  1.00  0.00     0.108 A 
ATOM     19  C   UNL A   1      41.418  34.622  35.450  1.00  0.00     0.150 C 
ATOM     20  N   UNL A   1      41.753  33.692  34.396  1.00  0.00    -0.345 N 
ATOM     21  C   UNL A   1      42.417  34.071  33.258  1.00  0.00     0.106 A 
ATOM     22  C   UNL A   1      42.018  33.228  32.253  1.00  0.00     0.059 A 
ATOM     23  C   UNL A   1      41.286  32.194  32.862  1.00  0.00     0.054 A 
ATOM     24  Cl  UNL A   1      42.345  33.369  30.598  1.00  0.00    -0.083 Cl
ENDBRANCH  15  18
ENDBRANCH  10  14
ENDBRANCH   7   9
ENDBRANCH   6   7
ENDBRANCH   5   6
ENDBRANCH   4   5
ENDBRANCH   3   4
ENDBRANCH   2   3
ENDBRANCH   1   2
BRANCH   1  25
ATOM     25  O   UNL A   1      34.156  35.495  28.707  1.00  0.00    -0.376 OA
BRANCH  25  26
ATOM     26  C   UNL A   1      34.213  34.269  27.991  1.00  0.00     0.202 C 
BRANCH  26  27
ATOM     27  C   UNL A   1      34.983  33.196  28.755  1.00  0.00     0.261 C 
BRANCH  27  28
ATOM     28  O   UNL A   1      36.041  32.580  28.021  1.00  0.00    -0.460 OA
BRANCH  28  29
ATOM     29  C   UNL A   1      35.986  31.233  27.954  1.00  0.00     0.338 C 
ATOM     30  O   UNL A   1      35.231  30.561  27.276  1.00  0.00    -0.246 OA
BRANCH  29  31
ATOM     31  C   UNL A   1      36.958  30.660  28.886  1.00  0.00     0.060 A 
ATOM     32  C   UNL A   1      38.130  31.388  29.103  1.00  0.00     0.016 A 
ATOM     33  C   UNL A   1      36.816  29.335  29.321  1.00  0.00     0.016 A 
ATOM     34  C   UNL A   1      39.221  30.753  29.641  1.00  0.00     0.010 A 
ATOM     35  C   UNL A   1      37.922  28.683  29.818  1.00  0.00     0.010 A 
ATOM     36  C   UNL A   1      39.124  29.386  29.894  1.00  0.00    -0.014 A 
BRANCH  36  37
ATOM     37  C   UNL A   1      40.377  28.694  30.102  1.00  0.00     0.031 A 
ATOM     38  C   UNL A   1      40.821  28.578  31.503  1.00  0.00     0.074 A 
ATOM     39  C   UNL A   1      41.038  28.183  29.047  1.00  0.00     0.049 A 
ATOM     40  N   UNL A   1      41.939  28.958  32.021  1.00  0.00    -0.248 NA
ATOM     41  C   UNL A   1      39.847  28.058  32.476  1.00  0.00     0.031 C 
ATOM     42  C   UNL A   1      40.535  28.047  27.675  1.00  0.00     0.029 A 
ATOM     43  N   UNL A   1      42.242  27.553  29.007  1.00  0.00    -0.354 N 
ATOM     44  C   UNL A   1      41.903  28.528  33.341  1.00  0.00     0.074 A 
ATOM     45  C   UNL A   1      40.544  28.139  33.607  1.00  0.00     0.031 C 
ATOM     46  C   UNL A   1      41.312  27.169  27.010  1.00  0.00     0.029 A 
ATOM     47  C   UNL A   1      42.413  26.773  27.873  1.00  0.00     0.049 A 
ATOM     48  H   UNL A   1      42.924  27.642  29.712  1.00  0.00     0.167 HD
ATOM     49  C   UNL A   1      43.044  28.299  34.041  1.00  0.00     0.034 A 
ATOM     50  C   UNL A   1      43.314  25.774  27.706  1.00  0.00     0.034 A 
ATOM     51  C   UNL A   1      44.155  29.047  33.502  1.00  0.00     0.049 A 
ATOM     52  C   UNL A   1      44.405  25.981  28.689  1.00  0.00     0.074 A 
ATOM     53  C   UNL A   1      44.390  30.393  33.286  1.00  0.00     0.029 A 
ATOM     54  N   UNL A   1      45.120  28.384  32.781  1.00  0.00    -0.354 N 
ATOM     55  N   UNL A   1      45.229  26.993  28.659  1.00  0.00    -0.248 NA
ATOM     56  C   UNL A   1      44.328  25.290  29.968  1.00  0.00     0.031 C 
ATOM     57  C   UNL A   1      45.172  30.454  32.097  1.00  0.00     0.029 A 
ATOM     58  C   UNL A   1      45.404  29.145  31.672  1.00  0.00     0.049 A 
ATOM     59  H   UNL A   1      45.531  27.521  33.016  1.00  0.00     0.167 HD
ATOM     60  C   UNL A   1      45.448  27.321  29.988  1.00  0.00     0.074 A 
ATOM     61  C   UNL A   1      44.971  26.168  30.743  1.00  0.00     0.031 C 
ATOM     62  C   UNL A   1      45.731  28.603  30.366  1.00  0.00     0.034 A 
BRANCH  49  63
ATOM     63  C   UNL A   1      43.209  27.142  34.999  1.00  0.00     0.023 A 
ATOM     64  C   UNL A   1      43.928  26.021  34.545  1.00  0.00     0.031 A 
ATOM     65  C   UNL A   1      42.482  26.958  36.200  1.00  0.00     0.131 A 
ATOM     66  C   UNL A   1      43.835  24.788  35.212  1.00  0.00     0.055 A 
ATOM     67  C   UNL A   1      42.457  25.751  36.902  1.00  0.00     0.041 A 
ATOM     68  F   UNL A   1      41.678  27.897  36.715  1.00  0.00    -0.206 F 
ATOM     69  C   UNL A   1      43.111  24.645  36.392  1.00  0.00     0.022 A 
BRANCH  66  70
ATOM     70  S   UNL A   1      44.518  23.321  34.398  1.00  0.00     0.124 S 
ATOM     71  O   UNL A   1      45.890  23.743  34.134  1.00  0.00    -0.237 OA
ATOM     72  O   UNL A   1      44.343  22.303  35.427  1.00  0.00    -0.237 OA
ATOM     73  O   UNL A   1      43.675  23.169  33.215  1.00  0.00    -0.744 OA
ENDBRANCH  66  70
ENDBRANCH  49  63
BRANCH  50  74
ATOM     74  C   UNL A   1      43.052  24.496  26.996  1.00  0.00     0.023 A 
ATOM     75  C   UNL A   1      43.961  23.949  26.076  1.00  0.00     0.031 A 
ATOM     76  C   UNL A   1      41.960  23.676  27.375  1.00  0.00     0.131 A 
ATOM     77  C   UNL A   1      43.751  22.652  25.559  1.00  0.00     0.055 A 
ATOM     78  C   UNL A   1      41.741  22.408  26.840  1.00  0.00     0.041 A 
ATOM     79  F   UNL A   1      41.108  24.049  28.344  1.00  0.00    -0.206 F 
ATOM     80  C   UNL A   1      42.642  21.887  25.929  1.00  0.00     0.022 A 
BRANCH  77  81
ATOM     81  S   UNL A   1      44.996  21.895  24.471  1.00  0.00     0.124 S 
ATOM     82  O   UNL A   1      46.078  21.597  25.402  1.00  0.00    -0.237 OA
ATOM     83  O   UNL A   1      44.277  20.751  23.922  1.00  0.00    -0.237 OA
ATOM     84  O   UNL A   1      45.289  22.953  23.502  1.00  0.00    -0.744 OA
ENDBRANCH  77  81
ENDBRANCH  50  74
BRANCH  62  85
ATOM     85  C   UNL A   1      46.164  29.592  29.302  1.00  0.00     0.023 A 
ATOM     86  C   UNL A   1      45.280  30.408  28.563  1.00  0.00     0.031 A 
ATOM     87  C   UNL A   1      47.544  29.799  29.127  1.00  0.00     0.131 A 
ATOM     88  C   UNL A   1      45.788  31.378  27.679  1.00  0.00     0.055 A 
ATOM     89  C   UNL A   1      48.044  30.773  28.263  1.00  0.00     0.041 A 
ATOM     90  F   UNL A   1      48.436  29.079  29.827  1.00  0.00    -0.206 F 
ATOM     91  C   UNL A   1      47.167  31.563  27.530  1.00  0.00     0.022 A 
BRANCH  88  92
ATOM     92  S   UNL A   1      44.659  32.415  26.695  1.00  0.00     0.124 S 
ATOM     93  O   UNL A   1      44.079  33.321  27.680  1.00  0.00    -0.237 OA
ATOM     94  O   UNL A   1      45.562  33.021  25.721  1.00  0.00    -0.237 OA
ATOM     95  O   UNL A   1      43.717  31.447  26.130  1.00  0.00    -0.744 OA
ENDBRANCH  88  92
ENDBRANCH  62  85
ENDBRANCH  36  37
ENDBRANCH  29  31
ENDBRANCH  28  29
ENDBRANCH  27  28
ENDBRANCH  26  27
ENDBRANCH  25  26
ENDBRANCH   1  25
TORSDOF 22
ENDMDL
