MODEL 1
REMARK VINA RESULT:     -10.7      0.000      0.000
REMARK SMILES C[C@@H]1C(=O)O[C@@H]([C@@H]2CCC[C@H](CCC(=O)OCCOCCOCCOC(=O)c3ccc(-c4c5nc(c(-c6cc(S(=O)(=O)[O-])ccc6F)c6ccc([nH]6)c(-c6cc(S(=O)(=O)[O-])ccc6F)c6nc(c(-c7cc(S(=O)(=O)[O-])ccc7F)c7ccc4[nH]7)C=C6)C=C5)cc3)O2)[C@H]1O
REMARK SMILES IDX 20 1 19 2 18 3 17 4 16 5 14 6 15 7 13 8 12 9 11 10 7 11 8 12
REMARK SMILES IDX 91 13 9 14 10 15 6 16 1 17 2 18 3 19 92 20 4 21 5 22 93 23
REMARK SMILES IDX 21 25 22 26 23 27 24 28 25 29 26 30 27 31 28 32 29 33 90 34
REMARK SMILES IDX 30 35 89 36 31 37 32 38 33 39 83 40 34 41 88 42 82 43 84 44
REMARK SMILES IDX 35 45 87 46 81 47 80 48 36 50 68 51 48 52 67 53 49 54 52 55
REMARK SMILES IDX 66 56 85 57 50 58 51 59 65 61 86 62 53 63 37 64 38 65 46 66
REMARK SMILES IDX 39 67 45 68 47 69 44 70 40 71 41 72 42 73 43 74 69 75 70 76
REMARK SMILES IDX 78 77 71 78 77 79 79 80 76 81 72 82 73 83 74 84 75 85 54 86
REMARK SMILES IDX 55 87 63 88 56 89 62 90 64 91 61 92 57 93 58 94 59 95 60 96
REMARK H PARENT 93 24 84 49 52 60
REMARK Flexibility Score: inf
ROOT
ATOM      1  C   UNL A   1      31.054  29.077  24.452  1.00  0.00     0.188 C 
ENDROOT
BRANCH   1   2
ATOM      2  O   UNL A   1      31.060  27.652  24.430  1.00  0.00    -0.376 OA
BRANCH   2   3
ATOM      3  C   UNL A   1      31.607  27.030  23.270  1.00  0.00     0.202 C 
BRANCH   3   4
ATOM      4  C   UNL A   1      31.091  25.621  22.943  1.00  0.00     0.261 C 
BRANCH   4   5
ATOM      5  O   UNL A   1      32.062  24.583  23.174  1.00  0.00    -0.463 OA
BRANCH   5   6
ATOM      6  C   UNL A   1      33.198  24.674  22.439  1.00  0.00     0.305 C 
ATOM      7  O   UNL A   1      33.236  24.877  21.229  1.00  0.00    -0.252 OA
BRANCH   6   8
ATOM      8  C   UNL A   1      34.465  24.592  23.255  1.00  0.00     0.125 C 
BRANCH   8   9
ATOM      9  C   UNL A   1      34.700  23.389  24.160  1.00  0.00     0.044 C 
BRANCH   9  10
ATOM     10  C   UNL A   1      34.526  23.558  25.678  1.00  0.00     0.119 C 
ATOM     11  C   UNL A   1      33.826  21.437  26.731  1.00  0.00     0.162 C 
ATOM     12  C   UNL A   1      32.778  22.157  27.570  1.00  0.00     0.036 C 
ATOM     13  O   UNL A   1      34.865  22.329  26.321  1.00  0.00    -0.371 OA
ATOM     14  C   UNL A   1      32.214  23.387  26.887  1.00  0.00     0.005 C 
ATOM     15  C   UNL A   1      33.296  24.263  26.268  1.00  0.00     0.032 C 
BRANCH  11  16
ATOM     16  C   UNL A   1      33.279  20.413  25.700  1.00  0.00     0.234 C 
ATOM     17  C   UNL A   1      32.551  18.540  23.068  1.00  0.00     0.023 C 
ATOM     18  C   UNL A   1      33.452  18.481  24.290  1.00  0.00     0.128 C 
ATOM     19  C   UNL A   1      32.667  18.219  25.546  1.00  0.00     0.311 C 
ATOM     20  C   UNL A   1      34.129  19.811  24.582  1.00  0.00     0.172 C 
ATOM     21  O   UNL A   1      32.086  17.176  25.799  1.00  0.00    -0.252 OA
ATOM     22  O   UNL A   1      32.667  19.303  26.367  1.00  0.00    -0.457 OA
BRANCH  20  23
ATOM     23  O   UNL A   1      35.478  19.561  24.930  1.00  0.00    -0.388 OA
ATOM     24  H   UNL A   1      36.061  19.927  24.247  1.00  0.00     0.211 HD
ENDBRANCH  20  23
ENDBRANCH  11  16
ENDBRANCH   9  10
ENDBRANCH   8   9
ENDBRANCH   6   8
ENDBRANCH   5   6
ENDBRANCH   4   5
ENDBRANCH   3   4
ENDBRANCH   2   3
ENDBRANCH   1   2
BRANCH   1  25
ATOM     25  C   UNL A   1      31.740  29.747  25.644  1.00  0.00     0.188 C 
BRANCH  25  26
ATOM     26  O   UNL A   1      31.423  31.127  25.826  1.00  0.00    -0.376 OA
BRANCH  26  27
ATOM     27  C   UNL A   1      32.063  31.754  26.946  1.00  0.00     0.202 C 
BRANCH  27  28
ATOM     28  C   UNL A   1      32.005  33.296  26.964  1.00  0.00     0.261 C 
BRANCH  28  29
ATOM     29  O   UNL A   1      32.264  33.871  28.260  1.00  0.00    -0.460 OA
BRANCH  29  30
ATOM     30  C   UNL A   1      33.373  34.644  28.366  1.00  0.00     0.338 C 
ATOM     31  O   UNL A   1      33.395  35.862  28.388  1.00  0.00    -0.246 OA
BRANCH  30  32
ATOM     32  C   UNL A   1      34.525  33.766  28.707  1.00  0.00     0.060 A 
ATOM     33  C   UNL A   1      34.264  32.515  29.284  1.00  0.00     0.016 A 
ATOM     34  C   UNL A   1      35.843  34.132  28.409  1.00  0.00     0.016 A 
ATOM     35  C   UNL A   1      35.318  31.656  29.612  1.00  0.00     0.010 A 
ATOM     36  C   UNL A   1      36.897  33.273  28.743  1.00  0.00     0.010 A 
ATOM     37  C   UNL A   1      36.645  32.046  29.383  1.00  0.00    -0.014 A 
BRANCH  37  38
ATOM     38  C   UNL A   1      37.767  31.296  30.010  1.00  0.00     0.031 A 
ATOM     39  C   UNL A   1      38.135  31.642  31.432  1.00  0.00     0.074 A 
ATOM     40  C   UNL A   1      38.435  30.320  29.367  1.00  0.00     0.049 A 
ATOM     41  N   UNL A   1      39.109  31.186  32.177  1.00  0.00    -0.248 NA
ATOM     42  C   UNL A   1      37.286  32.643  32.097  1.00  0.00     0.031 C 
ATOM     43  C   UNL A   1      38.150  29.844  28.015  1.00  0.00     0.029 A 
ATOM     44  N   UNL A   1      39.502  29.552  29.774  1.00  0.00    -0.354 N 
ATOM     45  C   UNL A   1      38.979  31.831  33.402  1.00  0.00     0.074 A 
ATOM     46  C   UNL A   1      37.868  32.750  33.281  1.00  0.00     0.031 C 
ATOM     47  C   UNL A   1      39.025  28.869  27.703  1.00  0.00     0.029 A 
ATOM     48  C   UNL A   1      39.957  28.675  28.815  1.00  0.00     0.049 A 
ATOM     49  H   UNL A   1      39.903  29.623  30.670  1.00  0.00     0.167 HD
ATOM     50  C   UNL A   1      39.705  31.662  34.535  1.00  0.00     0.034 A 
ATOM     51  C   UNL A   1      41.014  27.834  28.827  1.00  0.00     0.034 A 
ATOM     52  C   UNL A   1      40.825  30.764  34.653  1.00  0.00     0.049 A 
ATOM     53  C   UNL A   1      41.889  27.760  30.063  1.00  0.00     0.074 A 
ATOM     54  C   UNL A   1      41.644  30.547  35.748  1.00  0.00     0.029 A 
ATOM     55  N   UNL A   1      41.287  29.933  33.642  1.00  0.00    -0.354 N 
ATOM     56  N   UNL A   1      41.762  28.386  31.210  1.00  0.00    -0.248 NA
ATOM     57  C   UNL A   1      43.049  26.857  30.005  1.00  0.00     0.031 C 
ATOM     58  C   UNL A   1      42.636  29.633  35.381  1.00  0.00     0.029 A 
ATOM     59  C   UNL A   1      42.392  29.221  34.081  1.00  0.00     0.049 A 
ATOM     60  H   UNL A   1      40.888  29.861  32.744  1.00  0.00     0.167 HD
ATOM     61  C   UNL A   1      42.795  27.912  32.020  1.00  0.00     0.074 A 
ATOM     62  C   UNL A   1      43.528  26.942  31.236  1.00  0.00     0.031 C 
ATOM     63  C   UNL A   1      43.109  28.244  33.298  1.00  0.00     0.034 A 
BRANCH  50  64
ATOM     64  C   UNL A   1      39.322  32.501  35.728  1.00  0.00     0.023 A 
ATOM     65  C   UNL A   1      39.734  33.839  35.847  1.00  0.00     0.031 A 
ATOM     66  C   UNL A   1      38.547  31.951  36.763  1.00  0.00     0.131 A 
ATOM     67  C   UNL A   1      39.413  34.568  37.001  1.00  0.00     0.055 A 
ATOM     68  C   UNL A   1      38.168  32.705  37.876  1.00  0.00     0.041 A 
ATOM     69  F   UNL A   1      38.149  30.670  36.714  1.00  0.00    -0.206 F 
ATOM     70  C   UNL A   1      38.611  34.018  38.004  1.00  0.00     0.022 A 
BRANCH  67  71
ATOM     71  S   UNL A   1      40.151  36.208  37.227  1.00  0.00     0.124 S 
ATOM     72  O   UNL A   1      40.013  36.781  35.890  1.00  0.00    -0.237 OA
ATOM     73  O   UNL A   1      39.311  36.795  38.265  1.00  0.00    -0.237 OA
ATOM     74  O   UNL A   1      41.524  35.914  37.630  1.00  0.00    -0.744 OA
ENDBRANCH  67  71
ENDBRANCH  50  64
BRANCH  51  75
ATOM     75  C   UNL A   1      41.367  27.015  27.626  1.00  0.00     0.023 A 
ATOM     76  C   UNL A   1      41.054  25.647  27.564  1.00  0.00     0.031 A 
ATOM     77  C   UNL A   1      42.138  27.558  26.584  1.00  0.00     0.131 A 
ATOM     78  C   UNL A   1      41.577  24.852  26.529  1.00  0.00     0.055 A 
ATOM     79  C   UNL A   1      42.597  26.779  25.520  1.00  0.00     0.041 A 
ATOM     80  F   UNL A   1      42.479  28.857  26.594  1.00  0.00    -0.206 F 
ATOM     81  C   UNL A   1      42.335  25.413  25.500  1.00  0.00     0.022 A 
BRANCH  78  82
ATOM     82  S   UNL A   1      41.376  23.051  26.631  1.00  0.00     0.124 S 
ATOM     83  O   UNL A   1      39.959  22.894  26.327  1.00  0.00    -0.237 OA
ATOM     84  O   UNL A   1      42.308  22.585  25.609  1.00  0.00    -0.237 OA
ATOM     85  O   UNL A   1      41.758  22.743  28.008  1.00  0.00    -0.744 OA
ENDBRANCH  78  82
ENDBRANCH  51  75
BRANCH  63  86
ATOM     86  C   UNL A   1      44.247  27.498  33.955  1.00  0.00     0.023 A 
ATOM     87  C   UNL A   1      44.090  26.201  34.473  1.00  0.00     0.031 A 
ATOM     88  C   UNL A   1      45.513  28.104  34.064  1.00  0.00     0.131 A 
ATOM     89  C   UNL A   1      45.165  25.572  35.124  1.00  0.00     0.055 A 
ATOM     90  C   UNL A   1      46.593  27.451  34.660  1.00  0.00     0.041 A 
ATOM     91  F   UNL A   1      45.723  29.341  33.587  1.00  0.00    -0.206 F 
ATOM     92  C   UNL A   1      46.419  26.183  35.207  1.00  0.00     0.022 A 
BRANCH  89  93
ATOM     93  S   UNL A   1      44.882  23.975  35.938  1.00  0.00     0.124 S 
ATOM     94  O   UNL A   1      43.453  23.771  35.720  1.00  0.00    -0.237 OA
ATOM     95  O   UNL A   1      45.772  23.086  35.199  1.00  0.00    -0.237 OA
ATOM     96  O   UNL A   1      45.268  24.224  37.325  1.00  0.00    -0.744 OA
ENDBRANCH  89  93
ENDBRANCH  63  86
ENDBRANCH  37  38
ENDBRANCH  30  32
ENDBRANCH  29  30
ENDBRANCH  28  29
ENDBRANCH  27  28
ENDBRANCH  26  27
ENDBRANCH  25  26
ENDBRANCH   1  25
TORSDOF 24
ENDMDL
MODEL 2
REMARK VINA RESULT:      -9.7      1.924      2.148
REMARK SMILES C[C@@H]1C(=O)O[C@@H]([C@@H]2CCC[C@H](CCC(=O)OCCOCCOCCOC(=O)c3ccc(-c4c5nc(c(-c6cc(S(=O)(=O)[O-])ccc6F)c6ccc([nH]6)c(-c6cc(S(=O)(=O)[O-])ccc6F)c6nc(c(-c7cc(S(=O)(=O)[O-])ccc7F)c7ccc4[nH]7)C=C6)C=C5)cc3)O2)[C@H]1O
REMARK SMILES IDX 20 1 19 2 18 3 17 4 16 5 14 6 15 7 13 8 12 9 11 10 7 11 8 12
REMARK SMILES IDX 91 13 9 14 10 15 6 16 1 17 2 18 3 19 92 20 4 21 5 22 93 23
REMARK SMILES IDX 21 25 22 26 23 27 24 28 25 29 26 30 27 31 28 32 29 33 90 34
REMARK SMILES IDX 30 35 89 36 31 37 32 38 33 39 83 40 34 41 88 42 82 43 84 44
REMARK SMILES IDX 35 45 87 46 81 47 80 48 36 50 68 51 48 52 67 53 49 54 52 55
REMARK SMILES IDX 66 56 85 57 50 58 51 59 65 61 86 62 53 63 37 64 38 65 46 66
REMARK SMILES IDX 39 67 45 68 47 69 44 70 40 71 41 72 42 73 43 74 69 75 70 76
REMARK SMILES IDX 78 77 71 78 77 79 79 80 76 81 72 82 73 83 74 84 75 85 54 86
REMARK SMILES IDX 55 87 63 88 56 89 62 90 64 91 61 92 57 93 58 94 59 95 60 96
REMARK H PARENT 93 24 84 49 52 60
REMARK Flexibility Score: inf
ROOT
ATOM      1  C   UNL A   1      31.578  28.928  25.726  1.00  0.00     0.188 C 
ENDROOT
BRANCH   1   2
ATOM      2  O   UNL A   1      32.333  28.003  24.946  1.00  0.00    -0.376 OA
BRANCH   2   3
ATOM      3  C   UNL A   1      31.623  27.277  23.946  1.00  0.00     0.202 C 
BRANCH   3   4
ATOM      4  C   UNL A   1      31.589  25.750  24.105  1.00  0.00     0.261 C 
BRANCH   4   5
ATOM      5  O   UNL A   1      31.989  25.039  22.919  1.00  0.00    -0.463 OA
BRANCH   5   6
ATOM      6  C   UNL A   1      33.279  25.216  22.539  1.00  0.00     0.305 C 
ATOM      7  O   UNL A   1      33.635  25.670  21.457  1.00  0.00    -0.252 OA
BRANCH   6   8
ATOM      8  C   UNL A   1      34.285  24.886  23.615  1.00  0.00     0.125 C 
BRANCH   8   9
ATOM      9  C   UNL A   1      34.164  23.575  24.381  1.00  0.00     0.044 C 
BRANCH   9  10
ATOM     10  C   UNL A   1      34.135  23.614  25.918  1.00  0.00     0.119 C 
ATOM     11  C   UNL A   1      33.838  21.350  26.857  1.00  0.00     0.162 C 
ATOM     12  C   UNL A   1      32.802  21.858  27.852  1.00  0.00     0.036 C 
ATOM     13  O   UNL A   1      34.701  22.404  26.421  1.00  0.00    -0.371 OA
ATOM     14  C   UNL A   1      32.011  23.042  27.331  1.00  0.00     0.005 C 
ATOM     15  C   UNL A   1      32.894  24.100  26.682  1.00  0.00     0.032 C 
BRANCH  11  16
ATOM     16  C   UNL A   1      33.321  20.333  25.804  1.00  0.00     0.234 C 
ATOM     17  C   UNL A   1      32.596  18.536  23.119  1.00  0.00     0.023 C 
ATOM     18  C   UNL A   1      33.579  18.503  24.277  1.00  0.00     0.128 C 
ATOM     19  C   UNL A   1      32.908  18.100  25.561  1.00  0.00     0.311 C 
ATOM     20  C   UNL A   1      34.146  19.875  24.603  1.00  0.00     0.172 C 
ATOM     21  O   UNL A   1      32.446  16.994  25.789  1.00  0.00    -0.252 OA
ATOM     22  O   UNL A   1      32.862  19.135  26.442  1.00  0.00    -0.457 OA
BRANCH  20  23
ATOM     23  O   UNL A   1      35.533  19.739  24.852  1.00  0.00    -0.388 OA
ATOM     24  H   UNL A   1      35.730  20.033  25.755  1.00  0.00     0.211 HD
ENDBRANCH  20  23
ENDBRANCH  11  16
ENDBRANCH   9  10
ENDBRANCH   8   9
ENDBRANCH   6   8
ENDBRANCH   5   6
ENDBRANCH   4   5
ENDBRANCH   3   4
ENDBRANCH   2   3
ENDBRANCH   1   2
BRANCH   1  25
ATOM     25  C   UNL A   1      32.361  29.770  26.735  1.00  0.00     0.188 C 
BRANCH  25  26
ATOM     26  O   UNL A   1      31.947  31.133  26.834  1.00  0.00    -0.376 OA
BRANCH  26  27
ATOM     27  C   UNL A   1      32.982  32.057  27.197  1.00  0.00     0.202 C 
BRANCH  27  28
ATOM     28  C   UNL A   1      32.536  33.527  27.344  1.00  0.00     0.261 C 
BRANCH  28  29
ATOM     29  O   UNL A   1      32.524  33.995  28.707  1.00  0.00    -0.460 OA
BRANCH  29  30
ATOM     30  C   UNL A   1      33.599  34.721  29.105  1.00  0.00     0.338 C 
ATOM     31  O   UNL A   1      33.594  35.905  29.395  1.00  0.00    -0.246 OA
BRANCH  30  32
ATOM     32  C   UNL A   1      34.723  33.784  29.373  1.00  0.00     0.060 A 
ATOM     33  C   UNL A   1      34.463  32.624  30.116  1.00  0.00     0.016 A 
ATOM     34  C   UNL A   1      36.004  34.003  28.852  1.00  0.00     0.016 A 
ATOM     35  C   UNL A   1      35.491  31.713  30.384  1.00  0.00     0.010 A 
ATOM     36  C   UNL A   1      37.033  33.094  29.126  1.00  0.00     0.010 A 
ATOM     37  C   UNL A   1      36.793  31.962  29.926  1.00  0.00    -0.014 A 
BRANCH  37  38
ATOM     38  C   UNL A   1      37.940  31.183  30.467  1.00  0.00     0.031 A 
ATOM     39  C   UNL A   1      38.357  31.445  31.893  1.00  0.00     0.074 A 
ATOM     40  C   UNL A   1      38.589  30.252  29.743  1.00  0.00     0.049 A 
ATOM     41  N   UNL A   1      39.359  30.951  32.574  1.00  0.00    -0.248 NA
ATOM     42  C   UNL A   1      37.527  32.398  32.647  1.00  0.00     0.031 C 
ATOM     43  C   UNL A   1      38.258  29.857  28.375  1.00  0.00     0.029 A 
ATOM     44  N   UNL A   1      39.673  29.468  30.064  1.00  0.00    -0.354 N 
ATOM     45  C   UNL A   1      39.270  31.520  33.840  1.00  0.00     0.074 A 
ATOM     46  C   UNL A   1      38.151  32.437  33.814  1.00  0.00     0.031 C 
ATOM     47  C   UNL A   1      39.126  28.909  27.973  1.00  0.00     0.029 A 
ATOM     48  C   UNL A   1      40.098  28.655  29.038  1.00  0.00     0.049 A 
ATOM     49  H   UNL A   1      40.106  29.487  30.948  1.00  0.00     0.167 HD
ATOM     50  C   UNL A   1      40.037  31.288  34.934  1.00  0.00     0.034 A 
ATOM     51  C   UNL A   1      41.158  27.822  28.961  1.00  0.00     0.034 A 
ATOM     52  C   UNL A   1      41.164  30.392  34.957  1.00  0.00     0.049 A 
ATOM     53  C   UNL A   1      42.078  27.679  30.158  1.00  0.00     0.074 A 
ATOM     54  C   UNL A   1      42.023  30.115  36.007  1.00  0.00     0.029 A 
ATOM     55  N   UNL A   1      41.594  29.627  33.882  1.00  0.00    -0.354 N 
ATOM     56  N   UNL A   1      41.989  28.233  31.346  1.00  0.00    -0.248 NA
ATOM     57  C   UNL A   1      43.239  26.789  30.004  1.00  0.00     0.031 C 
ATOM     58  C   UNL A   1      43.006  29.231  35.550  1.00  0.00     0.029 A 
ATOM     59  C   UNL A   1      42.718  28.897  34.238  1.00  0.00     0.049 A 
ATOM     60  H   UNL A   1      41.164  29.606  32.996  1.00  0.00     0.167 HD
ATOM     61  C   UNL A   1      43.052  27.718  32.087  1.00  0.00     0.074 A 
ATOM     62  C   UNL A   1      43.761  26.803  31.221  1.00  0.00     0.031 C 
ATOM     63  C   UNL A   1      43.410  27.974  33.372  1.00  0.00     0.034 A 
BRANCH  50  64
ATOM     64  C   UNL A   1      39.693  32.050  36.189  1.00  0.00     0.023 A 
ATOM     65  C   UNL A   1      38.687  31.607  37.063  1.00  0.00     0.031 A 
ATOM     66  C   UNL A   1      40.372  33.239  36.507  1.00  0.00     0.131 A 
ATOM     67  C   UNL A   1      38.350  32.375  38.187  1.00  0.00     0.055 A 
ATOM     68  C   UNL A   1      40.083  33.960  37.666  1.00  0.00     0.041 A 
ATOM     69  F   UNL A   1      41.324  33.722  35.694  1.00  0.00    -0.206 F 
ATOM     70  C   UNL A   1      39.059  33.535  38.508  1.00  0.00     0.022 A 
BRANCH  67  71
ATOM     71  S   UNL A   1      36.898  31.900  39.163  1.00  0.00     0.124 S 
ATOM     72  O   UNL A   1      35.914  32.888  38.728  1.00  0.00    -0.237 OA
ATOM     73  O   UNL A   1      36.660  30.527  38.731  1.00  0.00    -0.237 OA
ATOM     74  O   UNL A   1      37.350  32.049  40.544  1.00  0.00    -0.744 OA
ENDBRANCH  67  71
ENDBRANCH  50  64
BRANCH  51  75
ATOM     75  C   UNL A   1      41.472  27.079  27.701  1.00  0.00     0.023 A 
ATOM     76  C   UNL A   1      41.222  25.701  27.590  1.00  0.00     0.031 A 
ATOM     77  C   UNL A   1      42.148  27.709  26.642  1.00  0.00     0.131 A 
ATOM     78  C   UNL A   1      41.714  24.984  26.486  1.00  0.00     0.055 A 
ATOM     79  C   UNL A   1      42.574  27.006  25.513  1.00  0.00     0.041 A 
ATOM     80  F   UNL A   1      42.426  29.022  26.696  1.00  0.00    -0.206 F 
ATOM     81  C   UNL A   1      42.377  25.630  25.441  1.00  0.00     0.022 A 
BRANCH  78  82
ATOM     82  S   UNL A   1      41.607  23.172  26.509  1.00  0.00     0.124 S 
ATOM     83  O   UNL A   1      40.177  22.958  26.318  1.00  0.00    -0.237 OA
ATOM     84  O   UNL A   1      42.467  22.804  25.389  1.00  0.00    -0.237 OA
ATOM     85  O   UNL A   1      42.121  22.818  27.830  1.00  0.00    -0.744 OA
ENDBRANCH  78  82
ENDBRANCH  51  75
BRANCH  63  86
ATOM     86  C   UNL A   1      44.575  27.197  33.942  1.00  0.00     0.023 A 
ATOM     87  C   UNL A   1      45.898  27.663  33.853  1.00  0.00     0.031 A 
ATOM     88  C   UNL A   1      44.350  25.965  34.584  1.00  0.00     0.131 A 
ATOM     89  C   UNL A   1      46.952  26.876  34.349  1.00  0.00     0.055 A 
ATOM     90  C   UNL A   1      45.394  25.217  35.127  1.00  0.00     0.041 A 
ATOM     91  F   UNL A   1      43.106  25.471  34.699  1.00  0.00    -0.206 F 
ATOM     92  C   UNL A   1      46.706  25.664  34.999  1.00  0.00     0.022 A 
BRANCH  89  93
ATOM     93  S   UNL A   1      48.659  27.418  34.060  1.00  0.00     0.124 S 
ATOM     94  O   UNL A   1      49.058  27.886  35.384  1.00  0.00    -0.237 OA
ATOM     95  O   UNL A   1      49.301  26.192  33.598  1.00  0.00    -0.237 OA
ATOM     96  O   UNL A   1      48.521  28.464  33.049  1.00  0.00    -0.744 OA
ENDBRANCH  89  93
ENDBRANCH  63  86
ENDBRANCH  37  38
ENDBRANCH  30  32
ENDBRANCH  29  30
ENDBRANCH  28  29
ENDBRANCH  27  28
ENDBRANCH  26  27
ENDBRANCH  25  26
ENDBRANCH   1  25
TORSDOF 24
ENDMDL
MODEL 3
REMARK VINA RESULT:      -9.6      5.036     10.350
REMARK SMILES C[C@@H]1C(=O)O[C@@H]([C@@H]2CCC[C@H](CCC(=O)OCCOCCOCCOC(=O)c3ccc(-c4c5nc(c(-c6cc(S(=O)(=O)[O-])ccc6F)c6ccc([nH]6)c(-c6cc(S(=O)(=O)[O-])ccc6F)c6nc(c(-c7cc(S(=O)(=O)[O-])ccc7F)c7ccc4[nH]7)C=C6)C=C5)cc3)O2)[C@H]1O
REMARK SMILES IDX 20 1 19 2 18 3 17 4 16 5 14 6 15 7 13 8 12 9 11 10 7 11 8 12
REMARK SMILES IDX 91 13 9 14 10 15 6 16 1 17 2 18 3 19 92 20 4 21 5 22 93 23
REMARK SMILES IDX 21 25 22 26 23 27 24 28 25 29 26 30 27 31 28 32 29 33 90 34
REMARK SMILES IDX 30 35 89 36 31 37 32 38 33 39 83 40 34 41 88 42 82 43 84 44
REMARK SMILES IDX 35 45 87 46 81 47 80 48 36 50 68 51 48 52 67 53 49 54 52 55
REMARK SMILES IDX 66 56 85 57 50 58 51 59 65 61 86 62 53 63 37 64 38 65 46 66
REMARK SMILES IDX 39 67 45 68 47 69 44 70 40 71 41 72 42 73 43 74 69 75 70 76
REMARK SMILES IDX 78 77 71 78 77 79 79 80 76 81 72 82 73 83 74 84 75 85 54 86
REMARK SMILES IDX 55 87 63 88 56 89 62 90 64 91 61 92 57 93 58 94 59 95 60 96
REMARK H PARENT 93 24 84 49 52 60
REMARK Flexibility Score: inf
ROOT
ATOM      1  C   UNL A   1      42.022  19.241  26.173  1.00  0.00     0.188 C 
ENDROOT
BRANCH   1   2
ATOM      2  O   UNL A   1      42.135  20.541  25.599  1.00  0.00    -0.376 OA
BRANCH   2   3
ATOM      3  C   UNL A   1      41.344  21.572  26.184  1.00  0.00     0.202 C 
BRANCH   3   4
ATOM      4  C   UNL A   1      39.822  21.436  26.030  1.00  0.00     0.261 C 
BRANCH   4   5
ATOM      5  O   UNL A   1      39.087  22.552  26.566  1.00  0.00    -0.463 OA
BRANCH   5   6
ATOM      6  C   UNL A   1      37.963  22.891  25.887  1.00  0.00     0.305 C 
ATOM      7  O   UNL A   1      37.541  24.036  25.755  1.00  0.00    -0.252 OA
BRANCH   6   8
ATOM      8  C   UNL A   1      37.286  21.728  25.203  1.00  0.00     0.125 C 
BRANCH   8   9
ATOM      9  C   UNL A   1      36.252  21.994  24.116  1.00  0.00     0.044 C 
BRANCH   9  10
ATOM     10  C   UNL A   1      34.958  22.737  24.489  1.00  0.00     0.119 C 
ATOM     11  C   UNL A   1      33.094  21.153  24.827  1.00  0.00     0.162 C 
ATOM     12  C   UNL A   1      32.149  22.036  24.022  1.00  0.00     0.036 C 
ATOM     13  O   UNL A   1      34.186  21.909  25.358  1.00  0.00    -0.371 OA
ATOM     14  C   UNL A   1      32.856  22.825  22.937  1.00  0.00     0.005 C 
ATOM     15  C   UNL A   1      34.135  23.488  23.431  1.00  0.00     0.032 C 
BRANCH  11  16
ATOM     16  C   UNL A   1      33.388  19.752  24.226  1.00  0.00     0.234 C 
ATOM     17  C   UNL A   1      34.250  16.622  23.574  1.00  0.00     0.023 C 
ATOM     18  C   UNL A   1      33.007  17.398  23.975  1.00  0.00     0.128 C 
ATOM     19  C   UNL A   1      32.462  18.202  22.827  1.00  0.00     0.311 C 
ATOM     20  C   UNL A   1      33.292  18.456  25.029  1.00  0.00     0.172 C 
ATOM     21  O   UNL A   1      31.964  17.728  21.819  1.00  0.00    -0.252 OA
ATOM     22  O   UNL A   1      32.608  19.537  23.043  1.00  0.00    -0.457 OA
BRANCH  20  23
ATOM     23  O   UNL A   1      32.252  18.427  25.987  1.00  0.00    -0.388 OA
ATOM     24  H   UNL A   1      32.567  18.815  26.818  1.00  0.00     0.211 HD
ENDBRANCH  20  23
ENDBRANCH  11  16
ENDBRANCH   9  10
ENDBRANCH   8   9
ENDBRANCH   6   8
ENDBRANCH   5   6
ENDBRANCH   4   5
ENDBRANCH   3   4
ENDBRANCH   2   3
ENDBRANCH   1   2
BRANCH   1  25
ATOM     25  C   UNL A   1      43.299  18.398  26.215  1.00  0.00     0.188 C 
BRANCH  25  26
ATOM     26  O   UNL A   1      44.129  18.502  25.058  1.00  0.00    -0.376 OA
BRANCH  26  27
ATOM     27  C   UNL A   1      45.495  18.849  25.320  1.00  0.00     0.202 C 
BRANCH  27  28
ATOM     28  C   UNL A   1      45.904  20.281  24.920  1.00  0.00     0.261 C 
BRANCH  28  29
ATOM     29  O   UNL A   1      45.006  21.298  25.407  1.00  0.00    -0.460 OA
BRANCH  29  30
ATOM     30  C   UNL A   1      44.774  22.345  24.576  1.00  0.00     0.338 C 
ATOM     31  O   UNL A   1      44.640  22.281  23.366  1.00  0.00    -0.246 OA
BRANCH  30  32
ATOM     32  C   UNL A   1      44.457  23.539  25.405  1.00  0.00     0.060 A 
ATOM     33  C   UNL A   1      43.822  24.628  24.791  1.00  0.00     0.016 A 
ATOM     34  C   UNL A   1      44.721  23.573  26.779  1.00  0.00     0.016 A 
ATOM     35  C   UNL A   1      43.500  25.768  25.536  1.00  0.00     0.010 A 
ATOM     36  C   UNL A   1      44.403  24.716  27.522  1.00  0.00     0.010 A 
ATOM     37  C   UNL A   1      43.826  25.837  26.898  1.00  0.00    -0.014 A 
BRANCH  37  38
ATOM     38  C   UNL A   1      43.783  27.141  27.614  1.00  0.00     0.031 A 
ATOM     39  C   UNL A   1      45.090  27.859  27.845  1.00  0.00     0.074 A 
ATOM     40  C   UNL A   1      42.633  27.700  28.034  1.00  0.00     0.049 A 
ATOM     41  N   UNL A   1      45.330  28.968  28.496  1.00  0.00    -0.248 NA
ATOM     42  C   UNL A   1      46.287  27.233  27.259  1.00  0.00     0.031 C 
ATOM     43  C   UNL A   1      41.296  27.147  27.830  1.00  0.00     0.029 A 
ATOM     44  N   UNL A   1      42.409  28.867  28.728  1.00  0.00    -0.354 N 
ATOM     45  C   UNL A   1      46.701  29.180  28.385  1.00  0.00     0.074 A 
ATOM     46  C   UNL A   1      47.245  28.057  27.652  1.00  0.00     0.031 C 
ATOM     47  C   UNL A   1      40.392  27.972  28.392  1.00  0.00     0.029 A 
ATOM     48  C   UNL A   1      41.085  29.092  29.029  1.00  0.00     0.049 A 
ATOM     49  H   UNL A   1      43.131  29.485  28.985  1.00  0.00     0.167 HD
ATOM     50  C   UNL A   1      47.440  30.224  28.834  1.00  0.00     0.034 A 
ATOM     51  C   UNL A   1      40.506  30.075  29.753  1.00  0.00     0.034 A 
ATOM     52  C   UNL A   1      46.905  31.333  29.581  1.00  0.00     0.049 A 
ATOM     53  C   UNL A   1      41.373  31.163  30.356  1.00  0.00     0.074 A 
ATOM     54  C   UNL A   1      47.578  32.422  30.109  1.00  0.00     0.029 A 
ATOM     55  N   UNL A   1      45.567  31.497  29.913  1.00  0.00    -0.354 N 
ATOM     56  N   UNL A   1      42.670  31.344  30.253  1.00  0.00    -0.248 NA
ATOM     57  C   UNL A   1      40.694  32.185  31.167  1.00  0.00     0.031 C 
ATOM     58  C   UNL A   1      46.660  33.211  30.809  1.00  0.00     0.029 A 
ATOM     59  C   UNL A   1      45.401  32.656  30.655  1.00  0.00     0.049 A 
ATOM     60  H   UNL A   1      44.843  30.880  29.657  1.00  0.00     0.167 HD
ATOM     61  C   UNL A   1      42.946  32.525  30.944  1.00  0.00     0.074 A 
ATOM     62  C   UNL A   1      41.684  33.018  31.449  1.00  0.00     0.031 C 
ATOM     63  C   UNL A   1      44.135  33.149  31.142  1.00  0.00     0.034 A 
BRANCH  50  64
ATOM     64  C   UNL A   1      48.920  30.190  28.551  1.00  0.00     0.023 A 
ATOM     65  C   UNL A   1      49.475  30.880  27.460  1.00  0.00     0.031 A 
ATOM     66  C   UNL A   1      49.784  29.449  29.376  1.00  0.00     0.131 A 
ATOM     67  C   UNL A   1      50.847  30.774  27.190  1.00  0.00     0.055 A 
ATOM     68  C   UNL A   1      51.161  29.407  29.145  1.00  0.00     0.041 A 
ATOM     69  F   UNL A   1      49.305  28.750  30.416  1.00  0.00    -0.206 F 
ATOM     70  C   UNL A   1      51.697  30.063  28.041  1.00  0.00     0.022 A 
BRANCH  67  71
ATOM     71  S   UNL A   1      51.489  31.482  25.651  1.00  0.00     0.124 S 
ATOM     72  O   UNL A   1      51.387  30.346  24.738  1.00  0.00    -0.237 OA
ATOM     73  O   UNL A   1      50.570  32.587  25.402  1.00  0.00    -0.237 OA
ATOM     74  O   UNL A   1      52.854  31.872  25.996  1.00  0.00    -0.744 OA
ENDBRANCH  67  71
ENDBRANCH  50  64
BRANCH  51  75
ATOM     75  C   UNL A   1      39.033  30.081  30.015  1.00  0.00     0.023 A 
ATOM     76  C   UNL A   1      38.193  31.034  29.415  1.00  0.00     0.031 A 
ATOM     77  C   UNL A   1      38.467  29.218  30.970  1.00  0.00     0.131 A 
ATOM     78  C   UNL A   1      36.858  31.157  29.834  1.00  0.00     0.055 A 
ATOM     79  C   UNL A   1      37.121  29.296  31.332  1.00  0.00     0.041 A 
ATOM     80  F   UNL A   1      39.222  28.293  31.585  1.00  0.00    -0.206 F 
ATOM     81  C   UNL A   1      36.313  30.285  30.779  1.00  0.00     0.022 A 
BRANCH  78  82
ATOM     82  S   UNL A   1      35.885  32.568  29.236  1.00  0.00     0.124 S 
ATOM     83  O   UNL A   1      36.590  32.913  28.007  1.00  0.00    -0.237 OA
ATOM     84  O   UNL A   1      34.561  31.976  29.074  1.00  0.00    -0.237 OA
ATOM     85  O   UNL A   1      36.001  33.544  30.318  1.00  0.00    -0.744 OA
ENDBRANCH  78  82
ENDBRANCH  51  75
BRANCH  63  86
ATOM     86  C   UNL A   1      44.117  34.473  31.870  1.00  0.00     0.023 A 
ATOM     87  C   UNL A   1      44.240  34.559  33.267  1.00  0.00     0.031 A 
ATOM     88  C   UNL A   1      43.972  35.671  31.145  1.00  0.00     0.131 A 
ATOM     89  C   UNL A   1      44.161  35.810  33.902  1.00  0.00     0.055 A 
ATOM     90  C   UNL A   1      43.954  36.915  31.776  1.00  0.00     0.041 A 
ATOM     91  F   UNL A   1      43.851  35.651  29.808  1.00  0.00    -0.206 F 
ATOM     92  C   UNL A   1      44.034  36.989  33.163  1.00  0.00     0.022 A 
BRANCH  89  93
ATOM     93  S   UNL A   1      44.143  35.872  35.715  1.00  0.00     0.124 S 
ATOM     94  O   UNL A   1      45.483  36.365  36.017  1.00  0.00    -0.237 OA
ATOM     95  O   UNL A   1      43.048  36.798  35.985  1.00  0.00    -0.237 OA
ATOM     96  O   UNL A   1      43.890  34.486  36.104  1.00  0.00    -0.744 OA
ENDBRANCH  89  93
ENDBRANCH  63  86
ENDBRANCH  37  38
ENDBRANCH  30  32
ENDBRANCH  29  30
ENDBRANCH  28  29
ENDBRANCH  27  28
ENDBRANCH  26  27
ENDBRANCH  25  26
ENDBRANCH   1  25
TORSDOF 24
ENDMDL
