MODEL 1
REMARK VINA RESULT:     -10.8      0.000      0.000
REMARK SMILES C[C@@H](C(=O)OCCOCCOCCOC(=O)c1ccc(-c2c3nc(c(-c4cc(S(=O)(=O)[O-])ccc4F)c4ccc([nH]4)c(-c4cc(S(=O)(=O)[O-])ccc4F)c4nc(c(-c5cc(S(=O)(=O)[O-])ccc5F)c5ccc2[nH]5)C=C4)C=C3)cc1)c1ccccc1-c1ccn(C(F)F)c(=O)c1
REMARK SMILES IDX 9 1 8 2 7 3 6 4 5 5 3 6 4 7 2 8 1 9 80 10 81 11 85 12 82 13
REMARK SMILES IDX 84 14 83 15 86 16 87 17 95 18 88 19 93 20 89 21 94 22 90 23
REMARK SMILES IDX 91 24 92 25 10 26 11 27 12 28 13 29 14 30 15 31 16 32 17 33
REMARK SMILES IDX 18 34 79 35 19 36 78 37 20 38 21 39 22 40 72 41 23 42 77 43
REMARK SMILES IDX 71 44 73 45 24 46 76 47 70 48 69 49 25 51 57 52 37 53 56 54
REMARK SMILES IDX 38 55 41 56 55 57 74 58 39 59 40 60 54 62 75 63 42 64 26 65
REMARK SMILES IDX 27 66 35 67 28 68 34 69 36 70 33 71 29 72 30 73 31 74 32 75
REMARK SMILES IDX 58 76 59 77 67 78 60 79 66 80 68 81 65 82 61 83 62 84 63 85
REMARK SMILES IDX 64 86 43 87 44 88 52 89 45 90 51 91 53 92 50 93 46 94 47 95
REMARK SMILES IDX 48 96 49 97
REMARK H PARENT 73 50 41 61
REMARK Flexibility Score: inf
ROOT
ATOM      1  C   UNL A   1      34.939  23.405  24.803  1.00  0.00     0.188 C 
ENDROOT
BRANCH   1   2
ATOM      2  O   UNL A   1      33.903  24.306  24.432  1.00  0.00    -0.376 OA
BRANCH   2   3
ATOM      3  C   UNL A   1      34.025  24.961  23.171  1.00  0.00     0.202 C 
BRANCH   3   4
ATOM      4  C   UNL A   1      32.868  24.794  22.174  1.00  0.00     0.261 C 
BRANCH   4   5
ATOM      5  O   UNL A   1      31.789  25.726  22.399  1.00  0.00    -0.463 OA
BRANCH   5   6
ATOM      6  C   UNL A   1      30.877  25.406  23.360  1.00  0.00     0.313 C 
ATOM      7  O   UNL A   1      30.269  24.341  23.389  1.00  0.00    -0.252 OA
BRANCH   6   8
ATOM      8  C   UNL A   1      30.716  26.498  24.442  1.00  0.00     0.127 C 
ATOM      9  C   UNL A   1      30.285  25.890  25.791  1.00  0.00     0.025 C 
BRANCH   8  10
ATOM     10  C   UNL A   1      29.964  27.782  23.990  1.00  0.00    -0.026 A 
ATOM     11  C   UNL A   1      28.741  27.667  23.288  1.00  0.00     0.005 A 
ATOM     12  C   UNL A   1      30.479  29.102  24.153  1.00  0.00    -0.014 A 
ATOM     13  C   UNL A   1      28.043  28.780  22.806  1.00  0.00     0.000 A 
ATOM     14  C   UNL A   1      29.773  30.211  23.630  1.00  0.00     0.009 A 
ATOM     15  C   UNL A   1      28.560  30.054  22.971  1.00  0.00     0.001 A 
BRANCH  12  16
ATOM     16  C   UNL A   1      31.732  29.418  24.873  1.00  0.00    -0.011 A 
ATOM     17  C   UNL A   1      32.983  28.719  24.650  1.00  0.00     0.027 A 
ATOM     18  C   UNL A   1      31.677  30.368  25.825  1.00  0.00     0.080 A 
ATOM     19  C   UNL A   1      34.002  28.875  25.502  1.00  0.00     0.095 A 
ATOM     20  C   UNL A   1      32.832  30.609  26.732  1.00  0.00     0.255 A 
ATOM     21  N   UNL A   1      33.914  29.762  26.560  1.00  0.00    -0.258 N 
ATOM     22  O   UNL A   1      32.739  31.481  27.589  1.00  0.00    -0.269 OA
BRANCH  21  23
ATOM     23  C   UNL A   1      34.961  29.845  27.542  1.00  0.00     0.451 C 
ATOM     24  F   UNL A   1      35.720  28.725  27.557  1.00  0.00    -0.185 F 
ATOM     25  F   UNL A   1      35.773  30.905  27.301  1.00  0.00    -0.185 F 
ENDBRANCH  21  23
ENDBRANCH  12  16
ENDBRANCH   8  10
ENDBRANCH   6   8
ENDBRANCH   5   6
ENDBRANCH   4   5
ENDBRANCH   3   4
ENDBRANCH   2   3
ENDBRANCH   1   2
BRANCH   1  26
ATOM     26  C   UNL A   1      34.619  21.904  24.823  1.00  0.00     0.188 C 
BRANCH  26  27
ATOM     27  O   UNL A   1      35.529  21.125  25.576  1.00  0.00    -0.376 OA
BRANCH  27  28
ATOM     28  C   UNL A   1      36.078  19.985  24.926  1.00  0.00     0.202 C 
BRANCH  28  29
ATOM     29  C   UNL A   1      37.619  19.949  24.935  1.00  0.00     0.261 C 
BRANCH  29  30
ATOM     30  O   UNL A   1      38.270  21.150  25.396  1.00  0.00    -0.460 OA
BRANCH  30  31
ATOM     31  C   UNL A   1      39.421  20.995  26.101  1.00  0.00     0.338 C 
ATOM     32  O   UNL A   1      40.114  19.991  26.131  1.00  0.00    -0.246 OA
BRANCH  31  33
ATOM     33  C   UNL A   1      39.847  22.337  26.582  1.00  0.00     0.060 A 
ATOM     34  C   UNL A   1      39.159  23.471  26.117  1.00  0.00     0.016 A 
ATOM     35  C   UNL A   1      40.861  22.480  27.531  1.00  0.00     0.016 A 
ATOM     36  C   UNL A   1      39.509  24.747  26.572  1.00  0.00     0.010 A 
ATOM     37  C   UNL A   1      41.224  23.760  27.968  1.00  0.00     0.010 A 
ATOM     38  C   UNL A   1      40.574  24.904  27.469  1.00  0.00    -0.014 A 
BRANCH  38  39
ATOM     39  C   UNL A   1      41.158  26.251  27.718  1.00  0.00     0.031 A 
ATOM     40  C   UNL A   1      42.543  26.528  27.190  1.00  0.00     0.074 A 
ATOM     41  C   UNL A   1      40.495  27.213  28.388  1.00  0.00     0.049 A 
ATOM     42  N   UNL A   1      43.305  27.578  27.354  1.00  0.00    -0.248 NA
ATOM     43  C   UNL A   1      43.150  25.464  26.376  1.00  0.00     0.031 C 
ATOM     44  C   UNL A   1      39.135  27.100  28.907  1.00  0.00     0.029 A 
ATOM     45  N   UNL A   1      40.891  28.478  28.756  1.00  0.00    -0.354 N 
ATOM     46  C   UNL A   1      44.487  27.297  26.674  1.00  0.00     0.074 A 
ATOM     47  C   UNL A   1      44.349  25.965  26.127  1.00  0.00     0.031 C 
ATOM     48  C   UNL A   1      38.811  28.246  29.535  1.00  0.00     0.029 A 
ATOM     49  C   UNL A   1      39.957  29.158  29.504  1.00  0.00     0.049 A 
ATOM     50  H   UNL A   1      41.763  28.863  28.508  1.00  0.00     0.167 HD
ATOM     51  C   UNL A   1      45.583  28.079  26.514  1.00  0.00     0.034 A 
ATOM     52  C   UNL A   1      40.028  30.359  30.118  1.00  0.00     0.034 A 
ATOM     53  C   UNL A   1      45.716  29.404  27.067  1.00  0.00     0.049 A 
ATOM     54  C   UNL A   1      41.303  31.173  30.011  1.00  0.00     0.074 A 
ATOM     55  C   UNL A   1      46.778  30.283  26.945  1.00  0.00     0.029 A 
ATOM     56  N   UNL A   1      44.770  30.036  27.861  1.00  0.00    -0.354 N 
ATOM     57  N   UNL A   1      42.410  30.899  29.359  1.00  0.00    -0.248 NA
ATOM     58  C   UNL A   1      41.333  32.459  30.724  1.00  0.00     0.031 C 
ATOM     59  C   UNL A   1      46.510  31.409  27.730  1.00  0.00     0.029 A 
ATOM     60  C   UNL A   1      45.240  31.275  28.269  1.00  0.00     0.049 A 
ATOM     61  H   UNL A   1      43.892  29.659  28.101  1.00  0.00     0.167 HD
ATOM     62  C   UNL A   1      43.249  31.998  29.554  1.00  0.00     0.074 A 
ATOM     63  C   UNL A   1      42.516  32.940  30.372  1.00  0.00     0.031 C 
ATOM     64  C   UNL A   1      44.507  32.211  29.089  1.00  0.00     0.034 A 
BRANCH  51  65
ATOM     65  C   UNL A   1      46.750  27.490  25.759  1.00  0.00     0.023 A 
ATOM     66  C   UNL A   1      47.085  27.908  24.459  1.00  0.00     0.031 A 
ATOM     67  C   UNL A   1      47.527  26.472  26.343  1.00  0.00     0.131 A 
ATOM     68  C   UNL A   1      48.120  27.267  23.763  1.00  0.00     0.055 A 
ATOM     69  C   UNL A   1      48.609  25.896  25.675  1.00  0.00     0.041 A 
ATOM     70  F   UNL A   1      47.239  26.013  27.571  1.00  0.00    -0.206 F 
ATOM     71  C   UNL A   1      48.902  26.283  24.371  1.00  0.00     0.022 A 
BRANCH  68  72
ATOM     72  S   UNL A   1      48.338  27.635  21.999  1.00  0.00     0.124 S 
ATOM     73  O   UNL A   1      47.088  28.322  21.686  1.00  0.00    -0.237 OA
ATOM     74  O   UNL A   1      49.540  28.459  21.997  1.00  0.00    -0.237 OA
ATOM     75  O   UNL A   1      48.484  26.315  21.390  1.00  0.00    -0.744 OA
ENDBRANCH  68  72
ENDBRANCH  51  65
BRANCH  52  76
ATOM     76  C   UNL A   1      38.888  30.871  30.937  1.00  0.00     0.023 A 
ATOM     77  C   UNL A   1      37.858  31.629  30.356  1.00  0.00     0.031 A 
ATOM     78  C   UNL A   1      38.857  30.681  32.331  1.00  0.00     0.131 A 
ATOM     79  C   UNL A   1      36.872  32.213  31.168  1.00  0.00     0.055 A 
ATOM     80  C   UNL A   1      37.840  31.213  33.126  1.00  0.00     0.041 A 
ATOM     81  F   UNL A   1      39.821  29.974  32.943  1.00  0.00    -0.206 F 
ATOM     82  C   UNL A   1      36.848  31.997  32.548  1.00  0.00     0.022 A 
BRANCH  79  83
ATOM     83  S   UNL A   1      35.677  33.347  30.408  1.00  0.00     0.124 S 
ATOM     84  O   UNL A   1      35.489  34.332  31.467  1.00  0.00    -0.237 OA
ATOM     85  O   UNL A   1      36.404  33.804  29.228  1.00  0.00    -0.237 OA
ATOM     86  O   UNL A   1      34.523  32.493  30.135  1.00  0.00    -0.744 OA
ENDBRANCH  79  83
ENDBRANCH  52  76
BRANCH  64  87
ATOM     87  C   UNL A   1      45.152  33.543  29.404  1.00  0.00     0.023 A 
ATOM     88  C   UNL A   1      45.918  33.748  30.564  1.00  0.00     0.031 A 
ATOM     89  C   UNL A   1      44.993  34.627  28.519  1.00  0.00     0.131 A 
ATOM     90  C   UNL A   1      46.451  35.020  30.836  1.00  0.00     0.055 A 
ATOM     91  C   UNL A   1      45.581  35.870  28.763  1.00  0.00     0.041 A 
ATOM     92  F   UNL A   1      44.270  34.493  27.396  1.00  0.00    -0.206 F 
ATOM     93  C   UNL A   1      46.303  36.076  29.933  1.00  0.00     0.022 A 
BRANCH  90  94
ATOM     94  S   UNL A   1      47.262  35.304  32.434  1.00  0.00     0.124 S 
ATOM     95  O   UNL A   1      47.633  33.949  32.831  1.00  0.00    -0.237 OA
ATOM     96  O   UNL A   1      48.365  36.187  32.074  1.00  0.00    -0.237 OA
ATOM     97  O   UNL A   1      46.214  35.921  33.246  1.00  0.00    -0.744 OA
ENDBRANCH  90  94
ENDBRANCH  64  87
ENDBRANCH  38  39
ENDBRANCH  31  33
ENDBRANCH  30  31
ENDBRANCH  29  30
ENDBRANCH  28  29
ENDBRANCH  27  28
ENDBRANCH  26  27
ENDBRANCH   1  26
TORSDOF 23
ENDMDL
MODEL 2
REMARK VINA RESULT:     -10.6      1.810      2.894
REMARK SMILES C[C@@H](C(=O)OCCOCCOCCOC(=O)c1ccc(-c2c3nc(c(-c4cc(S(=O)(=O)[O-])ccc4F)c4ccc([nH]4)c(-c4cc(S(=O)(=O)[O-])ccc4F)c4nc(c(-c5cc(S(=O)(=O)[O-])ccc5F)c5ccc2[nH]5)C=C4)C=C3)cc1)c1ccccc1-c1ccn(C(F)F)c(=O)c1
REMARK SMILES IDX 9 1 8 2 7 3 6 4 5 5 3 6 4 7 2 8 1 9 80 10 81 11 85 12 82 13
REMARK SMILES IDX 84 14 83 15 86 16 87 17 95 18 88 19 93 20 89 21 94 22 90 23
REMARK SMILES IDX 91 24 92 25 10 26 11 27 12 28 13 29 14 30 15 31 16 32 17 33
REMARK SMILES IDX 18 34 79 35 19 36 78 37 20 38 21 39 22 40 72 41 23 42 77 43
REMARK SMILES IDX 71 44 73 45 24 46 76 47 70 48 69 49 25 51 57 52 37 53 56 54
REMARK SMILES IDX 38 55 41 56 55 57 74 58 39 59 40 60 54 62 75 63 42 64 26 65
REMARK SMILES IDX 27 66 35 67 28 68 34 69 36 70 33 71 29 72 30 73 31 74 32 75
REMARK SMILES IDX 58 76 59 77 67 78 60 79 66 80 68 81 65 82 61 83 62 84 63 85
REMARK SMILES IDX 64 86 43 87 44 88 52 89 45 90 51 91 53 92 50 93 46 94 47 95
REMARK SMILES IDX 48 96 49 97
REMARK H PARENT 73 50 41 61
REMARK Flexibility Score: inf
ROOT
ATOM      1  C   UNL A   1      36.520  23.372  25.737  1.00  0.00     0.188 C 
ENDROOT
BRANCH   1   2
ATOM      2  O   UNL A   1      35.164  23.185  26.122  1.00  0.00    -0.376 OA
BRANCH   2   3
ATOM      3  C   UNL A   1      34.182  23.988  25.469  1.00  0.00     0.202 C 
BRANCH   3   4
ATOM      4  C   UNL A   1      33.865  25.357  26.089  1.00  0.00     0.261 C 
BRANCH   4   5
ATOM      5  O   UNL A   1      33.397  26.321  25.122  1.00  0.00    -0.463 OA
BRANCH   5   6
ATOM      6  C   UNL A   1      32.490  27.245  25.548  1.00  0.00     0.313 C 
ATOM      7  O   UNL A   1      31.776  27.089  26.534  1.00  0.00    -0.252 OA
BRANCH   6   8
ATOM      8  C   UNL A   1      32.478  28.534  24.696  1.00  0.00     0.127 C 
ATOM      9  C   UNL A   1      33.192  29.692  25.423  1.00  0.00     0.025 C 
BRANCH   8  10
ATOM     10  C   UNL A   1      31.123  28.875  24.016  1.00  0.00    -0.026 A 
ATOM     11  C   UNL A   1      30.507  30.124  24.268  1.00  0.00     0.005 A 
ATOM     12  C   UNL A   1      30.387  27.959  23.208  1.00  0.00    -0.014 A 
ATOM     13  C   UNL A   1      29.261  30.471  23.732  1.00  0.00     0.000 A 
ATOM     14  C   UNL A   1      29.116  28.318  22.701  1.00  0.00     0.009 A 
ATOM     15  C   UNL A   1      28.561  29.566  22.952  1.00  0.00     0.001 A 
BRANCH  12  16
ATOM     16  C   UNL A   1      30.878  26.616  22.824  1.00  0.00    -0.011 A 
ATOM     17  C   UNL A   1      30.514  25.400  23.523  1.00  0.00     0.027 A 
ATOM     18  C   UNL A   1      31.755  26.546  21.805  1.00  0.00     0.080 A 
ATOM     19  C   UNL A   1      31.183  24.265  23.291  1.00  0.00     0.095 A 
ATOM     20  C   UNL A   1      32.450  25.270  21.483  1.00  0.00     0.255 A 
ATOM     21  N   UNL A   1      32.175  24.209  22.328  1.00  0.00    -0.258 N 
ATOM     22  O   UNL A   1      33.245  25.250  20.549  1.00  0.00    -0.269 OA
BRANCH  21  23
ATOM     23  C   UNL A   1      32.972  23.025  22.159  1.00  0.00     0.451 C 
ATOM     24  F   UNL A   1      34.267  23.244  22.487  1.00  0.00    -0.185 F 
ATOM     25  F   UNL A   1      32.505  22.008  22.927  1.00  0.00    -0.185 F 
ENDBRANCH  21  23
ENDBRANCH  12  16
ENDBRANCH   8  10
ENDBRANCH   6   8
ENDBRANCH   5   6
ENDBRANCH   4   5
ENDBRANCH   3   4
ENDBRANCH   2   3
ENDBRANCH   1   2
BRANCH   1  26
ATOM     26  C   UNL A   1      37.192  22.278  24.896  1.00  0.00     0.188 C 
BRANCH  26  27
ATOM     27  O   UNL A   1      37.925  21.332  25.651  1.00  0.00    -0.376 OA
BRANCH  27  28
ATOM     28  C   UNL A   1      38.121  20.057  25.052  1.00  0.00     0.202 C 
BRANCH  28  29
ATOM     29  C   UNL A   1      39.325  19.283  25.622  1.00  0.00     0.261 C 
BRANCH  29  30
ATOM     30  O   UNL A   1      40.560  20.022  25.708  1.00  0.00    -0.460 OA
BRANCH  30  31
ATOM     31  C   UNL A   1      41.124  20.136  26.938  1.00  0.00     0.338 C 
ATOM     32  O   UNL A   1      41.655  19.238  27.570  1.00  0.00    -0.246 OA
BRANCH  31  33
ATOM     33  C   UNL A   1      41.254  21.586  27.250  1.00  0.00     0.060 A 
ATOM     34  C   UNL A   1      40.684  22.519  26.367  1.00  0.00     0.016 A 
ATOM     35  C   UNL A   1      41.864  22.024  28.427  1.00  0.00     0.016 A 
ATOM     36  C   UNL A   1      40.756  23.889  26.642  1.00  0.00     0.010 A 
ATOM     37  C   UNL A   1      41.954  23.397  28.689  1.00  0.00     0.010 A 
ATOM     38  C   UNL A   1      41.431  24.341  27.785  1.00  0.00    -0.014 A 
BRANCH  38  39
ATOM     39  C   UNL A   1      41.788  25.779  27.932  1.00  0.00     0.031 A 
ATOM     40  C   UNL A   1      43.103  26.242  27.357  1.00  0.00     0.074 A 
ATOM     41  C   UNL A   1      40.983  26.663  28.551  1.00  0.00     0.049 A 
ATOM     42  N   UNL A   1      43.683  27.411  27.434  1.00  0.00    -0.248 NA
ATOM     43  C   UNL A   1      43.868  25.238  26.602  1.00  0.00     0.031 C 
ATOM     44  C   UNL A   1      39.665  26.365  29.106  1.00  0.00     0.029 A 
ATOM     45  N   UNL A   1      41.169  27.998  28.826  1.00  0.00    -0.354 N 
ATOM     46  C   UNL A   1      44.888  27.281  26.749  1.00  0.00     0.074 A 
ATOM     47  C   UNL A   1      44.965  25.909  26.295  1.00  0.00     0.031 C 
ATOM     48  C   UNL A   1      39.164  27.484  29.664  1.00  0.00     0.029 A 
ATOM     49  C   UNL A   1      40.144  28.566  29.548  1.00  0.00     0.049 A 
ATOM     50  H   UNL A   1      41.963  28.502  28.535  1.00  0.00     0.167 HD
ATOM     51  C   UNL A   1      45.839  28.218  26.515  1.00  0.00     0.034 A 
ATOM     52  C   UNL A   1      40.023  29.802  30.079  1.00  0.00     0.034 A 
ATOM     53  C   UNL A   1      45.758  29.582  26.976  1.00  0.00     0.049 A 
ATOM     54  C   UNL A   1      41.145  30.804  29.892  1.00  0.00     0.074 A 
ATOM     55  C   UNL A   1      46.660  30.613  26.773  1.00  0.00     0.029 A 
ATOM     56  N   UNL A   1      44.729  30.104  27.747  1.00  0.00    -0.354 N 
ATOM     57  N   UNL A   1      42.275  30.671  29.236  1.00  0.00    -0.248 NA
ATOM     58  C   UNL A   1      40.971  32.123  30.518  1.00  0.00     0.031 C 
ATOM     59  C   UNL A   1      46.218  31.731  27.488  1.00  0.00     0.029 A 
ATOM     60  C   UNL A   1      44.993  31.428  28.062  1.00  0.00     0.049 A 
ATOM     61  H   UNL A   1      43.928  29.606  28.030  1.00  0.00     0.167 HD
ATOM     62  C   UNL A   1      42.923  31.902  29.339  1.00  0.00     0.074 A 
ATOM     63  C   UNL A   1      42.055  32.766  30.109  1.00  0.00     0.031 C 
ATOM     64  C   UNL A   1      44.125  32.286  28.834  1.00  0.00     0.034 A 
BRANCH  51  65
ATOM     65  C   UNL A   1      47.079  27.777  25.775  1.00  0.00     0.023 A 
ATOM     66  C   UNL A   1      47.260  28.033  24.404  1.00  0.00     0.031 A 
ATOM     67  C   UNL A   1      48.088  27.066  26.450  1.00  0.00     0.131 A 
ATOM     68  C   UNL A   1      48.386  27.524  23.740  1.00  0.00     0.055 A 
ATOM     69  C   UNL A   1      49.245  26.634  25.801  1.00  0.00     0.041 A 
ATOM     70  F   UNL A   1      47.959  26.769  27.753  1.00  0.00    -0.206 F 
ATOM     71  C   UNL A   1      49.393  26.850  24.434  1.00  0.00     0.022 A 
BRANCH  68  72
ATOM     72  S   UNL A   1      48.446  27.627  21.930  1.00  0.00     0.124 S 
ATOM     73  O   UNL A   1      49.553  28.558  21.725  1.00  0.00    -0.237 OA
ATOM     74  O   UNL A   1      48.695  26.243  21.545  1.00  0.00    -0.237 OA
ATOM     75  O   UNL A   1      47.129  28.148  21.572  1.00  0.00    -0.744 OA
ENDBRANCH  68  72
ENDBRANCH  51  65
BRANCH  52  76
ATOM     76  C   UNL A   1      38.822  30.175  30.888  1.00  0.00     0.023 A 
ATOM     77  C   UNL A   1      37.739  30.856  30.309  1.00  0.00     0.031 A 
ATOM     78  C   UNL A   1      38.779  29.931  32.273  1.00  0.00     0.131 A 
ATOM     79  C   UNL A   1      36.686  31.316  31.116  1.00  0.00     0.055 A 
ATOM     80  C   UNL A   1      37.700  30.337  33.061  1.00  0.00     0.041 A 
ATOM     81  F   UNL A   1      39.791  29.293  32.883  1.00  0.00    -0.206 F 
ATOM     82  C   UNL A   1      36.652  31.047  32.486  1.00  0.00     0.022 A 
BRANCH  79  83
ATOM     83  S   UNL A   1      35.407  32.363  30.367  1.00  0.00     0.124 S 
ATOM     84  O   UNL A   1      35.066  31.602  29.171  1.00  0.00    -0.237 OA
ATOM     85  O   UNL A   1      34.394  32.399  31.417  1.00  0.00    -0.237 OA
ATOM     86  O   UNL A   1      36.099  33.628  30.128  1.00  0.00    -0.744 OA
ENDBRANCH  79  83
ENDBRANCH  52  76
BRANCH  64  87
ATOM     87  C   UNL A   1      44.545  33.723  29.046  1.00  0.00     0.023 A 
ATOM     88  C   UNL A   1      45.332  34.120  30.141  1.00  0.00     0.031 A 
ATOM     89  C   UNL A   1      44.146  34.715  28.129  1.00  0.00     0.131 A 
ATOM     90  C   UNL A   1      45.650  35.477  30.321  1.00  0.00     0.055 A 
ATOM     91  C   UNL A   1      44.521  36.052  28.278  1.00  0.00     0.041 A 
ATOM     92  F   UNL A   1      43.391  34.398  27.065  1.00  0.00    -0.206 F 
ATOM     93  C   UNL A   1      45.265  36.441  29.386  1.00  0.00     0.022 A 
BRANCH  90  94
ATOM     94  S   UNL A   1      46.493  35.982  31.846  1.00  0.00     0.124 S 
ATOM     95  O   UNL A   1      45.879  35.105  32.838  1.00  0.00    -0.237 OA
ATOM     96  O   UNL A   1      47.893  35.711  31.535  1.00  0.00    -0.237 OA
ATOM     97  O   UNL A   1      46.151  37.397  31.975  1.00  0.00    -0.744 OA
ENDBRANCH  90  94
ENDBRANCH  64  87
ENDBRANCH  38  39
ENDBRANCH  31  33
ENDBRANCH  30  31
ENDBRANCH  29  30
ENDBRANCH  28  29
ENDBRANCH  27  28
ENDBRANCH  26  27
ENDBRANCH   1  26
TORSDOF 23
ENDMDL
MODEL 3
REMARK VINA RESULT:     -10.2      3.417      5.734
REMARK SMILES C[C@@H](C(=O)OCCOCCOCCOC(=O)c1ccc(-c2c3nc(c(-c4cc(S(=O)(=O)[O-])ccc4F)c4ccc([nH]4)c(-c4cc(S(=O)(=O)[O-])ccc4F)c4nc(c(-c5cc(S(=O)(=O)[O-])ccc5F)c5ccc2[nH]5)C=C4)C=C3)cc1)c1ccccc1-c1ccn(C(F)F)c(=O)c1
REMARK SMILES IDX 9 1 8 2 7 3 6 4 5 5 3 6 4 7 2 8 1 9 80 10 81 11 85 12 82 13
REMARK SMILES IDX 84 14 83 15 86 16 87 17 95 18 88 19 93 20 89 21 94 22 90 23
REMARK SMILES IDX 91 24 92 25 10 26 11 27 12 28 13 29 14 30 15 31 16 32 17 33
REMARK SMILES IDX 18 34 79 35 19 36 78 37 20 38 21 39 22 40 72 41 23 42 77 43
REMARK SMILES IDX 71 44 73 45 24 46 76 47 70 48 69 49 25 51 57 52 37 53 56 54
REMARK SMILES IDX 38 55 41 56 55 57 74 58 39 59 40 60 54 62 75 63 42 64 26 65
REMARK SMILES IDX 27 66 35 67 28 68 34 69 36 70 33 71 29 72 30 73 31 74 32 75
REMARK SMILES IDX 58 76 59 77 67 78 60 79 66 80 68 81 65 82 61 83 62 84 63 85
REMARK SMILES IDX 64 86 43 87 44 88 52 89 45 90 51 91 53 92 50 93 46 94 47 95
REMARK SMILES IDX 48 96 49 97
REMARK H PARENT 73 50 41 61
REMARK Flexibility Score: inf
ROOT
ATOM      1  C   UNL A   1      40.815  22.966  27.453  1.00  0.00     0.188 C 
ENDROOT
BRANCH   1   2
ATOM      2  O   UNL A   1      39.515  23.541  27.479  1.00  0.00    -0.376 OA
BRANCH   2   3
ATOM      3  C   UNL A   1      38.923  23.878  26.226  1.00  0.00     0.202 C 
BRANCH   3   4
ATOM      4  C   UNL A   1      37.390  23.834  26.135  1.00  0.00     0.261 C 
BRANCH   4   5
ATOM      5  O   UNL A   1      36.869  22.493  26.022  1.00  0.00    -0.463 OA
BRANCH   5   6
ATOM      6  C   UNL A   1      35.986  22.248  25.012  1.00  0.00     0.313 C 
ATOM      7  O   UNL A   1      36.310  22.186  23.831  1.00  0.00    -0.252 OA
BRANCH   6   8
ATOM      8  C   UNL A   1      34.541  22.006  25.504  1.00  0.00     0.127 C 
ATOM      9  C   UNL A   1      34.509  21.687  27.012  1.00  0.00     0.025 C 
BRANCH   8  10
ATOM     10  C   UNL A   1      33.664  21.109  24.587  1.00  0.00    -0.026 A 
ATOM     11  C   UNL A   1      33.784  19.701  24.664  1.00  0.00     0.005 A 
ATOM     12  C   UNL A   1      32.790  21.615  23.581  1.00  0.00    -0.014 A 
ATOM     13  C   UNL A   1      33.064  18.838  23.829  1.00  0.00     0.000 A 
ATOM     14  C   UNL A   1      32.095  20.727  22.727  1.00  0.00     0.009 A 
ATOM     15  C   UNL A   1      32.222  19.350  22.856  1.00  0.00     0.001 A 
BRANCH  12  16
ATOM     16  C   UNL A   1      32.525  23.055  23.364  1.00  0.00    -0.011 A 
ATOM     17  C   UNL A   1      31.619  23.836  24.183  1.00  0.00     0.027 A 
ATOM     18  C   UNL A   1      33.121  23.643  22.310  1.00  0.00     0.080 A 
ATOM     19  C   UNL A   1      31.231  25.053  23.785  1.00  0.00     0.095 A 
ATOM     20  C   UNL A   1      32.759  25.027  21.900  1.00  0.00     0.255 A 
ATOM     21  N   UNL A   1      31.746  25.621  22.633  1.00  0.00    -0.258 N 
ATOM     22  O   UNL A   1      33.322  25.523  20.931  1.00  0.00    -0.269 OA
BRANCH  21  23
ATOM     23  C   UNL A   1      31.245  26.876  22.143  1.00  0.00     0.451 C 
ATOM     24  F   UNL A   1      30.045  27.182  22.690  1.00  0.00    -0.185 F 
ATOM     25  F   UNL A   1      32.107  27.887  22.418  1.00  0.00    -0.185 F 
ENDBRANCH  21  23
ENDBRANCH  12  16
ENDBRANCH   8  10
ENDBRANCH   6   8
ENDBRANCH   5   6
ENDBRANCH   4   5
ENDBRANCH   3   4
ENDBRANCH   2   3
ENDBRANCH   1   2
BRANCH   1  26
ATOM     26  C   UNL A   1      40.944  21.455  27.686  1.00  0.00     0.188 C 
BRANCH  26  27
ATOM     27  O   UNL A   1      41.730  20.782  26.721  1.00  0.00    -0.376 OA
BRANCH  27  28
ATOM     28  C   UNL A   1      42.077  19.434  27.014  1.00  0.00     0.202 C 
BRANCH  28  29
ATOM     29  C   UNL A   1      42.865  18.739  25.887  1.00  0.00     0.261 C 
BRANCH  29  30
ATOM     30  O   UNL A   1      43.216  19.571  24.763  1.00  0.00    -0.460 OA
BRANCH  30  31
ATOM     31  C   UNL A   1      44.540  19.741  24.512  1.00  0.00     0.338 C 
ATOM     32  O   UNL A   1      45.261  18.963  23.909  1.00  0.00    -0.246 OA
BRANCH  31  33
ATOM     33  C   UNL A   1      44.888  21.153  24.826  1.00  0.00     0.060 A 
ATOM     34  C   UNL A   1      45.305  21.471  26.130  1.00  0.00     0.016 A 
ATOM     35  C   UNL A   1      44.875  22.141  23.839  1.00  0.00     0.016 A 
ATOM     36  C   UNL A   1      45.672  22.781  26.455  1.00  0.00     0.010 A 
ATOM     37  C   UNL A   1      45.222  23.456  24.173  1.00  0.00     0.010 A 
ATOM     38  C   UNL A   1      45.592  23.794  25.489  1.00  0.00    -0.014 A 
BRANCH  38  39
ATOM     39  C   UNL A   1      45.673  25.226  25.887  1.00  0.00     0.031 A 
ATOM     40  C   UNL A   1      47.025  25.891  25.858  1.00  0.00     0.074 A 
ATOM     41  C   UNL A   1      44.590  25.933  26.264  1.00  0.00     0.049 A 
ATOM     42  N   UNL A   1      47.376  27.090  26.244  1.00  0.00    -0.248 NA
ATOM     43  C   UNL A   1      48.133  25.081  25.329  1.00  0.00     0.031 C 
ATOM     44  C   UNL A   1      43.218  25.433  26.289  1.00  0.00     0.029 A 
ATOM     45  N   UNL A   1      44.483  27.229  26.712  1.00  0.00    -0.354 N 
ATOM     46  C   UNL A   1      48.746  27.175  26.017  1.00  0.00     0.074 A 
ATOM     47  C   UNL A   1      49.164  25.893  25.492  1.00  0.00     0.031 C 
ATOM     48  C   UNL A   1      42.407  26.409  26.738  1.00  0.00     0.029 A 
ATOM     49  C   UNL A   1      43.206  27.589  27.077  1.00  0.00     0.049 A 
ATOM     50  H   UNL A   1      45.250  27.844  26.767  1.00  0.00     0.167 HD
ATOM     51  C   UNL A   1      49.580  28.224  26.222  1.00  0.00     0.034 A 
ATOM     52  C   UNL A   1      42.741  28.722  27.647  1.00  0.00     0.034 A 
ATOM     53  C   UNL A   1      49.157  29.498  26.752  1.00  0.00     0.049 A 
ATOM     54  C   UNL A   1      43.708  29.846  27.961  1.00  0.00     0.074 A 
ATOM     55  C   UNL A   1      49.921  30.630  26.978  1.00  0.00     0.029 A 
ATOM     56  N   UNL A   1      47.866  29.804  27.158  1.00  0.00    -0.354 N 
ATOM     57  N   UNL A   1      45.000  29.916  27.735  1.00  0.00    -0.248 NA
ATOM     58  C   UNL A   1      43.150  31.043  28.607  1.00  0.00     0.031 C 
ATOM     59  C   UNL A   1      49.112  31.590  27.594  1.00  0.00     0.029 A 
ATOM     60  C   UNL A   1      47.820  31.092  27.669  1.00  0.00     0.049 A 
ATOM     61  H   UNL A   1      47.095  29.196  27.092  1.00  0.00     0.167 HD
ATOM     62  C   UNL A   1      45.397  31.180  28.175  1.00  0.00     0.074 A 
ATOM     63  C   UNL A   1      44.207  31.840  28.669  1.00  0.00     0.031 C 
ATOM     64  C   UNL A   1      46.631  31.746  28.165  1.00  0.00     0.034 A 
BRANCH  51  65
ATOM     65  C   UNL A   1      51.045  28.014  25.927  1.00  0.00     0.023 A 
ATOM     66  C   UNL A   1      51.556  28.054  24.618  1.00  0.00     0.031 A 
ATOM     67  C   UNL A   1      51.944  27.745  26.976  1.00  0.00     0.131 A 
ATOM     68  C   UNL A   1      52.908  27.761  24.386  1.00  0.00     0.055 A 
ATOM     69  C   UNL A   1      53.305  27.536  26.746  1.00  0.00     0.041 A 
ATOM     70  F   UNL A   1      51.511  27.668  28.245  1.00  0.00    -0.206 F 
ATOM     71  C   UNL A   1      53.791  27.529  25.442  1.00  0.00     0.022 A 
BRANCH  68  72
ATOM     72  S   UNL A   1      53.466  27.542  22.673  1.00  0.00     0.124 S 
ATOM     73  O   UNL A   1      54.785  28.169  22.712  1.00  0.00    -0.237 OA
ATOM     74  O   UNL A   1      53.451  26.092  22.521  1.00  0.00    -0.237 OA
ATOM     75  O   UNL A   1      52.464  28.263  21.891  1.00  0.00    -0.744 OA
ENDBRANCH  68  72
ENDBRANCH  51  65
BRANCH  52  76
ATOM     76  C   UNL A   1      41.299  28.860  28.013  1.00  0.00     0.023 A 
ATOM     77  C   UNL A   1      40.860  28.652  29.331  1.00  0.00     0.031 A 
ATOM     78  C   UNL A   1      40.325  29.118  27.030  1.00  0.00     0.131 A 
ATOM     79  C   UNL A   1      39.486  28.652  29.622  1.00  0.00     0.055 A 
ATOM     80  C   UNL A   1      38.964  29.177  27.337  1.00  0.00     0.041 A 
ATOM     81  F   UNL A   1      40.684  29.314  25.751  1.00  0.00    -0.206 F 
ATOM     82  C   UNL A   1      38.537  28.929  28.637  1.00  0.00     0.022 A 
BRANCH  79  83
ATOM     83  S   UNL A   1      38.950  28.182  31.291  1.00  0.00     0.124 S 
ATOM     84  O   UNL A   1      37.809  29.068  31.494  1.00  0.00    -0.237 OA
ATOM     85  O   UNL A   1      38.642  26.766  31.121  1.00  0.00    -0.237 OA
ATOM     86  O   UNL A   1      40.120  28.469  32.118  1.00  0.00    -0.744 OA
ENDBRANCH  79  83
ENDBRANCH  52  76
BRANCH  64  87
ATOM     87  C   UNL A   1      46.749  33.175  28.645  1.00  0.00     0.023 A 
ATOM     88  C   UNL A   1      46.595  34.271  27.779  1.00  0.00     0.031 A 
ATOM     89  C   UNL A   1      47.021  33.441  30.001  1.00  0.00     0.131 A 
ATOM     90  C   UNL A   1      46.768  35.579  28.265  1.00  0.00     0.055 A 
ATOM     91  C   UNL A   1      47.126  34.745  30.490  1.00  0.00     0.041 A 
ATOM     92  F   UNL A   1      47.182  32.436  30.876  1.00  0.00    -0.206 F 
ATOM     93  C   UNL A   1      47.013  35.822  29.618  1.00  0.00     0.022 A 
BRANCH  90  94
ATOM     94  S   UNL A   1      46.761  36.957  27.085  1.00  0.00     0.124 S 
ATOM     95  O   UNL A   1      45.397  37.460  27.212  1.00  0.00    -0.237 OA
ATOM     96  O   UNL A   1      47.812  37.823  27.609  1.00  0.00    -0.237 OA
ATOM     97  O   UNL A   1      47.068  36.316  25.807  1.00  0.00    -0.744 OA
ENDBRANCH  90  94
ENDBRANCH  64  87
ENDBRANCH  38  39
ENDBRANCH  31  33
ENDBRANCH  30  31
ENDBRANCH  29  30
ENDBRANCH  28  29
ENDBRANCH  27  28
ENDBRANCH  26  27
ENDBRANCH   1  26
TORSDOF 23
ENDMDL
