MODEL 1
REMARK VINA RESULT:      -9.8      0.000      0.000
REMARK SMILES CC[C@H](Oc1c(C)cc(Br)cc1N)C(=O)OCCOCCOCCOC(=O)c1ccc(-c2c3nc(c(-c4cc(S(=O)(=O)[O-])ccc4F)c4ccc([nH]4)c(-c4cc(S(=O)(=O)[O-])ccc4F)c4nc(c(-c5cc(S(=O)(=O)[O-])ccc5F)c5ccc2[nH]5)C=C4)C=C3)cc1
REMARK SMILES IDX 20 1 19 2 18 3 17 4 16 5 14 6 15 7 3 8 2 9 1 10 4 11 5 12
REMARK SMILES IDX 6 13 12 14 7 15 8 16 11 17 9 18 10 19 13 20 21 23 22 24
REMARK SMILES IDX 23 25 24 26 25 27 26 28 27 29 28 30 29 31 90 32 30 33 89 34
REMARK SMILES IDX 31 35 32 36 33 37 83 38 34 39 88 40 82 41 84 42 35 43 87 44
REMARK SMILES IDX 81 45 80 46 36 48 68 49 48 50 67 51 49 52 52 53 66 54 85 55
REMARK SMILES IDX 50 56 51 57 65 59 86 60 53 61 37 62 38 63 46 64 39 65 45 66
REMARK SMILES IDX 47 67 44 68 40 69 41 70 42 71 43 72 69 73 70 74 78 75 71 76
REMARK SMILES IDX 77 77 79 78 76 79 72 80 73 81 74 82 75 83 54 84 55 85 63 86
REMARK SMILES IDX 56 87 62 88 64 89 61 90 57 91 58 92 59 93 60 94
REMARK H PARENT 13 21 13 22 84 47 52 58
REMARK Flexibility Score: inf
ROOT
ATOM      1  C   UNL A   1      36.550  22.872  23.903  1.00  0.00     0.188 C 
ENDROOT
BRANCH   1   2
ATOM      2  O   UNL A   1      36.079  24.085  24.443  1.00  0.00    -0.376 OA
BRANCH   2   3
ATOM      3  C   UNL A   1      35.218  24.061  25.569  1.00  0.00     0.202 C 
BRANCH   3   4
ATOM      4  C   UNL A   1      34.072  25.058  25.830  1.00  0.00     0.261 C 
BRANCH   4   5
ATOM      5  O   UNL A   1      33.517  25.769  24.711  1.00  0.00    -0.461 OA
BRANCH   5   6
ATOM      6  C   UNL A   1      32.427  25.183  24.133  1.00  0.00     0.347 C 
ATOM      7  O   UNL A   1      31.267  25.466  24.423  1.00  0.00    -0.248 OA
BRANCH   6   8
ATOM      8  C   UNL A   1      32.760  24.039  23.150  1.00  0.00     0.282 C 
BRANCH   8   9
ATOM      9  C   UNL A   1      33.164  24.769  21.854  1.00  0.00     0.054 C 
ATOM     10  C   UNL A   1      32.288  25.896  21.345  1.00  0.00     0.008 C 
ENDBRANCH   8   9
BRANCH   8  11
ATOM     11  O   UNL A   1      31.757  23.037  23.028  1.00  0.00    -0.476 OA
BRANCH  11  12
ATOM     12  C   UNL A   1      31.930  21.774  23.557  1.00  0.00     0.146 A 
ATOM     13  C   UNL A   1      32.078  21.433  24.915  1.00  0.00    -0.006 A 
ATOM     14  C   UNL A   1      31.992  20.739  22.588  1.00  0.00     0.076 A 
ATOM     15  C   UNL A   1      31.650  22.286  26.074  1.00  0.00     0.048 C 
ATOM     16  C   UNL A   1      32.648  20.185  25.236  1.00  0.00     0.023 A 
ATOM     17  C   UNL A   1      32.542  19.499  22.935  1.00  0.00     0.045 A 
ATOM     18  C   UNL A   1      32.925  19.252  24.246  1.00  0.00     0.020 A 
ATOM     19  Br  UNL A   1      33.812  17.643  24.690  1.00  0.00    -0.051 Br
BRANCH  14  20
ATOM     20  N   UNL A   1      31.662  20.969  21.247  1.00  0.00    -0.396 N 
ATOM     21  H   UNL A   1      30.994  20.399  20.801  1.00  0.00     0.156 HD
ATOM     22  H   UNL A   1      32.098  21.697  20.750  1.00  0.00     0.156 HD
ENDBRANCH  14  20
ENDBRANCH  11  12
ENDBRANCH   8  11
ENDBRANCH   6   8
ENDBRANCH   5   6
ENDBRANCH   4   5
ENDBRANCH   3   4
ENDBRANCH   2   3
ENDBRANCH   1   2
BRANCH   1  23
ATOM     23  C   UNL A   1      36.040  21.578  24.553  1.00  0.00     0.188 C 
BRANCH  23  24
ATOM     24  O   UNL A   1      36.856  20.851  25.446  1.00  0.00    -0.376 OA
BRANCH  24  25
ATOM     25  C   UNL A   1      37.626  19.761  24.965  1.00  0.00     0.202 C 
BRANCH  25  26
ATOM     26  C   UNL A   1      39.032  19.366  25.473  1.00  0.00     0.261 C 
BRANCH  26  27
ATOM     27  O   UNL A   1      39.528  19.993  26.659  1.00  0.00    -0.460 OA
BRANCH  27  28
ATOM     28  C   UNL A   1      40.864  20.245  26.674  1.00  0.00     0.338 C 
ATOM     29  O   UNL A   1      41.749  19.521  26.261  1.00  0.00    -0.246 OA
BRANCH  28  30
ATOM     30  C   UNL A   1      41.056  21.659  27.069  1.00  0.00     0.060 A 
ATOM     31  C   UNL A   1      40.497  22.668  26.269  1.00  0.00     0.016 A 
ATOM     32  C   UNL A   1      41.767  21.985  28.223  1.00  0.00     0.016 A 
ATOM     33  C   UNL A   1      40.646  24.006  26.623  1.00  0.00     0.010 A 
ATOM     34  C   UNL A   1      41.954  23.331  28.553  1.00  0.00     0.010 A 
ATOM     35  C   UNL A   1      41.413  24.347  27.743  1.00  0.00    -0.014 A 
BRANCH  35  36
ATOM     36  C   UNL A   1      41.832  25.755  27.937  1.00  0.00     0.031 A 
ATOM     37  C   UNL A   1      43.163  26.178  27.380  1.00  0.00     0.074 A 
ATOM     38  C   UNL A   1      41.039  26.650  28.554  1.00  0.00     0.049 A 
ATOM     39  N   UNL A   1      43.772  27.330  27.470  1.00  0.00    -0.248 NA
ATOM     40  C   UNL A   1      43.902  25.161  26.614  1.00  0.00     0.031 C 
ATOM     41  C   UNL A   1      39.697  26.381  29.066  1.00  0.00     0.029 A 
ATOM     42  N   UNL A   1      41.255  27.973  28.848  1.00  0.00    -0.354 N 
ATOM     43  C   UNL A   1      44.965  27.178  26.772  1.00  0.00     0.074 A 
ATOM     44  C   UNL A   1      45.009  25.813  26.298  1.00  0.00     0.031 C 
ATOM     45  C   UNL A   1      39.208  27.508  29.612  1.00  0.00     0.029 A 
ATOM     46  C   UNL A   1      40.216  28.566  29.526  1.00  0.00     0.049 A 
ATOM     47  H   UNL A   1      42.077  28.453  28.597  1.00  0.00     0.167 HD
ATOM     48  C   UNL A   1      45.929  28.099  26.537  1.00  0.00     0.034 A 
ATOM     49  C   UNL A   1      40.101  29.810  30.034  1.00  0.00     0.034 A 
ATOM     50  C   UNL A   1      45.881  29.454  27.023  1.00  0.00     0.049 A 
ATOM     51  C   UNL A   1      41.244  30.784  29.872  1.00  0.00     0.074 A 
ATOM     52  C   UNL A   1      46.813  30.461  26.848  1.00  0.00     0.029 A 
ATOM     53  N   UNL A   1      44.853  29.990  27.784  1.00  0.00    -0.354 N 
ATOM     54  N   UNL A   1      42.385  30.620  29.243  1.00  0.00    -0.248 NA
ATOM     55  C   UNL A   1      41.086  32.106  30.493  1.00  0.00     0.031 C 
ATOM     56  C   UNL A   1      46.383  31.582  27.563  1.00  0.00     0.029 A 
ATOM     57  C   UNL A   1      45.145  31.301  28.119  1.00  0.00     0.049 A 
ATOM     58  H   UNL A   1      44.036  29.508  28.049  1.00  0.00     0.167 HD
ATOM     59  C   UNL A   1      43.069  31.825  29.373  1.00  0.00     0.074 A 
ATOM     60  C   UNL A   1      42.213  32.709  30.136  1.00  0.00     0.031 C 
ATOM     61  C   UNL A   1      44.292  32.171  28.895  1.00  0.00     0.034 A 
BRANCH  48  62
ATOM     62  C   UNL A   1      47.134  27.654  25.752  1.00  0.00     0.023 A 
ATOM     63  C   UNL A   1      47.255  27.917  24.378  1.00  0.00     0.031 A 
ATOM     64  C   UNL A   1      48.178  26.960  26.389  1.00  0.00     0.131 A 
ATOM     65  C   UNL A   1      48.374  27.450  23.674  1.00  0.00     0.055 A 
ATOM     66  C   UNL A   1      49.320  26.556  25.697  1.00  0.00     0.041 A 
ATOM     67  F   UNL A   1      48.102  26.661  27.696  1.00  0.00    -0.206 F 
ATOM     68  C   UNL A   1      49.419  26.793  24.329  1.00  0.00     0.022 A 
BRANCH  65  69
ATOM     69  S   UNL A   1      48.402  27.629  21.870  1.00  0.00     0.124 S 
ATOM     70  O   UNL A   1      49.531  28.537  21.682  1.00  0.00    -0.237 OA
ATOM     71  O   UNL A   1      48.602  26.259  21.418  1.00  0.00    -0.237 OA
ATOM     72  O   UNL A   1      47.093  28.203  21.563  1.00  0.00    -0.744 OA
ENDBRANCH  65  69
ENDBRANCH  48  62
BRANCH  49  73
ATOM     73  C   UNL A   1      38.867  30.202  30.770  1.00  0.00     0.023 A 
ATOM     74  C   UNL A   1      37.839  30.912  30.130  1.00  0.00     0.031 A 
ATOM     75  C   UNL A   1      38.698  29.871  32.127  1.00  0.00     0.131 A 
ATOM     76  C   UNL A   1      36.691  31.279  30.852  1.00  0.00     0.055 A 
ATOM     77  C   UNL A   1      37.539  30.205  32.828  1.00  0.00     0.041 A 
ATOM     78  F   UNL A   1      39.654  29.194  32.783  1.00  0.00    -0.206 F 
ATOM     79  C   UNL A   1      36.528  30.918  32.191  1.00  0.00     0.022 A 
BRANCH  76  80
ATOM     80  S   UNL A   1      35.413  32.258  30.015  1.00  0.00     0.124 S 
ATOM     81  O   UNL A   1      36.148  33.467  29.663  1.00  0.00    -0.237 OA
ATOM     82  O   UNL A   1      35.037  31.387  28.906  1.00  0.00    -0.237 OA
ATOM     83  O   UNL A   1      34.388  32.426  31.043  1.00  0.00    -0.744 OA
ENDBRANCH  76  80
ENDBRANCH  49  73
BRANCH  61  84
ATOM     84  C   UNL A   1      44.782  33.571  29.159  1.00  0.00     0.023 A 
ATOM     85  C   UNL A   1      44.409  34.648  28.338  1.00  0.00     0.031 A 
ATOM     86  C   UNL A   1      45.581  33.842  30.286  1.00  0.00     0.131 A 
ATOM     87  C   UNL A   1      44.852  35.945  28.641  1.00  0.00     0.055 A 
ATOM     88  C   UNL A   1      45.977  35.140  30.611  1.00  0.00     0.041 A 
ATOM     89  F   UNL A   1      45.961  32.850  31.106  1.00  0.00    -0.206 F 
ATOM     90  C   UNL A   1      45.617  36.199  29.784  1.00  0.00     0.022 A 
BRANCH  87  91
ATOM     91  S   UNL A   1      44.445  37.295  27.504  1.00  0.00     0.124 S 
ATOM     92  O   UNL A   1      44.337  38.433  28.412  1.00  0.00    -0.237 OA
ATOM     93  O   UNL A   1      45.592  37.305  26.602  1.00  0.00    -0.237 OA
ATOM     94  O   UNL A   1      43.187  36.866  26.896  1.00  0.00    -0.744 OA
ENDBRANCH  87  91
ENDBRANCH  61  84
ENDBRANCH  35  36
ENDBRANCH  28  30
ENDBRANCH  27  28
ENDBRANCH  26  27
ENDBRANCH  25  26
ENDBRANCH  24  25
ENDBRANCH  23  24
ENDBRANCH   1  23
TORSDOF 24
ENDMDL
MODEL 2
REMARK VINA RESULT:      -9.3      2.830      8.388
REMARK SMILES CC[C@H](Oc1c(C)cc(Br)cc1N)C(=O)OCCOCCOCCOC(=O)c1ccc(-c2c3nc(c(-c4cc(S(=O)(=O)[O-])ccc4F)c4ccc([nH]4)c(-c4cc(S(=O)(=O)[O-])ccc4F)c4nc(c(-c5cc(S(=O)(=O)[O-])ccc5F)c5ccc2[nH]5)C=C4)C=C3)cc1
REMARK SMILES IDX 20 1 19 2 18 3 17 4 16 5 14 6 15 7 3 8 2 9 1 10 4 11 5 12
REMARK SMILES IDX 6 13 12 14 7 15 8 16 11 17 9 18 10 19 13 20 21 23 22 24
REMARK SMILES IDX 23 25 24 26 25 27 26 28 27 29 28 30 29 31 90 32 30 33 89 34
REMARK SMILES IDX 31 35 32 36 33 37 83 38 34 39 88 40 82 41 84 42 35 43 87 44
REMARK SMILES IDX 81 45 80 46 36 48 68 49 48 50 67 51 49 52 52 53 66 54 85 55
REMARK SMILES IDX 50 56 51 57 65 59 86 60 53 61 37 62 38 63 46 64 39 65 45 66
REMARK SMILES IDX 47 67 44 68 40 69 41 70 42 71 43 72 69 73 70 74 78 75 71 76
REMARK SMILES IDX 77 77 79 78 76 79 72 80 73 81 74 82 75 83 54 84 55 85 63 86
REMARK SMILES IDX 56 87 62 88 64 89 61 90 57 91 58 92 59 93 60 94
REMARK H PARENT 13 21 13 22 84 47 52 58
REMARK Flexibility Score: inf
ROOT
ATOM      1  C   UNL A   1      37.167  22.943  25.483  1.00  0.00     0.188 C 
ENDROOT
BRANCH   1   2
ATOM      2  O   UNL A   1      36.033  23.098  26.303  1.00  0.00    -0.376 OA
BRANCH   2   3
ATOM      3  C   UNL A   1      34.941  22.205  26.162  1.00  0.00     0.202 C 
BRANCH   3   4
ATOM      4  C   UNL A   1      34.614  21.398  24.891  1.00  0.00     0.261 C 
BRANCH   4   5
ATOM      5  O   UNL A   1      33.662  21.943  23.961  1.00  0.00    -0.461 OA
BRANCH   5   6
ATOM      6  C   UNL A   1      33.961  23.188  23.485  1.00  0.00     0.347 C 
ATOM      7  O   UNL A   1      34.920  23.426  22.755  1.00  0.00    -0.248 OA
BRANCH   6   8
ATOM      8  C   UNL A   1      33.057  24.316  24.029  1.00  0.00     0.282 C 
BRANCH   8   9
ATOM      9  C   UNL A   1      32.054  24.569  22.887  1.00  0.00     0.054 C 
ATOM     10  C   UNL A   1      30.582  24.708  23.222  1.00  0.00     0.008 C 
ENDBRANCH   8   9
BRANCH   8  11
ATOM     11  O   UNL A   1      33.748  25.454  24.531  1.00  0.00    -0.476 OA
BRANCH  11  12
ATOM     12  C   UNL A   1      33.105  26.658  24.733  1.00  0.00     0.146 A 
ATOM     13  C   UNL A   1      33.229  27.829  23.961  1.00  0.00    -0.006 A 
ATOM     14  C   UNL A   1      32.259  26.684  25.871  1.00  0.00     0.076 A 
ATOM     15  C   UNL A   1      33.730  27.885  22.546  1.00  0.00     0.048 C 
ATOM     16  C   UNL A   1      32.837  29.056  24.533  1.00  0.00     0.023 A 
ATOM     17  C   UNL A   1      31.862  27.915  26.410  1.00  0.00     0.045 A 
ATOM     18  C   UNL A   1      32.207  29.096  25.770  1.00  0.00     0.020 A 
ATOM     19  Br  UNL A   1      31.814  30.762  26.571  1.00  0.00    -0.051 Br
BRANCH  14  20
ATOM     20  N   UNL A   1      31.932  25.515  26.570  1.00  0.00    -0.396 N 
ATOM     21  H   UNL A   1      32.113  24.636  26.168  1.00  0.00     0.156 HD
ATOM     22  H   UNL A   1      31.522  25.574  27.462  1.00  0.00     0.156 HD
ENDBRANCH  14  20
ENDBRANCH  11  12
ENDBRANCH   8  11
ENDBRANCH   6   8
ENDBRANCH   5   6
ENDBRANCH   4   5
ENDBRANCH   3   4
ENDBRANCH   2   3
ENDBRANCH   1   2
BRANCH   1  23
ATOM     23  C   UNL A   1      38.536  23.178  26.139  1.00  0.00     0.188 C 
BRANCH  23  24
ATOM     24  O   UNL A   1      39.404  22.096  26.399  1.00  0.00    -0.376 OA
BRANCH  24  25
ATOM     25  C   UNL A   1      39.217  20.866  25.719  1.00  0.00     0.202 C 
BRANCH  25  26
ATOM     26  C   UNL A   1      39.952  19.545  26.042  1.00  0.00     0.261 C 
BRANCH  26  27
ATOM     27  O   UNL A   1      41.166  19.253  25.344  1.00  0.00    -0.460 OA
BRANCH  27  28
ATOM     28  C   UNL A   1      42.298  19.285  26.098  1.00  0.00     0.338 C 
ATOM     29  O   UNL A   1      43.044  18.356  26.336  1.00  0.00    -0.246 OA
BRANCH  28  30
ATOM     30  C   UNL A   1      42.606  20.702  26.396  1.00  0.00     0.060 A 
ATOM     31  C   UNL A   1      42.831  21.586  25.329  1.00  0.00     0.016 A 
ATOM     32  C   UNL A   1      42.658  21.158  27.713  1.00  0.00     0.016 A 
ATOM     33  C   UNL A   1      43.106  22.929  25.576  1.00  0.00     0.010 A 
ATOM     34  C   UNL A   1      42.979  22.495  27.961  1.00  0.00     0.010 A 
ATOM     35  C   UNL A   1      43.225  23.381  26.895  1.00  0.00    -0.014 A 
BRANCH  35  36
ATOM     36  C   UNL A   1      43.821  24.712  27.157  1.00  0.00     0.031 A 
ATOM     37  C   UNL A   1      42.933  25.783  27.726  1.00  0.00     0.074 A 
ATOM     38  C   UNL A   1      45.126  24.959  26.938  1.00  0.00     0.049 A 
ATOM     39  N   UNL A   1      43.202  27.035  27.986  1.00  0.00    -0.248 NA
ATOM     40  C   UNL A   1      41.553  25.382  28.048  1.00  0.00     0.031 C 
ATOM     41  C   UNL A   1      46.104  23.982  26.466  1.00  0.00     0.029 A 
ATOM     42  N   UNL A   1      45.850  26.115  27.093  1.00  0.00    -0.354 N 
ATOM     43  C   UNL A   1      42.029  27.572  28.503  1.00  0.00     0.074 A 
ATOM     44  C   UNL A   1      41.036  26.521  28.483  1.00  0.00     0.031 C 
ATOM     45  C   UNL A   1      47.304  24.581  26.369  1.00  0.00     0.029 A 
ATOM     46  C   UNL A   1      47.171  25.993  26.733  1.00  0.00     0.049 A 
ATOM     47  H   UNL A   1      45.459  26.953  27.430  1.00  0.00     0.167 HD
ATOM     48  C   UNL A   1      41.804  28.825  28.963  1.00  0.00     0.034 A 
ATOM     49  C   UNL A   1      48.152  26.917  26.684  1.00  0.00     0.034 A 
ATOM     50  C   UNL A   1      42.796  29.869  28.967  1.00  0.00     0.049 A 
ATOM     51  C   UNL A   1      47.846  28.342  27.081  1.00  0.00     0.074 A 
ATOM     52  C   UNL A   1      42.665  31.175  29.403  1.00  0.00     0.029 A 
ATOM     53  N   UNL A   1      44.098  29.730  28.508  1.00  0.00    -0.354 N 
ATOM     54  N   UNL A   1      46.722  28.850  27.533  1.00  0.00    -0.248 NA
ATOM     55  C   UNL A   1      48.938  29.318  26.955  1.00  0.00     0.031 C 
ATOM     56  C   UNL A   1      43.862  31.844  29.142  1.00  0.00     0.029 A 
ATOM     57  C   UNL A   1      44.769  30.937  28.616  1.00  0.00     0.049 A 
ATOM     58  H   UNL A   1      44.487  28.897  28.157  1.00  0.00     0.167 HD
ATOM     59  C   UNL A   1      46.980  30.198  27.767  1.00  0.00     0.074 A 
ATOM     60  C   UNL A   1      48.366  30.425  27.411  1.00  0.00     0.031 C 
ATOM     61  C   UNL A   1      46.146  31.158  28.242  1.00  0.00     0.034 A 
BRANCH  48  62
ATOM     62  C   UNL A   1      40.419  29.141  29.462  1.00  0.00     0.023 A 
ATOM     63  C   UNL A   1      40.126  29.191  30.834  1.00  0.00     0.031 A 
ATOM     64  C   UNL A   1      39.380  29.398  28.550  1.00  0.00     0.131 A 
ATOM     65  C   UNL A   1      38.813  29.448  31.258  1.00  0.00     0.055 A 
ATOM     66  C   UNL A   1      38.091  29.719  28.979  1.00  0.00     0.041 A 
ATOM     67  F   UNL A   1      39.601  29.338  27.227  1.00  0.00    -0.206 F 
ATOM     68  C   UNL A   1      37.800  29.737  30.339  1.00  0.00     0.022 A 
BRANCH  65  69
ATOM     69  S   UNL A   1      38.428  29.306  33.023  1.00  0.00     0.124 S 
ATOM     70  O   UNL A   1      37.218  28.488  32.996  1.00  0.00    -0.237 OA
ATOM     71  O   UNL A   1      39.622  28.664  33.557  1.00  0.00    -0.237 OA
ATOM     72  O   UNL A   1      38.225  30.692  33.441  1.00  0.00    -0.744 OA
ENDBRANCH  65  69
ENDBRANCH  48  62
BRANCH  49  73
ATOM     73  C   UNL A   1      49.513  26.534  26.216  1.00  0.00     0.023 A 
ATOM     74  C   UNL A   1      49.997  26.965  24.971  1.00  0.00     0.031 A 
ATOM     75  C   UNL A   1      50.351  25.729  27.010  1.00  0.00     0.131 A 
ATOM     76  C   UNL A   1      51.279  26.579  24.549  1.00  0.00     0.055 A 
ATOM     77  C   UNL A   1      51.638  25.380  26.602  1.00  0.00     0.041 A 
ATOM     78  F   UNL A   1      49.932  25.290  28.208  1.00  0.00    -0.206 F 
ATOM     79  C   UNL A   1      52.109  25.803  25.362  1.00  0.00     0.022 A 
BRANCH  76  80
ATOM     80  S   UNL A   1      51.847  27.094  22.905  1.00  0.00     0.124 S 
ATOM     81  O   UNL A   1      50.615  27.019  22.128  1.00  0.00    -0.237 OA
ATOM     82  O   UNL A   1      52.362  28.435  23.166  1.00  0.00    -0.237 OA
ATOM     83  O   UNL A   1      52.861  26.098  22.569  1.00  0.00    -0.744 OA
ENDBRANCH  76  80
ENDBRANCH  49  73
BRANCH  61  84
ATOM     84  C   UNL A   1      46.704  32.545  28.432  1.00  0.00     0.023 A 
ATOM     85  C   UNL A   1      46.570  33.534  27.443  1.00  0.00     0.031 A 
ATOM     86  C   UNL A   1      47.321  32.901  29.646  1.00  0.00     0.131 A 
ATOM     87  C   UNL A   1      47.067  34.826  27.675  1.00  0.00     0.055 A 
ATOM     88  C   UNL A   1      47.769  34.199  29.891  1.00  0.00     0.041 A 
ATOM     89  F   UNL A   1      47.470  31.995  30.626  1.00  0.00    -0.206 F 
ATOM     90  C   UNL A   1      47.647  35.169  28.900  1.00  0.00     0.022 A 
BRANCH  87  91
ATOM     91  S   UNL A   1      46.977  36.048  26.340  1.00  0.00     0.124 S 
ATOM     92  O   UNL A   1      46.361  35.277  25.265  1.00  0.00    -0.237 OA
ATOM     93  O   UNL A   1      46.150  37.097  26.928  1.00  0.00    -0.237 OA
ATOM     94  O   UNL A   1      48.374  36.417  26.117  1.00  0.00    -0.744 OA
ENDBRANCH  87  91
ENDBRANCH  61  84
ENDBRANCH  35  36
ENDBRANCH  28  30
ENDBRANCH  27  28
ENDBRANCH  26  27
ENDBRANCH  25  26
ENDBRANCH  24  25
ENDBRANCH  23  24
ENDBRANCH   1  23
TORSDOF 24
ENDMDL
MODEL 3
REMARK VINA RESULT:      -8.8      3.464      4.769
REMARK SMILES CC[C@H](Oc1c(C)cc(Br)cc1N)C(=O)OCCOCCOCCOC(=O)c1ccc(-c2c3nc(c(-c4cc(S(=O)(=O)[O-])ccc4F)c4ccc([nH]4)c(-c4cc(S(=O)(=O)[O-])ccc4F)c4nc(c(-c5cc(S(=O)(=O)[O-])ccc5F)c5ccc2[nH]5)C=C4)C=C3)cc1
REMARK SMILES IDX 20 1 19 2 18 3 17 4 16 5 14 6 15 7 3 8 2 9 1 10 4 11 5 12
REMARK SMILES IDX 6 13 12 14 7 15 8 16 11 17 9 18 10 19 13 20 21 23 22 24
REMARK SMILES IDX 23 25 24 26 25 27 26 28 27 29 28 30 29 31 90 32 30 33 89 34
REMARK SMILES IDX 31 35 32 36 33 37 83 38 34 39 88 40 82 41 84 42 35 43 87 44
REMARK SMILES IDX 81 45 80 46 36 48 68 49 48 50 67 51 49 52 52 53 66 54 85 55
REMARK SMILES IDX 50 56 51 57 65 59 86 60 53 61 37 62 38 63 46 64 39 65 45 66
REMARK SMILES IDX 47 67 44 68 40 69 41 70 42 71 43 72 69 73 70 74 78 75 71 76
REMARK SMILES IDX 77 77 79 78 76 79 72 80 73 81 74 82 75 83 54 84 55 85 63 86
REMARK SMILES IDX 56 87 62 88 64 89 61 90 57 91 58 92 59 93 60 94
REMARK H PARENT 13 21 13 22 84 47 52 58
REMARK Flexibility Score: inf
ROOT
ATOM      1  C   UNL A   1      39.719  23.285  26.824  1.00  0.00     0.188 C 
ENDROOT
BRANCH   1   2
ATOM      2  O   UNL A   1      38.427  23.705  26.450  1.00  0.00    -0.376 OA
BRANCH   2   3
ATOM      3  C   UNL A   1      37.567  22.804  25.774  1.00  0.00     0.202 C 
BRANCH   3   4
ATOM      4  C   UNL A   1      36.049  22.997  25.590  1.00  0.00     0.261 C 
BRANCH   4   5
ATOM      5  O   UNL A   1      35.540  24.336  25.471  1.00  0.00    -0.461 OA
BRANCH   5   6
ATOM      6  C   UNL A   1      34.178  24.442  25.469  1.00  0.00     0.347 C 
ATOM      7  O   UNL A   1      33.449  23.874  26.279  1.00  0.00    -0.248 OA
BRANCH   6   8
ATOM      8  C   UNL A   1      33.601  25.253  24.288  1.00  0.00     0.282 C 
BRANCH   8   9
ATOM      9  C   UNL A   1      33.896  24.375  23.056  1.00  0.00     0.054 C 
ATOM     10  C   UNL A   1      33.030  23.158  22.799  1.00  0.00     0.008 C 
ENDBRANCH   8   9
BRANCH   8  11
ATOM     11  O   UNL A   1      34.029  26.609  24.220  1.00  0.00    -0.476 OA
BRANCH  11  12
ATOM     12  C   UNL A   1      33.125  27.650  24.189  1.00  0.00     0.146 A 
ATOM     13  C   UNL A   1      32.431  28.208  25.280  1.00  0.00    -0.006 A 
ATOM     14  C   UNL A   1      32.872  28.166  22.892  1.00  0.00     0.076 A 
ATOM     15  C   UNL A   1      32.842  28.089  26.720  1.00  0.00     0.048 C 
ATOM     16  C   UNL A   1      31.268  28.961  25.023  1.00  0.00     0.023 A 
ATOM     17  C   UNL A   1      31.722  28.932  22.663  1.00  0.00     0.045 A 
ATOM     18  C   UNL A   1      30.893  29.272  23.723  1.00  0.00     0.020 A 
ATOM     19  Br  UNL A   1      29.260  30.168  23.403  1.00  0.00    -0.051 Br
BRANCH  14  20
ATOM     20  N   UNL A   1      33.658  27.802  21.791  1.00  0.00    -0.396 N 
ATOM     21  H   UNL A   1      34.119  28.495  21.266  1.00  0.00     0.156 HD
ATOM     22  H   UNL A   1      33.748  26.855  21.542  1.00  0.00     0.156 HD
ENDBRANCH  14  20
ENDBRANCH  11  12
ENDBRANCH   8  11
ENDBRANCH   6   8
ENDBRANCH   5   6
ENDBRANCH   4   5
ENDBRANCH   3   4
ENDBRANCH   2   3
ENDBRANCH   1   2
BRANCH   1  23
ATOM     23  C   UNL A   1      40.067  21.810  26.577  1.00  0.00     0.188 C 
BRANCH  23  24
ATOM     24  O   UNL A   1      41.226  21.240  27.144  1.00  0.00    -0.376 OA
BRANCH  24  25
ATOM     25  C   UNL A   1      41.374  19.829  27.173  1.00  0.00     0.202 C 
BRANCH  25  26
ATOM     26  C   UNL A   1      42.319  19.009  26.265  1.00  0.00     0.261 C 
BRANCH  26  27
ATOM     27  O   UNL A   1      42.706  19.568  25.007  1.00  0.00    -0.460 OA
BRANCH  27  28
ATOM     28  C   UNL A   1      44.046  19.688  24.806  1.00  0.00     0.338 C 
ATOM     29  O   UNL A   1      44.787  18.865  24.306  1.00  0.00    -0.246 OA
BRANCH  28  30
ATOM     30  C   UNL A   1      44.423  21.092  25.086  1.00  0.00     0.060 A 
ATOM     31  C   UNL A   1      45.055  21.394  26.303  1.00  0.00     0.016 A 
ATOM     32  C   UNL A   1      44.169  22.097  24.154  1.00  0.00     0.016 A 
ATOM     33  C   UNL A   1      45.438  22.702  26.588  1.00  0.00     0.010 A 
ATOM     34  C   UNL A   1      44.512  23.417  24.461  1.00  0.00     0.010 A 
ATOM     35  C   UNL A   1      45.128  23.728  25.688  1.00  0.00    -0.014 A 
BRANCH  35  36
ATOM     36  C   UNL A   1      45.246  25.139  26.124  1.00  0.00     0.031 A 
ATOM     37  C   UNL A   1      46.602  25.786  26.061  1.00  0.00     0.074 A 
ATOM     38  C   UNL A   1      44.175  25.847  26.526  1.00  0.00     0.049 A 
ATOM     39  N   UNL A   1      46.970  26.982  26.439  1.00  0.00    -0.248 NA
ATOM     40  C   UNL A   1      47.687  24.971  25.491  1.00  0.00     0.031 C 
ATOM     41  C   UNL A   1      42.798  25.357  26.555  1.00  0.00     0.029 A 
ATOM     42  N   UNL A   1      44.083  27.138  26.984  1.00  0.00    -0.354 N 
ATOM     43  C   UNL A   1      48.327  27.064  26.151  1.00  0.00     0.074 A 
ATOM     44  C   UNL A   1      48.724  25.786  25.604  1.00  0.00     0.031 C 
ATOM     45  C   UNL A   1      41.998  26.338  27.007  1.00  0.00     0.029 A 
ATOM     46  C   UNL A   1      42.809  27.511  27.339  1.00  0.00     0.049 A 
ATOM     47  H   UNL A   1      44.859  27.741  27.052  1.00  0.00     0.167 HD
ATOM     48  C   UNL A   1      49.163  28.116  26.317  1.00  0.00     0.034 A 
ATOM     49  C   UNL A   1      42.354  28.657  27.886  1.00  0.00     0.034 A 
ATOM     50  C   UNL A   1      48.761  29.381  26.873  1.00  0.00     0.049 A 
ATOM     51  C   UNL A   1      43.327  29.772  28.182  1.00  0.00     0.074 A 
ATOM     52  C   UNL A   1      49.536  30.507  27.093  1.00  0.00     0.029 A 
ATOM     53  N   UNL A   1      47.479  29.688  27.306  1.00  0.00    -0.354 N 
ATOM     54  N   UNL A   1      44.617  29.827  27.942  1.00  0.00    -0.248 NA
ATOM     55  C   UNL A   1      42.786  30.976  28.829  1.00  0.00     0.031 C 
ATOM     56  C   UNL A   1      48.741  31.467  27.723  1.00  0.00     0.029 A 
ATOM     57  C   UNL A   1      47.450  30.972  27.826  1.00  0.00     0.049 A 
ATOM     58  H   UNL A   1      46.705  29.083  27.253  1.00  0.00     0.167 HD
ATOM     59  C   UNL A   1      45.035  31.079  28.386  1.00  0.00     0.074 A 
ATOM     60  C   UNL A   1      43.861  31.750  28.905  1.00  0.00     0.031 C 
ATOM     61  C   UNL A   1      46.278  31.626  28.357  1.00  0.00     0.034 A 
BRANCH  48  62
ATOM     62  C   UNL A   1      50.604  27.922  25.926  1.00  0.00     0.023 A 
ATOM     63  C   UNL A   1      51.598  27.666  26.885  1.00  0.00     0.031 A 
ATOM     64  C   UNL A   1      50.988  27.993  24.575  1.00  0.00     0.131 A 
ATOM     65  C   UNL A   1      52.936  27.534  26.485  1.00  0.00     0.055 A 
ATOM     66  C   UNL A   1      52.310  27.794  24.177  1.00  0.00     0.041 A 
ATOM     67  F   UNL A   1      50.082  28.260  23.621  1.00  0.00    -0.206 F 
ATOM     68  C   UNL A   1      53.294  27.571  25.134  1.00  0.00     0.022 A 
BRANCH  65  69
ATOM     69  S   UNL A   1      54.215  27.406  27.762  1.00  0.00     0.124 S 
ATOM     70  O   UNL A   1      55.403  27.114  26.962  1.00  0.00    -0.237 OA
ATOM     71  O   UNL A   1      54.173  28.722  28.386  1.00  0.00    -0.237 OA
ATOM     72  O   UNL A   1      53.752  26.303  28.602  1.00  0.00    -0.744 OA
ENDBRANCH  65  69
ENDBRANCH  48  62
BRANCH  49  73
ATOM     73  C   UNL A   1      40.909  28.801  28.216  1.00  0.00     0.023 A 
ATOM     74  C   UNL A   1      40.448  28.632  29.531  1.00  0.00     0.031 A 
ATOM     75  C   UNL A   1      39.966  29.113  27.219  1.00  0.00     0.131 A 
ATOM     76  C   UNL A   1      39.078  28.762  29.812  1.00  0.00     0.055 A 
ATOM     77  C   UNL A   1      38.612  29.278  27.511  1.00  0.00     0.041 A 
ATOM     78  F   UNL A   1      40.358  29.282  25.946  1.00  0.00    -0.206 F 
ATOM     79  C   UNL A   1      38.160  29.099  28.815  1.00  0.00     0.022 A 
BRANCH  76  80
ATOM     80  S   UNL A   1      38.506  28.467  31.508  1.00  0.00     0.124 S 
ATOM     81  O   UNL A   1      39.431  29.287  32.281  1.00  0.00    -0.237 OA
ATOM     82  O   UNL A   1      37.124  28.935  31.451  1.00  0.00    -0.237 OA
ATOM     83  O   UNL A   1      38.662  27.023  31.673  1.00  0.00    -0.744 OA
ENDBRANCH  76  80
ENDBRANCH  49  73
BRANCH  61  84
ATOM     84  C   UNL A   1      46.441  33.030  28.881  1.00  0.00     0.023 A 
ATOM     85  C   UNL A   1      46.199  34.151  28.070  1.00  0.00     0.031 A 
ATOM     86  C   UNL A   1      46.782  33.248  30.229  1.00  0.00     0.131 A 
ATOM     87  C   UNL A   1      46.322  35.442  28.607  1.00  0.00     0.055 A 
ATOM     88  C   UNL A   1      46.854  34.532  30.771  1.00  0.00     0.041 A 
ATOM     89  F   UNL A   1      47.019  32.211  31.048  1.00  0.00    -0.206 F 
ATOM     90  C   UNL A   1      46.628  35.638  29.957  1.00  0.00     0.022 A 
BRANCH  87  91
ATOM     91  S   UNL A   1      46.110  36.868  27.510  1.00  0.00     0.124 S 
ATOM     92  O   UNL A   1      47.130  36.623  26.494  1.00  0.00    -0.237 OA
ATOM     93  O   UNL A   1      44.726  36.726  27.070  1.00  0.00    -0.237 OA
ATOM     94  O   UNL A   1      46.366  38.014  28.381  1.00  0.00    -0.744 OA
ENDBRANCH  87  91
ENDBRANCH  61  84
ENDBRANCH  35  36
ENDBRANCH  28  30
ENDBRANCH  27  28
ENDBRANCH  26  27
ENDBRANCH  25  26
ENDBRANCH  24  25
ENDBRANCH  23  24
ENDBRANCH   1  23
TORSDOF 24
ENDMDL
