MODEL 1
REMARK VINA RESULT:     -10.6      0.000      0.000
REMARK SMILES CCc1ccc(-c2cc(Cl)cc3c2O[C@H](C(F)(F)F)C(C(=O)OCCOCCOCCOC(=O)c2ccc(-c4c5nc(c(-c6cc(S(=O)(=O)[O-])ccc6F)c6ccc([nH]6)c(-c6cc(S(=O)(=O)[O-])ccc6F)c6nc(c(-c7cc(S(=O)(=O)[O-])ccc7F)c7ccc4[nH]7)C=C6)C=C5)cc2)=C3)cc1
REMARK SMILES IDX 28 1 27 2 26 3 25 4 24 5 23 6 21 7 22 8 20 9 7 10 8 11 13 12
REMARK SMILES IDX 9 13 12 14 14 15 10 16 11 17 98 18 15 19 6 20 3 21 4 22
REMARK SMILES IDX 100 23 5 24 99 25 2 26 1 27 16 28 17 29 18 30 19 31 29 32
REMARK SMILES IDX 30 33 31 34 32 35 33 36 34 37 35 38 36 39 97 40 37 41 96 42
REMARK SMILES IDX 38 43 39 44 40 45 90 46 41 47 95 48 89 49 91 50 42 51 94 52
REMARK SMILES IDX 88 53 87 54 43 56 75 57 55 58 74 59 56 60 59 61 73 62 92 63
REMARK SMILES IDX 57 64 58 65 72 67 93 68 60 69 44 70 45 71 53 72 46 73 52 74
REMARK SMILES IDX 54 75 51 76 47 77 48 78 49 79 50 80 76 81 77 82 85 83 78 84
REMARK SMILES IDX 84 85 86 86 83 87 79 88 80 89 81 90 82 91 61 92 62 93 70 94
REMARK SMILES IDX 63 95 69 96 71 97 68 98 64 99 65 100 66 101 67 102
REMARK H PARENT 91 55 59 66
REMARK Flexibility Score: inf
ROOT
ATOM      1  C   UNL A   1      39.981  22.173  26.180  1.00  0.00     0.188 C 
ENDROOT
BRANCH   1   2
ATOM      2  C   UNL A   1      38.549  22.754  26.127  1.00  0.00     0.188 C 
BRANCH   2   3
ATOM      3  O   UNL A   1      37.527  21.793  25.923  1.00  0.00    -0.376 OA
BRANCH   3   4
ATOM      4  C   UNL A   1      36.579  22.090  24.901  1.00  0.00     0.202 C 
BRANCH   4   5
ATOM      5  C   UNL A   1      36.207  23.573  24.757  1.00  0.00     0.261 C 
BRANCH   5   6
ATOM      6  O   UNL A   1      35.318  24.004  25.820  1.00  0.00    -0.460 OA
BRANCH   6   7
ATOM      7  C   UNL A   1      34.331  23.134  26.127  1.00  0.00     0.338 C 
ATOM      8  O   UNL A   1      34.409  22.282  27.002  1.00  0.00    -0.246 OA
BRANCH   7   9
ATOM      9  C   UNL A   1      33.079  23.402  25.367  1.00  0.00     0.087 C 
ATOM     10  C   UNL A   1      31.833  27.112  24.038  1.00  0.00     0.026 A 
ATOM     11  C   UNL A   1      32.494  28.034  24.881  1.00  0.00     0.033 A 
ATOM     12  C   UNL A   1      31.956  25.773  24.416  1.00  0.00     0.135 A 
ATOM     13  C   UNL A   1      33.063  27.682  26.103  1.00  0.00     0.042 A 
ATOM     14  C   UNL A   1      32.309  25.464  25.746  1.00  0.00     0.019 A 
ATOM     15  O   UNL A   1      31.931  24.696  23.534  1.00  0.00    -0.475 OA
ATOM     16  Cl  UNL A   1      33.908  28.834  27.054  1.00  0.00    -0.084 Cl
ATOM     17  C   UNL A   1      32.896  26.400  26.584  1.00  0.00     0.032 A 
ATOM     18  C   UNL A   1      32.208  24.049  26.161  1.00  0.00     0.027 C 
ATOM     19  C   UNL A   1      33.034  23.727  23.874  1.00  0.00     0.316 C 
BRANCH  10  20
ATOM     20  C   UNL A   1      30.824  27.744  23.138  1.00  0.00    -0.015 A 
ATOM     21  C   UNL A   1      28.847  29.701  22.397  1.00  0.00    -0.048 A 
ATOM     22  C   UNL A   1      30.173  29.820  21.976  1.00  0.00     0.004 A 
ATOM     23  C   UNL A   1      28.499  28.546  23.115  1.00  0.00     0.004 A 
ATOM     24  C   UNL A   1      31.135  28.848  22.328  1.00  0.00     0.009 A 
ATOM     25  C   UNL A   1      29.464  27.583  23.466  1.00  0.00     0.009 A 
BRANCH  21  26
ATOM     26  C   UNL A   1      27.798  30.784  22.230  1.00  0.00     0.032 C 
ATOM     27  C   UNL A   1      28.259  32.221  22.016  1.00  0.00     0.009 C 
ENDBRANCH  21  26
ENDBRANCH  10  20
BRANCH  19  28
ATOM     28  C   UNL A   1      32.916  22.420  23.084  1.00  0.00     0.430 C 
ATOM     29  F   UNL A   1      33.805  21.488  23.497  1.00  0.00    -0.167 F 
ATOM     30  F   UNL A   1      31.680  21.884  23.168  1.00  0.00    -0.167 F 
ATOM     31  F   UNL A   1      33.157  22.635  21.764  1.00  0.00    -0.167 F 
ENDBRANCH  19  28
ENDBRANCH   7   9
ENDBRANCH   6   7
ENDBRANCH   5   6
ENDBRANCH   4   5
ENDBRANCH   3   4
ENDBRANCH   2   3
ENDBRANCH   1   2
BRANCH   1  32
ATOM     32  O   UNL A   1      40.457  21.562  27.372  1.00  0.00    -0.376 OA
BRANCH  32  33
ATOM     33  C   UNL A   1      40.870  20.201  27.339  1.00  0.00     0.202 C 
BRANCH  33  34
ATOM     34  C   UNL A   1      41.615  19.677  26.104  1.00  0.00     0.261 C 
BRANCH  34  35
ATOM     35  O   UNL A   1      43.047  19.605  26.243  1.00  0.00    -0.460 OA
BRANCH  35  36
ATOM     36  C   UNL A   1      43.754  20.128  25.207  1.00  0.00     0.338 C 
ATOM     37  O   UNL A   1      43.956  19.601  24.127  1.00  0.00    -0.246 OA
BRANCH  36  38
ATOM     38  C   UNL A   1      44.124  21.533  25.482  1.00  0.00     0.060 A 
ATOM     39  C   UNL A   1      44.968  21.782  26.567  1.00  0.00     0.016 A 
ATOM     40  C   UNL A   1      43.572  22.602  24.769  1.00  0.00     0.016 A 
ATOM     41  C   UNL A   1      45.239  23.096  26.950  1.00  0.00     0.010 A 
ATOM     42  C   UNL A   1      43.845  23.924  25.166  1.00  0.00     0.010 A 
ATOM     43  C   UNL A   1      44.674  24.185  26.269  1.00  0.00    -0.014 A 
BRANCH  43  44
ATOM     44  C   UNL A   1      44.820  25.557  26.844  1.00  0.00     0.031 A 
ATOM     45  C   UNL A   1      46.098  26.303  26.598  1.00  0.00     0.074 A 
ATOM     46  C   UNL A   1      43.826  26.165  27.522  1.00  0.00     0.049 A 
ATOM     47  N   UNL A   1      46.428  27.521  26.940  1.00  0.00    -0.248 NA
ATOM     48  C   UNL A   1      47.154  25.559  25.898  1.00  0.00     0.031 C 
ATOM     49  C   UNL A   1      42.552  25.542  27.828  1.00  0.00     0.029 A 
ATOM     50  N   UNL A   1      43.693  27.443  28.018  1.00  0.00    -0.354 N 
ATOM     51  C   UNL A   1      47.755  27.672  26.553  1.00  0.00     0.074 A 
ATOM     52  C   UNL A   1      48.149  26.429  25.920  1.00  0.00     0.031 C 
ATOM     53  C   UNL A   1      41.707  26.475  28.304  1.00  0.00     0.029 A 
ATOM     54  C   UNL A   1      42.413  27.744  28.447  1.00  0.00     0.049 A 
ATOM     55  H   UNL A   1      44.440  28.083  28.063  1.00  0.00     0.167 HD
ATOM     56  C   UNL A   1      48.577  28.732  26.753  1.00  0.00     0.034 A 
ATOM     57  C   UNL A   1      41.879  28.905  28.891  1.00  0.00     0.034 A 
ATOM     58  C   UNL A   1      48.177  29.945  27.427  1.00  0.00     0.049 A 
ATOM     59  C   UNL A   1      42.818  30.077  29.094  1.00  0.00     0.074 A 
ATOM     60  C   UNL A   1      48.947  31.053  27.734  1.00  0.00     0.029 A 
ATOM     61  N   UNL A   1      46.901  30.204  27.913  1.00  0.00    -0.354 N 
ATOM     62  N   UNL A   1      44.085  30.193  28.767  1.00  0.00    -0.248 NA
ATOM     63  C   UNL A   1      42.264  31.264  29.763  1.00  0.00     0.031 C 
ATOM     64  C   UNL A   1      48.158  31.947  28.467  1.00  0.00     0.029 A 
ATOM     65  C   UNL A   1      46.869  31.441  28.538  1.00  0.00     0.049 A 
ATOM     66  H   UNL A   1      46.131  29.597  27.826  1.00  0.00     0.167 HD
ATOM     67  C   UNL A   1      44.472  31.465  29.180  1.00  0.00     0.074 A 
ATOM     68  C   UNL A   1      43.295  32.095  29.740  1.00  0.00     0.031 C 
ATOM     69  C   UNL A   1      45.695  32.056  29.116  1.00  0.00     0.034 A 
BRANCH  56  70
ATOM     70  C   UNL A   1      50.020  28.550  26.346  1.00  0.00     0.023 A 
ATOM     71  C   UNL A   1      50.473  28.856  25.051  1.00  0.00     0.031 A 
ATOM     72  C   UNL A   1      50.934  27.964  27.241  1.00  0.00     0.131 A 
ATOM     73  C   UNL A   1      51.767  28.481  24.658  1.00  0.00     0.055 A 
ATOM     74  C   UNL A   1      52.250  27.684  26.873  1.00  0.00     0.041 A 
ATOM     75  F   UNL A   1      50.553  27.620  28.481  1.00  0.00    -0.206 F 
ATOM     76  C   UNL A   1      52.668  27.921  25.567  1.00  0.00     0.022 A 
BRANCH  73  77
ATOM     77  S   UNL A   1      52.184  28.549  22.894  1.00  0.00     0.124 S 
ATOM     78  O   UNL A   1      51.413  29.709  22.454  1.00  0.00    -0.237 OA
ATOM     79  O   UNL A   1      53.632  28.716  22.920  1.00  0.00    -0.237 OA
ATOM     80  O   UNL A   1      51.711  27.265  22.380  1.00  0.00    -0.744 OA
ENDBRANCH  73  77
ENDBRANCH  56  70
BRANCH  57  81
ATOM     81  C   UNL A   1      40.408  29.064  29.163  1.00  0.00     0.023 A 
ATOM     82  C   UNL A   1      39.919  29.015  30.484  1.00  0.00     0.031 A 
ATOM     83  C   UNL A   1      39.454  29.215  28.144  1.00  0.00     0.131 A 
ATOM     84  C   UNL A   1      38.543  29.105  30.752  1.00  0.00     0.055 A 
ATOM     85  C   UNL A   1      38.088  29.363  28.416  1.00  0.00     0.041 A 
ATOM     86  F   UNL A   1      39.828  29.221  26.855  1.00  0.00    -0.206 F 
ATOM     87  C   UNL A   1      37.623  29.301  29.726  1.00  0.00     0.022 A 
BRANCH  84  88
ATOM     88  S   UNL A   1      37.976  28.878  32.462  1.00  0.00     0.124 S 
ATOM     89  O   UNL A   1      36.595  29.340  32.382  1.00  0.00    -0.237 OA
ATOM     90  O   UNL A   1      38.161  27.442  32.650  1.00  0.00    -0.237 OA
ATOM     91  O   UNL A   1      38.877  29.730  33.235  1.00  0.00    -0.744 OA
ENDBRANCH  84  88
ENDBRANCH  57  81
BRANCH  69  92
ATOM     92  C   UNL A   1      45.815  33.463  29.654  1.00  0.00     0.023 A 
ATOM     93  C   UNL A   1      45.573  34.591  28.848  1.00  0.00     0.031 A 
ATOM     94  C   UNL A   1      46.173  33.681  30.997  1.00  0.00     0.131 A 
ATOM     95  C   UNL A   1      45.748  35.881  29.374  1.00  0.00     0.055 A 
ATOM     96  C   UNL A   1      46.281  34.966  31.533  1.00  0.00     0.041 A 
ATOM     97  F   UNL A   1      46.418  32.645  31.816  1.00  0.00    -0.206 F 
ATOM     98  C   UNL A   1      46.082  36.075  30.716  1.00  0.00     0.022 A 
BRANCH  95  99
ATOM     99  S   UNL A   1      45.623  37.304  28.255  1.00  0.00     0.124 S 
ATOM    100  O   UNL A   1      46.970  37.370  27.697  1.00  0.00    -0.237 OA
ATOM    101  O   UNL A   1      44.572  36.887  27.334  1.00  0.00    -0.237 OA
ATOM    102  O   UNL A   1      45.266  38.409  29.143  1.00  0.00    -0.744 OA
ENDBRANCH  95  99
ENDBRANCH  69  92
ENDBRANCH  43  44
ENDBRANCH  36  38
ENDBRANCH  35  36
ENDBRANCH  34  35
ENDBRANCH  33  34
ENDBRANCH  32  33
ENDBRANCH   1  32
TORSDOF 23
ENDMDL
MODEL 2
REMARK VINA RESULT:     -10.6      2.508      7.616
REMARK SMILES CCc1ccc(-c2cc(Cl)cc3c2O[C@H](C(F)(F)F)C(C(=O)OCCOCCOCCOC(=O)c2ccc(-c4c5nc(c(-c6cc(S(=O)(=O)[O-])ccc6F)c6ccc([nH]6)c(-c6cc(S(=O)(=O)[O-])ccc6F)c6nc(c(-c7cc(S(=O)(=O)[O-])ccc7F)c7ccc4[nH]7)C=C6)C=C5)cc2)=C3)cc1
REMARK SMILES IDX 28 1 27 2 26 3 25 4 24 5 23 6 21 7 22 8 20 9 7 10 8 11 13 12
REMARK SMILES IDX 9 13 12 14 14 15 10 16 11 17 98 18 15 19 6 20 3 21 4 22
REMARK SMILES IDX 100 23 5 24 99 25 2 26 1 27 16 28 17 29 18 30 19 31 29 32
REMARK SMILES IDX 30 33 31 34 32 35 33 36 34 37 35 38 36 39 97 40 37 41 96 42
REMARK SMILES IDX 38 43 39 44 40 45 90 46 41 47 95 48 89 49 91 50 42 51 94 52
REMARK SMILES IDX 88 53 87 54 43 56 75 57 55 58 74 59 56 60 59 61 73 62 92 63
REMARK SMILES IDX 57 64 58 65 72 67 93 68 60 69 44 70 45 71 53 72 46 73 52 74
REMARK SMILES IDX 54 75 51 76 47 77 48 78 49 79 50 80 76 81 77 82 85 83 78 84
REMARK SMILES IDX 84 85 86 86 83 87 79 88 80 89 81 90 82 91 61 92 62 93 70 94
REMARK SMILES IDX 63 95 69 96 71 97 68 98 64 99 65 100 66 101 67 102
REMARK H PARENT 91 55 59 66
REMARK Flexibility Score: inf
ROOT
ATOM      1  C   UNL A   1      39.146  21.916  26.234  1.00  0.00     0.188 C 
ENDROOT
BRANCH   1   2
ATOM      2  C   UNL A   1      38.189  21.223  25.237  1.00  0.00     0.188 C 
BRANCH   2   3
ATOM      3  O   UNL A   1      37.131  22.041  24.764  1.00  0.00    -0.376 OA
BRANCH   3   4
ATOM      4  C   UNL A   1      36.990  23.312  25.392  1.00  0.00     0.202 C 
BRANCH   4   5
ATOM      5  C   UNL A   1      35.614  23.593  26.012  1.00  0.00     0.261 C 
BRANCH   5   6
ATOM      6  O   UNL A   1      34.579  22.779  25.401  1.00  0.00    -0.460 OA
BRANCH   6   7
ATOM      7  C   UNL A   1      33.329  23.007  25.859  1.00  0.00     0.338 C 
ATOM      8  O   UNL A   1      33.017  23.014  27.042  1.00  0.00    -0.246 OA
BRANCH   7   9
ATOM      9  C   UNL A   1      32.382  23.376  24.770  1.00  0.00     0.087 C 
ATOM     10  C   UNL A   1      30.939  27.180  24.040  1.00  0.00     0.026 A 
ATOM     11  C   UNL A   1      31.073  27.856  25.274  1.00  0.00     0.033 A 
ATOM     12  C   UNL A   1      31.194  25.807  24.088  1.00  0.00     0.135 A 
ATOM     13  C   UNL A   1      31.253  27.200  26.491  1.00  0.00     0.042 A 
ATOM     14  C   UNL A   1      31.129  25.139  25.329  1.00  0.00     0.019 A 
ATOM     15  O   UNL A   1      31.688  25.056  23.025  1.00  0.00    -0.475 OA
ATOM     16  Cl  UNL A   1      31.473  28.078  27.949  1.00  0.00    -0.084 Cl
ATOM     17  C   UNL A   1      31.195  25.823  26.533  1.00  0.00     0.032 A 
ATOM     18  C   UNL A   1      31.182  23.662  25.304  1.00  0.00     0.027 C 
ATOM     19  C   UNL A   1      32.781  24.139  23.507  1.00  0.00     0.316 C 
BRANCH  10  20
ATOM     20  C   UNL A   1      30.189  27.959  23.012  1.00  0.00    -0.015 A 
ATOM     21  C   UNL A   1      28.824  30.268  21.966  1.00  0.00    -0.048 A 
ATOM     22  C   UNL A   1      30.166  30.025  21.663  1.00  0.00     0.004 A 
ATOM     23  C   UNL A   1      28.147  29.299  22.721  1.00  0.00     0.004 A 
ATOM     24  C   UNL A   1      30.826  28.881  22.165  1.00  0.00     0.009 A 
ATOM     25  C   UNL A   1      28.812  28.163  23.221  1.00  0.00     0.009 A 
BRANCH  21  26
ATOM     26  C   UNL A   1      28.096  31.556  21.632  1.00  0.00     0.032 C 
ATOM     27  C   UNL A   1      28.481  32.828  22.376  1.00  0.00     0.009 C 
ENDBRANCH  21  26
ENDBRANCH  10  20
BRANCH  19  28
ATOM     28  C   UNL A   1      33.205  23.133  22.432  1.00  0.00     0.430 C 
ATOM     29  F   UNL A   1      32.487  21.988  22.488  1.00  0.00    -0.167 F 
ATOM     30  F   UNL A   1      33.089  23.639  21.187  1.00  0.00    -0.167 F 
ATOM     31  F   UNL A   1      34.510  22.786  22.590  1.00  0.00    -0.167 F 
ENDBRANCH  19  28
ENDBRANCH   7   9
ENDBRANCH   6   7
ENDBRANCH   5   6
ENDBRANCH   4   5
ENDBRANCH   3   4
ENDBRANCH   2   3
ENDBRANCH   1   2
BRANCH   1  32
ATOM     32  O   UNL A   1      40.054  21.138  27.004  1.00  0.00    -0.376 OA
BRANCH  32  33
ATOM     33  C   UNL A   1      40.877  20.181  26.350  1.00  0.00     0.202 C 
BRANCH  33  34
ATOM     34  C   UNL A   1      42.376  20.470  26.189  1.00  0.00     0.261 C 
BRANCH  34  35
ATOM     35  O   UNL A   1      42.698  21.830  25.840  1.00  0.00    -0.460 OA
BRANCH  35  36
ATOM     36  C   UNL A   1      44.026  22.117  25.803  1.00  0.00     0.338 C 
ATOM     37  O   UNL A   1      44.922  21.363  25.468  1.00  0.00    -0.246 OA
BRANCH  36  38
ATOM     38  C   UNL A   1      44.259  23.554  26.061  1.00  0.00     0.060 A 
ATOM     39  C   UNL A   1      44.848  23.908  27.277  1.00  0.00     0.016 A 
ATOM     40  C   UNL A   1      43.812  24.550  25.187  1.00  0.00     0.016 A 
ATOM     41  C   UNL A   1      44.967  25.254  27.627  1.00  0.00     0.010 A 
ATOM     42  C   UNL A   1      43.930  25.904  25.550  1.00  0.00     0.010 A 
ATOM     43  C   UNL A   1      44.499  26.271  26.780  1.00  0.00    -0.014 A 
BRANCH  43  44
ATOM     44  C   UNL A   1      44.454  27.676  27.289  1.00  0.00     0.031 A 
ATOM     45  C   UNL A   1      43.222  28.134  28.013  1.00  0.00     0.074 A 
ATOM     46  C   UNL A   1      45.497  28.520  27.171  1.00  0.00     0.049 A 
ATOM     47  N   UNL A   1      42.978  29.279  28.594  1.00  0.00    -0.248 NA
ATOM     48  C   UNL A   1      42.107  27.179  28.056  1.00  0.00     0.031 C 
ATOM     49  C   UNL A   1      46.734  28.193  26.487  1.00  0.00     0.029 A 
ATOM     50  N   UNL A   1      45.722  29.786  27.667  1.00  0.00    -0.354 N 
ATOM     51  C   UNL A   1      41.657  29.209  29.022  1.00  0.00     0.074 A 
ATOM     52  C   UNL A   1      41.171  27.892  28.658  1.00  0.00     0.031 C 
ATOM     53  C   UNL A   1      47.647  29.148  26.743  1.00  0.00     0.029 A 
ATOM     54  C   UNL A   1      47.027  30.219  27.516  1.00  0.00     0.049 A 
ATOM     55  H   UNL A   1      45.020  30.331  28.089  1.00  0.00     0.167 HD
ATOM     56  C   UNL A   1      40.909  30.171  29.615  1.00  0.00     0.034 A 
ATOM     57  C   UNL A   1      47.644  31.340  27.959  1.00  0.00     0.034 A 
ATOM     58  C   UNL A   1      41.399  31.493  29.927  1.00  0.00     0.049 A 
ATOM     59  C   UNL A   1      46.787  32.394  28.630  1.00  0.00     0.074 A 
ATOM     60  C   UNL A   1      40.710  32.561  30.474  1.00  0.00     0.029 A 
ATOM     61  N   UNL A   1      42.699  31.935  29.707  1.00  0.00    -0.354 N 
ATOM     62  N   UNL A   1      45.524  32.334  28.987  1.00  0.00    -0.248 NA
ATOM     63  C   UNL A   1      47.430  33.683  28.924  1.00  0.00     0.031 C 
ATOM     64  C   UNL A   1      41.568  33.665  30.516  1.00  0.00     0.029 A 
ATOM     65  C   UNL A   1      42.823  33.264  30.083  1.00  0.00     0.049 A 
ATOM     66  H   UNL A   1      43.426  31.384  29.337  1.00  0.00     0.167 HD
ATOM     67  C   UNL A   1      45.228  33.571  29.555  1.00  0.00     0.074 A 
ATOM     68  C   UNL A   1      46.455  34.340  29.534  1.00  0.00     0.031 C 
ATOM     69  C   UNL A   1      44.046  34.034  30.038  1.00  0.00     0.034 A 
BRANCH  56  70
ATOM     70  C   UNL A   1      39.450  29.851  29.835  1.00  0.00     0.023 A 
ATOM     71  C   UNL A   1      38.462  30.195  28.896  1.00  0.00     0.031 A 
ATOM     72  C   UNL A   1      39.031  29.283  31.052  1.00  0.00     0.131 A 
ATOM     73  C   UNL A   1      37.106  30.064  29.231  1.00  0.00     0.055 A 
ATOM     74  C   UNL A   1      37.683  29.064  31.338  1.00  0.00     0.041 A 
ATOM     75  F   UNL A   1      39.924  28.962  32.002  1.00  0.00    -0.206 F 
ATOM     76  C   UNL A   1      36.709  29.477  30.435  1.00  0.00     0.022 A 
BRANCH  73  77
ATOM     77  S   UNL A   1      35.874  30.857  28.161  1.00  0.00     0.124 S 
ATOM     78  O   UNL A   1      35.720  29.861  27.104  1.00  0.00    -0.237 OA
ATOM     79  O   UNL A   1      34.737  31.020  29.058  1.00  0.00    -0.237 OA
ATOM     80  O   UNL A   1      36.528  32.098  27.747  1.00  0.00    -0.744 OA
ENDBRANCH  73  77
ENDBRANCH  56  70
BRANCH  57  81
ATOM     81  C   UNL A   1      49.127  31.551  27.822  1.00  0.00     0.023 A 
ATOM     82  C   UNL A   1      49.650  32.220  26.698  1.00  0.00     0.031 A 
ATOM     83  C   UNL A   1      50.058  31.063  28.754  1.00  0.00     0.131 A 
ATOM     84  C   UNL A   1      51.035  32.377  26.526  1.00  0.00     0.055 A 
ATOM     85  C   UNL A   1      51.436  31.271  28.611  1.00  0.00     0.041 A 
ATOM     86  F   UNL A   1      49.650  30.371  29.828  1.00  0.00    -0.206 F 
ATOM     87  C   UNL A   1      51.933  31.925  27.488  1.00  0.00     0.022 A 
BRANCH  84  88
ATOM     88  S   UNL A   1      51.640  33.110  24.979  1.00  0.00     0.124 S 
ATOM     89  O   UNL A   1      51.686  31.950  24.096  1.00  0.00    -0.237 OA
ATOM     90  O   UNL A   1      50.602  34.095  24.688  1.00  0.00    -0.237 OA
ATOM     91  O   UNL A   1      52.940  33.664  25.350  1.00  0.00    -0.744 OA
ENDBRANCH  84  88
ENDBRANCH  57  81
BRANCH  69  92
ATOM     92  C   UNL A   1      44.027  35.439  30.597  1.00  0.00     0.023 A 
ATOM     93  C   UNL A   1      44.183  35.694  31.972  1.00  0.00     0.031 A 
ATOM     94  C   UNL A   1      43.856  36.541  29.740  1.00  0.00     0.131 A 
ATOM     95  C   UNL A   1      44.105  37.010  32.456  1.00  0.00     0.055 A 
ATOM     96  C   UNL A   1      43.846  37.853  30.219  1.00  0.00     0.041 A 
ATOM     97  F   UNL A   1      43.701  36.362  28.418  1.00  0.00    -0.206 F 
ATOM     98  C   UNL A   1      43.958  38.092  31.586  1.00  0.00     0.022 A 
BRANCH  95  99
ATOM     99  S   UNL A   1      44.109  37.282  34.249  1.00  0.00     0.124 S 
ATOM    100  O   UNL A   1      43.783  35.954  34.759  1.00  0.00    -0.237 OA
ATOM    101  O   UNL A   1      45.472  37.742  34.494  1.00  0.00    -0.237 OA
ATOM    102  O   UNL A   1      43.071  38.293  34.446  1.00  0.00    -0.744 OA
ENDBRANCH  95  99
ENDBRANCH  69  92
ENDBRANCH  43  44
ENDBRANCH  36  38
ENDBRANCH  35  36
ENDBRANCH  34  35
ENDBRANCH  33  34
ENDBRANCH  32  33
ENDBRANCH   1  32
TORSDOF 23
ENDMDL
MODEL 3
REMARK VINA RESULT:     -10.1      2.817      3.781
REMARK SMILES CCc1ccc(-c2cc(Cl)cc3c2O[C@H](C(F)(F)F)C(C(=O)OCCOCCOCCOC(=O)c2ccc(-c4c5nc(c(-c6cc(S(=O)(=O)[O-])ccc6F)c6ccc([nH]6)c(-c6cc(S(=O)(=O)[O-])ccc6F)c6nc(c(-c7cc(S(=O)(=O)[O-])ccc7F)c7ccc4[nH]7)C=C6)C=C5)cc2)=C3)cc1
REMARK SMILES IDX 28 1 27 2 26 3 25 4 24 5 23 6 21 7 22 8 20 9 7 10 8 11 13 12
REMARK SMILES IDX 9 13 12 14 14 15 10 16 11 17 98 18 15 19 6 20 3 21 4 22
REMARK SMILES IDX 100 23 5 24 99 25 2 26 1 27 16 28 17 29 18 30 19 31 29 32
REMARK SMILES IDX 30 33 31 34 32 35 33 36 34 37 35 38 36 39 97 40 37 41 96 42
REMARK SMILES IDX 38 43 39 44 40 45 90 46 41 47 95 48 89 49 91 50 42 51 94 52
REMARK SMILES IDX 88 53 87 54 43 56 75 57 55 58 74 59 56 60 59 61 73 62 92 63
REMARK SMILES IDX 57 64 58 65 72 67 93 68 60 69 44 70 45 71 53 72 46 73 52 74
REMARK SMILES IDX 54 75 51 76 47 77 48 78 49 79 50 80 76 81 77 82 85 83 78 84
REMARK SMILES IDX 84 85 86 86 83 87 79 88 80 89 81 90 82 91 61 92 62 93 70 94
REMARK SMILES IDX 63 95 69 96 71 97 68 98 64 99 65 100 66 101 67 102
REMARK H PARENT 91 55 59 66
REMARK Flexibility Score: inf
ROOT
ATOM      1  C   UNL A   1      39.812  22.332  26.602  1.00  0.00     0.188 C 
ENDROOT
BRANCH   1   2
ATOM      2  C   UNL A   1      39.015  21.238  25.855  1.00  0.00     0.188 C 
BRANCH   2   3
ATOM      3  O   UNL A   1      37.722  21.633  25.427  1.00  0.00    -0.376 OA
BRANCH   3   4
ATOM      4  C   UNL A   1      37.479  23.036  25.375  1.00  0.00     0.202 C 
BRANCH   4   5
ATOM      5  C   UNL A   1      36.207  23.511  26.093  1.00  0.00     0.261 C 
BRANCH   5   6
ATOM      6  O   UNL A   1      35.055  22.711  25.722  1.00  0.00    -0.460 OA
BRANCH   6   7
ATOM      7  C   UNL A   1      34.001  22.802  26.562  1.00  0.00     0.338 C 
ATOM      8  O   UNL A   1      34.079  22.711  27.780  1.00  0.00    -0.246 OA
BRANCH   7   9
ATOM      9  C   UNL A   1      32.739  23.154  25.856  1.00  0.00     0.087 C 
ATOM     10  C   UNL A   1      31.905  26.812  24.121  1.00  0.00     0.026 A 
ATOM     11  C   UNL A   1      32.753  27.726  24.788  1.00  0.00     0.033 A 
ATOM     12  C   UNL A   1      31.875  25.527  24.668  1.00  0.00     0.135 A 
ATOM     13  C   UNL A   1      33.369  27.448  26.007  1.00  0.00     0.042 A 
ATOM     14  C   UNL A   1      32.292  25.337  26.002  1.00  0.00     0.019 A 
ATOM     15  O   UNL A   1      31.630  24.364  23.943  1.00  0.00    -0.475 OA
ATOM     16  Cl  UNL A   1      34.440  28.573  26.737  1.00  0.00    -0.084 Cl
ATOM     17  C   UNL A   1      33.069  26.275  26.666  1.00  0.00     0.032 A 
ATOM     18  C   UNL A   1      32.033  24.015  26.609  1.00  0.00     0.027 C 
ATOM     19  C   UNL A   1      32.614  23.294  24.338  1.00  0.00     0.316 C 
BRANCH  10  20
ATOM     20  C   UNL A   1      30.920  27.468  23.212  1.00  0.00    -0.015 A 
ATOM     21  C   UNL A   1      28.978  29.457  22.463  1.00  0.00    -0.048 A 
ATOM     22  C   UNL A   1      30.313  29.569  22.070  1.00  0.00     0.004 A 
ATOM     23  C   UNL A   1      28.605  28.296  23.156  1.00  0.00     0.004 A 
ATOM     24  C   UNL A   1      31.258  28.582  22.425  1.00  0.00     0.009 A 
ATOM     25  C   UNL A   1      29.553  27.317  23.511  1.00  0.00     0.009 A 
BRANCH  21  26
ATOM     26  C   UNL A   1      27.944  30.554  22.292  1.00  0.00     0.032 C 
ATOM     27  C   UNL A   1      27.432  31.276  23.531  1.00  0.00     0.009 C 
ENDBRANCH  21  26
ENDBRANCH  10  20
BRANCH  19  28
ATOM     28  C   UNL A   1      32.253  21.930  23.742  1.00  0.00     0.430 C 
ATOM     29  F   UNL A   1      31.364  22.032  22.728  1.00  0.00    -0.167 F 
ATOM     30  F   UNL A   1      33.338  21.272  23.282  1.00  0.00    -0.167 F 
ATOM     31  F   UNL A   1      31.685  21.132  24.683  1.00  0.00    -0.167 F 
ENDBRANCH  19  28
ENDBRANCH   7   9
ENDBRANCH   6   7
ENDBRANCH   5   6
ENDBRANCH   4   5
ENDBRANCH   3   4
ENDBRANCH   2   3
ENDBRANCH   1   2
BRANCH   1  32
ATOM     32  O   UNL A   1      41.123  22.056  27.079  1.00  0.00    -0.376 OA
BRANCH  32  33
ATOM     33  C   UNL A   1      41.926  21.104  26.394  1.00  0.00     0.202 C 
BRANCH  33  34
ATOM     34  C   UNL A   1      42.965  21.596  25.377  1.00  0.00     0.261 C 
BRANCH  34  35
ATOM     35  O   UNL A   1      42.724  22.917  24.854  1.00  0.00    -0.460 OA
BRANCH  35  36
ATOM     36  C   UNL A   1      43.796  23.752  24.882  1.00  0.00     0.338 C 
ATOM     37  O   UNL A   1      44.798  23.670  24.194  1.00  0.00    -0.246 OA
BRANCH  36  38
ATOM     38  C   UNL A   1      43.530  24.916  25.754  1.00  0.00     0.060 A 
ATOM     39  C   UNL A   1      43.181  26.121  25.138  1.00  0.00     0.016 A 
ATOM     40  C   UNL A   1      43.724  24.871  27.137  1.00  0.00     0.016 A 
ATOM     41  C   UNL A   1      43.051  27.281  25.904  1.00  0.00     0.010 A 
ATOM     42  C   UNL A   1      43.597  26.046  27.901  1.00  0.00     0.010 A 
ATOM     43  C   UNL A   1      43.269  27.267  27.290  1.00  0.00    -0.014 A 
BRANCH  43  44
ATOM     44  C   UNL A   1      43.329  28.566  28.029  1.00  0.00     0.031 A 
ATOM     45  C   UNL A   1      44.546  29.427  27.864  1.00  0.00     0.074 A 
ATOM     46  C   UNL A   1      42.308  29.012  28.786  1.00  0.00     0.049 A 
ATOM     47  N   UNL A   1      44.796  30.614  28.350  1.00  0.00    -0.248 NA
ATOM     48  C   UNL A   1      45.638  28.852  27.068  1.00  0.00     0.031 C 
ATOM     49  C   UNL A   1      41.086  28.266  29.026  1.00  0.00     0.029 A 
ATOM     50  N   UNL A   1      42.094  30.207  29.437  1.00  0.00    -0.354 N 
ATOM     51  C   UNL A   1      46.101  30.907  27.972  1.00  0.00     0.074 A 
ATOM     52  C   UNL A   1      46.570  29.783  27.187  1.00  0.00     0.031 C 
ATOM     53  C   UNL A   1      40.187  29.070  29.621  1.00  0.00     0.029 A 
ATOM     54  C   UNL A   1      40.804  30.359  29.913  1.00  0.00     0.049 A 
ATOM     55  H   UNL A   1      42.794  30.889  29.553  1.00  0.00     0.167 HD
ATOM     56  C   UNL A   1      46.850  31.991  28.293  1.00  0.00     0.034 A 
ATOM     57  C   UNL A   1      40.198  31.417  30.502  1.00  0.00     0.034 A 
ATOM     58  C   UNL A   1      46.378  33.080  29.115  1.00  0.00     0.049 A 
ATOM     59  C   UNL A   1      41.055  32.620  30.839  1.00  0.00     0.074 A 
ATOM     60  C   UNL A   1      47.073  34.196  29.549  1.00  0.00     0.029 A 
ATOM     61  N   UNL A   1      45.096  33.185  29.642  1.00  0.00    -0.354 N 
ATOM     62  N   UNL A   1      42.305  32.866  30.516  1.00  0.00    -0.248 NA
ATOM     63  C   UNL A   1      40.431  33.672  31.654  1.00  0.00     0.031 C 
ATOM     64  C   UNL A   1      46.237  34.934  30.395  1.00  0.00     0.029 A 
ATOM     65  C   UNL A   1      44.988  34.331  30.416  1.00  0.00     0.049 A 
ATOM     66  H   UNL A   1      44.369  32.539  29.489  1.00  0.00     0.167 HD
ATOM     67  C   UNL A   1      42.608  34.103  31.079  1.00  0.00     0.074 A 
ATOM     68  C   UNL A   1      41.400  34.572  31.724  1.00  0.00     0.031 C 
ATOM     69  C   UNL A   1      43.784  34.784  31.076  1.00  0.00     0.034 A 
BRANCH  56  70
ATOM     70  C   UNL A   1      48.294  31.966  27.853  1.00  0.00     0.023 A 
ATOM     71  C   UNL A   1      49.281  31.271  28.575  1.00  0.00     0.031 A 
ATOM     72  C   UNL A   1      48.706  32.736  26.750  1.00  0.00     0.131 A 
ATOM     73  C   UNL A   1      50.634  31.443  28.247  1.00  0.00     0.055 A 
ATOM     74  C   UNL A   1      50.046  32.823  26.370  1.00  0.00     0.041 A 
ATOM     75  F   UNL A   1      47.816  33.447  26.041  1.00  0.00    -0.206 F 
ATOM     76  C   UNL A   1      51.023  32.193  27.135  1.00  0.00     0.022 A 
BRANCH  73  77
ATOM     77  S   UNL A   1      51.885  30.841  29.416  1.00  0.00     0.124 S 
ATOM     78  O   UNL A   1      51.116  30.765  30.655  1.00  0.00    -0.237 OA
ATOM     79  O   UNL A   1      52.277  29.566  28.827  1.00  0.00    -0.237 OA
ATOM     80  O   UNL A   1      52.909  31.884  29.389  1.00  0.00    -0.744 OA
ENDBRANCH  73  77
ENDBRANCH  56  70
BRANCH  57  81
ATOM     81  C   UNL A   1      38.724  31.433  30.806  1.00  0.00     0.023 A 
ATOM     82  C   UNL A   1      37.808  31.935  29.861  1.00  0.00     0.031 A 
ATOM     83  C   UNL A   1      38.192  31.010  32.036  1.00  0.00     0.131 A 
ATOM     84  C   UNL A   1      36.435  32.010  30.149  1.00  0.00     0.055 A 
ATOM     85  C   UNL A   1      36.817  31.031  32.301  1.00  0.00     0.041 A 
ATOM     86  F   UNL A   1      38.999  30.566  33.011  1.00  0.00    -0.206 F 
ATOM     87  C   UNL A   1      35.929  31.540  31.358  1.00  0.00     0.022 A 
BRANCH  84  88
ATOM     88  S   UNL A   1      35.338  32.810  28.944  1.00  0.00     0.124 S 
ATOM     89  O   UNL A   1      34.029  32.612  29.554  1.00  0.00    -0.237 OA
ATOM     90  O   UNL A   1      35.843  34.180  28.943  1.00  0.00    -0.237 OA
ATOM     91  O   UNL A   1      35.576  32.057  27.715  1.00  0.00    -0.744 OA
ENDBRANCH  84  88
ENDBRANCH  57  81
BRANCH  69  92
ATOM     92  C   UNL A   1      43.815  36.120  31.783  1.00  0.00     0.023 A 
ATOM     93  C   UNL A   1      43.846  37.335  31.074  1.00  0.00     0.031 A 
ATOM     94  C   UNL A   1      43.808  36.179  33.188  1.00  0.00     0.131 A 
ATOM     95  C   UNL A   1      43.929  38.552  31.770  1.00  0.00     0.055 A 
ATOM     96  C   UNL A   1      43.823  37.395  33.875  1.00  0.00     0.041 A 
ATOM     97  F   UNL A   1      43.780  35.053  33.920  1.00  0.00    -0.206 F 
ATOM     98  C   UNL A   1      43.898  38.590  33.166  1.00  0.00     0.022 A 
BRANCH  95  99
ATOM     99  S   UNL A   1      44.169  40.083  30.826  1.00  0.00     0.124 S 
ATOM    100  O   UNL A   1      44.612  41.011  31.862  1.00  0.00    -0.237 OA
ATOM    101  O   UNL A   1      45.177  39.692  29.846  1.00  0.00    -0.237 OA
ATOM    102  O   UNL A   1      42.844  40.358  30.274  1.00  0.00    -0.744 OA
ENDBRANCH  95  99
ENDBRANCH  69  92
ENDBRANCH  43  44
ENDBRANCH  36  38
ENDBRANCH  35  36
ENDBRANCH  34  35
ENDBRANCH  33  34
ENDBRANCH  32  33
ENDBRANCH   1  32
TORSDOF 23
ENDMDL
