MODEL 1
REMARK VINA RESULT:      -8.9      0.000      0.000
REMARK SMILES Cc1nc(-c2ccccc2F)sc1C(=O)NCc1ccc(C(=O)OCCOCCOCCOC(=O)c2ccc(-c3c4nc(c(-c5cc(S(=O)(=O)[O-])ccc5F)c5ccc([nH]5)c(-c5cc(S(=O)(=O)[O-])ccc5F)c5nc(c(-c6cc(S(=O)(=O)[O-])ccc6F)c6ccc3[nH]6)C=C5)C=C4)cc2)cc1
REMARK SMILES IDX 28 1 27 2 26 3 25 4 24 5 22 6 23 7 21 8 18 9 19 10 100 11
REMARK SMILES IDX 20 12 99 13 17 14 16 15 14 16 15 17 13 19 1 20 2 21 3 22
REMARK SMILES IDX 4 23 12 24 5 25 6 26 10 27 7 28 9 29 11 30 8 31 29 32 30 33
REMARK SMILES IDX 31 34 32 35 33 36 34 37 35 38 36 39 37 40 98 41 38 42 97 43
REMARK SMILES IDX 39 44 40 45 41 46 91 47 42 48 96 49 90 50 92 51 43 52 95 53
REMARK SMILES IDX 89 54 88 55 44 57 76 58 56 59 75 60 57 61 60 62 74 63 93 64
REMARK SMILES IDX 58 65 59 66 73 68 94 69 61 70 45 71 46 72 54 73 47 74 53 75
REMARK SMILES IDX 55 76 52 77 48 78 49 79 50 80 51 81 77 82 78 83 86 84 79 85
REMARK SMILES IDX 85 86 87 87 84 88 80 89 81 90 82 91 83 92 62 93 63 94 71 95
REMARK SMILES IDX 64 96 70 97 72 98 69 99 65 100 66 101 67 102 68 103
REMARK H PARENT 16 18 92 56 60 67
REMARK Flexibility Score: inf
ROOT
ATOM      1  C   UNL A   1      39.893  23.511  27.159  1.00  0.00     0.188 C 
ENDROOT
BRANCH   1   2
ATOM      2  O   UNL A   1      38.558  23.979  27.067  1.00  0.00    -0.376 OA
BRANCH   2   3
ATOM      3  C   UNL A   1      37.763  23.664  25.934  1.00  0.00     0.202 C 
BRANCH   3   4
ATOM      4  C   UNL A   1      37.760  22.272  25.284  1.00  0.00     0.261 C 
BRANCH   4   5
ATOM      5  O   UNL A   1      36.465  21.745  24.972  1.00  0.00    -0.460 OA
BRANCH   5   6
ATOM      6  C   UNL A   1      35.700  22.543  24.177  1.00  0.00     0.338 C 
ATOM      7  O   UNL A   1      35.944  22.893  23.044  1.00  0.00    -0.246 OA
BRANCH   6   8
ATOM      8  C   UNL A   1      34.401  22.793  24.839  1.00  0.00     0.060 A 
ATOM      9  C   UNL A   1      31.877  23.266  25.975  1.00  0.00    -0.029 A 
ATOM     10  C   UNL A   1      31.989  22.682  24.708  1.00  0.00     0.006 A 
ATOM     11  C   UNL A   1      33.055  23.570  26.683  1.00  0.00     0.006 A 
ATOM     12  C   UNL A   1      33.241  22.457  24.136  1.00  0.00     0.016 A 
ATOM     13  C   UNL A   1      34.313  23.327  26.124  1.00  0.00     0.016 A 
BRANCH   9  14
ATOM     14  C   UNL A   1      30.541  23.656  26.549  1.00  0.00     0.152 C 
BRANCH  14  15
ATOM     15  N   UNL A   1      29.923  24.669  25.734  1.00  0.00    -0.347 N 
ATOM     16  C   UNL A   1      30.224  25.897  25.222  1.00  0.00     0.263 C 
ATOM     17  O   UNL A   1      29.224  26.373  24.656  1.00  0.00    -0.268 OA
ATOM     18  H   UNL A   1      29.016  24.394  25.468  1.00  0.00     0.164 HD
BRANCH  16  19
ATOM     19  C   UNL A   1      31.498  26.615  25.256  1.00  0.00     0.115 A 
ATOM     20  C   UNL A   1      33.339  26.006  23.428  1.00  0.00     0.068 C 
ATOM     21  C   UNL A   1      32.709  26.709  24.567  1.00  0.00     0.062 A 
ATOM     22  N   UNL A   1      33.572  27.693  25.035  1.00  0.00    -0.240 NA
ATOM     23  C   UNL A   1      33.133  28.283  26.113  1.00  0.00     0.127 A 
ATOM     24  S   UNL A   1      31.592  27.774  26.601  1.00  0.00    -0.108 S 
BRANCH  23  25
ATOM     25  C   UNL A   1      33.886  29.339  26.781  1.00  0.00     0.046 A 
ATOM     26  C   UNL A   1      35.171  29.039  27.265  1.00  0.00     0.014 A 
ATOM     27  C   UNL A   1      33.339  30.588  27.082  1.00  0.00     0.133 A 
ATOM     28  C   UNL A   1      35.880  29.958  28.040  1.00  0.00     0.001 A 
ATOM     29  C   UNL A   1      34.040  31.508  27.864  1.00  0.00     0.040 A 
ATOM     30  F   UNL A   1      32.108  30.919  26.665  1.00  0.00    -0.206 F 
ATOM     31  C   UNL A   1      35.309  31.190  28.349  1.00  0.00     0.003 A 
ENDBRANCH  23  25
ENDBRANCH  16  19
ENDBRANCH  14  15
ENDBRANCH   9  14
ENDBRANCH   6   8
ENDBRANCH   5   6
ENDBRANCH   4   5
ENDBRANCH   3   4
ENDBRANCH   2   3
ENDBRANCH   1   2
BRANCH   1  32
ATOM     32  C   UNL A   1      41.056  24.406  26.688  1.00  0.00     0.188 C 
BRANCH  32  33
ATOM     33  O   UNL A   1      41.707  25.178  27.668  1.00  0.00    -0.376 OA
BRANCH  33  34
ATOM     34  C   UNL A   1      41.059  26.294  28.254  1.00  0.00     0.202 C 
BRANCH  34  35
ATOM     35  C   UNL A   1      39.922  27.134  27.634  1.00  0.00     0.261 C 
BRANCH  35  36
ATOM     36  O   UNL A   1      39.842  28.525  27.943  1.00  0.00    -0.460 OA
BRANCH  36  37
ATOM     37  C   UNL A   1      39.548  28.819  29.234  1.00  0.00     0.338 C 
ATOM     38  O   UNL A   1      38.985  28.102  30.041  1.00  0.00    -0.246 OA
BRANCH  37  39
ATOM     39  C   UNL A   1      40.179  30.107  29.577  1.00  0.00     0.060 A 
ATOM     40  C   UNL A   1      41.545  30.126  29.882  1.00  0.00     0.016 A 
ATOM     41  C   UNL A   1      39.420  31.277  29.634  1.00  0.00     0.016 A 
ATOM     42  C   UNL A   1      42.155  31.319  30.268  1.00  0.00     0.010 A 
ATOM     43  C   UNL A   1      40.030  32.469  30.040  1.00  0.00     0.010 A 
ATOM     44  C   UNL A   1      41.393  32.489  30.384  1.00  0.00    -0.014 A 
BRANCH  44  45
ATOM     45  C   UNL A   1      41.986  33.694  31.017  1.00  0.00     0.031 A 
ATOM     46  C   UNL A   1      42.142  33.720  32.513  1.00  0.00     0.074 A 
ATOM     47  C   UNL A   1      42.412  34.733  30.274  1.00  0.00     0.049 A 
ATOM     48  N   UNL A   1      42.583  34.680  33.283  1.00  0.00    -0.248 NA
ATOM     49  C   UNL A   1      41.752  32.497  33.236  1.00  0.00     0.031 C 
ATOM     50  C   UNL A   1      42.369  34.800  28.814  1.00  0.00     0.029 A 
ATOM     51  N   UNL A   1      42.966  35.931  30.651  1.00  0.00    -0.354 N 
ATOM     52  C   UNL A   1      42.522  34.181  34.580  1.00  0.00     0.074 A 
ATOM     53  C   UNL A   1      41.974  32.845  34.496  1.00  0.00     0.031 C 
ATOM     54  C   UNL A   1      42.879  35.980  28.418  1.00  0.00     0.029 A 
ATOM     55  C   UNL A   1      43.243  36.768  29.594  1.00  0.00     0.049 A 
ATOM     56  H   UNL A   1      43.148  36.170  31.588  1.00  0.00     0.167 HD
ATOM     57  C   UNL A   1      42.899  34.780  35.734  1.00  0.00     0.034 A 
ATOM     58  C   UNL A   1      43.714  38.033  29.580  1.00  0.00     0.034 A 
ATOM     59  C   UNL A   1      43.443  36.111  35.810  1.00  0.00     0.049 A 
ATOM     60  C   UNL A   1      44.029  38.719  30.887  1.00  0.00     0.074 A 
ATOM     61  C   UNL A   1      43.861  36.804  36.933  1.00  0.00     0.029 A 
ATOM     62  N   UNL A   1      43.637  36.955  34.725  1.00  0.00    -0.354 N 
ATOM     63  N   UNL A   1      43.939  38.246  32.108  1.00  0.00    -0.248 NA
ATOM     64  C   UNL A   1      44.505  40.108  30.815  1.00  0.00     0.031 C 
ATOM     65  C   UNL A   1      44.243  38.088  36.536  1.00  0.00     0.029 A 
ATOM     66  C   UNL A   1      44.137  38.172  35.157  1.00  0.00     0.049 A 
ATOM     67  H   UNL A   1      43.448  36.723  33.787  1.00  0.00     0.167 HD
ATOM     68  C   UNL A   1      44.370  39.272  32.946  1.00  0.00     0.074 A 
ATOM     69  C   UNL A   1      44.721  40.387  32.094  1.00  0.00     0.031 C 
ATOM     70  C   UNL A   1      44.473  39.282  34.299  1.00  0.00     0.034 A 
BRANCH  57  71
ATOM     71  C   UNL A   1      42.705  34.017  37.016  1.00  0.00     0.023 A 
ATOM     72  C   UNL A   1      43.755  33.300  37.614  1.00  0.00     0.031 A 
ATOM     73  C   UNL A   1      41.459  34.038  37.668  1.00  0.00     0.131 A 
ATOM     74  C   UNL A   1      43.533  32.608  38.812  1.00  0.00     0.055 A 
ATOM     75  C   UNL A   1      41.260  33.397  38.892  1.00  0.00     0.041 A 
ATOM     76  F   UNL A   1      40.419  34.692  37.129  1.00  0.00    -0.206 F 
ATOM     77  C   UNL A   1      42.299  32.672  39.468  1.00  0.00     0.022 A 
BRANCH  74  78
ATOM     78  S   UNL A   1      44.859  31.565  39.475  1.00  0.00     0.124 S 
ATOM     79  O   UNL A   1      45.526  31.125  38.251  1.00  0.00    -0.237 OA
ATOM     80  O   UNL A   1      45.609  32.495  40.310  1.00  0.00    -0.237 OA
ATOM     81  O   UNL A   1      44.142  30.516  40.198  1.00  0.00    -0.744 OA
ENDBRANCH  74  78
ENDBRANCH  57  71
BRANCH  58  82
ATOM     82  C   UNL A   1      43.882  38.751  28.286  1.00  0.00     0.023 A 
ATOM     83  C   UNL A   1      45.118  38.774  27.624  1.00  0.00     0.031 A 
ATOM     84  C   UNL A   1      42.804  39.440  27.699  1.00  0.00     0.131 A 
ATOM     85  C   UNL A   1      45.254  39.490  26.423  1.00  0.00     0.055 A 
ATOM     86  C   UNL A   1      42.932  40.113  26.484  1.00  0.00     0.041 A 
ATOM     87  F   UNL A   1      41.602  39.450  28.297  1.00  0.00    -0.206 F 
ATOM     88  C   UNL A   1      44.166  40.146  25.841  1.00  0.00     0.022 A 
BRANCH  85  89
ATOM     89  S   UNL A   1      46.889  39.582  25.642  1.00  0.00     0.124 S 
ATOM     90  O   UNL A   1      47.449  40.775  26.268  1.00  0.00    -0.237 OA
ATOM     91  O   UNL A   1      47.487  38.311  26.033  1.00  0.00    -0.237 OA
ATOM     92  O   UNL A   1      46.580  39.710  24.219  1.00  0.00    -0.744 OA
ENDBRANCH  85  89
ENDBRANCH  58  82
BRANCH  70  93
ATOM     93  C   UNL A   1      45.020  40.525  34.954  1.00  0.00     0.023 A 
ATOM     94  C   UNL A   1      46.371  40.629  35.323  1.00  0.00     0.031 A 
ATOM     95  C   UNL A   1      44.190  41.643  35.146  1.00  0.00     0.131 A 
ATOM     96  C   UNL A   1      46.848  41.824  35.885  1.00  0.00     0.055 A 
ATOM     97  C   UNL A   1      44.680  42.843  35.661  1.00  0.00     0.041 A 
ATOM     98  F   UNL A   1      42.891  41.595  34.804  1.00  0.00    -0.206 F 
ATOM     99  C   UNL A   1      46.016  42.937  36.038  1.00  0.00     0.022 A 
BRANCH  96 100
ATOM    100  S   UNL A   1      48.573  41.902  36.439  1.00  0.00     0.124 S 
ATOM    101  O   UNL A   1      48.421  42.043  37.883  1.00  0.00    -0.237 OA
ATOM    102  O   UNL A   1      49.112  40.627  35.977  1.00  0.00    -0.237 OA
ATOM    103  O   UNL A   1      49.101  43.080  35.753  1.00  0.00    -0.744 OA
ENDBRANCH  96 100
ENDBRANCH  70  93
ENDBRANCH  44  45
ENDBRANCH  37  39
ENDBRANCH  36  37
ENDBRANCH  35  36
ENDBRANCH  34  35
ENDBRANCH  33  34
ENDBRANCH  32  33
ENDBRANCH   1  32
TORSDOF 24
ENDMDL
MODEL 2
REMARK VINA RESULT:      -8.7      5.390      6.799
REMARK SMILES Cc1nc(-c2ccccc2F)sc1C(=O)NCc1ccc(C(=O)OCCOCCOCCOC(=O)c2ccc(-c3c4nc(c(-c5cc(S(=O)(=O)[O-])ccc5F)c5ccc([nH]5)c(-c5cc(S(=O)(=O)[O-])ccc5F)c5nc(c(-c6cc(S(=O)(=O)[O-])ccc6F)c6ccc3[nH]6)C=C5)C=C4)cc2)cc1
REMARK SMILES IDX 28 1 27 2 26 3 25 4 24 5 22 6 23 7 21 8 18 9 19 10 100 11
REMARK SMILES IDX 20 12 99 13 17 14 16 15 14 16 15 17 13 19 1 20 2 21 3 22
REMARK SMILES IDX 4 23 12 24 5 25 6 26 10 27 7 28 9 29 11 30 8 31 29 32 30 33
REMARK SMILES IDX 31 34 32 35 33 36 34 37 35 38 36 39 37 40 98 41 38 42 97 43
REMARK SMILES IDX 39 44 40 45 41 46 91 47 42 48 96 49 90 50 92 51 43 52 95 53
REMARK SMILES IDX 89 54 88 55 44 57 76 58 56 59 75 60 57 61 60 62 74 63 93 64
REMARK SMILES IDX 58 65 59 66 73 68 94 69 61 70 45 71 46 72 54 73 47 74 53 75
REMARK SMILES IDX 55 76 52 77 48 78 49 79 50 80 51 81 77 82 78 83 86 84 79 85
REMARK SMILES IDX 85 86 87 87 84 88 80 89 81 90 82 91 83 92 62 93 63 94 71 95
REMARK SMILES IDX 64 96 70 97 72 98 69 99 65 100 66 101 67 102 68 103
REMARK H PARENT 16 18 92 56 60 67
REMARK Flexibility Score: inf
ROOT
ATOM      1  C   UNL A   1      41.100  24.591  26.622  1.00  0.00     0.188 C 
ENDROOT
BRANCH   1   2
ATOM      2  O   UNL A   1      41.427  23.281  26.190  1.00  0.00    -0.376 OA
BRANCH   2   3
ATOM      3  C   UNL A   1      40.463  22.241  26.257  1.00  0.00     0.202 C 
BRANCH   3   4
ATOM      4  C   UNL A   1      38.956  22.495  26.101  1.00  0.00     0.261 C 
BRANCH   4   5
ATOM      5  O   UNL A   1      38.286  21.649  25.160  1.00  0.00    -0.460 OA
BRANCH   5   6
ATOM      6  C   UNL A   1      37.247  22.235  24.505  1.00  0.00     0.338 C 
ATOM      7  O   UNL A   1      37.159  22.446  23.316  1.00  0.00    -0.246 OA
BRANCH   6   8
ATOM      8  C   UNL A   1      36.121  22.431  25.444  1.00  0.00     0.060 A 
ATOM      9  C   UNL A   1      33.945  22.676  27.202  1.00  0.00    -0.029 A 
ATOM     10  C   UNL A   1      34.448  21.415  26.866  1.00  0.00     0.006 A 
ATOM     11  C   UNL A   1      34.578  23.817  26.675  1.00  0.00     0.006 A 
ATOM     12  C   UNL A   1      35.521  21.289  25.984  1.00  0.00     0.016 A 
ATOM     13  C   UNL A   1      35.668  23.699  25.808  1.00  0.00     0.016 A 
BRANCH   9  14
ATOM     14  C   UNL A   1      32.698  22.833  28.031  1.00  0.00     0.152 C 
BRANCH  14  15
ATOM     15  N   UNL A   1      31.553  22.341  27.309  1.00  0.00    -0.347 N 
ATOM     16  C   UNL A   1      30.773  22.708  26.252  1.00  0.00     0.263 C 
ATOM     17  O   UNL A   1      29.819  21.918  26.140  1.00  0.00    -0.268 OA
ATOM     18  H   UNL A   1      31.242  21.489  27.693  1.00  0.00     0.164 HD
BRANCH  16  19
ATOM     19  C   UNL A   1      30.960  23.819  25.320  1.00  0.00     0.115 A 
ATOM     20  C   UNL A   1      32.666  23.497  23.297  1.00  0.00     0.068 C 
ATOM     21  C   UNL A   1      31.654  24.153  24.155  1.00  0.00     0.062 A 
ATOM     22  N   UNL A   1      31.354  25.407  23.636  1.00  0.00    -0.240 NA
ATOM     23  C   UNL A   1      30.551  26.095  24.402  1.00  0.00     0.127 A 
ATOM     24  S   UNL A   1      30.004  25.251  25.765  1.00  0.00    -0.108 S 
BRANCH  23  25
ATOM     25  C   UNL A   1      30.115  27.444  24.055  1.00  0.00     0.046 A 
ATOM     26  C   UNL A   1      28.899  27.596  23.367  1.00  0.00     0.014 A 
ATOM     27  C   UNL A   1      30.912  28.574  24.252  1.00  0.00     0.133 A 
ATOM     28  C   UNL A   1      28.501  28.842  22.877  1.00  0.00     0.001 A 
ATOM     29  C   UNL A   1      30.523  29.820  23.758  1.00  0.00     0.040 A 
ATOM     30  F   UNL A   1      32.093  28.483  24.883  1.00  0.00    -0.206 F 
ATOM     31  C   UNL A   1      29.320  29.953  23.064  1.00  0.00     0.003 A 
ENDBRANCH  23  25
ENDBRANCH  16  19
ENDBRANCH  14  15
ENDBRANCH   9  14
ENDBRANCH   6   8
ENDBRANCH   5   6
ENDBRANCH   4   5
ENDBRANCH   3   4
ENDBRANCH   2   3
ENDBRANCH   1   2
BRANCH   1  32
ATOM     32  C   UNL A   1      41.585  25.090  27.998  1.00  0.00     0.188 C 
BRANCH  32  33
ATOM     33  O   UNL A   1      42.865  25.671  28.052  1.00  0.00    -0.376 OA
BRANCH  33  34
ATOM     34  C   UNL A   1      43.561  25.770  29.283  1.00  0.00     0.202 C 
BRANCH  34  35
ATOM     35  C   UNL A   1      44.404  24.668  29.960  1.00  0.00     0.261 C 
BRANCH  35  36
ATOM     36  O   UNL A   1      45.129  24.983  31.148  1.00  0.00    -0.460 OA
BRANCH  36  37
ATOM     37  C   UNL A   1      44.529  24.622  32.310  1.00  0.00     0.338 C 
ATOM     38  O   UNL A   1      44.319  23.490  32.707  1.00  0.00    -0.246 OA
BRANCH  37  39
ATOM     39  C   UNL A   1      44.315  25.832  33.124  1.00  0.00     0.060 A 
ATOM     40  C   UNL A   1      43.389  25.781  34.174  1.00  0.00     0.016 A 
ATOM     41  C   UNL A   1      44.994  27.016  32.830  1.00  0.00     0.016 A 
ATOM     42  C   UNL A   1      43.122  26.927  34.922  1.00  0.00     0.010 A 
ATOM     43  C   UNL A   1      44.710  28.168  33.570  1.00  0.00     0.010 A 
ATOM     44  C   UNL A   1      43.755  28.136  34.601  1.00  0.00    -0.014 A 
BRANCH  44  45
ATOM     45  C   UNL A   1      43.299  29.397  35.237  1.00  0.00     0.031 A 
ATOM     46  C   UNL A   1      43.838  29.754  36.596  1.00  0.00     0.074 A 
ATOM     47  C   UNL A   1      42.449  30.228  34.606  1.00  0.00     0.049 A 
ATOM     48  N   UNL A   1      43.543  30.772  37.362  1.00  0.00    -0.248 NA
ATOM     49  C   UNL A   1      44.845  28.843  37.165  1.00  0.00     0.031 C 
ATOM     50  C   UNL A   1      41.907  30.021  33.264  1.00  0.00     0.029 A 
ATOM     51  N   UNL A   1      41.897  31.417  35.013  1.00  0.00    -0.354 N 
ATOM     52  C   UNL A   1      44.326  30.625  38.502  1.00  0.00     0.074 A 
ATOM     53  C   UNL A   1      45.084  29.404  38.341  1.00  0.00     0.031 C 
ATOM     54  C   UNL A   1      41.099  31.051  32.957  1.00  0.00     0.029 A 
ATOM     55  C   UNL A   1      41.033  31.968  34.095  1.00  0.00     0.049 A 
ATOM     56  H   UNL A   1      42.100  31.837  35.880  1.00  0.00     0.167 HD
ATOM     57  C   UNL A   1      44.410  31.441  39.580  1.00  0.00     0.034 A 
ATOM     58  C   UNL A   1      40.259  33.071  34.173  1.00  0.00     0.034 A 
ATOM     59  C   UNL A   1      43.649  32.653  39.733  1.00  0.00     0.049 A 
ATOM     60  C   UNL A   1      40.291  33.909  35.428  1.00  0.00     0.074 A 
ATOM     61  C   UNL A   1      43.669  33.551  40.786  1.00  0.00     0.029 A 
ATOM     62  N   UNL A   1      42.728  33.137  38.814  1.00  0.00    -0.354 N 
ATOM     63  N   UNL A   1      41.014  33.741  36.512  1.00  0.00    -0.248 NA
ATOM     64  C   UNL A   1      39.403  35.079  35.474  1.00  0.00     0.031 C 
ATOM     65  C   UNL A   1      42.713  34.539  40.536  1.00  0.00     0.029 A 
ATOM     66  C   UNL A   1      42.151  34.301  39.293  1.00  0.00     0.049 A 
ATOM     67  H   UNL A   1      42.516  32.715  37.950  1.00  0.00     0.167 HD
ATOM     68  C   UNL A   1      40.684  34.799  37.356  1.00  0.00     0.074 A 
ATOM     69  C   UNL A   1      39.700  35.599  36.658  1.00  0.00     0.031 C 
ATOM     70  C   UNL A   1      41.162  35.085  38.593  1.00  0.00     0.034 A 
BRANCH  57  71
ATOM     71  C   UNL A   1      45.330  31.032  40.698  1.00  0.00     0.023 A 
ATOM     72  C   UNL A   1      44.901  30.180  41.730  1.00  0.00     0.031 A 
ATOM     73  C   UNL A   1      46.664  31.473  40.712  1.00  0.00     0.131 A 
ATOM     74  C   UNL A   1      45.793  29.819  42.750  1.00  0.00     0.055 A 
ATOM     75  C   UNL A   1      47.564  31.062  41.696  1.00  0.00     0.041 A 
ATOM     76  F   UNL A   1      47.117  32.305  39.760  1.00  0.00    -0.206 F 
ATOM     77  C   UNL A   1      47.128  30.234  42.726  1.00  0.00     0.022 A 
BRANCH  74  78
ATOM     78  S   UNL A   1      45.169  28.849  44.149  1.00  0.00     0.124 S 
ATOM     79  O   UNL A   1      44.164  28.009  43.500  1.00  0.00    -0.237 OA
ATOM     80  O   UNL A   1      46.366  28.163  44.620  1.00  0.00    -0.237 OA
ATOM     81  O   UNL A   1      44.634  29.862  45.057  1.00  0.00    -0.744 OA
ENDBRANCH  74  78
ENDBRANCH  57  71
BRANCH  58  82
ATOM     82  C   UNL A   1      39.357  33.431  33.043  1.00  0.00     0.023 A 
ATOM     83  C   UNL A   1      38.033  32.972  32.996  1.00  0.00     0.031 A 
ATOM     84  C   UNL A   1      39.819  34.232  31.982  1.00  0.00     0.131 A 
ATOM     85  C   UNL A   1      37.219  33.299  31.899  1.00  0.00     0.055 A 
ATOM     86  C   UNL A   1      38.994  34.591  30.916  1.00  0.00     0.041 A 
ATOM     87  F   UNL A   1      41.080  34.694  31.981  1.00  0.00    -0.206 F 
ATOM     88  C   UNL A   1      37.686  34.118  30.867  1.00  0.00     0.022 A 
BRANCH  85  89
ATOM     89  S   UNL A   1      35.543  32.609  31.819  1.00  0.00     0.124 S 
ATOM     90  O   UNL A   1      35.171  32.573  33.229  1.00  0.00    -0.237 OA
ATOM     91  O   UNL A   1      34.847  33.591  30.996  1.00  0.00    -0.237 OA
ATOM     92  O   UNL A   1      35.743  31.304  31.192  1.00  0.00    -0.744 OA
ENDBRANCH  85  89
ENDBRANCH  58  82
BRANCH  70  93
ATOM     93  C   UNL A   1      40.659  36.334  39.271  1.00  0.00     0.023 A 
ATOM     94  C   UNL A   1      41.464  37.478  39.399  1.00  0.00     0.031 A 
ATOM     95  C   UNL A   1      39.332  36.399  39.733  1.00  0.00     0.131 A 
ATOM     96  C   UNL A   1      40.938  38.636  39.994  1.00  0.00     0.055 A 
ATOM     97  C   UNL A   1      38.801  37.567  40.280  1.00  0.00     0.041 A 
ATOM     98  F   UNL A   1      38.520  35.334  39.628  1.00  0.00    -0.206 F 
ATOM     99  C   UNL A   1      39.607  38.693  40.416  1.00  0.00     0.022 A 
BRANCH  96 100
ATOM    100  S   UNL A   1      42.026  40.067  40.231  1.00  0.00     0.124 S 
ATOM    101  O   UNL A   1      41.119  41.181  39.979  1.00  0.00    -0.237 OA
ATOM    102  O   UNL A   1      42.466  39.904  41.613  1.00  0.00    -0.237 OA
ATOM    103  O   UNL A   1      43.069  39.876  39.225  1.00  0.00    -0.744 OA
ENDBRANCH  96 100
ENDBRANCH  70  93
ENDBRANCH  44  45
ENDBRANCH  37  39
ENDBRANCH  36  37
ENDBRANCH  35  36
ENDBRANCH  34  35
ENDBRANCH  33  34
ENDBRANCH  32  33
ENDBRANCH   1  32
TORSDOF 24
ENDMDL
MODEL 3
REMARK VINA RESULT:      -8.4      4.267      6.063
REMARK SMILES Cc1nc(-c2ccccc2F)sc1C(=O)NCc1ccc(C(=O)OCCOCCOCCOC(=O)c2ccc(-c3c4nc(c(-c5cc(S(=O)(=O)[O-])ccc5F)c5ccc([nH]5)c(-c5cc(S(=O)(=O)[O-])ccc5F)c5nc(c(-c6cc(S(=O)(=O)[O-])ccc6F)c6ccc3[nH]6)C=C5)C=C4)cc2)cc1
REMARK SMILES IDX 28 1 27 2 26 3 25 4 24 5 22 6 23 7 21 8 18 9 19 10 100 11
REMARK SMILES IDX 20 12 99 13 17 14 16 15 14 16 15 17 13 19 1 20 2 21 3 22
REMARK SMILES IDX 4 23 12 24 5 25 6 26 10 27 7 28 9 29 11 30 8 31 29 32 30 33
REMARK SMILES IDX 31 34 32 35 33 36 34 37 35 38 36 39 37 40 98 41 38 42 97 43
REMARK SMILES IDX 39 44 40 45 41 46 91 47 42 48 96 49 90 50 92 51 43 52 95 53
REMARK SMILES IDX 89 54 88 55 44 57 76 58 56 59 75 60 57 61 60 62 74 63 93 64
REMARK SMILES IDX 58 65 59 66 73 68 94 69 61 70 45 71 46 72 54 73 47 74 53 75
REMARK SMILES IDX 55 76 52 77 48 78 49 79 50 80 51 81 77 82 78 83 86 84 79 85
REMARK SMILES IDX 85 86 87 87 84 88 80 89 81 90 82 91 83 92 62 93 63 94 71 95
REMARK SMILES IDX 64 96 70 97 72 98 69 99 65 100 66 101 67 102 68 103
REMARK H PARENT 16 18 92 56 60 67
REMARK Flexibility Score: inf
ROOT
ATOM      1  C   UNL A   1      43.220  22.988  25.182  1.00  0.00     0.188 C 
ENDROOT
BRANCH   1   2
ATOM      2  O   UNL A   1      43.303  22.271  26.402  1.00  0.00    -0.376 OA
BRANCH   2   3
ATOM      3  C   UNL A   1      43.624  22.944  27.610  1.00  0.00     0.202 C 
BRANCH   3   4
ATOM      4  C   UNL A   1      42.552  23.458  28.583  1.00  0.00     0.261 C 
BRANCH   4   5
ATOM      5  O   UNL A   1      41.906  24.676  28.197  1.00  0.00    -0.460 OA
BRANCH   5   6
ATOM      6  C   UNL A   1      42.416  25.800  28.772  1.00  0.00     0.338 C 
ATOM      7  O   UNL A   1      43.524  25.942  29.240  1.00  0.00    -0.246 OA
BRANCH   6   8
ATOM      8  C   UNL A   1      41.468  26.920  28.586  1.00  0.00     0.060 A 
ATOM      9  C   UNL A   1      39.576  28.958  28.198  1.00  0.00    -0.029 A 
ATOM     10  C   UNL A   1      39.165  27.639  28.420  1.00  0.00     0.006 A 
ATOM     11  C   UNL A   1      40.953  29.247  28.216  1.00  0.00     0.006 A 
ATOM     12  C   UNL A   1      40.102  26.623  28.601  1.00  0.00     0.016 A 
ATOM     13  C   UNL A   1      41.897  28.236  28.419  1.00  0.00     0.016 A 
BRANCH   9  14
ATOM     14  C   UNL A   1      38.592  30.044  27.851  1.00  0.00     0.152 C 
BRANCH  14  15
ATOM     15  N   UNL A   1      37.883  30.471  29.030  1.00  0.00    -0.347 N 
ATOM     16  C   UNL A   1      36.629  30.877  29.381  1.00  0.00     0.263 C 
ATOM     17  O   UNL A   1      36.621  31.238  30.571  1.00  0.00    -0.268 OA
ATOM     18  H   UNL A   1      38.480  30.468  29.813  1.00  0.00     0.164 HD
BRANCH  16  19
ATOM     19  C   UNL A   1      35.413  30.898  28.568  1.00  0.00     0.115 A 
ATOM     20  C   UNL A   1      34.009  33.161  28.454  1.00  0.00     0.068 C 
ATOM     21  C   UNL A   1      34.395  31.762  28.161  1.00  0.00     0.062 A 
ATOM     22  N   UNL A   1      33.493  31.217  27.255  1.00  0.00    -0.240 NA
ATOM     23  C   UNL A   1      33.702  29.947  27.033  1.00  0.00     0.127 A 
ATOM     24  S   UNL A   1      35.068  29.323  27.817  1.00  0.00    -0.108 S 
BRANCH  23  25
ATOM     25  C   UNL A   1      32.864  29.171  26.124  1.00  0.00     0.046 A 
ATOM     26  C   UNL A   1      32.987  29.401  24.743  1.00  0.00     0.014 A 
ATOM     27  C   UNL A   1      31.854  28.314  26.567  1.00  0.00     0.133 A 
ATOM     28  C   UNL A   1      32.113  28.801  23.834  1.00  0.00     0.001 A 
ATOM     29  C   UNL A   1      30.972  27.719  25.664  1.00  0.00     0.040 A 
ATOM     30  F   UNL A   1      31.677  28.077  27.875  1.00  0.00    -0.206 F 
ATOM     31  C   UNL A   1      31.098  27.968  24.297  1.00  0.00     0.003 A 
ENDBRANCH  23  25
ENDBRANCH  16  19
ENDBRANCH  14  15
ENDBRANCH   9  14
ENDBRANCH   6   8
ENDBRANCH   5   6
ENDBRANCH   4   5
ENDBRANCH   3   4
ENDBRANCH   2   3
ENDBRANCH   1   2
BRANCH   1  32
ATOM     32  C   UNL A   1      43.761  24.429  25.099  1.00  0.00     0.188 C 
BRANCH  32  33
ATOM     33  O   UNL A   1      42.813  25.465  25.024  1.00  0.00    -0.376 OA
BRANCH  33  34
ATOM     34  C   UNL A   1      43.183  26.804  25.305  1.00  0.00     0.202 C 
BRANCH  34  35
ATOM     35  C   UNL A   1      44.565  27.300  25.783  1.00  0.00     0.261 C 
BRANCH  35  36
ATOM     36  O   UNL A   1      45.347  28.114  24.911  1.00  0.00    -0.460 OA
BRANCH  36  37
ATOM     37  C   UNL A   1      46.507  28.584  25.436  1.00  0.00     0.338 C 
ATOM     38  O   UNL A   1      47.638  28.337  25.059  1.00  0.00    -0.246 OA
BRANCH  37  39
ATOM     39  C   UNL A   1      46.183  29.601  26.454  1.00  0.00     0.060 A 
ATOM     40  C   UNL A   1      45.432  30.719  26.072  1.00  0.00     0.016 A 
ATOM     41  C   UNL A   1      46.649  29.470  27.763  1.00  0.00     0.016 A 
ATOM     42  C   UNL A   1      45.162  31.726  26.998  1.00  0.00     0.010 A 
ATOM     43  C   UNL A   1      46.394  30.489  28.686  1.00  0.00     0.010 A 
ATOM     44  C   UNL A   1      45.672  31.633  28.301  1.00  0.00    -0.014 A 
BRANCH  44  45
ATOM     45  C   UNL A   1      45.587  32.804  29.209  1.00  0.00     0.031 A 
ATOM     46  C   UNL A   1      44.436  32.884  30.176  1.00  0.00     0.074 A 
ATOM     47  C   UNL A   1      46.533  33.761  29.202  1.00  0.00     0.049 A 
ATOM     48  N   UNL A   1      44.131  33.833  31.022  1.00  0.00    -0.248 NA
ATOM     49  C   UNL A   1      43.509  31.740  30.191  1.00  0.00     0.031 C 
ATOM     50  C   UNL A   1      47.725  33.763  28.355  1.00  0.00     0.029 A 
ATOM     51  N   UNL A   1      46.638  34.917  29.935  1.00  0.00    -0.354 N 
ATOM     52  C   UNL A   1      42.977  33.403  31.670  1.00  0.00     0.074 A 
ATOM     53  C   UNL A   1      42.621  32.123  31.097  1.00  0.00     0.031 C 
ATOM     54  C   UNL A   1      48.444  34.869  28.619  1.00  0.00     0.029 A 
ATOM     55  C   UNL A   1      47.743  35.673  29.619  1.00  0.00     0.049 A 
ATOM     56  H   UNL A   1      45.984  35.181  30.622  1.00  0.00     0.167 HD
ATOM     57  C   UNL A   1      42.285  34.017  32.659  1.00  0.00     0.034 A 
ATOM     58  C   UNL A   1      48.132  36.886  30.068  1.00  0.00     0.034 A 
ATOM     59  C   UNL A   1      42.646  35.292  33.221  1.00  0.00     0.049 A 
ATOM     60  C   UNL A   1      47.288  37.598  31.096  1.00  0.00     0.074 A 
ATOM     61  C   UNL A   1      42.011  35.994  34.232  1.00  0.00     0.029 A 
ATOM     62  N   UNL A   1      43.729  36.061  32.821  1.00  0.00    -0.354 N 
ATOM     63  N   UNL A   1      46.182  37.194  31.678  1.00  0.00    -0.248 NA
ATOM     64  C   UNL A   1      47.738  38.931  31.524  1.00  0.00     0.031 C 
ATOM     65  C   UNL A   1      42.670  37.215  34.395  1.00  0.00     0.029 A 
ATOM     66  C   UNL A   1      43.761  37.244  33.542  1.00  0.00     0.049 A 
ATOM     67  H   UNL A   1      44.380  35.805  32.128  1.00  0.00     0.167 HD
ATOM     68  C   UNL A   1      45.821  38.212  32.558  1.00  0.00     0.074 A 
ATOM     69  C   UNL A   1      46.824  39.248  32.432  1.00  0.00     0.031 C 
ATOM     70  C   UNL A   1      44.759  38.276  33.400  1.00  0.00     0.034 A 
BRANCH  57  71
ATOM     71  C   UNL A   1      41.046  33.337  33.173  1.00  0.00     0.023 A 
ATOM     72  C   UNL A   1      41.113  32.299  34.117  1.00  0.00     0.031 A 
ATOM     73  C   UNL A   1      39.777  33.759  32.738  1.00  0.00     0.131 A 
ATOM     74  C   UNL A   1      39.933  31.697  34.575  1.00  0.00     0.055 A 
ATOM     75  C   UNL A   1      38.604  33.197  33.243  1.00  0.00     0.041 A 
ATOM     76  F   UNL A   1      39.660  34.733  31.822  1.00  0.00    -0.206 F 
ATOM     77  C   UNL A   1      38.678  32.155  34.163  1.00  0.00     0.022 A 
BRANCH  74  78
ATOM     78  S   UNL A   1      40.058  30.257  35.671  1.00  0.00     0.124 S 
ATOM     79  O   UNL A   1      41.178  30.638  36.529  1.00  0.00    -0.237 OA
ATOM     80  O   UNL A   1      38.747  30.227  36.307  1.00  0.00    -0.237 OA
ATOM     81  O   UNL A   1      40.331  29.151  34.755  1.00  0.00    -0.744 OA
ENDBRANCH  74  78
ENDBRANCH  57  71
BRANCH  58  82
ATOM     82  C   UNL A   1      49.363  37.523  29.523  1.00  0.00     0.023 A 
ATOM     83  C   UNL A   1      50.621  37.275  30.091  1.00  0.00     0.031 A 
ATOM     84  C   UNL A   1      49.293  38.405  28.429  1.00  0.00     0.131 A 
ATOM     85  C   UNL A   1      51.759  37.919  29.577  1.00  0.00     0.055 A 
ATOM     86  C   UNL A   1      50.431  39.009  27.894  1.00  0.00     0.041 A 
ATOM     87  F   UNL A   1      48.111  38.676  27.853  1.00  0.00    -0.206 F 
ATOM     88  C   UNL A   1      51.674  38.771  28.473  1.00  0.00     0.022 A 
BRANCH  85  89
ATOM     89  S   UNL A   1      53.356  37.655  30.395  1.00  0.00     0.124 S 
ATOM     90  O   UNL A   1      53.189  36.314  30.944  1.00  0.00    -0.237 OA
ATOM     91  O   UNL A   1      54.293  37.782  29.285  1.00  0.00    -0.237 OA
ATOM     92  O   UNL A   1      53.415  38.732  31.382  1.00  0.00    -0.744 OA
ENDBRANCH  85  89
ENDBRANCH  58  82
BRANCH  70  93
ATOM     93  C   UNL A   1      44.634  39.489  34.285  1.00  0.00     0.023 A 
ATOM     94  C   UNL A   1      43.868  40.603  33.904  1.00  0.00     0.031 A 
ATOM     95  C   UNL A   1      45.234  39.498  35.557  1.00  0.00     0.131 A 
ATOM     96  C   UNL A   1      43.739  41.692  34.781  1.00  0.00     0.055 A 
ATOM     97  C   UNL A   1      45.064  40.562  36.442  1.00  0.00     0.041 A 
ATOM     98  F   UNL A   1      45.972  38.454  35.970  1.00  0.00    -0.206 F 
ATOM     99  C   UNL A   1      44.315  41.669  36.055  1.00  0.00     0.022 A 
BRANCH  96 100
ATOM    100  S   UNL A   1      42.823  43.156  34.229  1.00  0.00     0.124 S 
ATOM    101  O   UNL A   1      41.809  43.289  35.269  1.00  0.00    -0.237 OA
ATOM    102  O   UNL A   1      43.855  44.187  34.209  1.00  0.00    -0.237 OA
ATOM    103  O   UNL A   1      42.315  42.766  32.914  1.00  0.00    -0.744 OA
ENDBRANCH  96 100
ENDBRANCH  70  93
ENDBRANCH  44  45
ENDBRANCH  37  39
ENDBRANCH  36  37
ENDBRANCH  35  36
ENDBRANCH  34  35
ENDBRANCH  33  34
ENDBRANCH  32  33
ENDBRANCH   1  32
TORSDOF 24
ENDMDL
