MODEL 1
REMARK VINA RESULT:      -9.0      0.000      0.000
REMARK SMILES CC1(C)CCC[N@@H+](Cc2ccc(C(=O)OCCOCCOCCOC(=O)c3ccc(-c4c5nc(c(-c6cc(S(=O)(=O)[O-])ccc6F)c6ccc([nH]6)c(-c6cc(S(=O)(=O)[O-])ccc6F)c6nc(c(-c7cc(S(=O)(=O)[O-])ccc7F)c7ccc4[nH]7)C=C6)C=C5)cc3)cn2)C1
REMARK SMILES IDX 20 1 19 2 18 3 17 4 16 5 15 6 13 7 14 8 12 9 9 10 10 11
REMARK SMILES IDX 91 12 11 13 90 14 8 15 7 16 1 17 2 18 3 19 4 20 92 21 5 22
REMARK SMILES IDX 6 23 21 25 22 26 23 27 24 28 25 29 26 30 27 31 28 32 89 33
REMARK SMILES IDX 29 34 88 35 30 36 31 37 32 38 82 39 33 40 87 41 81 42 83 43
REMARK SMILES IDX 34 44 86 45 80 46 79 47 35 49 67 50 47 51 66 52 48 53 51 54
REMARK SMILES IDX 65 55 84 56 49 57 50 58 64 60 85 61 52 62 36 63 37 64 45 65
REMARK SMILES IDX 38 66 44 67 46 68 43 69 39 70 40 71 41 72 42 73 68 74 69 75
REMARK SMILES IDX 77 76 70 77 76 78 78 79 75 80 71 81 72 82 73 83 74 84 53 85
REMARK SMILES IDX 54 86 62 87 55 88 61 89 63 90 60 91 56 92 57 93 58 94 59 95
REMARK H PARENT 7 24 83 48 51 59
REMARK Flexibility Score: inf
ROOT
ATOM      1  C   UNL A   1      33.615  36.369  28.784  1.00  0.00     0.188 C 
ENDROOT
BRANCH   1   2
ATOM      2  C   UNL A   1      32.844  36.198  30.107  1.00  0.00     0.188 C 
BRANCH   2   3
ATOM      3  O   UNL A   1      32.882  37.224  31.086  1.00  0.00    -0.376 OA
BRANCH   3   4
ATOM      4  C   UNL A   1      33.749  37.124  32.207  1.00  0.00     0.202 C 
BRANCH   4   5
ATOM      5  C   UNL A   1      33.855  35.845  33.054  1.00  0.00     0.261 C 
BRANCH   5   6
ATOM      6  O   UNL A   1      35.095  35.683  33.753  1.00  0.00    -0.460 OA
BRANCH   6   7
ATOM      7  C   UNL A   1      35.597  34.426  33.763  1.00  0.00     0.339 C 
ATOM      8  O   UNL A   1      35.066  33.429  34.228  1.00  0.00    -0.246 OA
BRANCH   7   9
ATOM      9  C   UNL A   1      36.836  34.378  32.970  1.00  0.00     0.078 A 
ATOM     10  C   UNL A   1      39.024  34.166  31.328  1.00  0.00     0.095 A 
ATOM     11  C   UNL A   1      39.216  34.501  32.670  1.00  0.00     0.031 A 
ATOM     12  N   UNL A   1      37.788  34.095  30.773  1.00  0.00    -0.254 NA
ATOM     13  C   UNL A   1      38.108  34.560  33.512  1.00  0.00     0.019 A 
ATOM     14  C   UNL A   1      36.724  34.203  31.600  1.00  0.00     0.127 A 
BRANCH  10  15
ATOM     15  C   UNL A   1      40.173  33.551  30.528  1.00  0.00     0.319 C 
BRANCH  15  16
ATOM     16  N   UNL A   1      41.201  34.534  30.053  1.00  0.00    -0.329 N 
ATOM     17  C   UNL A   1      44.058  35.831  30.337  1.00  0.00     0.017 C 
ATOM     18  C   UNL A   1      43.612  34.807  29.282  1.00  0.00     0.014 C 
ATOM     19  C   UNL A   1      44.821  33.923  28.915  1.00  0.00     0.017 C 
ATOM     20  C   UNL A   1      43.088  35.507  28.015  1.00  0.00     0.018 C 
ATOM     21  C   UNL A   1      42.503  33.890  29.835  1.00  0.00     0.268 C 
ATOM     22  C   UNL A   1      41.754  36.206  28.270  1.00  0.00     0.062 C 
ATOM     23  C   UNL A   1      40.724  35.234  28.846  1.00  0.00     0.262 C 
ATOM     24  H   UNL A   1      41.339  35.232  30.786  1.00  0.00     0.348 HD
ENDBRANCH  15  16
ENDBRANCH  10  15
ENDBRANCH   7   9
ENDBRANCH   6   7
ENDBRANCH   5   6
ENDBRANCH   4   5
ENDBRANCH   3   4
ENDBRANCH   2   3
ENDBRANCH   1   2
BRANCH   1  25
ATOM     25  O   UNL A   1      34.751  35.554  28.628  1.00  0.00    -0.376 OA
BRANCH  25  26
ATOM     26  C   UNL A   1      34.667  34.408  27.798  1.00  0.00     0.202 C 
BRANCH  26  27
ATOM     27  C   UNL A   1      33.761  33.176  28.033  1.00  0.00     0.261 C 
BRANCH  27  28
ATOM     28  O   UNL A   1      34.249  32.085  28.820  1.00  0.00    -0.460 OA
BRANCH  28  29
ATOM     29  C   UNL A   1      34.716  31.011  28.132  1.00  0.00     0.338 C 
ATOM     30  O   UNL A   1      34.275  30.570  27.085  1.00  0.00    -0.246 OA
BRANCH  29  31
ATOM     31  C   UNL A   1      35.982  30.570  28.754  1.00  0.00     0.060 A 
ATOM     32  C   UNL A   1      37.187  31.156  28.340  1.00  0.00     0.016 A 
ATOM     33  C   UNL A   1      35.981  29.570  29.726  1.00  0.00     0.016 A 
ATOM     34  C   UNL A   1      38.399  30.730  28.888  1.00  0.00     0.010 A 
ATOM     35  C   UNL A   1      37.198  29.127  30.255  1.00  0.00     0.010 A 
ATOM     36  C   UNL A   1      38.415  29.686  29.821  1.00  0.00    -0.014 A 
BRANCH  36  37
ATOM     37  C   UNL A   1      39.703  29.058  30.217  1.00  0.00     0.031 A 
ATOM     38  C   UNL A   1      40.408  29.580  31.441  1.00  0.00     0.074 A 
ATOM     39  C   UNL A   1      40.237  28.045  29.512  1.00  0.00     0.049 A 
ATOM     40  N   UNL A   1      41.576  29.257  31.931  1.00  0.00    -0.248 NA
ATOM     41  C   UNL A   1      39.695  30.612  32.210  1.00  0.00     0.031 C 
ATOM     42  C   UNL A   1      39.626  27.415  28.343  1.00  0.00     0.029 A 
ATOM     43  N   UNL A   1      41.425  27.373  29.672  1.00  0.00    -0.354 N 
ATOM     44  C   UNL A   1      41.746  30.053  33.061  1.00  0.00     0.074 A 
ATOM     45  C   UNL A   1      40.574  30.898  33.157  1.00  0.00     0.031 C 
ATOM     46  C   UNL A   1      40.449  26.456  27.885  1.00  0.00     0.029 A 
ATOM     47  C   UNL A   1      41.666  26.433  28.696  1.00  0.00     0.049 A 
ATOM     48  H   UNL A   1      42.046  27.547  30.416  1.00  0.00     0.167 HD
ATOM     49  C   UNL A   1      42.781  30.071  33.937  1.00  0.00     0.034 A 
ATOM     50  C   UNL A   1      42.754  25.669  28.466  1.00  0.00     0.034 A 
ATOM     51  C   UNL A   1      43.948  29.231  33.818  1.00  0.00     0.049 A 
ATOM     52  C   UNL A   1      43.940  25.782  29.398  1.00  0.00     0.074 A 
ATOM     53  C   UNL A   1      45.045  29.158  34.658  1.00  0.00     0.029 A 
ATOM     54  N   UNL A   1      44.180  28.329  32.787  1.00  0.00    -0.354 N 
ATOM     55  N   UNL A   1      44.089  26.534  30.465  1.00  0.00    -0.248 NA
ATOM     56  C   UNL A   1      45.105  24.937  29.094  1.00  0.00     0.031 C 
ATOM     57  C   UNL A   1      45.975  28.282  34.090  1.00  0.00     0.029 A 
ATOM     58  C   UNL A   1      45.419  27.729  32.948  1.00  0.00     0.049 A 
ATOM     59  H   UNL A   1      43.555  28.142  32.050  1.00  0.00     0.167 HD
ATOM     60  C   UNL A   1      45.347  26.221  30.979  1.00  0.00     0.074 A 
ATOM     61  C   UNL A   1      45.908  25.206  30.114  1.00  0.00     0.031 C 
ATOM     62  C   UNL A   1      45.976  26.721  32.074  1.00  0.00     0.034 A 
BRANCH  49  63
ATOM     63  C   UNL A   1      42.719  31.076  35.064  1.00  0.00     0.023 A 
ATOM     64  C   UNL A   1      43.167  32.399  34.907  1.00  0.00     0.031 A 
ATOM     65  C   UNL A   1      42.226  30.693  36.324  1.00  0.00     0.131 A 
ATOM     66  C   UNL A   1      43.179  33.269  36.009  1.00  0.00     0.055 A 
ATOM     67  C   UNL A   1      42.160  31.590  37.393  1.00  0.00     0.041 A 
ATOM     68  F   UNL A   1      41.808  29.436  36.543  1.00  0.00    -0.206 F 
ATOM     69  C   UNL A   1      42.652  32.881  37.243  1.00  0.00     0.022 A 
BRANCH  66  70
ATOM     70  S   UNL A   1      44.030  34.862  35.846  1.00  0.00     0.124 S 
ATOM     71  O   UNL A   1      43.056  35.640  35.083  1.00  0.00    -0.237 OA
ATOM     72  O   UNL A   1      44.219  35.263  37.235  1.00  0.00    -0.237 OA
ATOM     73  O   UNL A   1      45.253  34.525  35.120  1.00  0.00    -0.744 OA
ENDBRANCH  66  70
ENDBRANCH  49  63
BRANCH  50  74
ATOM     74  C   UNL A   1      42.807  24.759  27.284  1.00  0.00     0.023 A 
ATOM     75  C   UNL A   1      42.243  23.474  27.328  1.00  0.00     0.031 A 
ATOM     76  C   UNL A   1      43.490  25.136  26.112  1.00  0.00     0.131 A 
ATOM     77  C   UNL A   1      42.415  22.594  26.246  1.00  0.00     0.055 A 
ATOM     78  C   UNL A   1      43.604  24.281  25.014  1.00  0.00     0.041 A 
ATOM     79  F   UNL A   1      44.060  26.348  26.017  1.00  0.00    -0.206 F 
ATOM     80  C   UNL A   1      43.076  22.995  25.083  1.00  0.00     0.022 A 
BRANCH  77  81
ATOM     81  S   UNL A   1      41.855  20.878  26.422  1.00  0.00     0.124 S 
ATOM     82  O   UNL A   1      42.236  20.583  27.799  1.00  0.00    -0.237 OA
ATOM     83  O   UNL A   1      40.423  20.997  26.164  1.00  0.00    -0.237 OA
ATOM     84  O   UNL A   1      42.614  20.165  25.398  1.00  0.00    -0.744 OA
ENDBRANCH  77  81
ENDBRANCH  50  74
BRANCH  62  85
ATOM     85  C   UNL A   1      47.323  26.133  32.431  1.00  0.00     0.023 A 
ATOM     86  C   UNL A   1      47.459  25.077  33.349  1.00  0.00     0.031 A 
ATOM     87  C   UNL A   1      48.493  26.645  31.840  1.00  0.00     0.131 A 
ATOM     88  C   UNL A   1      48.737  24.608  33.692  1.00  0.00     0.055 A 
ATOM     89  C   UNL A   1      49.756  26.128  32.133  1.00  0.00     0.041 A 
ATOM     90  F   UNL A   1      48.429  27.657  30.959  1.00  0.00    -0.206 F 
ATOM     91  C   UNL A   1      49.884  25.113  33.074  1.00  0.00     0.022 A 
BRANCH  88  92
ATOM     92  S   UNL A   1      48.891  23.398  35.035  1.00  0.00     0.124 S 
ATOM     93  O   UNL A   1      50.321  23.449  35.328  1.00  0.00    -0.237 OA
ATOM     94  O   UNL A   1      48.011  23.952  36.058  1.00  0.00    -0.237 OA
ATOM     95  O   UNL A   1      48.427  22.151  34.429  1.00  0.00    -0.744 OA
ENDBRANCH  88  92
ENDBRANCH  62  85
ENDBRANCH  36  37
ENDBRANCH  29  31
ENDBRANCH  28  29
ENDBRANCH  27  28
ENDBRANCH  26  27
ENDBRANCH  25  26
ENDBRANCH   1  25
TORSDOF 22
ENDMDL
MODEL 2
REMARK VINA RESULT:      -8.8      2.185      7.703
REMARK SMILES CC1(C)CCC[N@@H+](Cc2ccc(C(=O)OCCOCCOCCOC(=O)c3ccc(-c4c5nc(c(-c6cc(S(=O)(=O)[O-])ccc6F)c6ccc([nH]6)c(-c6cc(S(=O)(=O)[O-])ccc6F)c6nc(c(-c7cc(S(=O)(=O)[O-])ccc7F)c7ccc4[nH]7)C=C6)C=C5)cc3)cn2)C1
REMARK SMILES IDX 20 1 19 2 18 3 17 4 16 5 15 6 13 7 14 8 12 9 9 10 10 11
REMARK SMILES IDX 91 12 11 13 90 14 8 15 7 16 1 17 2 18 3 19 4 20 92 21 5 22
REMARK SMILES IDX 6 23 21 25 22 26 23 27 24 28 25 29 26 30 27 31 28 32 89 33
REMARK SMILES IDX 29 34 88 35 30 36 31 37 32 38 82 39 33 40 87 41 81 42 83 43
REMARK SMILES IDX 34 44 86 45 80 46 79 47 35 49 67 50 47 51 66 52 48 53 51 54
REMARK SMILES IDX 65 55 84 56 49 57 50 58 64 60 85 61 52 62 36 63 37 64 45 65
REMARK SMILES IDX 38 66 44 67 46 68 43 69 39 70 40 71 41 72 42 73 68 74 69 75
REMARK SMILES IDX 77 76 70 77 76 78 78 79 75 80 71 81 72 82 73 83 74 84 53 85
REMARK SMILES IDX 54 86 62 87 55 88 61 89 63 90 60 91 56 92 57 93 58 94 59 95
REMARK H PARENT 7 24 83 48 51 59
REMARK Flexibility Score: inf
ROOT
ATOM      1  C   UNL A   1      33.242  36.117  29.117  1.00  0.00     0.188 C 
ENDROOT
BRANCH   1   2
ATOM      2  C   UNL A   1      32.522  36.054  30.478  1.00  0.00     0.188 C 
BRANCH   2   3
ATOM      3  O   UNL A   1      32.677  37.113  31.410  1.00  0.00    -0.376 OA
BRANCH   3   4
ATOM      4  C   UNL A   1      33.781  37.137  32.304  1.00  0.00     0.202 C 
BRANCH   4   5
ATOM      5  C   UNL A   1      34.148  35.936  33.191  1.00  0.00     0.261 C 
BRANCH   5   6
ATOM      6  O   UNL A   1      35.553  35.714  33.359  1.00  0.00    -0.460 OA
BRANCH   6   7
ATOM      7  C   UNL A   1      36.022  34.548  32.855  1.00  0.00     0.339 C 
ATOM      8  O   UNL A   1      35.363  33.643  32.366  1.00  0.00    -0.246 OA
BRANCH   7   9
ATOM      9  C   UNL A   1      37.493  34.577  32.818  1.00  0.00     0.078 A 
ATOM     10  C   UNL A   1      40.221  34.543  32.528  1.00  0.00     0.095 A 
ATOM     11  C   UNL A   1      39.679  34.646  33.811  1.00  0.00     0.031 A 
ATOM     12  N   UNL A   1      39.452  34.615  31.412  1.00  0.00    -0.254 NA
ATOM     13  C   UNL A   1      38.294  34.615  33.958  1.00  0.00     0.019 A 
ATOM     14  C   UNL A   1      38.111  34.633  31.578  1.00  0.00     0.127 A 
BRANCH  10  15
ATOM     15  C   UNL A   1      41.647  34.018  32.347  1.00  0.00     0.319 C 
BRANCH  15  16
ATOM     16  N   UNL A   1      42.075  33.852  30.920  1.00  0.00    -0.329 N 
ATOM     17  C   UNL A   1      42.768  35.127  28.124  1.00  0.00     0.017 C 
ATOM     18  C   UNL A   1      43.764  34.587  29.162  1.00  0.00     0.014 C 
ATOM     19  C   UNL A   1      45.063  35.413  29.073  1.00  0.00     0.017 C 
ATOM     20  C   UNL A   1      44.084  33.103  28.903  1.00  0.00     0.018 C 
ATOM     21  C   UNL A   1      43.206  34.731  30.592  1.00  0.00     0.268 C 
ATOM     22  C   UNL A   1      42.886  32.208  29.211  1.00  0.00     0.062 C 
ATOM     23  C   UNL A   1      42.378  32.437  30.635  1.00  0.00     0.262 C 
ATOM     24  H   UNL A   1      41.301  34.135  30.317  1.00  0.00     0.348 HD
ENDBRANCH  15  16
ENDBRANCH  10  15
ENDBRANCH   7   9
ENDBRANCH   6   7
ENDBRANCH   5   6
ENDBRANCH   4   5
ENDBRANCH   3   4
ENDBRANCH   2   3
ENDBRANCH   1   2
BRANCH   1  25
ATOM     25  O   UNL A   1      34.417  35.351  29.010  1.00  0.00    -0.376 OA
BRANCH  25  26
ATOM     26  C   UNL A   1      34.488  34.335  28.024  1.00  0.00     0.202 C 
BRANCH  26  27
ATOM     27  C   UNL A   1      33.462  33.197  27.811  1.00  0.00     0.261 C 
BRANCH  27  28
ATOM     28  O   UNL A   1      33.711  31.911  28.387  1.00  0.00    -0.460 OA
BRANCH  28  29
ATOM     29  C   UNL A   1      34.147  30.947  27.535  1.00  0.00     0.338 C 
ATOM     30  O   UNL A   1      33.668  30.663  26.452  1.00  0.00    -0.246 OA
BRANCH  29  31
ATOM     31  C   UNL A   1      35.430  30.419  28.044  1.00  0.00     0.060 A 
ATOM     32  C   UNL A   1      35.420  29.511  29.112  1.00  0.00     0.016 A 
ATOM     33  C   UNL A   1      36.638  30.834  27.482  1.00  0.00     0.016 A 
ATOM     34  C   UNL A   1      36.623  29.027  29.633  1.00  0.00     0.010 A 
ATOM     35  C   UNL A   1      37.841  30.367  28.021  1.00  0.00     0.010 A 
ATOM     36  C   UNL A   1      37.842  29.481  29.114  1.00  0.00    -0.014 A 
BRANCH  36  37
ATOM     37  C   UNL A   1      39.113  29.172  29.819  1.00  0.00     0.031 A 
ATOM     38  C   UNL A   1      40.040  28.153  29.210  1.00  0.00     0.074 A 
ATOM     39  C   UNL A   1      39.445  29.782  30.971  1.00  0.00     0.049 A 
ATOM     40  N   UNL A   1      41.155  27.655  29.678  1.00  0.00    -0.248 NA
ATOM     41  C   UNL A   1      39.647  27.622  27.896  1.00  0.00     0.031 C 
ATOM     42  C   UNL A   1      38.661  30.824  31.631  1.00  0.00     0.029 A 
ATOM     43  N   UNL A   1      40.529  29.603  31.797  1.00  0.00    -0.354 N 
ATOM     44  C   UNL A   1      41.594  26.743  28.723  1.00  0.00     0.074 A 
ATOM     45  C   UNL A   1      40.602  26.734  27.668  1.00  0.00     0.031 C 
ATOM     46  C   UNL A   1      39.284  31.184  32.766  1.00  0.00     0.029 A 
ATOM     47  C   UNL A   1      40.485  30.368  32.940  1.00  0.00     0.049 A 
ATOM     48  H   UNL A   1      41.268  28.986  31.590  1.00  0.00     0.167 HD
ATOM     49  C   UNL A   1      42.720  25.989  28.724  1.00  0.00     0.034 A 
ATOM     50  C   UNL A   1      41.301  30.382  34.015  1.00  0.00     0.034 A 
ATOM     51  C   UNL A   1      43.692  26.002  29.792  1.00  0.00     0.049 A 
ATOM     52  C   UNL A   1      42.497  29.457  34.042  1.00  0.00     0.074 A 
ATOM     53  C   UNL A   1      44.875  25.290  29.886  1.00  0.00     0.029 A 
ATOM     54  N   UNL A   1      43.587  26.750  30.957  1.00  0.00    -0.354 N 
ATOM     55  N   UNL A   1      42.905  28.601  33.131  1.00  0.00    -0.248 NA
ATOM     56  C   UNL A   1      43.345  29.503  35.242  1.00  0.00     0.031 C 
ATOM     57  C   UNL A   1      45.438  25.539  31.141  1.00  0.00     0.029 A 
ATOM     58  C   UNL A   1      44.661  26.484  31.792  1.00  0.00     0.049 A 
ATOM     59  H   UNL A   1      42.857  27.378  31.160  1.00  0.00     0.167 HD
ATOM     60  C   UNL A   1      44.077  28.040  33.634  1.00  0.00     0.074 A 
ATOM     61  C   UNL A   1      44.317  28.661  34.920  1.00  0.00     0.031 C 
ATOM     62  C   UNL A   1      44.889  27.103  33.079  1.00  0.00     0.034 A 
BRANCH  49  63
ATOM     63  C   UNL A   1      42.927  25.045  27.563  1.00  0.00     0.023 A 
ATOM     64  C   UNL A   1      42.253  23.815  27.474  1.00  0.00     0.031 A 
ATOM     65  C   UNL A   1      43.834  25.374  26.539  1.00  0.00     0.131 A 
ATOM     66  C   UNL A   1      42.548  22.930  26.426  1.00  0.00     0.055 A 
ATOM     67  C   UNL A   1      44.058  24.525  25.453  1.00  0.00     0.041 A 
ATOM     68  F   UNL A   1      44.528  26.522  26.582  1.00  0.00    -0.206 F 
ATOM     69  C   UNL A   1      43.426  23.288  25.400  1.00  0.00     0.022 A 
BRANCH  66  70
ATOM     70  S   UNL A   1      41.884  21.243  26.503  1.00  0.00     0.124 S 
ATOM     71  O   UNL A   1      40.451  21.482  26.344  1.00  0.00    -0.237 OA
ATOM     72  O   UNL A   1      42.551  20.589  25.383  1.00  0.00    -0.237 OA
ATOM     73  O   UNL A   1      42.286  20.777  27.829  1.00  0.00    -0.744 OA
ENDBRANCH  66  70
ENDBRANCH  49  63
BRANCH  50  74
ATOM     74  C   UNL A   1      41.004  31.264  35.183  1.00  0.00     0.023 A 
ATOM     75  C   UNL A   1      39.821  31.117  35.925  1.00  0.00     0.031 A 
ATOM     76  C   UNL A   1      41.869  32.318  35.531  1.00  0.00     0.131 A 
ATOM     77  C   UNL A   1      39.509  32.037  36.939  1.00  0.00     0.055 A 
ATOM     78  C   UNL A   1      41.585  33.193  36.583  1.00  0.00     0.041 A 
ATOM     79  F   UNL A   1      43.009  32.516  34.849  1.00  0.00    -0.206 F 
ATOM     80  C   UNL A   1      40.391  33.062  37.284  1.00  0.00     0.022 A 
BRANCH  77  81
ATOM     81  S   UNL A   1      37.880  31.938  37.732  1.00  0.00     0.124 S 
ATOM     82  O   UNL A   1      38.188  32.366  39.093  1.00  0.00    -0.237 OA
ATOM     83  O   UNL A   1      37.094  32.869  36.929  1.00  0.00    -0.237 OA
ATOM     84  O   UNL A   1      37.515  30.531  37.587  1.00  0.00    -0.744 OA
ENDBRANCH  77  81
ENDBRANCH  50  74
BRANCH  62  85
ATOM     85  C   UNL A   1      46.145  26.733  33.835  1.00  0.00     0.023 A 
ATOM     86  C   UNL A   1      47.365  27.403  33.633  1.00  0.00     0.031 A 
ATOM     87  C   UNL A   1      46.118  25.687  34.777  1.00  0.00     0.131 A 
ATOM     88  C   UNL A   1      48.517  26.982  34.317  1.00  0.00     0.055 A 
ATOM     89  C   UNL A   1      47.251  25.318  35.504  1.00  0.00     0.041 A 
ATOM     90  F   UNL A   1      44.984  25.006  35.011  1.00  0.00    -0.206 F 
ATOM     91  C   UNL A   1      48.462  25.958  35.265  1.00  0.00     0.022 A 
BRANCH  88  92
ATOM     92  S   UNL A   1      50.113  27.721  33.874  1.00  0.00     0.124 S 
ATOM     93  O   UNL A   1      50.055  29.006  34.565  1.00  0.00    -0.237 OA
ATOM     94  O   UNL A   1      51.064  26.753  34.408  1.00  0.00    -0.237 OA
ATOM     95  O   UNL A   1      50.063  27.799  32.415  1.00  0.00    -0.744 OA
ENDBRANCH  88  92
ENDBRANCH  62  85
ENDBRANCH  36  37
ENDBRANCH  29  31
ENDBRANCH  28  29
ENDBRANCH  27  28
ENDBRANCH  26  27
ENDBRANCH  25  26
ENDBRANCH   1  25
TORSDOF 22
ENDMDL
MODEL 3
REMARK VINA RESULT:      -8.6      0.921      7.723
REMARK SMILES CC1(C)CCC[N@@H+](Cc2ccc(C(=O)OCCOCCOCCOC(=O)c3ccc(-c4c5nc(c(-c6cc(S(=O)(=O)[O-])ccc6F)c6ccc([nH]6)c(-c6cc(S(=O)(=O)[O-])ccc6F)c6nc(c(-c7cc(S(=O)(=O)[O-])ccc7F)c7ccc4[nH]7)C=C6)C=C5)cc3)cn2)C1
REMARK SMILES IDX 20 1 19 2 18 3 17 4 16 5 15 6 13 7 14 8 12 9 9 10 10 11
REMARK SMILES IDX 91 12 11 13 90 14 8 15 7 16 1 17 2 18 3 19 4 20 92 21 5 22
REMARK SMILES IDX 6 23 21 25 22 26 23 27 24 28 25 29 26 30 27 31 28 32 89 33
REMARK SMILES IDX 29 34 88 35 30 36 31 37 32 38 82 39 33 40 87 41 81 42 83 43
REMARK SMILES IDX 34 44 86 45 80 46 79 47 35 49 67 50 47 51 66 52 48 53 51 54
REMARK SMILES IDX 65 55 84 56 49 57 50 58 64 60 85 61 52 62 36 63 37 64 45 65
REMARK SMILES IDX 38 66 44 67 46 68 43 69 39 70 40 71 41 72 42 73 68 74 69 75
REMARK SMILES IDX 77 76 70 77 76 78 78 79 75 80 71 81 72 82 73 83 74 84 53 85
REMARK SMILES IDX 54 86 62 87 55 88 61 89 63 90 60 91 56 92 57 93 58 94 59 95
REMARK H PARENT 7 24 83 48 51 59
REMARK Flexibility Score: inf
ROOT
ATOM      1  C   UNL A   1      33.124  36.300  29.129  1.00  0.00     0.188 C 
ENDROOT
BRANCH   1   2
ATOM      2  C   UNL A   1      32.639  35.999  30.560  1.00  0.00     0.188 C 
BRANCH   2   3
ATOM      3  O   UNL A   1      32.858  36.944  31.594  1.00  0.00    -0.376 OA
BRANCH   3   4
ATOM      4  C   UNL A   1      34.109  37.008  32.265  1.00  0.00     0.202 C 
BRANCH   4   5
ATOM      5  C   UNL A   1      34.578  35.915  33.239  1.00  0.00     0.261 C 
BRANCH   5   6
ATOM      6  O   UNL A   1      35.926  35.470  33.048  1.00  0.00    -0.460 OA
BRANCH   6   7
ATOM      7  C   UNL A   1      36.083  34.443  32.180  1.00  0.00     0.339 C 
ATOM      8  O   UNL A   1      35.201  33.740  31.711  1.00  0.00    -0.246 OA
BRANCH   7   9
ATOM      9  C   UNL A   1      37.482  34.380  31.729  1.00  0.00     0.078 A 
ATOM     10  C   UNL A   1      40.013  34.145  30.695  1.00  0.00     0.095 A 
ATOM     11  C   UNL A   1      39.861  34.458  32.048  1.00  0.00     0.031 A 
ATOM     12  N   UNL A   1      38.958  34.108  29.842  1.00  0.00    -0.254 NA
ATOM     13  C   UNL A   1      38.576  34.529  32.580  1.00  0.00     0.019 A 
ATOM     14  C   UNL A   1      37.721  34.227  30.372  1.00  0.00     0.127 A 
BRANCH  10  15
ATOM     15  C   UNL A   1      41.318  33.518  30.204  1.00  0.00     0.319 C 
BRANCH  15  16
ATOM     16  N   UNL A   1      42.352  34.503  29.745  1.00  0.00    -0.329 N 
ATOM     17  C   UNL A   1      43.990  35.836  27.408  1.00  0.00     0.017 C 
ATOM     18  C   UNL A   1      42.807  36.451  28.171  1.00  0.00     0.014 C 
ATOM     19  C   UNL A   1      42.031  37.375  27.211  1.00  0.00     0.017 C 
ATOM     20  C   UNL A   1      43.293  37.268  29.383  1.00  0.00     0.018 C 
ATOM     21  C   UNL A   1      41.839  35.359  28.667  1.00  0.00     0.268 C 
ATOM     22  C   UNL A   1      43.859  36.366  30.478  1.00  0.00     0.062 C 
ATOM     23  C   UNL A   1      42.849  35.295  30.887  1.00  0.00     0.262 C 
ATOM     24  H   UNL A   1      43.140  33.984  29.357  1.00  0.00     0.348 HD
ENDBRANCH  15  16
ENDBRANCH  10  15
ENDBRANCH   7   9
ENDBRANCH   6   7
ENDBRANCH   5   6
ENDBRANCH   4   5
ENDBRANCH   3   4
ENDBRANCH   2   3
ENDBRANCH   1   2
BRANCH   1  25
ATOM     25  O   UNL A   1      34.392  35.792  28.793  1.00  0.00    -0.376 OA
BRANCH  25  26
ATOM     26  C   UNL A   1      34.476  34.631  27.984  1.00  0.00     0.202 C 
BRANCH  26  27
ATOM     27  C   UNL A   1      33.716  33.303  28.214  1.00  0.00     0.261 C 
BRANCH  27  28
ATOM     28  O   UNL A   1      34.404  32.194  28.802  1.00  0.00    -0.460 OA
BRANCH  28  29
ATOM     29  C   UNL A   1      34.581  31.108  28.007  1.00  0.00     0.338 C 
ATOM     30  O   UNL A   1      33.919  30.805  27.030  1.00  0.00    -0.246 OA
BRANCH  29  31
ATOM     31  C   UNL A   1      35.841  30.441  28.397  1.00  0.00     0.060 A 
ATOM     32  C   UNL A   1      35.884  29.704  29.589  1.00  0.00     0.016 A 
ATOM     33  C   UNL A   1      36.980  30.561  27.600  1.00  0.00     0.016 A 
ATOM     34  C   UNL A   1      37.074  29.096  29.996  1.00  0.00     0.010 A 
ATOM     35  C   UNL A   1      38.177  29.972  28.022  1.00  0.00     0.010 A 
ATOM     36  C   UNL A   1      38.237  29.259  29.234  1.00  0.00    -0.014 A 
BRANCH  36  37
ATOM     37  C   UNL A   1      39.553  28.835  29.781  1.00  0.00     0.031 A 
ATOM     38  C   UNL A   1      40.274  27.695  29.112  1.00  0.00     0.074 A 
ATOM     39  C   UNL A   1      40.101  29.447  30.846  1.00  0.00     0.049 A 
ATOM     40  N   UNL A   1      41.382  27.093  29.456  1.00  0.00    -0.248 NA
ATOM     41  C   UNL A   1      39.651  27.162  27.890  1.00  0.00     0.031 C 
ATOM     42  C   UNL A   1      39.530  30.596  31.546  1.00  0.00     0.029 A 
ATOM     43  N   UNL A   1      41.262  29.179  31.531  1.00  0.00    -0.354 N 
ATOM     44  C   UNL A   1      41.587  26.101  28.501  1.00  0.00     0.074 A 
ATOM     45  C   UNL A   1      40.465  26.163  27.587  1.00  0.00     0.031 C 
ATOM     46  C   UNL A   1      40.337  30.927  32.569  1.00  0.00     0.029 A 
ATOM     47  C   UNL A   1      41.456  29.988  32.628  1.00  0.00     0.049 A 
ATOM     48  H   UNL A   1      41.896  28.475  31.262  1.00  0.00     0.167 HD
ATOM     49  C   UNL A   1      42.616  25.225  28.395  1.00  0.00     0.034 A 
ATOM     50  C   UNL A   1      42.408  29.951  33.584  1.00  0.00     0.034 A 
ATOM     51  C   UNL A   1      43.719  25.169  29.324  1.00  0.00     0.049 A 
ATOM     52  C   UNL A   1      43.490  28.898  33.503  1.00  0.00     0.074 A 
ATOM     53  C   UNL A   1      44.821  24.332  29.300  1.00  0.00     0.029 A 
ATOM     54  N   UNL A   1      43.855  25.968  30.452  1.00  0.00    -0.354 N 
ATOM     55  N   UNL A   1      43.676  27.968  32.594  1.00  0.00    -0.248 NA
ATOM     56  C   UNL A   1      44.494  28.894  34.578  1.00  0.00     0.031 C 
ATOM     57  C   UNL A   1      45.574  24.564  30.456  1.00  0.00     0.029 A 
ATOM     58  C   UNL A   1      44.998  25.615  31.152  1.00  0.00     0.049 A 
ATOM     59  H   UNL A   1      43.231  26.682  30.715  1.00  0.00     0.167 HD
ATOM     60  C   UNL A   1      44.840  27.297  32.969  1.00  0.00     0.074 A 
ATOM     61  C   UNL A   1      45.317  27.936  34.176  1.00  0.00     0.031 C 
ATOM     62  C   UNL A   1      45.463  26.253  32.363  1.00  0.00     0.034 A 
BRANCH  49  63
ATOM     63  C   UNL A   1      42.561  24.219  27.269  1.00  0.00     0.023 A 
ATOM     64  C   UNL A   1      41.678  23.126  27.290  1.00  0.00     0.031 A 
ATOM     65  C   UNL A   1      43.425  24.346  26.167  1.00  0.00     0.131 A 
ATOM     66  C   UNL A   1      41.729  22.166  26.267  1.00  0.00     0.055 A 
ATOM     67  C   UNL A   1      43.410  23.433  25.109  1.00  0.00     0.041 A 
ATOM     68  F   UNL A   1      44.310  25.354  26.102  1.00  0.00    -0.206 F 
ATOM     69  C   UNL A   1      42.569  22.327  25.163  1.00  0.00     0.022 A 
BRANCH  66  70
ATOM     70  S   UNL A   1      40.790  20.627  26.474  1.00  0.00     0.124 S 
ATOM     71  O   UNL A   1      40.895  20.410  27.916  1.00  0.00    -0.237 OA
ATOM     72  O   UNL A   1      39.469  20.994  25.979  1.00  0.00    -0.237 OA
ATOM     73  O   UNL A   1      41.522  19.665  25.653  1.00  0.00    -0.744 OA
ENDBRANCH  66  70
ENDBRANCH  49  63
BRANCH  50  74
ATOM     74  C   UNL A   1      42.368  30.906  34.732  1.00  0.00     0.023 A 
ATOM     75  C   UNL A   1      42.919  32.193  34.628  1.00  0.00     0.031 A 
ATOM     76  C   UNL A   1      41.842  30.517  35.977  1.00  0.00     0.131 A 
ATOM     77  C   UNL A   1      42.978  33.025  35.759  1.00  0.00     0.055 A 
ATOM     78  C   UNL A   1      41.845  31.370  37.083  1.00  0.00     0.041 A 
ATOM     79  F   UNL A   1      41.313  29.293  36.140  1.00  0.00    -0.206 F 
ATOM     80  C   UNL A   1      42.430  32.629  36.980  1.00  0.00     0.022 A 
BRANCH  77  81
ATOM     81  S   UNL A   1      43.882  34.594  35.638  1.00  0.00     0.124 S 
ATOM     82  O   UNL A   1      42.823  35.564  35.897  1.00  0.00    -0.237 OA
ATOM     83  O   UNL A   1      44.887  34.447  36.685  1.00  0.00    -0.237 OA
ATOM     84  O   UNL A   1      44.400  34.584  34.273  1.00  0.00    -0.744 OA
ENDBRANCH  77  81
ENDBRANCH  50  74
BRANCH  62  85
ATOM     85  C   UNL A   1      46.764  25.774  32.967  1.00  0.00     0.023 A 
ATOM     86  C   UNL A   1      46.812  24.732  33.910  1.00  0.00     0.031 A 
ATOM     87  C   UNL A   1      47.980  26.375  32.590  1.00  0.00     0.131 A 
ATOM     88  C   UNL A   1      48.038  24.365  34.487  1.00  0.00     0.055 A 
ATOM     89  C   UNL A   1      49.204  25.959  33.115  1.00  0.00     0.041 A 
ATOM     90  F   UNL A   1      47.998  27.378  31.697  1.00  0.00    -0.206 F 
ATOM     91  C   UNL A   1      49.236  24.958  34.079  1.00  0.00     0.022 A 
BRANCH  88  92
ATOM     92  S   UNL A   1      48.038  23.172  35.854  1.00  0.00     0.124 S 
ATOM     93  O   UNL A   1      48.635  21.995  35.230  1.00  0.00    -0.237 OA
ATOM     94  O   UNL A   1      48.857  23.846  36.856  1.00  0.00    -0.237 OA
ATOM     95  O   UNL A   1      46.623  23.043  36.196  1.00  0.00    -0.744 OA
ENDBRANCH  88  92
ENDBRANCH  62  85
ENDBRANCH  36  37
ENDBRANCH  29  31
ENDBRANCH  28  29
ENDBRANCH  27  28
ENDBRANCH  26  27
ENDBRANCH  25  26
ENDBRANCH   1  25
TORSDOF 22
ENDMDL
