MODEL 1
REMARK VINA RESULT:     -10.8      0.000      0.000
REMARK SMILES C[N@H+]1CCO[C@H](c2noc(-c3ccccc3C(=O)OCCOCCOCCOC(=O)c3ccc(-c4c5nc(c(-c6cc(S(=O)(=O)[O-])ccc6F)c6ccc([nH]6)c(-c6cc(S(=O)(=O)[O-])ccc6F)c6nc(c(-c7cc(S(=O)(=O)[O-])ccc7F)c7ccc4[nH]7)C=C6)C=C5)cc3)n2)C1
REMARK SMILES IDX 24 1 23 2 22 3 21 4 20 5 19 6 17 7 18 8 16 9 11 10 12 11
REMARK SMILES IDX 13 12 15 13 14 14 10 15 7 16 8 17 94 18 9 19 6 20 1 21 2 22
REMARK SMILES IDX 3 23 95 24 4 26 5 27 25 28 26 29 27 30 28 31 29 32 30 33
REMARK SMILES IDX 31 34 32 35 93 36 33 37 92 38 34 39 35 40 36 41 86 42 37 43
REMARK SMILES IDX 91 44 85 45 87 46 38 47 90 48 84 49 83 50 39 52 71 53 51 54
REMARK SMILES IDX 70 55 52 56 55 57 69 58 88 59 53 60 54 61 68 63 89 64 56 65
REMARK SMILES IDX 40 66 41 67 49 68 42 69 48 70 50 71 47 72 43 73 44 74 45 75
REMARK SMILES IDX 46 76 72 77 73 78 81 79 74 80 80 81 82 82 79 83 75 84 76 85
REMARK SMILES IDX 77 86 78 87 57 88 58 89 66 90 59 91 65 92 67 93 64 94 60 95
REMARK SMILES IDX 61 96 62 97 63 98
REMARK H PARENT 2 25 87 51 55 62
REMARK Flexibility Score: inf
ROOT
ATOM      1  C   UNL A   1      33.512  29.905  26.605  1.00  0.00     0.188 C 
ENDROOT
BRANCH   1   2
ATOM      2  C   UNL A   1      33.241  28.894  25.468  1.00  0.00     0.188 C 
BRANCH   2   3
ATOM      3  O   UNL A   1      33.229  29.339  24.119  1.00  0.00    -0.376 OA
BRANCH   3   4
ATOM      4  C   UNL A   1      34.141  28.735  23.202  1.00  0.00     0.202 C 
BRANCH   4   5
ATOM      5  C   UNL A   1      33.559  28.179  21.907  1.00  0.00     0.261 C 
BRANCH   5   6
ATOM      6  O   UNL A   1      33.740  26.759  21.897  1.00  0.00    -0.460 OA
BRANCH   6   7
ATOM      7  C   UNL A   1      32.621  26.024  22.056  1.00  0.00     0.339 C 
ATOM      8  O   UNL A   1      31.967  25.488  21.178  1.00  0.00    -0.246 OA
BRANCH   7   9
ATOM      9  C   UNL A   1      32.438  25.762  23.499  1.00  0.00     0.072 A 
ATOM     10  C   UNL A   1      31.265  26.072  24.215  1.00  0.00     0.054 A 
ATOM     11  C   UNL A   1      31.236  25.752  25.588  1.00  0.00     0.015 A 
ATOM     12  C   UNL A   1      32.347  25.193  26.229  1.00  0.00     0.001 A 
ATOM     13  C   UNL A   1      33.555  25.208  24.150  1.00  0.00     0.016 A 
ATOM     14  C   UNL A   1      33.512  24.937  25.515  1.00  0.00     0.001 A 
BRANCH  10  15
ATOM     15  C   UNL A   1      30.139  26.778  23.604  1.00  0.00     0.258 A 
ATOM     16  C   UNL A   1      28.801  28.232  22.908  1.00  0.00     0.206 A 
ATOM     17  N   UNL A   1      27.985  27.318  23.452  1.00  0.00    -0.059 NA
ATOM     18  N   UNL A   1      30.122  27.865  22.870  1.00  0.00    -0.189 NA
ATOM     19  O   UNL A   1      28.877  26.352  23.935  1.00  0.00    -0.334 OA
BRANCH  16  20
ATOM     20  C   UNL A   1      28.346  29.616  22.547  1.00  0.00     0.245 C 
ATOM     21  C   UNL A   1      28.155  32.020  20.465  1.00  0.00     0.332 C 
ATOM     22  N   UNL A   1      29.171  31.816  21.492  1.00  0.00    -0.333 N 
ATOM     23  C   UNL A   1      28.795  32.438  22.777  1.00  0.00     0.290 C 
ATOM     24  C   UNL A   1      29.436  30.373  21.732  1.00  0.00     0.303 C 
ATOM     25  H   UNL A   1      30.016  32.264  21.135  1.00  0.00     0.348 HD
ATOM     26  C   UNL A   1      27.664  31.698  23.501  1.00  0.00     0.222 C 
ATOM     27  O   UNL A   1      28.016  30.342  23.754  1.00  0.00    -0.358 OA
ENDBRANCH  16  20
ENDBRANCH  10  15
ENDBRANCH   7   9
ENDBRANCH   6   7
ENDBRANCH   5   6
ENDBRANCH   4   5
ENDBRANCH   3   4
ENDBRANCH   2   3
ENDBRANCH   1   2
BRANCH   1  28
ATOM     28  O   UNL A   1      32.466  30.601  27.253  1.00  0.00    -0.376 OA
BRANCH  28  29
ATOM     29  C   UNL A   1      31.672  31.535  26.542  1.00  0.00     0.202 C 
BRANCH  29  30
ATOM     30  C   UNL A   1      31.694  33.025  26.899  1.00  0.00     0.261 C 
BRANCH  30  31
ATOM     31  O   UNL A   1      32.993  33.623  26.884  1.00  0.00    -0.460 OA
BRANCH  31  32
ATOM     32  C   UNL A   1      33.400  34.141  28.070  1.00  0.00     0.338 C 
ATOM     33  O   UNL A   1      32.845  34.998  28.735  1.00  0.00    -0.246 OA
BRANCH  32  34
ATOM     34  C   UNL A   1      34.560  33.366  28.541  1.00  0.00     0.060 A 
ATOM     35  C   UNL A   1      34.327  32.221  29.315  1.00  0.00     0.016 A 
ATOM     36  C   UNL A   1      35.860  33.759  28.219  1.00  0.00     0.016 A 
ATOM     37  C   UNL A   1      35.402  31.457  29.766  1.00  0.00     0.010 A 
ATOM     38  C   UNL A   1      36.935  33.009  28.697  1.00  0.00     0.010 A 
ATOM     39  C   UNL A   1      36.711  31.864  29.481  1.00  0.00    -0.014 A 
BRANCH  39  40
ATOM     40  C   UNL A   1      37.860  31.180  30.116  1.00  0.00     0.031 A 
ATOM     41  C   UNL A   1      38.188  31.511  31.543  1.00  0.00     0.074 A 
ATOM     42  C   UNL A   1      38.602  30.296  29.426  1.00  0.00     0.049 A 
ATOM     43  N   UNL A   1      39.208  31.136  32.267  1.00  0.00    -0.248 NA
ATOM     44  C   UNL A   1      37.234  32.386  32.246  1.00  0.00     0.031 C 
ATOM     45  C   UNL A   1      38.337  29.856  28.057  1.00  0.00     0.029 A 
ATOM     46  N   UNL A   1      39.745  29.623  29.781  1.00  0.00    -0.354 N 
ATOM     47  C   UNL A   1      39.018  31.718  33.515  1.00  0.00     0.074 A 
ATOM     48  C   UNL A   1      37.800  32.497  33.438  1.00  0.00     0.031 C 
ATOM     49  C   UNL A   1      39.308  29.005  27.678  1.00  0.00     0.029 A 
ATOM     50  C   UNL A   1      40.284  28.877  28.758  1.00  0.00     0.049 A 
ATOM     51  H   UNL A   1      40.140  29.670  30.681  1.00  0.00     0.167 HD
ATOM     52  C   UNL A   1      39.789  31.608  34.623  1.00  0.00     0.034 A 
ATOM     53  C   UNL A   1      41.454  28.208  28.694  1.00  0.00     0.034 A 
ATOM     54  C   UNL A   1      41.018  30.860  34.673  1.00  0.00     0.049 A 
ATOM     55  C   UNL A   1      42.367  28.221  29.901  1.00  0.00     0.074 A 
ATOM     56  C   UNL A   1      41.884  30.692  35.739  1.00  0.00     0.029 A 
ATOM     57  N   UNL A   1      41.567  30.168  33.601  1.00  0.00    -0.354 N 
ATOM     58  N   UNL A   1      42.179  28.776  31.077  1.00  0.00    -0.248 NA
ATOM     59  C   UNL A   1      43.655  27.524  29.768  1.00  0.00     0.031 C 
ATOM     60  C   UNL A   1      42.986  29.952  35.295  1.00  0.00     0.029 A 
ATOM     61  C   UNL A   1      42.776  29.602  33.970  1.00  0.00     0.049 A 
ATOM     62  H   UNL A   1      41.156  30.091  32.709  1.00  0.00     0.167 HD
ATOM     63  C   UNL A   1      43.311  28.469  31.828  1.00  0.00     0.074 A 
ATOM     64  C   UNL A   1      44.168  27.669  30.980  1.00  0.00     0.031 C 
ATOM     65  C   UNL A   1      43.617  28.813  33.104  1.00  0.00     0.034 A 
BRANCH  52  66
ATOM     66  C   UNL A   1      39.341  32.357  35.851  1.00  0.00     0.023 A 
ATOM     67  C   UNL A   1      38.603  31.726  36.866  1.00  0.00     0.031 A 
ATOM     68  C   UNL A   1      39.644  33.721  36.001  1.00  0.00     0.131 A 
ATOM     69  C   UNL A   1      38.149  32.469  37.965  1.00  0.00     0.055 A 
ATOM     70  C   UNL A   1      39.245  34.441  37.127  1.00  0.00     0.041 A 
ATOM     71  F   UNL A   1      40.325  34.378  35.049  1.00  0.00    -0.206 F 
ATOM     72  C   UNL A   1      38.484  33.818  38.114  1.00  0.00     0.022 A 
BRANCH  69  73
ATOM     73  S   UNL A   1      37.026  31.676  39.146  1.00  0.00     0.124 S 
ATOM     74  O   UNL A   1      37.847  31.638  40.354  1.00  0.00    -0.237 OA
ATOM     75  O   UNL A   1      35.894  32.595  39.173  1.00  0.00    -0.237 OA
ATOM     76  O   UNL A   1      36.756  30.374  38.542  1.00  0.00    -0.744 OA
ENDBRANCH  69  73
ENDBRANCH  52  66
BRANCH  53  77
ATOM     77  C   UNL A   1      41.884  27.529  27.438  1.00  0.00     0.023 A 
ATOM     78  C   UNL A   1      41.912  26.129  27.346  1.00  0.00     0.031 A 
ATOM     79  C   UNL A   1      42.372  28.269  26.345  1.00  0.00     0.131 A 
ATOM     80  C   UNL A   1      42.473  25.510  26.217  1.00  0.00     0.055 A 
ATOM     81  C   UNL A   1      42.872  27.650  25.198  1.00  0.00     0.041 A 
ATOM     82  F   UNL A   1      42.378  29.611  26.381  1.00  0.00    -0.206 F 
ATOM     83  C   UNL A   1      42.942  26.262  25.137  1.00  0.00     0.022 A 
BRANCH  80  84
ATOM     84  S   UNL A   1      42.695  23.710  26.236  1.00  0.00     0.124 S 
ATOM     85  O   UNL A   1      42.958  23.430  24.829  1.00  0.00    -0.237 OA
ATOM     86  O   UNL A   1      43.825  23.554  27.144  1.00  0.00    -0.237 OA
ATOM     87  O   UNL A   1      41.416  23.215  26.742  1.00  0.00    -0.744 OA
ENDBRANCH  80  84
ENDBRANCH  53  77
BRANCH  65  88
ATOM     88  C   UNL A   1      44.915  28.287  33.665  1.00  0.00     0.023 A 
ATOM     89  C   UNL A   1      46.104  29.031  33.591  1.00  0.00     0.031 A 
ATOM     90  C   UNL A   1      44.957  27.026  34.284  1.00  0.00     0.131 A 
ATOM     91  C   UNL A   1      47.298  28.490  34.090  1.00  0.00     0.055 A 
ATOM     92  C   UNL A   1      46.136  26.514  34.826  1.00  0.00     0.041 A 
ATOM     93  F   UNL A   1      43.848  26.276  34.382  1.00  0.00    -0.206 F 
ATOM     94  C   UNL A   1      47.318  27.243  34.722  1.00  0.00     0.022 A 
BRANCH  91  95
ATOM     95  S   UNL A   1      48.842  29.410  33.850  1.00  0.00     0.124 S 
ATOM     96  O   UNL A   1      49.453  29.326  35.172  1.00  0.00    -0.237 OA
ATOM     97  O   UNL A   1      49.501  28.648  32.795  1.00  0.00    -0.237 OA
ATOM     98  O   UNL A   1      48.390  30.744  33.459  1.00  0.00    -0.744 OA
ENDBRANCH  91  95
ENDBRANCH  65  88
ENDBRANCH  39  40
ENDBRANCH  32  34
ENDBRANCH  31  32
ENDBRANCH  30  31
ENDBRANCH  29  30
ENDBRANCH  28  29
ENDBRANCH   1  28
TORSDOF 22
ENDMDL
MODEL 2
REMARK VINA RESULT:     -10.6      5.136     10.765
REMARK SMILES C[N@H+]1CCO[C@H](c2noc(-c3ccccc3C(=O)OCCOCCOCCOC(=O)c3ccc(-c4c5nc(c(-c6cc(S(=O)(=O)[O-])ccc6F)c6ccc([nH]6)c(-c6cc(S(=O)(=O)[O-])ccc6F)c6nc(c(-c7cc(S(=O)(=O)[O-])ccc7F)c7ccc4[nH]7)C=C6)C=C5)cc3)n2)C1
REMARK SMILES IDX 24 1 23 2 22 3 21 4 20 5 19 6 17 7 18 8 16 9 11 10 12 11
REMARK SMILES IDX 13 12 15 13 14 14 10 15 7 16 8 17 94 18 9 19 6 20 1 21 2 22
REMARK SMILES IDX 3 23 95 24 4 26 5 27 25 28 26 29 27 30 28 31 29 32 30 33
REMARK SMILES IDX 31 34 32 35 93 36 33 37 92 38 34 39 35 40 36 41 86 42 37 43
REMARK SMILES IDX 91 44 85 45 87 46 38 47 90 48 84 49 83 50 39 52 71 53 51 54
REMARK SMILES IDX 70 55 52 56 55 57 69 58 88 59 53 60 54 61 68 63 89 64 56 65
REMARK SMILES IDX 40 66 41 67 49 68 42 69 48 70 50 71 47 72 43 73 44 74 45 75
REMARK SMILES IDX 46 76 72 77 73 78 81 79 74 80 80 81 82 82 79 83 75 84 76 85
REMARK SMILES IDX 77 86 78 87 57 88 58 89 66 90 59 91 65 92 67 93 64 94 60 95
REMARK SMILES IDX 61 96 62 97 63 98
REMARK H PARENT 2 25 87 51 55 62
REMARK Flexibility Score: inf
ROOT
ATOM      1  C   UNL A   1      36.920  22.202  25.168  1.00  0.00     0.188 C 
ENDROOT
BRANCH   1   2
ATOM      2  C   UNL A   1      35.915  21.732  26.243  1.00  0.00     0.188 C 
BRANCH   2   3
ATOM      3  O   UNL A   1      34.784  22.536  26.549  1.00  0.00    -0.376 OA
BRANCH   3   4
ATOM      4  C   UNL A   1      33.990  22.180  27.679  1.00  0.00     0.202 C 
BRANCH   4   5
ATOM      5  C   UNL A   1      32.517  22.573  27.647  1.00  0.00     0.261 C 
BRANCH   5   6
ATOM      6  O   UNL A   1      32.378  23.759  26.856  1.00  0.00    -0.460 OA
BRANCH   6   7
ATOM      7  C   UNL A   1      31.116  24.104  26.533  1.00  0.00     0.339 C 
ATOM      8  O   UNL A   1      30.096  23.783  27.121  1.00  0.00    -0.246 OA
BRANCH   7   9
ATOM      9  C   UNL A   1      31.171  25.142  25.483  1.00  0.00     0.072 A 
ATOM     10  C   UNL A   1      31.600  24.907  24.162  1.00  0.00     0.054 A 
ATOM     11  C   UNL A   1      31.588  25.999  23.270  1.00  0.00     0.015 A 
ATOM     12  C   UNL A   1      31.211  27.280  23.690  1.00  0.00     0.001 A 
ATOM     13  C   UNL A   1      30.802  26.434  25.903  1.00  0.00     0.016 A 
ATOM     14  C   UNL A   1      30.835  27.501  25.010  1.00  0.00     0.001 A 
BRANCH  10  15
ATOM     15  C   UNL A   1      32.126  23.613  23.729  1.00  0.00     0.258 A 
ATOM     16  C   UNL A   1      32.585  21.578  23.538  1.00  0.00     0.206 A 
ATOM     17  N   UNL A   1      33.777  22.166  23.367  1.00  0.00    -0.059 NA
ATOM     18  N   UNL A   1      31.530  22.449  23.632  1.00  0.00    -0.189 NA
ATOM     19  O   UNL A   1      33.478  23.526  23.513  1.00  0.00    -0.334 OA
BRANCH  16  20
ATOM     20  C   UNL A   1      32.432  20.108  23.798  1.00  0.00     0.245 C 
ATOM     21  C   UNL A   1      32.635  17.600  25.752  1.00  0.00     0.332 C 
ATOM     22  N   UNL A   1      33.654  18.088  24.829  1.00  0.00    -0.333 N 
ATOM     23  C   UNL A   1      33.528  17.477  23.490  1.00  0.00     0.290 C 
ATOM     24  C   UNL A   1      33.600  19.566  24.674  1.00  0.00     0.303 C 
ATOM     25  H   UNL A   1      34.548  17.819  25.239  1.00  0.00     0.348 HD
ATOM     26  C   UNL A   1      32.317  17.989  22.701  1.00  0.00     0.222 C 
ATOM     27  O   UNL A   1      32.369  19.402  22.537  1.00  0.00    -0.358 OA
ENDBRANCH  16  20
ENDBRANCH  10  15
ENDBRANCH   7   9
ENDBRANCH   6   7
ENDBRANCH   5   6
ENDBRANCH   4   5
ENDBRANCH   3   4
ENDBRANCH   2   3
ENDBRANCH   1   2
BRANCH   1  28
ATOM     28  O   UNL A   1      37.757  21.295  24.479  1.00  0.00    -0.376 OA
BRANCH  28  29
ATOM     29  C   UNL A   1      37.852  19.943  24.891  1.00  0.00     0.202 C 
BRANCH  29  30
ATOM     30  C   UNL A   1      39.180  19.355  25.376  1.00  0.00     0.261 C 
BRANCH  30  31
ATOM     31  O   UNL A   1      39.598  19.808  26.667  1.00  0.00    -0.460 OA
BRANCH  31  32
ATOM     32  C   UNL A   1      40.935  19.994  26.806  1.00  0.00     0.338 C 
ATOM     33  O   UNL A   1      41.821  19.180  26.614  1.00  0.00    -0.246 OA
BRANCH  32  34
ATOM     34  C   UNL A   1      41.181  21.423  27.059  1.00  0.00     0.060 A 
ATOM     35  C   UNL A   1      40.517  22.367  26.263  1.00  0.00     0.016 A 
ATOM     36  C   UNL A   1      42.048  21.829  28.075  1.00  0.00     0.016 A 
ATOM     37  C   UNL A   1      40.718  23.728  26.485  1.00  0.00     0.010 A 
ATOM     38  C   UNL A   1      42.270  23.192  28.276  1.00  0.00     0.010 A 
ATOM     39  C   UNL A   1      41.615  24.145  27.475  1.00  0.00    -0.014 A 
BRANCH  39  40
ATOM     40  C   UNL A   1      41.988  25.573  27.591  1.00  0.00     0.031 A 
ATOM     41  C   UNL A   1      43.333  26.003  27.081  1.00  0.00     0.074 A 
ATOM     42  C   UNL A   1      41.149  26.460  28.154  1.00  0.00     0.049 A 
ATOM     43  N   UNL A   1      43.925  27.163  27.181  1.00  0.00    -0.248 NA
ATOM     44  C   UNL A   1      44.115  24.983  26.362  1.00  0.00     0.031 C 
ATOM     45  C   UNL A   1      39.798  26.163  28.628  1.00  0.00     0.029 A 
ATOM     46  N   UNL A   1      41.322  27.791  28.441  1.00  0.00    -0.354 N 
ATOM     47  C   UNL A   1      45.144  27.020  26.530  1.00  0.00     0.074 A 
ATOM     48  C   UNL A   1      45.220  25.650  26.067  1.00  0.00     0.031 C 
ATOM     49  C   UNL A   1      39.273  27.277  29.171  1.00  0.00     0.029 A 
ATOM     50  C   UNL A   1      40.266  28.348  29.125  1.00  0.00     0.049 A 
ATOM     51  H   UNL A   1      42.124  28.299  28.182  1.00  0.00     0.167 HD
ATOM     52  C   UNL A   1      46.110  27.949  26.335  1.00  0.00     0.034 A 
ATOM     53  C   UNL A   1      40.141  29.569  29.687  1.00  0.00     0.034 A 
ATOM     54  C   UNL A   1      46.037  29.298  26.835  1.00  0.00     0.049 A 
ATOM     55  C   UNL A   1      41.295  30.541  29.579  1.00  0.00     0.074 A 
ATOM     56  C   UNL A   1      46.963  30.318  26.707  1.00  0.00     0.029 A 
ATOM     57  N   UNL A   1      44.981  29.809  27.578  1.00  0.00    -0.354 N 
ATOM     58  N   UNL A   1      42.446  30.396  28.962  1.00  0.00    -0.248 NA
ATOM     59  C   UNL A   1      41.137  31.839  30.251  1.00  0.00     0.031 C 
ATOM     60  C   UNL A   1      46.496  31.425  27.424  1.00  0.00     0.029 A 
ATOM     61  C   UNL A   1      45.249  31.118  27.944  1.00  0.00     0.049 A 
ATOM     62  H   UNL A   1      44.162  29.314  27.810  1.00  0.00     0.167 HD
ATOM     63  C   UNL A   1      43.132  31.594  29.149  1.00  0.00     0.074 A 
ATOM     64  C   UNL A   1      42.261  32.455  29.922  1.00  0.00     0.031 C 
ATOM     65  C   UNL A   1      44.368  31.955  28.722  1.00  0.00     0.034 A 
BRANCH  52  66
ATOM     66  C   UNL A   1      47.345  27.515  25.589  1.00  0.00     0.023 A 
ATOM     67  C   UNL A   1      48.455  26.975  26.261  1.00  0.00     0.031 A 
ATOM     68  C   UNL A   1      47.417  27.655  24.193  1.00  0.00     0.131 A 
ATOM     69  C   UNL A   1      49.611  26.640  25.541  1.00  0.00     0.055 A 
ATOM     70  C   UNL A   1      48.546  27.261  23.474  1.00  0.00     0.041 A 
ATOM     71  F   UNL A   1      46.395  28.189  23.507  1.00  0.00    -0.206 F 
ATOM     72  C   UNL A   1      49.656  26.758  24.149  1.00  0.00     0.022 A 
BRANCH  69  73
ATOM     73  S   UNL A   1      51.093  26.145  26.459  1.00  0.00     0.124 S 
ATOM     74  O   UNL A   1      50.705  24.829  26.959  1.00  0.00    -0.237 OA
ATOM     75  O   UNL A   1      52.124  26.158  25.428  1.00  0.00    -0.237 OA
ATOM     76  O   UNL A   1      51.224  27.180  27.483  1.00  0.00    -0.744 OA
ENDBRANCH  69  73
ENDBRANCH  52  66
BRANCH  53  77
ATOM     77  C   UNL A   1      38.924  29.936  30.467  1.00  0.00     0.023 A 
ATOM     78  C   UNL A   1      38.006  30.876  29.973  1.00  0.00     0.031 A 
ATOM     79  C   UNL A   1      38.714  29.430  31.762  1.00  0.00     0.131 A 
ATOM     80  C   UNL A   1      36.957  31.328  30.790  1.00  0.00     0.055 A 
ATOM     81  C   UNL A   1      37.634  29.837  32.549  1.00  0.00     0.041 A 
ATOM     82  F   UNL A   1      39.565  28.536  32.290  1.00  0.00    -0.206 F 
ATOM     83  C   UNL A   1      36.758  30.805  32.069  1.00  0.00     0.022 A 
BRANCH  80  84
ATOM     84  S   UNL A   1      35.930  32.702  30.200  1.00  0.00     0.124 S 
ATOM     85  O   UNL A   1      34.684  32.020  29.869  1.00  0.00    -0.237 OA
ATOM     86  O   UNL A   1      35.893  33.575  31.367  1.00  0.00    -0.237 OA
ATOM     87  O   UNL A   1      36.680  33.221  29.058  1.00  0.00    -0.744 OA
ENDBRANCH  80  84
ENDBRANCH  53  77
BRANCH  65  88
ATOM     88  C   UNL A   1      44.826  33.354  29.048  1.00  0.00     0.023 A 
ATOM     89  C   UNL A   1      44.469  34.452  28.248  1.00  0.00     0.031 A 
ATOM     90  C   UNL A   1      45.627  33.589  30.180  1.00  0.00     0.131 A 
ATOM     91  C   UNL A   1      44.948  35.732  28.564  1.00  0.00     0.055 A 
ATOM     92  C   UNL A   1      46.057  34.872  30.520  1.00  0.00     0.041 A 
ATOM     93  F   UNL A   1      45.995  32.576  30.978  1.00  0.00    -0.206 F 
ATOM     94  C   UNL A   1      45.726  35.951  29.705  1.00  0.00     0.022 A 
BRANCH  91  95
ATOM     95  S   UNL A   1      44.591  37.103  27.432  1.00  0.00     0.124 S 
ATOM     96  O   UNL A   1      43.365  36.650  26.784  1.00  0.00    -0.237 OA
ATOM     97  O   UNL A   1      44.450  38.234  28.343  1.00  0.00    -0.237 OA
ATOM     98  O   UNL A   1      45.769  37.150  26.567  1.00  0.00    -0.744 OA
ENDBRANCH  91  95
ENDBRANCH  65  88
ENDBRANCH  39  40
ENDBRANCH  32  34
ENDBRANCH  31  32
ENDBRANCH  30  31
ENDBRANCH  29  30
ENDBRANCH  28  29
ENDBRANCH   1  28
TORSDOF 22
ENDMDL
MODEL 3
REMARK VINA RESULT:     -10.4      2.818      8.486
REMARK SMILES C[N@H+]1CCO[C@H](c2noc(-c3ccccc3C(=O)OCCOCCOCCOC(=O)c3ccc(-c4c5nc(c(-c6cc(S(=O)(=O)[O-])ccc6F)c6ccc([nH]6)c(-c6cc(S(=O)(=O)[O-])ccc6F)c6nc(c(-c7cc(S(=O)(=O)[O-])ccc7F)c7ccc4[nH]7)C=C6)C=C5)cc3)n2)C1
REMARK SMILES IDX 24 1 23 2 22 3 21 4 20 5 19 6 17 7 18 8 16 9 11 10 12 11
REMARK SMILES IDX 13 12 15 13 14 14 10 15 7 16 8 17 94 18 9 19 6 20 1 21 2 22
REMARK SMILES IDX 3 23 95 24 4 26 5 27 25 28 26 29 27 30 28 31 29 32 30 33
REMARK SMILES IDX 31 34 32 35 93 36 33 37 92 38 34 39 35 40 36 41 86 42 37 43
REMARK SMILES IDX 91 44 85 45 87 46 38 47 90 48 84 49 83 50 39 52 71 53 51 54
REMARK SMILES IDX 70 55 52 56 55 57 69 58 88 59 53 60 54 61 68 63 89 64 56 65
REMARK SMILES IDX 40 66 41 67 49 68 42 69 48 70 50 71 47 72 43 73 44 74 45 75
REMARK SMILES IDX 46 76 72 77 73 78 81 79 74 80 80 81 82 82 79 83 75 84 76 85
REMARK SMILES IDX 77 86 78 87 57 88 58 89 66 90 59 91 65 92 67 93 64 94 60 95
REMARK SMILES IDX 61 96 62 97 63 98
REMARK H PARENT 2 25 87 51 55 62
REMARK Flexibility Score: inf
ROOT
ATOM      1  C   UNL A   1      35.034  30.428  27.983  1.00  0.00     0.188 C 
ENDROOT
BRANCH   1   2
ATOM      2  C   UNL A   1      34.998  29.132  27.143  1.00  0.00     0.188 C 
BRANCH   2   3
ATOM      3  O   UNL A   1      33.756  28.489  26.894  1.00  0.00    -0.376 OA
BRANCH   3   4
ATOM      4  C   UNL A   1      33.737  27.388  25.988  1.00  0.00     0.202 C 
BRANCH   4   5
ATOM      5  C   UNL A   1      33.981  27.695  24.514  1.00  0.00     0.261 C 
BRANCH   5   6
ATOM      6  O   UNL A   1      33.738  26.506  23.753  1.00  0.00    -0.460 OA
BRANCH   6   7
ATOM      7  C   UNL A   1      33.105  26.682  22.577  1.00  0.00     0.339 C 
ATOM      8  O   UNL A   1      33.487  26.316  21.478  1.00  0.00    -0.246 OA
BRANCH   7   9
ATOM      9  C   UNL A   1      31.742  27.182  22.852  1.00  0.00     0.072 A 
ATOM     10  C   UNL A   1      30.734  26.422  23.477  1.00  0.00     0.054 A 
ATOM     11  C   UNL A   1      29.484  27.042  23.681  1.00  0.00     0.015 A 
ATOM     12  C   UNL A   1      29.235  28.346  23.238  1.00  0.00     0.001 A 
ATOM     13  C   UNL A   1      31.484  28.490  22.400  1.00  0.00     0.016 A 
ATOM     14  C   UNL A   1      30.229  29.063  22.581  1.00  0.00     0.001 A 
BRANCH  10  15
ATOM     15  C   UNL A   1      30.920  25.016  23.830  1.00  0.00     0.258 A 
ATOM     16  C   UNL A   1      31.696  23.173  24.457  1.00  0.00     0.206 A 
ATOM     17  N   UNL A   1      31.027  22.847  23.343  1.00  0.00    -0.059 NA
ATOM     18  N   UNL A   1      31.539  24.477  24.854  1.00  0.00    -0.189 NA
ATOM     19  O   UNL A   1      30.522  24.079  22.910  1.00  0.00    -0.334 OA
BRANCH  16  20
ATOM     20  C   UNL A   1      32.686  22.254  25.112  1.00  0.00     0.245 C 
ATOM     21  C   UNL A   1      35.626  21.646  26.176  1.00  0.00     0.332 C 
ATOM     22  N   UNL A   1      35.077  21.331  24.861  1.00  0.00    -0.333 N 
ATOM     23  C   UNL A   1      34.436  20.001  24.832  1.00  0.00     0.290 C 
ATOM     24  C   UNL A   1      34.078  22.340  24.421  1.00  0.00     0.303 C 
ATOM     25  H   UNL A   1      35.873  21.336  24.223  1.00  0.00     0.348 HD
ATOM     26  C   UNL A   1      33.106  19.952  25.593  1.00  0.00     0.222 C 
ATOM     27  O   UNL A   1      32.179  20.900  25.073  1.00  0.00    -0.358 OA
ENDBRANCH  16  20
ENDBRANCH  10  15
ENDBRANCH   7   9
ENDBRANCH   6   7
ENDBRANCH   5   6
ENDBRANCH   4   5
ENDBRANCH   3   4
ENDBRANCH   2   3
ENDBRANCH   1   2
BRANCH   1  28
ATOM     28  O   UNL A   1      33.871  31.193  28.231  1.00  0.00    -0.376 OA
BRANCH  28  29
ATOM     29  C   UNL A   1      33.329  32.031  27.224  1.00  0.00     0.202 C 
BRANCH  29  30
ATOM     30  C   UNL A   1      32.521  33.281  27.585  1.00  0.00     0.261 C 
BRANCH  30  31
ATOM     31  O   UNL A   1      33.309  34.412  27.964  1.00  0.00    -0.460 OA
BRANCH  31  32
ATOM     32  C   UNL A   1      33.376  34.645  29.299  1.00  0.00     0.338 C 
ATOM     33  O   UNL A   1      32.526  35.157  30.006  1.00  0.00    -0.246 OA
BRANCH  32  34
ATOM     34  C   UNL A   1      34.595  34.006  29.821  1.00  0.00     0.060 A 
ATOM     35  C   UNL A   1      34.482  33.157  30.930  1.00  0.00     0.016 A 
ATOM     36  C   UNL A   1      35.834  34.235  29.220  1.00  0.00     0.016 A 
ATOM     37  C   UNL A   1      35.614  32.526  31.441  1.00  0.00     0.010 A 
ATOM     38  C   UNL A   1      36.972  33.626  29.753  1.00  0.00     0.010 A 
ATOM     39  C   UNL A   1      36.867  32.779  30.870  1.00  0.00    -0.014 A 
BRANCH  39  40
ATOM     40  C   UNL A   1      38.099  32.277  31.520  1.00  0.00     0.031 A 
ATOM     41  C   UNL A   1      38.841  31.147  30.868  1.00  0.00     0.074 A 
ATOM     42  C   UNL A   1      38.533  32.809  32.677  1.00  0.00     0.049 A 
ATOM     43  N   UNL A   1      39.866  30.466  31.306  1.00  0.00    -0.248 NA
ATOM     44  C   UNL A   1      38.359  30.730  29.541  1.00  0.00     0.031 C 
ATOM     45  C   UNL A   1      37.924  33.947  33.365  1.00  0.00     0.029 A 
ATOM     46  N   UNL A   1      39.581  32.448  33.486  1.00  0.00    -0.354 N 
ATOM     47  C   UNL A   1      40.160  29.546  30.308  1.00  0.00     0.074 A 
ATOM     48  C   UNL A   1      39.185  29.736  29.254  1.00  0.00     0.031 C 
ATOM     49  C   UNL A   1      38.595  34.173  34.509  1.00  0.00     0.029 A 
ATOM     50  C   UNL A   1      39.648  33.170  34.655  1.00  0.00     0.049 A 
ATOM     51  H   UNL A   1      40.222  31.739  33.253  1.00  0.00     0.167 HD
ATOM     52  C   UNL A   1      41.156  28.629  30.273  1.00  0.00     0.034 A 
ATOM     53  C   UNL A   1      40.441  33.005  35.734  1.00  0.00     0.034 A 
ATOM     54  C   UNL A   1      42.096  28.426  31.346  1.00  0.00     0.049 A 
ATOM     55  C   UNL A   1      41.451  31.879  35.730  1.00  0.00     0.074 A 
ATOM     56  C   UNL A   1      43.136  27.517  31.422  1.00  0.00     0.029 A 
ATOM     57  N   UNL A   1      42.096  29.132  32.541  1.00  0.00    -0.354 N 
ATOM     58  N   UNL A   1      41.722  31.012  34.780  1.00  0.00    -0.248 NA
ATOM     59  C   UNL A   1      42.257  31.703  36.947  1.00  0.00     0.031 C 
ATOM     60  C   UNL A   1      43.725  27.631  32.686  1.00  0.00     0.029 A 
ATOM     61  C   UNL A   1      43.095  28.656  33.374  1.00  0.00     0.049 A 
ATOM     62  H   UNL A   1      41.476  29.865  32.763  1.00  0.00     0.167 HD
ATOM     63  C   UNL A   1      42.748  30.211  35.277  1.00  0.00     0.074 A 
ATOM     64  C   UNL A   1      43.057  30.706  36.602  1.00  0.00     0.031 C 
ATOM     65  C   UNL A   1      43.380  29.161  34.695  1.00  0.00     0.034 A 
BRANCH  52  66
ATOM     66  C   UNL A   1      41.242  27.749  29.054  1.00  0.00     0.023 A 
ATOM     67  C   UNL A   1      42.215  27.962  28.062  1.00  0.00     0.031 A 
ATOM     68  C   UNL A   1      40.331  26.694  28.873  1.00  0.00     0.131 A 
ATOM     69  C   UNL A   1      42.224  27.164  26.910  1.00  0.00     0.055 A 
ATOM     70  C   UNL A   1      40.386  25.861  27.755  1.00  0.00     0.041 A 
ATOM     71  F   UNL A   1      39.367  26.463  29.778  1.00  0.00    -0.206 F 
ATOM     72  C   UNL A   1      41.331  26.099  26.760  1.00  0.00     0.022 A 
BRANCH  69  73
ATOM     73  S   UNL A   1      43.354  27.598  25.561  1.00  0.00     0.124 S 
ATOM     74  O   UNL A   1      42.424  28.066  24.536  1.00  0.00    -0.237 OA
ATOM     75  O   UNL A   1      44.198  28.620  26.171  1.00  0.00    -0.237 OA
ATOM     76  O   UNL A   1      44.026  26.337  25.256  1.00  0.00    -0.744 OA
ENDBRANCH  69  73
ENDBRANCH  52  66
BRANCH  53  77
ATOM     77  C   UNL A   1      40.283  33.863  36.944  1.00  0.00     0.023 A 
ATOM     78  C   UNL A   1      39.593  33.397  38.074  1.00  0.00     0.031 A 
ATOM     79  C   UNL A   1      40.729  35.197  36.950  1.00  0.00     0.131 A 
ATOM     80  C   UNL A   1      39.313  34.273  39.136  1.00  0.00     0.055 A 
ATOM     81  C   UNL A   1      40.503  36.047  38.034  1.00  0.00     0.041 A 
ATOM     82  F   UNL A   1      41.386  35.699  35.893  1.00  0.00    -0.206 F 
ATOM     83  C   UNL A   1      39.775  35.591  39.129  1.00  0.00     0.022 A 
BRANCH  80  84
ATOM     84  S   UNL A   1      38.229  33.697  40.472  1.00  0.00     0.124 S 
ATOM     85  O   UNL A   1      37.136  33.088  39.724  1.00  0.00    -0.237 OA
ATOM     86  O   UNL A   1      39.102  32.779  41.194  1.00  0.00    -0.237 OA
ATOM     87  O   UNL A   1      37.889  34.925  41.187  1.00  0.00    -0.744 OA
ENDBRANCH  80  84
ENDBRANCH  53  77
BRANCH  65  88
ATOM     88  C   UNL A   1      44.495  28.512  35.476  1.00  0.00     0.023 A 
ATOM     89  C   UNL A   1      44.243  27.502  36.419  1.00  0.00     0.031 A 
ATOM     90  C   UNL A   1      45.828  28.909  35.267  1.00  0.00     0.131 A 
ATOM     91  C   UNL A   1      45.303  26.951  37.153  1.00  0.00     0.055 A 
ATOM     92  C   UNL A   1      46.885  28.320  35.961  1.00  0.00     0.041 A 
ATOM     93  F   UNL A   1      46.123  29.868  34.376  1.00  0.00    -0.206 F 
ATOM     94  C   UNL A   1      46.625  27.342  36.917  1.00  0.00     0.022 A 
BRANCH  91  95
ATOM     95  S   UNL A   1      44.931  25.756  38.464  1.00  0.00     0.124 S 
ATOM     96  O   UNL A   1      46.235  25.580  39.094  1.00  0.00    -0.237 OA
ATOM     97  O   UNL A   1      43.931  26.462  39.258  1.00  0.00    -0.237 OA
ATOM     98  O   UNL A   1      44.431  24.591  37.736  1.00  0.00    -0.744 OA
ENDBRANCH  91  95
ENDBRANCH  65  88
ENDBRANCH  39  40
ENDBRANCH  32  34
ENDBRANCH  31  32
ENDBRANCH  30  31
ENDBRANCH  29  30
ENDBRANCH  28  29
ENDBRANCH   1  28
TORSDOF 22
ENDMDL
