MODEL 1
REMARK VINA RESULT:     -11.0      0.000      0.000
REMARK SMILES O=C(OCCOCCOCCOC(=O)c1cccc(F)c1N1CCN2C(=O)NC[C@@H]2C1)c1ccc(-c2c3nc(c(-c4cc(S(=O)(=O)[O-])ccc4F)c4ccc([nH]4)c(-c4cc(S(=O)(=O)[O-])ccc4F)c4nc(c(-c5cc(S(=O)(=O)[O-])ccc5F)c5ccc2[nH]5)C=C4)C=C3)cc1
REMARK SMILES IDX 7 1 6 2 5 3 4 4 3 5 2 6 1 7 32 8 33 9 94 10 34 11 93 12
REMARK SMILES IDX 35 13 36 14 37 15 87 16 38 17 92 18 86 19 88 20 39 21 91 22
REMARK SMILES IDX 85 23 84 24 40 26 72 27 52 28 71 29 53 30 56 31 70 32 89 33
REMARK SMILES IDX 54 34 55 35 69 37 90 38 57 39 41 40 42 41 50 42 43 43 49 44
REMARK SMILES IDX 51 45 48 46 44 47 45 48 46 49 47 50 73 51 74 52 82 53 75 54
REMARK SMILES IDX 81 55 83 56 80 57 76 58 77 59 78 60 79 61 58 62 59 63 67 64
REMARK SMILES IDX 60 65 66 66 68 67 65 68 61 69 62 70 63 71 64 72 8 73 9 74
REMARK SMILES IDX 10 75 11 76 12 77 13 78 14 79 15 80 16 81 21 82 17 83 19 84
REMARK SMILES IDX 18 85 20 86 22 87 23 88 31 89 24 90 30 91 25 92 29 93 26 94
REMARK SMILES IDX 28 95 27 96
REMARK H PARENT 88 25 56 36 28 97
REMARK Flexibility Score: inf
ROOT
ATOM      1  C   UNL A   1      33.801  20.536  25.589  1.00  0.00     0.188 C 
ENDROOT
BRANCH   1   2
ATOM      2  O   UNL A   1      34.871  20.421  24.670  1.00  0.00    -0.376 OA
BRANCH   2   3
ATOM      3  C   UNL A   1      35.796  21.504  24.647  1.00  0.00     0.202 C 
BRANCH   3   4
ATOM      4  C   UNL A   1      37.316  21.181  24.615  1.00  0.00     0.261 C 
BRANCH   4   5
ATOM      5  O   UNL A   1      37.943  21.092  25.910  1.00  0.00    -0.460 OA
BRANCH   5   6
ATOM      6  C   UNL A   1      39.258  21.319  26.143  1.00  0.00     0.338 C 
ATOM      7  O   UNL A   1      40.045  20.382  26.218  1.00  0.00    -0.246 OA
BRANCH   6   8
ATOM      8  C   UNL A   1      39.662  22.665  26.627  1.00  0.00     0.060 A 
ATOM      9  C   UNL A   1      39.059  23.833  26.176  1.00  0.00     0.016 A 
ATOM     10  C   UNL A   1      40.697  22.761  27.578  1.00  0.00     0.016 A 
ATOM     11  C   UNL A   1      39.537  25.067  26.550  1.00  0.00     0.010 A 
ATOM     12  C   UNL A   1      41.160  24.010  28.000  1.00  0.00     0.010 A 
ATOM     13  C   UNL A   1      40.615  25.162  27.426  1.00  0.00    -0.014 A 
BRANCH  13  14
ATOM     14  C   UNL A   1      41.262  26.481  27.475  1.00  0.00     0.031 A 
ATOM     15  C   UNL A   1      40.648  27.511  28.377  1.00  0.00     0.074 A 
ATOM     16  C   UNL A   1      42.501  26.607  26.971  1.00  0.00     0.049 A 
ATOM     17  N   UNL A   1      41.107  28.678  28.726  1.00  0.00    -0.248 NA
ATOM     18  C   UNL A   1      39.362  27.159  29.006  1.00  0.00     0.031 C 
ATOM     19  C   UNL A   1      43.214  25.543  26.257  1.00  0.00     0.029 A 
ATOM     20  N   UNL A   1      43.410  27.623  27.047  1.00  0.00    -0.354 N 
ATOM     21  C   UNL A   1      40.164  29.203  29.603  1.00  0.00     0.074 A 
ATOM     22  C   UNL A   1      39.098  28.239  29.722  1.00  0.00     0.031 C 
ATOM     23  C   UNL A   1      44.468  25.948  26.004  1.00  0.00     0.029 A 
ATOM     24  C   UNL A   1      44.618  27.321  26.463  1.00  0.00     0.049 A 
ATOM     25  H   UNL A   1      43.219  28.488  27.477  1.00  0.00     0.167 HD
ATOM     26  C   UNL A   1      40.201  30.391  30.246  1.00  0.00     0.034 A 
ATOM     27  C   UNL A   1      45.713  28.085  26.299  1.00  0.00     0.034 A 
ATOM     28  C   UNL A   1      41.289  31.317  30.078  1.00  0.00     0.049 A 
ATOM     29  C   UNL A   1      45.671  29.465  26.888  1.00  0.00     0.074 A 
ATOM     30  C   UNL A   1      41.425  32.594  30.580  1.00  0.00     0.029 A 
ATOM     31  N   UNL A   1      42.432  31.050  29.328  1.00  0.00    -0.354 N 
ATOM     32  N   UNL A   1      44.721  30.007  27.621  1.00  0.00    -0.248 NA
ATOM     33  C   UNL A   1      46.815  30.341  26.631  1.00  0.00     0.031 C 
ATOM     34  C   UNL A   1      42.612  33.129  30.069  1.00  0.00     0.029 A 
ATOM     35  C   UNL A   1      43.262  32.154  29.321  1.00  0.00     0.049 A 
ATOM     36  H   UNL A   1      42.622  30.200  28.869  1.00  0.00     0.167 HD
ATOM     37  C   UNL A   1      45.159  31.286  27.929  1.00  0.00     0.074 A 
ATOM     38  C   UNL A   1      46.460  31.434  27.298  1.00  0.00     0.031 C 
ATOM     39  C   UNL A   1      44.549  32.247  28.669  1.00  0.00     0.034 A 
BRANCH  26  40
ATOM     40  C   UNL A   1      38.993  30.769  31.064  1.00  0.00     0.023 A 
ATOM     41  C   UNL A   1      37.927  31.517  30.529  1.00  0.00     0.031 A 
ATOM     42  C   UNL A   1      38.952  30.450  32.432  1.00  0.00     0.131 A 
ATOM     43  C   UNL A   1      36.903  31.975  31.374  1.00  0.00     0.055 A 
ATOM     44  C   UNL A   1      37.894  30.847  33.251  1.00  0.00     0.041 A 
ATOM     45  F   UNL A   1      39.959  29.771  33.003  1.00  0.00    -0.206 F 
ATOM     46  C   UNL A   1      36.868  31.626  32.726  1.00  0.00     0.022 A 
BRANCH  43  47
ATOM     47  S   UNL A   1      35.681  33.144  30.712  1.00  0.00     0.124 S 
ATOM     48  O   UNL A   1      34.433  32.414  30.920  1.00  0.00    -0.237 OA
ATOM     49  O   UNL A   1      35.879  34.320  31.551  1.00  0.00    -0.237 OA
ATOM     50  O   UNL A   1      36.079  33.302  29.314  1.00  0.00    -0.744 OA
ENDBRANCH  43  47
ENDBRANCH  26  40
BRANCH  27  51
ATOM     51  C   UNL A   1      46.863  27.563  25.507  1.00  0.00     0.023 A 
ATOM     52  C   UNL A   1      47.017  27.852  24.144  1.00  0.00     0.031 A 
ATOM     53  C   UNL A   1      47.882  26.823  26.143  1.00  0.00     0.131 A 
ATOM     54  C   UNL A   1      48.167  27.411  23.464  1.00  0.00     0.055 A 
ATOM     55  C   UNL A   1      49.034  26.413  25.471  1.00  0.00     0.041 A 
ATOM     56  F   UNL A   1      47.796  26.537  27.453  1.00  0.00    -0.206 F 
ATOM     57  C   UNL A   1      49.180  26.707  24.121  1.00  0.00     0.022 A 
BRANCH  54  58
ATOM     58  S   UNL A   1      48.337  27.783  21.696  1.00  0.00     0.124 S 
ATOM     59  O   UNL A   1      47.016  28.310  21.375  1.00  0.00    -0.237 OA
ATOM     60  O   UNL A   1      49.434  28.745  21.694  1.00  0.00    -0.237 OA
ATOM     61  O   UNL A   1      48.653  26.485  21.104  1.00  0.00    -0.744 OA
ENDBRANCH  54  58
ENDBRANCH  27  51
BRANCH  39  62
ATOM     62  C   UNL A   1      45.296  33.533  28.862  1.00  0.00     0.023 A 
ATOM     63  C   UNL A   1      46.210  33.691  29.914  1.00  0.00     0.031 A 
ATOM     64  C   UNL A   1      45.172  34.561  27.911  1.00  0.00     0.131 A 
ATOM     65  C   UNL A   1      46.964  34.868  29.997  1.00  0.00     0.055 A 
ATOM     66  C   UNL A   1      45.961  35.705  27.971  1.00  0.00     0.041 A 
ATOM     67  F   UNL A   1      44.314  34.440  26.886  1.00  0.00    -0.206 F 
ATOM     68  C   UNL A   1      46.864  35.864  29.020  1.00  0.00     0.022 A 
BRANCH  65  69
ATOM     69  S   UNL A   1      48.075  35.085  31.410  1.00  0.00     0.124 S 
ATOM     70  O   UNL A   1      48.922  36.185  30.959  1.00  0.00    -0.237 OA
ATOM     71  O   UNL A   1      47.151  35.395  32.496  1.00  0.00    -0.237 OA
ATOM     72  O   UNL A   1      48.746  33.790  31.519  1.00  0.00    -0.744 OA
ENDBRANCH  65  69
ENDBRANCH  39  62
ENDBRANCH  13  14
ENDBRANCH   6   8
ENDBRANCH   5   6
ENDBRANCH   4   5
ENDBRANCH   3   4
ENDBRANCH   2   3
ENDBRANCH   1   2
BRANCH   1  73
ATOM     73  C   UNL A   1      32.375  20.850  25.119  1.00  0.00     0.188 C 
BRANCH  73  74
ATOM     74  O   UNL A   1      31.662  21.891  25.743  1.00  0.00    -0.376 OA
BRANCH  74  75
ATOM     75  C   UNL A   1      32.379  22.647  26.708  1.00  0.00     0.202 C 
BRANCH  75  76
ATOM     76  C   UNL A   1      32.637  24.145  26.445  1.00  0.00     0.261 C 
BRANCH  76  77
ATOM     77  O   UNL A   1      31.600  25.071  26.854  1.00  0.00    -0.460 OA
BRANCH  77  78
ATOM     78  C   UNL A   1      30.835  25.605  25.858  1.00  0.00     0.340 C 
ATOM     79  O   UNL A   1      29.634  25.821  25.903  1.00  0.00    -0.246 OA
BRANCH  78  80
ATOM     80  C   UNL A   1      31.602  25.711  24.597  1.00  0.00     0.086 A 
ATOM     81  C   UNL A   1      31.261  24.714  23.656  1.00  0.00     0.018 A 
ATOM     82  C   UNL A   1      32.430  26.806  24.236  1.00  0.00     0.088 A 
ATOM     83  C   UNL A   1      31.712  24.791  22.342  1.00  0.00     0.004 A 
ATOM     84  C   UNL A   1      32.909  26.804  22.906  1.00  0.00     0.147 A 
ATOM     85  C   UNL A   1      32.547  25.835  21.970  1.00  0.00     0.041 A 
ATOM     86  F   UNL A   1      33.709  27.799  22.486  1.00  0.00    -0.205 F 
BRANCH  82  87
ATOM     87  N   UNL A   1      32.706  27.893  25.091  1.00  0.00    -0.365 N 
ATOM     88  C   UNL A   1      32.130  29.199  24.645  1.00  0.00     0.138 C 
ATOM     89  C   UNL A   1      34.113  28.076  25.559  1.00  0.00     0.143 C 
ATOM     90  C   UNL A   1      32.200  30.290  25.745  1.00  0.00     0.143 C 
ATOM     91  C   UNL A   1      34.014  28.939  26.825  1.00  0.00     0.125 C 
ATOM     92  N   UNL A   1      33.393  30.223  26.570  1.00  0.00    -0.317 N 
ATOM     93  C   UNL A   1      35.235  29.319  27.641  1.00  0.00     0.144 C 
ATOM     94  C   UNL A   1      33.717  31.094  27.603  1.00  0.00     0.317 C 
ATOM     95  N   UNL A   1      34.784  30.529  28.292  1.00  0.00    -0.336 N 
ATOM     96  O   UNL A   1      33.159  32.139  27.902  1.00  0.00    -0.249 OA
ATOM     97  H   UNL A   1      35.180  30.903  29.112  1.00  0.00     0.165 HD
ENDBRANCH  82  87
ENDBRANCH  78  80
ENDBRANCH  77  78
ENDBRANCH  76  77
ENDBRANCH  75  76
ENDBRANCH  74  75
ENDBRANCH  73  74
ENDBRANCH   1  73
TORSDOF 21
ENDMDL
MODEL 2
REMARK VINA RESULT:     -10.9      4.744     10.156
REMARK SMILES O=C(OCCOCCOCCOC(=O)c1cccc(F)c1N1CCN2C(=O)NC[C@@H]2C1)c1ccc(-c2c3nc(c(-c4cc(S(=O)(=O)[O-])ccc4F)c4ccc([nH]4)c(-c4cc(S(=O)(=O)[O-])ccc4F)c4nc(c(-c5cc(S(=O)(=O)[O-])ccc5F)c5ccc2[nH]5)C=C4)C=C3)cc1
REMARK SMILES IDX 7 1 6 2 5 3 4 4 3 5 2 6 1 7 32 8 33 9 94 10 34 11 93 12
REMARK SMILES IDX 35 13 36 14 37 15 87 16 38 17 92 18 86 19 88 20 39 21 91 22
REMARK SMILES IDX 85 23 84 24 40 26 72 27 52 28 71 29 53 30 56 31 70 32 89 33
REMARK SMILES IDX 54 34 55 35 69 37 90 38 57 39 41 40 42 41 50 42 43 43 49 44
REMARK SMILES IDX 51 45 48 46 44 47 45 48 46 49 47 50 73 51 74 52 82 53 75 54
REMARK SMILES IDX 81 55 83 56 80 57 76 58 77 59 78 60 79 61 58 62 59 63 67 64
REMARK SMILES IDX 60 65 66 66 68 67 65 68 61 69 62 70 63 71 64 72 8 73 9 74
REMARK SMILES IDX 10 75 11 76 12 77 13 78 14 79 15 80 16 81 21 82 17 83 19 84
REMARK SMILES IDX 18 85 20 86 22 87 23 88 31 89 24 90 30 91 25 92 29 93 26 94
REMARK SMILES IDX 28 95 27 96
REMARK H PARENT 88 25 56 36 28 97
REMARK Flexibility Score: inf
ROOT
ATOM      1  C   UNL A   1      32.067  28.623  22.702  1.00  0.00     0.188 C 
ENDROOT
BRANCH   1   2
ATOM      2  O   UNL A   1      32.295  29.406  23.858  1.00  0.00    -0.376 OA
BRANCH   2   3
ATOM      3  C   UNL A   1      31.526  29.065  25.008  1.00  0.00     0.202 C 
BRANCH   3   4
ATOM      4  C   UNL A   1      31.807  29.819  26.338  1.00  0.00     0.261 C 
BRANCH   4   5
ATOM      5  O   UNL A   1      32.682  30.958  26.214  1.00  0.00    -0.460 OA
BRANCH   5   6
ATOM      6  C   UNL A   1      33.248  31.608  27.259  1.00  0.00     0.338 C 
ATOM      7  O   UNL A   1      32.826  32.705  27.609  1.00  0.00    -0.246 OA
BRANCH   6   8
ATOM      8  C   UNL A   1      34.569  31.133  27.748  1.00  0.00     0.060 A 
ATOM      9  C   UNL A   1      34.865  29.784  27.908  1.00  0.00     0.016 A 
ATOM     10  C   UNL A   1      35.558  32.086  28.063  1.00  0.00     0.016 A 
ATOM     11  C   UNL A   1      36.051  29.382  28.477  1.00  0.00     0.010 A 
ATOM     12  C   UNL A   1      36.784  31.685  28.599  1.00  0.00     0.010 A 
ATOM     13  C   UNL A   1      36.995  30.330  28.866  1.00  0.00    -0.014 A 
BRANCH  13  14
ATOM     14  C   UNL A   1      38.041  29.829  29.770  1.00  0.00     0.031 A 
ATOM     15  C   UNL A   1      39.158  29.040  29.154  1.00  0.00     0.074 A 
ATOM     16  C   UNL A   1      38.115  30.341  31.010  1.00  0.00     0.049 A 
ATOM     17  N   UNL A   1      40.272  28.632  29.690  1.00  0.00    -0.248 NA
ATOM     18  C   UNL A   1      39.020  28.699  27.726  1.00  0.00     0.031 C 
ATOM     19  C   UNL A   1      37.143  31.283  31.575  1.00  0.00     0.029 A 
ATOM     20  N   UNL A   1      39.068  30.227  31.980  1.00  0.00    -0.354 N 
ATOM     21  C   UNL A   1      40.960  27.981  28.673  1.00  0.00     0.074 A 
ATOM     22  C   UNL A   1      40.134  28.028  27.491  1.00  0.00     0.031 C 
ATOM     23  C   UNL A   1      37.578  31.696  32.774  1.00  0.00     0.029 A 
ATOM     24  C   UNL A   1      38.809  30.990  33.095  1.00  0.00     0.049 A 
ATOM     25  H   UNL A   1      39.863  29.653  31.893  1.00  0.00     0.167 HD
ATOM     26  C   UNL A   1      42.178  27.397  28.737  1.00  0.00     0.034 A 
ATOM     27  C   UNL A   1      39.486  31.085  34.254  1.00  0.00     0.034 A 
ATOM     28  C   UNL A   1      42.949  27.372  29.950  1.00  0.00     0.049 A 
ATOM     29  C   UNL A   1      40.760  30.298  34.360  1.00  0.00     0.074 A 
ATOM     30  C   UNL A   1      44.148  26.739  30.201  1.00  0.00     0.029 A 
ATOM     31  N   UNL A   1      42.572  28.013  31.128  1.00  0.00    -0.354 N 
ATOM     32  N   UNL A   1      41.352  29.581  33.429  1.00  0.00    -0.248 NA
ATOM     33  C   UNL A   1      41.453  30.313  35.650  1.00  0.00     0.031 C 
ATOM     34  C   UNL A   1      44.457  26.931  31.552  1.00  0.00     0.029 A 
ATOM     35  C   UNL A   1      43.497  27.759  32.122  1.00  0.00     0.049 A 
ATOM     36  H   UNL A   1      41.766  28.566  31.238  1.00  0.00     0.167 HD
ATOM     37  C   UNL A   1      42.500  29.068  34.014  1.00  0.00     0.074 A 
ATOM     38  C   UNL A   1      42.514  29.559  35.382  1.00  0.00     0.031 C 
ATOM     39  C   UNL A   1      43.457  28.272  33.473  1.00  0.00     0.034 A 
BRANCH  26  40
ATOM     40  C   UNL A   1      42.653  26.661  27.511  1.00  0.00     0.023 A 
ATOM     41  C   UNL A   1      42.512  25.268  27.368  1.00  0.00     0.031 A 
ATOM     42  C   UNL A   1      43.343  27.360  26.505  1.00  0.00     0.131 A 
ATOM     43  C   UNL A   1      43.113  24.614  26.280  1.00  0.00     0.055 A 
ATOM     44  C   UNL A   1      43.875  26.713  25.388  1.00  0.00     0.041 A 
ATOM     45  F   UNL A   1      43.540  28.684  26.607  1.00  0.00    -0.206 F 
ATOM     46  C   UNL A   1      43.773  25.329  25.278  1.00  0.00     0.022 A 
BRANCH  43  47
ATOM     47  S   UNL A   1      43.133  22.799  26.254  1.00  0.00     0.124 S 
ATOM     48  O   UNL A   1      42.022  22.480  27.149  1.00  0.00    -0.237 OA
ATOM     49  O   UNL A   1      42.921  22.498  24.843  1.00  0.00    -0.237 OA
ATOM     50  O   UNL A   1      44.458  22.462  26.771  1.00  0.00    -0.744 OA
ENDBRANCH  43  47
ENDBRANCH  26  40
BRANCH  27  51
ATOM     51  C   UNL A   1      38.921  31.893  35.371  1.00  0.00     0.023 A 
ATOM     52  C   UNL A   1      38.262  31.300  36.457  1.00  0.00     0.031 A 
ATOM     53  C   UNL A   1      39.116  33.291  35.402  1.00  0.00     0.131 A 
ATOM     54  C   UNL A   1      37.829  32.100  37.530  1.00  0.00     0.055 A 
ATOM     55  C   UNL A   1      38.709  34.075  36.482  1.00  0.00     0.041 A 
ATOM     56  F   UNL A   1      39.761  33.907  34.398  1.00  0.00    -0.206 F 
ATOM     57  C   UNL A   1      38.060  33.479  37.555  1.00  0.00     0.022 A 
BRANCH  54  58
ATOM     58  S   UNL A   1      36.962  31.313  38.917  1.00  0.00     0.124 S 
ATOM     59  O   UNL A   1      37.908  31.511  40.009  1.00  0.00    -0.237 OA
ATOM     60  O   UNL A   1      35.729  32.089  38.983  1.00  0.00    -0.237 OA
ATOM     61  O   UNL A   1      36.799  29.929  38.475  1.00  0.00    -0.744 OA
ENDBRANCH  54  58
ENDBRANCH  27  51
BRANCH  39  62
ATOM     62  C   UNL A   1      44.617  27.909  34.352  1.00  0.00     0.023 A 
ATOM     63  C   UNL A   1      44.535  26.843  35.259  1.00  0.00     0.031 A 
ATOM     64  C   UNL A   1      45.847  28.568  34.190  1.00  0.00     0.131 A 
ATOM     65  C   UNL A   1      45.672  26.469  35.984  1.00  0.00     0.055 A 
ATOM     66  C   UNL A   1      46.987  28.159  34.877  1.00  0.00     0.041 A 
ATOM     67  F   UNL A   1      45.966  29.588  33.325  1.00  0.00    -0.206 F 
ATOM     68  C   UNL A   1      46.902  27.104  35.782  1.00  0.00     0.022 A 
BRANCH  65  69
ATOM     69  S   UNL A   1      45.520  25.145  37.210  1.00  0.00     0.124 S 
ATOM     70  O   UNL A   1      46.701  25.366  38.039  1.00  0.00    -0.237 OA
ATOM     71  O   UNL A   1      44.236  25.439  37.838  1.00  0.00    -0.237 OA
ATOM     72  O   UNL A   1      45.548  23.927  36.401  1.00  0.00    -0.744 OA
ENDBRANCH  65  69
ENDBRANCH  39  62
ENDBRANCH  13  14
ENDBRANCH   6   8
ENDBRANCH   5   6
ENDBRANCH   4   5
ENDBRANCH   3   4
ENDBRANCH   2   3
ENDBRANCH   1   2
BRANCH   1  73
ATOM     73  C   UNL A   1      30.990  27.530  22.678  1.00  0.00     0.188 C 
BRANCH  73  74
ATOM     74  O   UNL A   1      31.335  26.238  22.238  1.00  0.00    -0.376 OA
BRANCH  74  75
ATOM     75  C   UNL A   1      32.676  26.064  21.804  1.00  0.00     0.202 C 
BRANCH  75  76
ATOM     76  C   UNL A   1      33.737  25.598  22.821  1.00  0.00     0.261 C 
BRANCH  76  77
ATOM     77  O   UNL A   1      34.189  24.225  22.716  1.00  0.00    -0.460 OA
BRANCH  77  78
ATOM     78  C   UNL A   1      33.248  23.258  22.924  1.00  0.00     0.340 C 
ATOM     79  O   UNL A   1      32.783  22.507  22.081  1.00  0.00    -0.246 OA
BRANCH  78  80
ATOM     80  C   UNL A   1      32.679  23.355  24.287  1.00  0.00     0.086 A 
ATOM     81  C   UNL A   1      31.281  23.556  24.290  1.00  0.00     0.018 A 
ATOM     82  C   UNL A   1      33.379  23.056  25.485  1.00  0.00     0.088 A 
ATOM     83  C   UNL A   1      30.548  23.446  25.467  1.00  0.00     0.004 A 
ATOM     84  C   UNL A   1      32.596  23.015  26.662  1.00  0.00     0.147 A 
ATOM     85  C   UNL A   1      31.211  23.184  26.658  1.00  0.00     0.041 A 
ATOM     86  F   UNL A   1      33.182  22.750  27.841  1.00  0.00    -0.205 F 
BRANCH  82  87
ATOM     87  N   UNL A   1      34.749  22.725  25.529  1.00  0.00    -0.365 N 
ATOM     88  C   UNL A   1      35.032  21.272  25.735  1.00  0.00     0.138 C 
ATOM     89  C   UNL A   1      35.643  23.558  26.389  1.00  0.00     0.143 C 
ATOM     90  C   UNL A   1      36.520  20.911  25.483  1.00  0.00     0.143 C 
ATOM     91  C   UNL A   1      37.060  23.332  25.844  1.00  0.00     0.125 C 
ATOM     92  N   UNL A   1      37.457  21.939  25.900  1.00  0.00    -0.317 N 
ATOM     93  C   UNL A   1      38.270  24.043  26.421  1.00  0.00     0.144 C 
ATOM     94  C   UNL A   1      38.842  21.861  25.814  1.00  0.00     0.317 C 
ATOM     95  N   UNL A   1      39.338  23.135  26.064  1.00  0.00    -0.336 N 
ATOM     96  O   UNL A   1      39.518  20.884  25.528  1.00  0.00    -0.249 OA
ATOM     97  H   UNL A   1      40.289  23.385  26.006  1.00  0.00     0.165 HD
ENDBRANCH  82  87
ENDBRANCH  78  80
ENDBRANCH  77  78
ENDBRANCH  76  77
ENDBRANCH  75  76
ENDBRANCH  74  75
ENDBRANCH  73  74
ENDBRANCH   1  73
TORSDOF 21
ENDMDL
MODEL 3
REMARK VINA RESULT:     -10.6      4.749      7.981
REMARK SMILES O=C(OCCOCCOCCOC(=O)c1cccc(F)c1N1CCN2C(=O)NC[C@@H]2C1)c1ccc(-c2c3nc(c(-c4cc(S(=O)(=O)[O-])ccc4F)c4ccc([nH]4)c(-c4cc(S(=O)(=O)[O-])ccc4F)c4nc(c(-c5cc(S(=O)(=O)[O-])ccc5F)c5ccc2[nH]5)C=C4)C=C3)cc1
REMARK SMILES IDX 7 1 6 2 5 3 4 4 3 5 2 6 1 7 32 8 33 9 94 10 34 11 93 12
REMARK SMILES IDX 35 13 36 14 37 15 87 16 38 17 92 18 86 19 88 20 39 21 91 22
REMARK SMILES IDX 85 23 84 24 40 26 72 27 52 28 71 29 53 30 56 31 70 32 89 33
REMARK SMILES IDX 54 34 55 35 69 37 90 38 57 39 41 40 42 41 50 42 43 43 49 44
REMARK SMILES IDX 51 45 48 46 44 47 45 48 46 49 47 50 73 51 74 52 82 53 75 54
REMARK SMILES IDX 81 55 83 56 80 57 76 58 77 59 78 60 79 61 58 62 59 63 67 64
REMARK SMILES IDX 60 65 66 66 68 67 65 68 61 69 62 70 63 71 64 72 8 73 9 74
REMARK SMILES IDX 10 75 11 76 12 77 13 78 14 79 15 80 16 81 21 82 17 83 19 84
REMARK SMILES IDX 18 85 20 86 22 87 23 88 31 89 24 90 30 91 25 92 29 93 26 94
REMARK SMILES IDX 28 95 27 96
REMARK H PARENT 88 25 56 36 28 97
REMARK Flexibility Score: inf
ROOT
ATOM      1  C   UNL A   1      40.781  21.861  26.329  1.00  0.00     0.188 C 
ENDROOT
BRANCH   1   2
ATOM      2  O   UNL A   1      42.150  21.715  26.657  1.00  0.00    -0.376 OA
BRANCH   2   3
ATOM      3  C   UNL A   1      43.044  21.561  25.558  1.00  0.00     0.202 C 
BRANCH   3   4
ATOM      4  C   UNL A   1      43.952  22.762  25.168  1.00  0.00     0.261 C 
BRANCH   4   5
ATOM      5  O   UNL A   1      43.244  23.979  24.858  1.00  0.00    -0.460 OA
BRANCH   5   6
ATOM      6  C   UNL A   1      43.721  25.225  25.093  1.00  0.00     0.338 C 
ATOM      7  O   UNL A   1      44.871  25.517  24.783  1.00  0.00    -0.246 OA
BRANCH   6   8
ATOM      8  C   UNL A   1      42.957  26.105  26.016  1.00  0.00     0.060 A 
ATOM      9  C   UNL A   1      43.167  27.477  26.083  1.00  0.00     0.016 A 
ATOM     10  C   UNL A   1      41.985  25.527  26.856  1.00  0.00     0.016 A 
ATOM     11  C   UNL A   1      42.533  28.245  27.031  1.00  0.00     0.010 A 
ATOM     12  C   UNL A   1      41.301  26.307  27.792  1.00  0.00     0.010 A 
ATOM     13  C   UNL A   1      41.633  27.658  27.917  1.00  0.00    -0.014 A 
BRANCH  13  14
ATOM     14  C   UNL A   1      41.295  28.475  29.092  1.00  0.00     0.031 A 
ATOM     15  C   UNL A   1      39.981  29.199  29.067  1.00  0.00     0.074 A 
ATOM     16  C   UNL A   1      42.004  28.300  30.220  1.00  0.00     0.049 A 
ATOM     17  N   UNL A   1      39.377  29.842  30.024  1.00  0.00    -0.248 NA
ATOM     18  C   UNL A   1      39.225  29.156  27.803  1.00  0.00     0.031 C 
ATOM     19  C   UNL A   1      43.181  27.433  30.330  1.00  0.00     0.029 A 
ATOM     20  N   UNL A   1      41.805  28.753  31.493  1.00  0.00    -0.354 N 
ATOM     21  C   UNL A   1      38.179  30.288  29.476  1.00  0.00     0.074 A 
ATOM     22  C   UNL A   1      38.146  29.860  28.099  1.00  0.00     0.031 C 
ATOM     23  C   UNL A   1      43.569  27.380  31.613  1.00  0.00     0.029 A 
ATOM     24  C   UNL A   1      42.723  28.269  32.395  1.00  0.00     0.049 A 
ATOM     25  H   UNL A   1      41.076  29.367  31.740  1.00  0.00     0.167 HD
ATOM     26  C   UNL A   1      37.200  30.994  30.086  1.00  0.00     0.034 A 
ATOM     27  C   UNL A   1      42.872  28.538  33.705  1.00  0.00     0.034 A 
ATOM     28  C   UNL A   1      37.298  31.401  31.461  1.00  0.00     0.049 A 
ATOM     29  C   UNL A   1      41.859  29.456  34.327  1.00  0.00     0.074 A 
ATOM     30  C   UNL A   1      36.441  32.200  32.191  1.00  0.00     0.029 A 
ATOM     31  N   UNL A   1      38.340  31.039  32.312  1.00  0.00    -0.354 N 
ATOM     32  N   UNL A   1      40.785  29.976  33.772  1.00  0.00    -0.248 NA
ATOM     33  C   UNL A   1      42.067  29.837  35.725  1.00  0.00     0.031 C 
ATOM     34  C   UNL A   1      37.005  32.385  33.457  1.00  0.00     0.029 A 
ATOM     35  C   UNL A   1      38.168  31.630  33.549  1.00  0.00     0.049 A 
ATOM     36  H   UNL A   1      39.089  30.449  32.068  1.00  0.00     0.167 HD
ATOM     37  C   UNL A   1      40.176  30.737  34.758  1.00  0.00     0.074 A 
ATOM     38  C   UNL A   1      41.007  30.607  35.944  1.00  0.00     0.031 C 
ATOM     39  C   UNL A   1      39.034  31.468  34.696  1.00  0.00     0.034 A 
BRANCH  26  40
ATOM     40  C   UNL A   1      36.044  31.446  29.232  1.00  0.00     0.023 A 
ATOM     41  C   UNL A   1      35.610  32.784  29.202  1.00  0.00     0.031 A 
ATOM     42  C   UNL A   1      35.306  30.497  28.503  1.00  0.00     0.131 A 
ATOM     43  C   UNL A   1      34.433  33.121  28.513  1.00  0.00     0.055 A 
ATOM     44  C   UNL A   1      34.178  30.851  27.761  1.00  0.00     0.041 A 
ATOM     45  F   UNL A   1      35.652  29.201  28.526  1.00  0.00    -0.206 F 
ATOM     46  C   UNL A   1      33.728  32.168  27.774  1.00  0.00     0.022 A 
BRANCH  43  47
ATOM     47  S   UNL A   1      33.761  34.797  28.699  1.00  0.00     0.124 S 
ATOM     48  O   UNL A   1      33.898  35.010  30.138  1.00  0.00    -0.237 OA
ATOM     49  O   UNL A   1      34.642  35.590  27.850  1.00  0.00    -0.237 OA
ATOM     50  O   UNL A   1      32.385  34.670  28.222  1.00  0.00    -0.744 OA
ENDBRANCH  43  47
ENDBRANCH  26  40
BRANCH  27  51
ATOM     51  C   UNL A   1      44.040  27.980  34.443  1.00  0.00     0.023 A 
ATOM     52  C   UNL A   1      44.013  26.703  35.019  1.00  0.00     0.031 A 
ATOM     53  C   UNL A   1      45.249  28.706  34.505  1.00  0.00     0.131 A 
ATOM     54  C   UNL A   1      45.173  26.186  35.625  1.00  0.00     0.055 A 
ATOM     55  C   UNL A   1      46.404  28.178  35.083  1.00  0.00     0.041 A 
ATOM     56  F   UNL A   1      45.337  29.925  33.950  1.00  0.00    -0.206 F 
ATOM     57  C   UNL A   1      46.369  26.910  35.648  1.00  0.00     0.022 A 
BRANCH  54  58
ATOM     58  S   UNL A   1      45.109  24.537  36.380  1.00  0.00     0.124 S 
ATOM     59  O   UNL A   1      45.179  24.858  37.800  1.00  0.00    -0.237 OA
ATOM     60  O   UNL A   1      43.829  24.032  35.895  1.00  0.00    -0.237 OA
ATOM     61  O   UNL A   1      46.285  23.866  35.831  1.00  0.00    -0.744 OA
ENDBRANCH  54  58
ENDBRANCH  27  51
BRANCH  39  62
ATOM     62  C   UNL A   1      38.599  32.160  35.954  1.00  0.00     0.023 A 
ATOM     63  C   UNL A   1      37.933  31.464  36.972  1.00  0.00     0.031 A 
ATOM     64  C   UNL A   1      38.963  33.499  36.173  1.00  0.00     0.131 A 
ATOM     65  C   UNL A   1      37.639  32.120  38.173  1.00  0.00     0.055 A 
ATOM     66  C   UNL A   1      38.714  34.131  37.388  1.00  0.00     0.041 A 
ATOM     67  F   UNL A   1      39.610  34.195  35.224  1.00  0.00    -0.206 F 
ATOM     68  C   UNL A   1      38.046  33.440  38.397  1.00  0.00     0.022 A 
BRANCH  65  69
ATOM     69  S   UNL A   1      36.705  31.226  39.441  1.00  0.00     0.124 S 
ATOM     70  O   UNL A   1      36.923  29.837  39.050  1.00  0.00    -0.237 OA
ATOM     71  O   UNL A   1      37.357  31.651  40.675  1.00  0.00    -0.237 OA
ATOM     72  O   UNL A   1      35.338  31.714  39.265  1.00  0.00    -0.744 OA
ENDBRANCH  65  69
ENDBRANCH  39  62
ENDBRANCH  13  14
ENDBRANCH   6   8
ENDBRANCH   5   6
ENDBRANCH   4   5
ENDBRANCH   3   4
ENDBRANCH   2   3
ENDBRANCH   1   2
BRANCH   1  73
ATOM     73  C   UNL A   1      39.869  22.812  27.115  1.00  0.00     0.188 C 
BRANCH  73  74
ATOM     74  O   UNL A   1      38.924  23.588  26.417  1.00  0.00    -0.376 OA
BRANCH  74  75
ATOM     75  C   UNL A   1      37.699  22.943  26.101  1.00  0.00     0.202 C 
BRANCH  75  76
ATOM     76  C   UNL A   1      36.483  23.803  25.699  1.00  0.00     0.261 C 
BRANCH  76  77
ATOM     77  O   UNL A   1      35.482  23.172  24.862  1.00  0.00    -0.460 OA
BRANCH  77  78
ATOM     78  C   UNL A   1      34.514  22.456  25.505  1.00  0.00     0.340 C 
ATOM     79  O   UNL A   1      34.293  22.453  26.706  1.00  0.00    -0.246 OA
BRANCH  78  80
ATOM     80  C   UNL A   1      33.870  21.490  24.588  1.00  0.00     0.086 A 
ATOM     81  C   UNL A   1      34.183  20.146  24.891  1.00  0.00     0.018 A 
ATOM     82  C   UNL A   1      32.863  21.813  23.641  1.00  0.00     0.088 A 
ATOM     83  C   UNL A   1      33.495  19.101  24.283  1.00  0.00     0.004 A 
ATOM     84  C   UNL A   1      32.237  20.714  23.009  1.00  0.00     0.147 A 
ATOM     85  C   UNL A   1      32.526  19.387  23.331  1.00  0.00     0.041 A 
ATOM     86  F   UNL A   1      31.280  20.931  22.091  1.00  0.00    -0.205 F 
BRANCH  82  87
ATOM     87  N   UNL A   1      32.422  23.127  23.386  1.00  0.00    -0.365 N 
ATOM     88  C   UNL A   1      30.937  23.305  23.422  1.00  0.00     0.138 C 
ATOM     89  C   UNL A   1      33.005  23.846  22.213  1.00  0.00     0.143 C 
ATOM     90  C   UNL A   1      30.513  24.797  23.432  1.00  0.00     0.143 C 
ATOM     91  C   UNL A   1      32.772  25.338  22.492  1.00  0.00     0.125 C 
ATOM     92  N   UNL A   1      31.367  25.661  22.636  1.00  0.00    -0.317 N 
ATOM     93  C   UNL A   1      33.264  26.421  21.550  1.00  0.00     0.144 C 
ATOM     94  C   UNL A   1      31.196  27.027  22.452  1.00  0.00     0.317 C 
ATOM     95  N   UNL A   1      32.357  27.506  21.856  1.00  0.00    -0.336 N 
ATOM     96  O   UNL A   1      30.240  27.711  22.784  1.00  0.00    -0.249 OA
ATOM     97  H   UNL A   1      32.537  28.455  21.667  1.00  0.00     0.165 HD
ENDBRANCH  82  87
ENDBRANCH  78  80
ENDBRANCH  77  78
ENDBRANCH  76  77
ENDBRANCH  75  76
ENDBRANCH  74  75
ENDBRANCH  73  74
ENDBRANCH   1  73
TORSDOF 21
ENDMDL
