MODEL 1
REMARK VINA RESULT:      -9.7      0.000      0.000
REMARK SMILES CCc1cccc(C)c1Nc1ccccc1CC(=O)OCCOCCOCCOC(=O)c1ccc(-c2c3nc(c(-c4cc(S(=O)(=O)[O-])ccc4F)c4ccc([nH]4)c(-c4cc(S(=O)(=O)[O-])ccc4F)c4nc(c(-c5cc(S(=O)(=O)[O-])ccc5F)c5ccc2[nH]5)C=C4)C=C3)cc1
REMARK SMILES IDX 24 1 23 2 22 3 21 4 20 5 18 6 19 7 17 8 16 9 11 10 12 11
REMARK SMILES IDX 13 12 15 13 14 14 10 15 9 17 3 18 4 19 5 20 7 21 6 22 8 23
REMARK SMILES IDX 2 24 1 25 25 26 26 27 27 28 28 29 29 30 30 31 31 32 32 33
REMARK SMILES IDX 33 34 94 35 34 36 93 37 35 38 36 39 37 40 87 41 38 42 92 43
REMARK SMILES IDX 86 44 88 45 39 46 91 47 85 48 84 49 40 51 72 52 52 53 71 54
REMARK SMILES IDX 53 55 56 56 70 57 89 58 54 59 55 60 69 62 90 63 57 64 41 65
REMARK SMILES IDX 42 66 50 67 43 68 49 69 51 70 48 71 44 72 45 73 46 74 47 75
REMARK SMILES IDX 73 76 74 77 82 78 75 79 81 80 83 81 80 82 76 83 77 84 78 85
REMARK SMILES IDX 79 86 58 87 59 88 67 89 60 90 66 91 68 92 65 93 61 94 62 95
REMARK SMILES IDX 63 96 64 97
REMARK H PARENT 10 16 88 50 56 61
REMARK Flexibility Score: inf
ROOT
ATOM      1  C   UNL A   1      51.543  30.519  29.364  1.00  0.00     0.188 C 
ENDROOT
BRANCH   1   2
ATOM      2  O   UNL A   1      50.925  29.443  28.509  1.00  0.00    -0.376 OA
BRANCH   2   3
ATOM      3  C   UNL A   1      49.527  28.983  28.331  1.00  0.00     0.202 C 
BRANCH   3   4
ATOM      4  C   UNL A   1      48.695  29.004  26.795  1.00  0.00     0.261 C 
BRANCH   4   5
ATOM      5  O   UNL A   1      47.314  28.360  26.343  1.00  0.00    -0.463 OA
BRANCH   5   6
ATOM      6  C   UNL A   1      46.411  28.232  25.219  1.00  0.00     0.310 C 
ATOM      7  O   UNL A   1      46.487  28.919  24.203  1.00  0.00    -0.252 OA
BRANCH   6   8
ATOM      8  C   UNL A   1      45.295  26.970  25.317  1.00  0.00     0.160 C 
BRANCH   8   9
ATOM      9  C   UNL A   1      43.886  27.383  25.805  1.00  0.00    -0.013 A 
ATOM     10  C   UNL A   1      42.484  26.675  25.746  1.00  0.00     0.042 A 
ATOM     11  C   UNL A   1      41.499  27.676  26.352  1.00  0.00     0.026 A 
ATOM     12  C   UNL A   1      41.838  28.768  27.189  1.00  0.00     0.002 A 
ATOM     13  C   UNL A   1      44.104  28.580  26.564  1.00  0.00     0.006 A 
ATOM     14  C   UNL A   1      43.138  29.174  27.338  1.00  0.00     0.000 A 
BRANCH  10  15
ATOM     15  N   UNL A   1      42.077  24.696  25.623  1.00  0.00    -0.355 N 
ATOM     16  H   UNL A   1      42.129  24.539  24.653  1.00  0.00     0.167 HD
BRANCH  15  17
ATOM     17  C   UNL A   1      41.728  23.261  26.161  1.00  0.00     0.045 A 
ATOM     18  C   UNL A   1      40.353  22.917  26.474  1.00  0.00    -0.024 A 
ATOM     19  C   UNL A   1      40.047  21.561  26.693  1.00  0.00     0.006 A 
ATOM     20  C   UNL A   1      40.971  20.572  26.505  1.00  0.00     0.001 A 
ATOM     21  C   UNL A   1      42.683  22.284  26.382  1.00  0.00    -0.027 A 
ATOM     22  C   UNL A   1      42.272  20.951  26.276  1.00  0.00     0.005 A 
ATOM     23  C   UNL A   1      43.935  22.703  27.103  1.00  0.00     0.046 C 
BRANCH  18  24
ATOM     24  C   UNL A   1      39.185  23.809  26.879  1.00  0.00     0.034 C 
ATOM     25  C   UNL A   1      39.309  24.910  27.911  1.00  0.00     0.009 C 
ENDBRANCH  18  24
ENDBRANCH  15  17
ENDBRANCH  10  15
ENDBRANCH   8   9
ENDBRANCH   6   8
ENDBRANCH   5   6
ENDBRANCH   4   5
ENDBRANCH   3   4
ENDBRANCH   2   3
ENDBRANCH   1   2
BRANCH   1  26
ATOM     26  C   UNL A   1      50.925  32.055  29.718  1.00  0.00     0.188 C 
BRANCH  26  27
ATOM     27  O   UNL A   1      51.745  33.152  29.242  1.00  0.00    -0.376 OA
BRANCH  27  28
ATOM     28  C   UNL A   1      51.142  34.432  28.954  1.00  0.00     0.202 C 
BRANCH  28  29
ATOM     29  C   UNL A   1      50.396  34.799  27.603  1.00  0.00     0.261 C 
BRANCH  29  30
ATOM     30  O   UNL A   1      49.155  34.077  27.343  1.00  0.00    -0.460 OA
BRANCH  30  31
ATOM     31  C   UNL A   1      47.927  34.417  27.902  1.00  0.00     0.338 C 
ATOM     32  O   UNL A   1      47.747  35.252  28.769  1.00  0.00    -0.246 OA
BRANCH  31  33
ATOM     33  C   UNL A   1      46.851  33.427  27.386  1.00  0.00     0.060 A 
ATOM     34  C   UNL A   1      45.201  33.935  26.635  1.00  0.00     0.016 A 
ATOM     35  C   UNL A   1      46.836  32.136  28.624  1.00  0.00     0.016 A 
ATOM     36  C   UNL A   1      43.595  33.394  27.436  1.00  0.00     0.010 A 
ATOM     37  C   UNL A   1      45.268  31.614  29.372  1.00  0.00     0.010 A 
ATOM     38  C   UNL A   1      43.571  32.275  28.906  1.00  0.00    -0.014 A 
BRANCH  38  39
ATOM     39  C   UNL A   1      42.154  32.007  29.945  1.00  0.00     0.031 A 
ATOM     40  C   UNL A   1      40.661  32.905  30.244  1.00  0.00     0.074 A 
ATOM     41  C   UNL A   1      41.984  30.790  30.537  1.00  0.00     0.049 A 
ATOM     42  N   UNL A   1      39.781  32.720  31.224  1.00  0.00    -0.248 NA
ATOM     43  C   UNL A   1      40.057  34.044  29.471  1.00  0.00     0.031 C 
ATOM     44  C   UNL A   1      40.648  30.184  30.704  1.00  0.00     0.029 A 
ATOM     45  N   UNL A   1      42.830  29.774  30.974  1.00  0.00    -0.354 N 
ATOM     46  C   UNL A   1      38.609  33.462  30.885  1.00  0.00     0.074 A 
ATOM     47  C   UNL A   1      39.087  34.601  30.193  1.00  0.00     0.031 C 
ATOM     48  C   UNL A   1      40.750  28.961  31.216  1.00  0.00     0.029 A 
ATOM     49  C   UNL A   1      42.114  28.769  31.631  1.00  0.00     0.049 A 
ATOM     50  H   UNL A   1      43.805  29.764  30.837  1.00  0.00     0.167 HD
ATOM     51  C   UNL A   1      37.324  32.958  30.850  1.00  0.00     0.034 A 
ATOM     52  C   UNL A   1      42.431  27.994  32.697  1.00  0.00     0.034 A 
ATOM     53  C   UNL A   1      37.246  31.772  31.663  1.00  0.00     0.049 A 
ATOM     54  C   UNL A   1      41.531  28.462  33.846  1.00  0.00     0.074 A 
ATOM     55  C   UNL A   1      36.916  30.446  31.504  1.00  0.00     0.029 A 
ATOM     56  N   UNL A   1      37.829  31.873  32.909  1.00  0.00    -0.354 N 
ATOM     57  N   UNL A   1      40.266  28.803  33.720  1.00  0.00    -0.248 NA
ATOM     58  C   UNL A   1      42.026  28.743  35.193  1.00  0.00     0.031 C 
ATOM     59  C   UNL A   1      37.520  29.737  32.602  1.00  0.00     0.029 A 
ATOM     60  C   UNL A   1      38.130  30.648  33.454  1.00  0.00     0.049 A 
ATOM     61  H   UNL A   1      38.009  32.730  33.359  1.00  0.00     0.167 HD
ATOM     62  C   UNL A   1      39.949  29.676  34.743  1.00  0.00     0.074 A 
ATOM     63  C   UNL A   1      40.999  29.432  35.718  1.00  0.00     0.031 C 
ATOM     64  C   UNL A   1      38.976  30.649  34.656  1.00  0.00     0.034 A 
BRANCH  51  65
ATOM     65  C   UNL A   1      36.137  33.528  30.012  1.00  0.00     0.023 A 
ATOM     66  C   UNL A   1      35.190  34.413  30.583  1.00  0.00     0.031 A 
ATOM     67  C   UNL A   1      35.839  33.170  28.667  1.00  0.00     0.131 A 
ATOM     68  C   UNL A   1      34.106  34.945  29.821  1.00  0.00     0.055 A 
ATOM     69  C   UNL A   1      34.818  33.758  27.892  1.00  0.00     0.041 A 
ATOM     70  F   UNL A   1      36.486  32.176  28.045  1.00  0.00    -0.206 F 
ATOM     71  C   UNL A   1      33.947  34.661  28.466  1.00  0.00     0.022 A 
BRANCH  68  72
ATOM     72  S   UNL A   1      32.845  35.991  30.621  1.00  0.00     0.124 S 
ATOM     73  O   UNL A   1      32.307  35.092  31.636  1.00  0.00    -0.237 OA
ATOM     74  O   UNL A   1      33.634  37.119  31.101  1.00  0.00    -0.237 OA
ATOM     75  O   UNL A   1      31.917  36.309  29.533  1.00  0.00    -0.744 OA
ENDBRANCH  68  72
ENDBRANCH  51  65
BRANCH  52  76
ATOM     76  C   UNL A   1      43.806  27.436  32.682  1.00  0.00     0.023 A 
ATOM     77  C   UNL A   1      44.480  27.362  33.933  1.00  0.00     0.031 A 
ATOM     78  C   UNL A   1      44.296  26.642  31.642  1.00  0.00     0.131 A 
ATOM     79  C   UNL A   1      45.537  26.452  34.136  1.00  0.00     0.055 A 
ATOM     80  C   UNL A   1      45.348  25.735  31.845  1.00  0.00     0.041 A 
ATOM     81  F   UNL A   1      43.677  26.626  30.454  1.00  0.00    -0.206 F 
ATOM     82  C   UNL A   1      45.952  25.617  33.099  1.00  0.00     0.022 A 
BRANCH  79  83
ATOM     83  S   UNL A   1      46.178  26.113  35.825  1.00  0.00     0.124 S 
ATOM     84  O   UNL A   1      47.006  27.285  36.087  1.00  0.00    -0.237 OA
ATOM     85  O   UNL A   1      44.965  25.995  36.628  1.00  0.00    -0.237 OA
ATOM     86  O   UNL A   1      46.914  24.861  35.648  1.00  0.00    -0.744 OA
ENDBRANCH  79  83
ENDBRANCH  52  76
BRANCH  64  87
ATOM     87  C   UNL A   1      38.816  31.793  35.682  1.00  0.00     0.023 A 
ATOM     88  C   UNL A   1      39.288  33.088  35.449  1.00  0.00     0.031 A 
ATOM     89  C   UNL A   1      38.140  31.631  36.923  1.00  0.00     0.131 A 
ATOM     90  C   UNL A   1      39.298  34.058  36.468  1.00  0.00     0.055 A 
ATOM     91  C   UNL A   1      37.972  32.664  37.858  1.00  0.00     0.041 A 
ATOM     92  F   UNL A   1      37.606  30.456  37.289  1.00  0.00    -0.206 F 
ATOM     93  C   UNL A   1      38.608  33.876  37.659  1.00  0.00     0.022 A 
BRANCH  90  94
ATOM     94  S   UNL A   1      40.484  35.420  36.296  1.00  0.00     0.124 S 
ATOM     95  O   UNL A   1      41.104  35.436  37.619  1.00  0.00    -0.237 OA
ATOM     96  O   UNL A   1      41.334  34.964  35.203  1.00  0.00    -0.237 OA
ATOM     97  O   UNL A   1      39.640  36.574  35.998  1.00  0.00    -0.744 OA
ENDBRANCH  90  94
ENDBRANCH  64  87
ENDBRANCH  38  39
ENDBRANCH  31  33
ENDBRANCH  30  31
ENDBRANCH  29  30
ENDBRANCH  28  29
ENDBRANCH  27  28
ENDBRANCH  26  27
ENDBRANCH   1  26
TORSDOF 24
ENDMDL
MODEL 2
REMARK VINA RESULT:      -9.6      7.335     14.515
REMARK SMILES CCc1cccc(C)c1Nc1ccccc1CC(=O)OCCOCCOCCOC(=O)c1ccc(-c2c3nc(c(-c4cc(S(=O)(=O)[O-])ccc4F)c4ccc([nH]4)c(-c4cc(S(=O)(=O)[O-])ccc4F)c4nc(c(-c5cc(S(=O)(=O)[O-])ccc5F)c5ccc2[nH]5)C=C4)C=C3)cc1
REMARK SMILES IDX 24 1 23 2 22 3 21 4 20 5 18 6 19 7 17 8 16 9 11 10 12 11
REMARK SMILES IDX 13 12 15 13 14 14 10 15 9 17 3 18 4 19 5 20 7 21 6 22 8 23
REMARK SMILES IDX 2 24 1 25 25 26 26 27 27 28 28 29 29 30 30 31 31 32 32 33
REMARK SMILES IDX 33 34 94 35 34 36 93 37 35 38 36 39 37 40 87 41 38 42 92 43
REMARK SMILES IDX 86 44 88 45 39 46 91 47 85 48 84 49 40 51 72 52 52 53 71 54
REMARK SMILES IDX 53 55 56 56 70 57 89 58 54 59 55 60 69 62 90 63 57 64 41 65
REMARK SMILES IDX 42 66 50 67 43 68 49 69 51 70 48 71 44 72 45 73 46 74 47 75
REMARK SMILES IDX 73 76 74 77 82 78 75 79 81 80 83 81 80 82 76 83 77 84 78 85
REMARK SMILES IDX 79 86 58 87 59 88 67 89 60 90 66 91 68 92 65 93 61 94 62 95
REMARK SMILES IDX 63 96 64 97
REMARK H PARENT 10 16 88 50 56 61
REMARK Flexibility Score: inf
ROOT
ATOM      1  C   UNL A   1      42.519  38.176  27.262  1.00  0.00     0.188 C 
ENDROOT
BRANCH   1   2
ATOM      2  O   UNL A   1      43.393  39.403  27.213  1.00  0.00    -0.376 OA
BRANCH   2   3
ATOM      3  C   UNL A   1      44.454  39.840  26.275  1.00  0.00     0.202 C 
BRANCH   3   4
ATOM      4  C   UNL A   1      44.437  41.384  25.455  1.00  0.00     0.261 C 
BRANCH   4   5
ATOM      5  O   UNL A   1      45.192  41.884  24.149  1.00  0.00    -0.463 OA
BRANCH   5   6
ATOM      6  C   UNL A   1      45.078  42.784  23.022  1.00  0.00     0.310 C 
ATOM      7  O   UNL A   1      44.524  42.486  21.966  1.00  0.00    -0.252 OA
BRANCH   6   8
ATOM      8  C   UNL A   1      45.645  44.353  23.277  1.00  0.00     0.160 C 
BRANCH   8   9
ATOM      9  C   UNL A   1      46.456  44.951  22.102  1.00  0.00    -0.013 A 
ATOM     10  C   UNL A   1      46.242  44.945  20.545  1.00  0.00     0.042 A 
ATOM     11  C   UNL A   1      47.462  45.663  19.967  1.00  0.00     0.026 A 
ATOM     12  C   UNL A   1      48.327  46.532  20.679  1.00  0.00     0.002 A 
ATOM     13  C   UNL A   1      47.463  45.754  22.730  1.00  0.00     0.006 A 
ATOM     14  C   UNL A   1      48.282  46.618  22.046  1.00  0.00     0.000 A 
BRANCH  10  15
ATOM     15  N   UNL A   1      44.513  44.749  19.511  1.00  0.00    -0.355 N 
ATOM     16  H   UNL A   1      44.239  43.833  19.750  1.00  0.00     0.167 HD
BRANCH  15  17
ATOM     17  C   UNL A   1      43.348  45.192  18.554  1.00  0.00     0.045 A 
ATOM     18  C   UNL A   1      43.484  46.394  17.753  1.00  0.00    -0.024 A 
ATOM     19  C   UNL A   1      42.548  46.609  16.724  1.00  0.00     0.006 A 
ATOM     20  C   UNL A   1      41.607  45.674  16.395  1.00  0.00     0.001 A 
ATOM     21  C   UNL A   1      42.156  44.498  18.443  1.00  0.00    -0.027 A 
ATOM     22  C   UNL A   1      41.475  44.586  17.224  1.00  0.00     0.005 A 
ATOM     23  C   UNL A   1      41.497  44.062  19.723  1.00  0.00     0.046 C 
BRANCH  18  24
ATOM     24  C   UNL A   1      44.327  47.642  17.988  1.00  0.00     0.034 C 
ATOM     25  C   UNL A   1      44.478  48.289  19.349  1.00  0.00     0.009 C 
ENDBRANCH  18  24
ENDBRANCH  15  17
ENDBRANCH  10  15
ENDBRANCH   8   9
ENDBRANCH   6   8
ENDBRANCH   5   6
ENDBRANCH   4   5
ENDBRANCH   3   4
ENDBRANCH   2   3
ENDBRANCH   1   2
BRANCH   1  26
ATOM     26  C   UNL A   1      42.388  37.036  28.507  1.00  0.00     0.188 C 
BRANCH  26  27
ATOM     27  O   UNL A   1      41.571  35.885  28.177  1.00  0.00    -0.376 OA
BRANCH  27  28
ATOM     28  C   UNL A   1      41.080  35.022  29.226  1.00  0.00     0.202 C 
BRANCH  28  29
ATOM     29  C   UNL A   1      39.815  34.074  29.104  1.00  0.00     0.261 C 
BRANCH  29  30
ATOM     30  O   UNL A   1      38.982  33.963  30.298  1.00  0.00    -0.460 OA
BRANCH  30  31
ATOM     31  C   UNL A   1      37.801  33.229  30.354  1.00  0.00     0.338 C 
ATOM     32  O   UNL A   1      36.679  33.674  30.202  1.00  0.00    -0.246 OA
BRANCH  31  33
ATOM     33  C   UNL A   1      38.129  31.793  30.836  1.00  0.00     0.060 A 
ATOM     34  C   UNL A   1      39.570  31.345  31.963  1.00  0.00     0.016 A 
ATOM     35  C   UNL A   1      37.876  30.789  29.377  1.00  0.00     0.016 A 
ATOM     36  C   UNL A   1      40.897  30.162  31.371  1.00  0.00     0.010 A 
ATOM     37  C   UNL A   1      39.166  29.637  28.833  1.00  0.00     0.010 A 
ATOM     38  C   UNL A   1      40.790  29.325  29.727  1.00  0.00    -0.014 A 
BRANCH  38  39
ATOM     39  C   UNL A   1      42.144  28.495  28.929  1.00  0.00     0.031 A 
ATOM     40  C   UNL A   1      42.652  26.807  28.808  1.00  0.00     0.074 A 
ATOM     41  C   UNL A   1      42.909  29.181  28.030  1.00  0.00     0.049 A 
ATOM     42  N   UNL A   1      43.819  26.335  28.377  1.00  0.00    -0.248 NA
ATOM     43  C   UNL A   1      41.895  25.552  29.146  1.00  0.00     0.031 C 
ATOM     44  C   UNL A   1      43.444  28.540  26.812  1.00  0.00     0.029 A 
ATOM     45  N   UNL A   1      43.272  30.513  27.851  1.00  0.00    -0.354 N 
ATOM     46  C   UNL A   1      43.659  24.931  28.176  1.00  0.00     0.074 A 
ATOM     47  C   UNL A   1      42.739  24.522  29.172  1.00  0.00     0.031 C 
ATOM     48  C   UNL A   1      44.071  29.433  26.052  1.00  0.00     0.029 A 
ATOM     49  C   UNL A   1      44.193  30.649  26.809  1.00  0.00     0.049 A 
ATOM     50  H   UNL A   1      42.923  31.262  28.388  1.00  0.00     0.167 HD
ATOM     51  C   UNL A   1      43.975  24.246  27.020  1.00  0.00     0.034 A 
ATOM     52  C   UNL A   1      45.251  31.482  26.653  1.00  0.00     0.034 A 
ATOM     53  C   UNL A   1      44.928  25.005  26.252  1.00  0.00     0.049 A 
ATOM     54  C   UNL A   1      46.503  30.604  26.754  1.00  0.00     0.074 A 
ATOM     55  C   UNL A   1      45.016  25.562  24.997  1.00  0.00     0.029 A 
ATOM     56  N   UNL A   1      45.990  25.514  26.970  1.00  0.00    -0.354 N 
ATOM     57  N   UNL A   1      46.620  29.398  26.238  1.00  0.00    -0.248 NA
ATOM     58  C   UNL A   1      47.659  30.943  27.582  1.00  0.00     0.031 C 
ATOM     59  C   UNL A   1      46.032  26.579  25.068  1.00  0.00     0.029 A 
ATOM     60  C   UNL A   1      46.605  26.565  26.334  1.00  0.00     0.049 A 
ATOM     61  H   UNL A   1      46.277  25.162  27.844  1.00  0.00     0.167 HD
ATOM     62  C   UNL A   1      47.568  28.707  26.966  1.00  0.00     0.074 A 
ATOM     63  C   UNL A   1      48.308  29.767  27.631  1.00  0.00     0.031 C 
ATOM     64  C   UNL A   1      47.578  27.337  27.120  1.00  0.00     0.034 A 
BRANCH  51  65
ATOM     65  C   UNL A   1      43.357  22.889  26.558  1.00  0.00     0.023 A 
ATOM     66  C   UNL A   1      44.174  21.823  26.107  1.00  0.00     0.031 A 
ATOM     67  C   UNL A   1      41.964  22.614  26.462  1.00  0.00     0.131 A 
ATOM     68  C   UNL A   1      43.618  20.575  25.691  1.00  0.00     0.055 A 
ATOM     69  C   UNL A   1      41.419  21.357  26.129  1.00  0.00     0.041 A 
ATOM     70  F   UNL A   1      41.046  23.576  26.623  1.00  0.00    -0.206 F 
ATOM     71  C   UNL A   1      42.249  20.322  25.748  1.00  0.00     0.022 A 
BRANCH  68  72
ATOM     72  S   UNL A   1      44.693  19.269  25.011  1.00  0.00     0.124 S 
ATOM     73  O   UNL A   1      44.178  19.132  23.653  1.00  0.00    -0.237 OA
ATOM     74  O   UNL A   1      46.020  19.855  25.149  1.00  0.00    -0.237 OA
ATOM     75  O   UNL A   1      44.435  18.120  25.881  1.00  0.00    -0.744 OA
ENDBRANCH  68  72
ENDBRANCH  51  65
BRANCH  52  76
ATOM     76  C   UNL A   1      45.000  32.895  27.032  1.00  0.00     0.023 A 
ATOM     77  C   UNL A   1      45.467  33.306  28.313  1.00  0.00     0.031 A 
ATOM     78  C   UNL A   1      44.721  33.898  26.100  1.00  0.00     0.131 A 
ATOM     79  C   UNL A   1      45.725  34.663  28.591  1.00  0.00     0.055 A 
ATOM     80  C   UNL A   1      44.980  35.249  26.377  1.00  0.00     0.041 A 
ATOM     81  F   UNL A   1      44.327  33.578  24.860  1.00  0.00    -0.206 F 
ATOM     82  C   UNL A   1      45.509  35.633  27.612  1.00  0.00     0.022 A 
BRANCH  79  83
ATOM     83  S   UNL A   1      46.639  35.158  30.107  1.00  0.00     0.124 S 
ATOM     84  O   UNL A   1      45.940  36.371  30.512  1.00  0.00    -0.237 OA
ATOM     85  O   UNL A   1      46.479  34.004  30.987  1.00  0.00    -0.237 OA
ATOM     86  O   UNL A   1      48.001  35.361  29.614  1.00  0.00    -0.744 OA
ENDBRANCH  79  83
ENDBRANCH  52  76
BRANCH  64  87
ATOM     87  C   UNL A   1      48.460  26.597  28.150  1.00  0.00     0.023 A 
ATOM     88  C   UNL A   1      48.164  26.568  29.516  1.00  0.00     0.031 A 
ATOM     89  C   UNL A   1      49.617  25.853  27.787  1.00  0.00     0.131 A 
ATOM     90  C   UNL A   1      49.078  26.052  30.453  1.00  0.00     0.055 A 
ATOM     91  C   UNL A   1      50.419  25.164  28.708  1.00  0.00     0.041 A 
ATOM     92  F   UNL A   1      50.026  25.760  26.512  1.00  0.00    -0.206 F 
ATOM     93  C   UNL A   1      50.186  25.311  30.063  1.00  0.00     0.022 A 
BRANCH  90  94
ATOM     94  S   UNL A   1      48.924  26.640  32.162  1.00  0.00     0.124 S 
ATOM     95  O   UNL A   1      50.040  25.952  32.809  1.00  0.00    -0.237 OA
ATOM     96  O   UNL A   1      49.068  28.082  32.016  1.00  0.00    -0.237 OA
ATOM     97  O   UNL A   1      47.599  26.176  32.566  1.00  0.00    -0.744 OA
ENDBRANCH  90  94
ENDBRANCH  64  87
ENDBRANCH  38  39
ENDBRANCH  31  33
ENDBRANCH  30  31
ENDBRANCH  29  30
ENDBRANCH  28  29
ENDBRANCH  27  28
ENDBRANCH  26  27
ENDBRANCH   1  26
TORSDOF 24
ENDMDL
MODEL 3
REMARK VINA RESULT:      -9.2      3.965      8.620
REMARK SMILES CCc1cccc(C)c1Nc1ccccc1CC(=O)OCCOCCOCCOC(=O)c1ccc(-c2c3nc(c(-c4cc(S(=O)(=O)[O-])ccc4F)c4ccc([nH]4)c(-c4cc(S(=O)(=O)[O-])ccc4F)c4nc(c(-c5cc(S(=O)(=O)[O-])ccc5F)c5ccc2[nH]5)C=C4)C=C3)cc1
REMARK SMILES IDX 24 1 23 2 22 3 21 4 20 5 18 6 19 7 17 8 16 9 11 10 12 11
REMARK SMILES IDX 13 12 15 13 14 14 10 15 9 17 3 18 4 19 5 20 7 21 6 22 8 23
REMARK SMILES IDX 2 24 1 25 25 26 26 27 27 28 28 29 29 30 30 31 31 32 32 33
REMARK SMILES IDX 33 34 94 35 34 36 93 37 35 38 36 39 37 40 87 41 38 42 92 43
REMARK SMILES IDX 86 44 88 45 39 46 91 47 85 48 84 49 40 51 72 52 52 53 71 54
REMARK SMILES IDX 53 55 56 56 70 57 89 58 54 59 55 60 69 62 90 63 57 64 41 65
REMARK SMILES IDX 42 66 50 67 43 68 49 69 51 70 48 71 44 72 45 73 46 74 47 75
REMARK SMILES IDX 73 76 74 77 82 78 75 79 81 80 83 81 80 82 76 83 77 84 78 85
REMARK SMILES IDX 79 86 58 87 59 88 67 89 60 90 66 91 68 92 65 93 61 94 62 95
REMARK SMILES IDX 63 96 64 97
REMARK H PARENT 10 16 88 50 56 61
REMARK Flexibility Score: inf
ROOT
ATOM      1  C   UNL A   1      43.289  35.483  26.207  1.00  0.00     0.188 C 
ENDROOT
BRANCH   1   2
ATOM      2  O   UNL A   1      43.181  35.826  27.671  1.00  0.00    -0.376 OA
BRANCH   2   3
ATOM      3  C   UNL A   1      42.021  36.072  28.559  1.00  0.00     0.202 C 
BRANCH   3   4
ATOM      4  C   UNL A   1      40.948  34.808  29.113  1.00  0.00     0.261 C 
BRANCH   4   5
ATOM      5  O   UNL A   1      41.162  33.642  30.172  1.00  0.00    -0.463 OA
BRANCH   5   6
ATOM      6  C   UNL A   1      41.278  32.206  30.302  1.00  0.00     0.310 C 
ATOM      7  O   UNL A   1      42.281  31.572  29.979  1.00  0.00    -0.252 OA
BRANCH   6   8
ATOM      8  C   UNL A   1      39.985  31.432  31.061  1.00  0.00     0.160 C 
BRANCH   8   9
ATOM      9  C   UNL A   1      38.919  30.852  30.099  1.00  0.00    -0.013 A 
ATOM     10  C   UNL A   1      37.373  31.092  29.949  1.00  0.00     0.042 A 
ATOM     11  C   UNL A   1      36.923  30.139  28.840  1.00  0.00     0.026 A 
ATOM     12  C   UNL A   1      37.765  29.540  27.870  1.00  0.00     0.002 A 
ATOM     13  C   UNL A   1      39.672  30.099  29.139  1.00  0.00     0.006 A 
ATOM     14  C   UNL A   1      39.129  29.575  27.991  1.00  0.00     0.000 A 
BRANCH  10  15
ATOM     15  N   UNL A   1      36.293  32.718  30.482  1.00  0.00    -0.355 N 
ATOM     16  H   UNL A   1      35.800  32.913  29.652  1.00  0.00     0.167 HD
BRANCH  15  17
ATOM     17  C   UNL A   1      35.774  33.853  31.437  1.00  0.00     0.045 A 
ATOM     18  C   UNL A   1      34.498  34.493  31.178  1.00  0.00    -0.024 A 
ATOM     19  C   UNL A   1      33.951  35.304  32.190  1.00  0.00     0.006 A 
ATOM     20  C   UNL A   1      34.525  35.404  33.426  1.00  0.00     0.001 A 
ATOM     21  C   UNL A   1      36.493  34.310  32.528  1.00  0.00    -0.027 A 
ATOM     22  C   UNL A   1      35.765  34.837  33.600  1.00  0.00     0.005 A 
ATOM     23  C   UNL A   1      37.957  34.583  32.317  1.00  0.00     0.046 C 
BRANCH  18  24
ATOM     24  C   UNL A   1      33.732  34.666  29.872  1.00  0.00     0.034 C 
ATOM     25  C   UNL A   1      33.343  36.021  29.319  1.00  0.00     0.009 C 
ENDBRANCH  18  24
ENDBRANCH  15  17
ENDBRANCH  10  15
ENDBRANCH   8   9
ENDBRANCH   6   8
ENDBRANCH   5   6
ENDBRANCH   4   5
ENDBRANCH   3   4
ENDBRANCH   2   3
ENDBRANCH   1   2
BRANCH   1  26
ATOM     26  C   UNL A   1      43.738  34.007  25.510  1.00  0.00     0.188 C 
BRANCH  26  27
ATOM     27  O   UNL A   1      44.412  33.100  26.417  1.00  0.00    -0.376 OA
BRANCH  27  28
ATOM     28  C   UNL A   1      44.516  31.697  26.091  1.00  0.00     0.202 C 
BRANCH  28  29
ATOM     29  C   UNL A   1      45.557  30.690  26.738  1.00  0.00     0.261 C 
BRANCH  29  30
ATOM     30  O   UNL A   1      45.317  29.273  26.483  1.00  0.00    -0.460 OA
BRANCH  30  31
ATOM     31  C   UNL A   1      46.270  28.408  25.952  1.00  0.00     0.338 C 
ATOM     32  O   UNL A   1      46.822  28.533  24.875  1.00  0.00    -0.246 OA
BRANCH  31  33
ATOM     33  C   UNL A   1      46.372  27.158  26.863  1.00  0.00     0.060 A 
ATOM     34  C   UNL A   1      44.924  26.042  27.315  1.00  0.00     0.016 A 
ATOM     35  C   UNL A   1      47.456  27.685  28.185  1.00  0.00     0.016 A 
ATOM     36  C   UNL A   1      44.423  25.829  29.108  1.00  0.00     0.010 A 
ATOM     37  C   UNL A   1      46.959  27.451  29.914  1.00  0.00     0.010 A 
ATOM     38  C   UNL A   1      45.378  26.609  30.484  1.00  0.00    -0.014 A 
BRANCH  38  39
ATOM     39  C   UNL A   1      44.789  26.775  32.153  1.00  0.00     0.031 A 
ATOM     40  C   UNL A   1      43.914  28.037  33.028  1.00  0.00     0.074 A 
ATOM     41  C   UNL A   1      44.784  25.681  32.968  1.00  0.00     0.049 A 
ATOM     42  N   UNL A   1      43.735  28.144  34.342  1.00  0.00    -0.248 NA
ATOM     43  C   UNL A   1      43.181  29.238  32.498  1.00  0.00     0.031 C 
ATOM     44  C   UNL A   1      43.703  25.443  33.946  1.00  0.00     0.029 A 
ATOM     45  N   UNL A   1      45.540  24.516  33.068  1.00  0.00    -0.354 N 
ATOM     46  C   UNL A   1      42.727  29.132  34.552  1.00  0.00     0.074 A 
ATOM     47  C   UNL A   1      42.909  30.067  33.504  1.00  0.00     0.031 C 
ATOM     48  C   UNL A   1      43.869  24.270  34.550  1.00  0.00     0.029 A 
ATOM     49  C   UNL A   1      45.169  23.769  34.190  1.00  0.00     0.049 A 
ATOM     50  H   UNL A   1      46.243  24.253  32.431  1.00  0.00     0.167 HD
ATOM     51  C   UNL A   1      41.590  28.967  35.317  1.00  0.00     0.034 A 
ATOM     52  C   UNL A   1      45.901  23.012  35.043  1.00  0.00     0.034 A 
ATOM     53  C   UNL A   1      41.790  27.894  36.257  1.00  0.00     0.049 A 
ATOM     54  C   UNL A   1      45.915  23.766  36.377  1.00  0.00     0.074 A 
ATOM     55  C   UNL A   1      41.208  26.686  36.566  1.00  0.00     0.029 A 
ATOM     56  N   UNL A   1      42.987  27.928  36.942  1.00  0.00    -0.354 N 
ATOM     57  N   UNL A   1      44.885  24.405  36.891  1.00  0.00    -0.248 NA
ATOM     58  C   UNL A   1      47.130  24.000  37.156  1.00  0.00     0.031 C 
ATOM     59  C   UNL A   1      42.200  25.922  37.277  1.00  0.00     0.029 A 
ATOM     60  C   UNL A   1      43.332  26.705  37.465  1.00  0.00     0.049 A 
ATOM     61  H   UNL A   1      43.534  28.740  37.044  1.00  0.00     0.167 HD
ATOM     62  C   UNL A   1      45.363  25.394  37.727  1.00  0.00     0.074 A 
ATOM     63  C   UNL A   1      46.723  24.959  38.005  1.00  0.00     0.031 C 
ATOM     64  C   UNL A   1      44.698  26.572  37.991  1.00  0.00     0.034 A 
BRANCH  51  65
ATOM     65  C   UNL A   1      40.255  29.760  35.161  1.00  0.00     0.023 A 
ATOM     66  C   UNL A   1      39.734  30.541  36.221  1.00  0.00     0.031 A 
ATOM     67  C   UNL A   1      39.407  29.720  34.018  1.00  0.00     0.131 A 
ATOM     68  C   UNL A   1      38.517  31.277  36.084  1.00  0.00     0.055 A 
ATOM     69  C   UNL A   1      38.250  30.510  33.854  1.00  0.00     0.041 A 
ATOM     70  F   UNL A   1      39.620  28.857  33.016  1.00  0.00    -0.206 F 
ATOM     71  C   UNL A   1      37.802  31.304  34.889  1.00  0.00     0.022 A 
BRANCH  68  72
ATOM     72  S   UNL A   1      37.822  32.179  37.508  1.00  0.00     0.124 S 
ATOM     73  O   UNL A   1      39.013  32.782  38.094  1.00  0.00    -0.237 OA
ATOM     74  O   UNL A   1      36.878  33.088  36.870  1.00  0.00    -0.237 OA
ATOM     75  O   UNL A   1      37.207  31.126  38.319  1.00  0.00    -0.744 OA
ENDBRANCH  68  72
ENDBRANCH  51  65
BRANCH  52  76
ATOM     76  C   UNL A   1      46.902  22.126  34.397  1.00  0.00     0.023 A 
ATOM     77  C   UNL A   1      48.189  22.684  34.155  1.00  0.00     0.031 A 
ATOM     78  C   UNL A   1      46.796  20.733  34.389  1.00  0.00     0.131 A 
ATOM     79  C   UNL A   1      49.323  21.860  34.010  1.00  0.00     0.055 A 
ATOM     80  C   UNL A   1      47.925  19.913  34.245  1.00  0.00     0.041 A 
ATOM     81  F   UNL A   1      45.624  20.143  34.659  1.00  0.00    -0.206 F 
ATOM     82  C   UNL A   1      49.195  20.473  34.084  1.00  0.00     0.022 A 
BRANCH  79  83
ATOM     83  S   UNL A   1      51.016  22.572  34.038  1.00  0.00     0.124 S 
ATOM     84  O   UNL A   1      50.822  23.812  34.780  1.00  0.00    -0.237 OA
ATOM     85  O   UNL A   1      51.803  21.542  34.710  1.00  0.00    -0.237 OA
ATOM     86  O   UNL A   1      51.323  22.740  32.618  1.00  0.00    -0.744 OA
ENDBRANCH  79  83
ENDBRANCH  52  76
BRANCH  64  87
ATOM     87  C   UNL A   1      45.350  27.785  38.692  1.00  0.00     0.023 A 
ATOM     88  C   UNL A   1      45.193  28.044  40.057  1.00  0.00     0.031 A 
ATOM     89  C   UNL A   1      46.194  28.709  38.015  1.00  0.00     0.131 A 
ATOM     90  C   UNL A   1      45.638  29.250  40.630  1.00  0.00     0.055 A 
ATOM     91  C   UNL A   1      46.806  29.806  38.639  1.00  0.00     0.041 A 
ATOM     92  F   UNL A   1      46.466  28.590  36.706  1.00  0.00    -0.206 F 
ATOM     93  C   UNL A   1      46.479  30.118  39.947  1.00  0.00     0.022 A 
BRANCH  90  94
ATOM     94  S   UNL A   1      44.835  29.774  42.170  1.00  0.00     0.124 S 
ATOM     95  O   UNL A   1      45.925  29.626  43.132  1.00  0.00    -0.237 OA
ATOM     96  O   UNL A   1      44.436  31.143  41.869  1.00  0.00    -0.237 OA
ATOM     97  O   UNL A   1      43.741  28.819  42.328  1.00  0.00    -0.744 OA
ENDBRANCH  90  94
ENDBRANCH  64  87
ENDBRANCH  38  39
ENDBRANCH  31  33
ENDBRANCH  30  31
ENDBRANCH  29  30
ENDBRANCH  28  29
ENDBRANCH  27  28
ENDBRANCH  26  27
ENDBRANCH   1  26
TORSDOF 24
ENDMDL
