MODEL 1
REMARK VINA RESULT:     -10.0      0.000      0.000
REMARK SMILES Cc1ccc(C2=NN(C(=O)CCC(=O)OCCOCCOCCOC(=O)c3ccc(-c4c5nc(c(-c6cc(S(=O)(=O)[O-])ccc6F)c6ccc([nH]6)c(-c6cc(S(=O)(=O)[O-])ccc6F)c6nc(c(-c7cc(S(=O)(=O)[O-])ccc7F)c7ccc4[nH]7)C=C6)C=C5)cc3)[C@H](C[C@@H]3C=c4cccc(C)c4=NC3=O)C2)cc1
REMARK SMILES IDX 19 1 18 2 17 3 16 4 15 5 13 6 14 7 12 8 11 9 9 10 10 11 8 12
REMARK SMILES IDX 6 13 7 14 104 15 90 16 5 17 1 18 2 19 3 20 106 21 4 22
REMARK SMILES IDX 105 23 91 24 92 25 93 26 102 27 94 28 101 29 103 30 95 31
REMARK SMILES IDX 100 32 96 33 98 34 97 35 99 36 20 37 21 38 22 39 23 40 24 41
REMARK SMILES IDX 25 42 26 43 27 44 28 45 89 46 29 47 88 48 30 49 31 50 32 51
REMARK SMILES IDX 82 52 33 53 87 54 81 55 83 56 34 57 86 58 80 59 79 60 35 62
REMARK SMILES IDX 67 63 47 64 66 65 48 66 51 67 65 68 84 69 49 70 50 71 64 73
REMARK SMILES IDX 85 74 52 75 36 76 37 77 45 78 38 79 44 80 46 81 43 82 39 83
REMARK SMILES IDX 40 84 41 85 42 86 68 87 69 88 77 89 70 90 76 91 78 92 75 93
REMARK SMILES IDX 71 94 72 95 73 96 74 97 53 98 54 99 62 100 55 101 61 102
REMARK SMILES IDX 63 103 60 104 56 105 57 106 58 107 59 108
REMARK H PARENT 83 61 51 72
REMARK Flexibility Score: inf
ROOT
ATOM      1  C   UNL A   1      44.843  30.219  27.658  1.00  0.00     0.188 C 
ENDROOT
BRANCH   1   2
ATOM      2  O   UNL A   1      43.947  31.374  27.773  1.00  0.00    -0.376 OA
BRANCH   2   3
ATOM      3  C   UNL A   1      43.808  32.247  28.909  1.00  0.00     0.202 C 
BRANCH   3   4
ATOM      4  C   UNL A   1      42.300  32.584  29.587  1.00  0.00     0.261 C 
BRANCH   4   5
ATOM      5  O   UNL A   1      41.883  33.803  30.491  1.00  0.00    -0.463 OA
BRANCH   5   6
ATOM      6  C   UNL A   1      40.546  33.994  30.607  1.00  0.00     0.306 C 
ATOM      7  O   UNL A   1      40.245  34.035  31.799  1.00  0.00    -0.252 OA
BRANCH   6   8
ATOM      8  C   UNL A   1      39.281  34.395  29.242  1.00  0.00     0.132 C 
BRANCH   8   9
ATOM      9  C   UNL A   1      37.861  33.959  29.084  1.00  0.00     0.114 C 
BRANCH   9  10
ATOM     10  C   UNL A   1      37.314  32.752  29.768  1.00  0.00     0.243 C 
ATOM     11  O   UNL A   1      37.277  32.849  31.007  1.00  0.00    -0.273 OA
BRANCH  10  12
ATOM     12  N   UNL A   1      36.995  31.561  29.130  1.00  0.00    -0.230 N 
ATOM     13  C   UNL A   1      37.970  29.776  28.439  1.00  0.00     0.070 C 
ATOM     14  N   UNL A   1      38.147  30.832  29.142  1.00  0.00    -0.174 NA
ATOM     15  C   UNL A   1      36.576  29.460  27.982  1.00  0.00     0.086 C 
ATOM     16  C   UNL A   1      36.017  30.883  28.036  1.00  0.00     0.118 C 
BRANCH  13  17
ATOM     17  C   UNL A   1      39.073  28.875  28.247  1.00  0.00    -0.002 A 
ATOM     18  C   UNL A   1      41.953  25.837  27.701  1.00  0.00     0.044 C 
ATOM     19  C   UNL A   1      40.997  26.961  27.933  1.00  0.00    -0.051 A 
ATOM     20  C   UNL A   1      39.978  26.775  28.876  1.00  0.00     0.004 A 
ATOM     21  C   UNL A   1      41.096  28.168  27.216  1.00  0.00     0.004 A 
ATOM     22  C   UNL A   1      39.020  27.747  29.050  1.00  0.00     0.010 A 
ATOM     23  C   UNL A   1      40.127  29.149  27.380  1.00  0.00     0.010 A 
ENDBRANCH  13  17
BRANCH  16  24
ATOM     24  C   UNL A   1      34.336  31.210  27.544  1.00  0.00     0.045 C 
BRANCH  24  25
ATOM     25  C   UNL A   1      32.678  30.287  27.463  1.00  0.00     0.106 C 
ATOM     26  C   UNL A   1      32.549  28.093  27.285  1.00  0.00    -0.003 C 
ATOM     27  C   UNL A   1      31.459  31.026  26.006  1.00  0.00     0.253 C 
ATOM     28  C   UNL A   1      31.982  27.426  26.097  1.00  0.00    -0.003 A 
ATOM     29  N   UNL A   1      30.894  29.853  24.820  1.00  0.00    -0.212 NA
ATOM     30  O   UNL A   1      31.035  32.170  25.966  1.00  0.00    -0.272 OA
ATOM     31  C   UNL A   1      32.659  26.201  25.711  1.00  0.00     0.010 A 
ATOM     32  C   UNL A   1      31.185  28.440  24.793  1.00  0.00     0.077 A 
ATOM     33  C   UNL A   1      32.731  25.845  24.428  1.00  0.00     0.001 A 
ATOM     34  C   UNL A   1      31.260  27.647  23.489  1.00  0.00    -0.025 A 
ATOM     35  C   UNL A   1      31.997  26.517  23.385  1.00  0.00     0.005 A 
ATOM     36  C   UNL A   1      30.686  28.261  22.256  1.00  0.00     0.047 C 
ENDBRANCH  24  25
ENDBRANCH  16  24
ENDBRANCH  10  12
ENDBRANCH   9  10
ENDBRANCH   8   9
ENDBRANCH   6   8
ENDBRANCH   5   6
ENDBRANCH   4   5
ENDBRANCH   3   4
ENDBRANCH   2   3
ENDBRANCH   1   2
BRANCH   1  37
ATOM     37  C   UNL A   1      44.596  28.686  27.992  1.00  0.00     0.188 C 
BRANCH  37  38
ATOM     38  O   UNL A   1      45.225  27.720  27.131  1.00  0.00    -0.376 OA
BRANCH  38  39
ATOM     39  C   UNL A   1      44.598  27.261  25.928  1.00  0.00     0.202 C 
BRANCH  39  40
ATOM     40  C   UNL A   1      45.685  26.586  24.979  1.00  0.00     0.261 C 
BRANCH  40  41
ATOM     41  O   UNL A   1      45.360  25.184  24.652  1.00  0.00    -0.460 OA
BRANCH  41  42
ATOM     42  C   UNL A   1      46.226  24.147  24.907  1.00  0.00     0.338 C 
ATOM     43  O   UNL A   1      46.950  23.694  24.043  1.00  0.00    -0.246 OA
BRANCH  42  44
ATOM     44  C   UNL A   1      45.976  23.670  26.549  1.00  0.00     0.060 A 
ATOM     45  C   UNL A   1      44.376  23.021  27.623  1.00  0.00     0.016 A 
ATOM     46  C   UNL A   1      47.084  24.555  27.354  1.00  0.00     0.016 A 
ATOM     47  C   UNL A   1      44.093  23.607  29.321  1.00  0.00     0.010 A 
ATOM     48  C   UNL A   1      46.523  25.068  28.958  1.00  0.00     0.010 A 
ATOM     49  C   UNL A   1      45.139  24.738  30.049  1.00  0.00    -0.014 A 
BRANCH  49  50
ATOM     50  C   UNL A   1      44.895  25.745  31.598  1.00  0.00     0.031 A 
ATOM     51  C   UNL A   1      43.742  27.132  32.092  1.00  0.00     0.074 A 
ATOM     52  C   UNL A   1      45.099  25.029  32.760  1.00  0.00     0.049 A 
ATOM     53  N   UNL A   1      43.858  28.069  33.042  1.00  0.00    -0.248 NA
ATOM     54  C   UNL A   1      42.300  27.556  31.586  1.00  0.00     0.031 C 
ATOM     55  C   UNL A   1      44.226  25.137  33.953  1.00  0.00     0.029 A 
ATOM     56  N   UNL A   1      45.844  23.881  33.073  1.00  0.00    -0.354 N 
ATOM     57  C   UNL A   1      42.594  28.828  32.976  1.00  0.00     0.074 A 
ATOM     58  C   UNL A   1      42.328  28.885  31.608  1.00  0.00     0.031 C 
ATOM     59  C   UNL A   1      44.577  24.244  34.895  1.00  0.00     0.029 A 
ATOM     60  C   UNL A   1      45.875  23.776  34.501  1.00  0.00     0.049 A 
ATOM     61  H   UNL A   1      46.267  23.264  32.433  1.00  0.00     0.167 HD
ATOM     62  C   UNL A   1      41.462  28.695  33.810  1.00  0.00     0.034 A 
ATOM     63  C   UNL A   1      47.006  24.075  35.215  1.00  0.00     0.034 A 
ATOM     64  C   UNL A   1      41.824  27.958  34.979  1.00  0.00     0.049 A 
ATOM     65  C   UNL A   1      46.851  25.358  36.050  1.00  0.00     0.074 A 
ATOM     66  C   UNL A   1      41.432  26.880  35.742  1.00  0.00     0.029 A 
ATOM     67  N   UNL A   1      43.038  28.335  35.448  1.00  0.00    -0.354 N 
ATOM     68  N   UNL A   1      45.792  26.125  35.954  1.00  0.00    -0.248 NA
ATOM     69  C   UNL A   1      47.741  25.870  37.090  1.00  0.00     0.031 C 
ATOM     70  C   UNL A   1      42.519  26.620  36.662  1.00  0.00     0.029 A 
ATOM     71  C   UNL A   1      43.496  27.585  36.463  1.00  0.00     0.049 A 
ATOM     72  H   UNL A   1      43.543  29.094  35.075  1.00  0.00     0.167 HD
ATOM     73  C   UNL A   1      45.814  27.152  36.847  1.00  0.00     0.074 A 
ATOM     74  C   UNL A   1      47.082  26.971  37.518  1.00  0.00     0.031 C 
ATOM     75  C   UNL A   1      44.781  28.044  36.945  1.00  0.00     0.034 A 
BRANCH  62  76
ATOM     76  C   UNL A   1      39.967  29.121  33.511  1.00  0.00     0.023 A 
ATOM     77  C   UNL A   1      39.469  30.262  34.179  1.00  0.00     0.031 A 
ATOM     78  C   UNL A   1      38.998  28.513  32.654  1.00  0.00     0.131 A 
ATOM     79  C   UNL A   1      38.174  30.790  33.924  1.00  0.00     0.055 A 
ATOM     80  C   UNL A   1      37.736  29.073  32.353  1.00  0.00     0.041 A 
ATOM     81  F   UNL A   1      39.161  27.301  32.104  1.00  0.00    -0.206 F 
ATOM     82  C   UNL A   1      37.322  30.229  32.979  1.00  0.00     0.022 A 
BRANCH  79  83
ATOM     83  S   UNL A   1      37.611  32.252  34.843  1.00  0.00     0.124 S 
ATOM     84  O   UNL A   1      38.722  33.177  34.641  1.00  0.00    -0.237 OA
ATOM     85  O   UNL A   1      36.361  32.577  34.168  1.00  0.00    -0.237 OA
ATOM     86  O   UNL A   1      37.461  31.761  36.213  1.00  0.00    -0.744 OA
ENDBRANCH  79  83
ENDBRANCH  62  76
BRANCH  63  87
ATOM     87  C   UNL A   1      48.180  23.408  34.556  1.00  0.00     0.023 A 
ATOM     88  C   UNL A   1      49.210  24.298  34.139  1.00  0.00     0.031 A 
ATOM     89  C   UNL A   1      48.580  22.148  35.036  1.00  0.00     0.131 A 
ATOM     90  C   UNL A   1      50.554  24.037  34.473  1.00  0.00     0.055 A 
ATOM     91  C   UNL A   1      49.926  21.886  35.339  1.00  0.00     0.041 A 
ATOM     92  F   UNL A   1      47.664  21.261  35.452  1.00  0.00    -0.206 F 
ATOM     93  C   UNL A   1      50.906  22.861  35.136  1.00  0.00     0.022 A 
BRANCH  90  94
ATOM     94  S   UNL A   1      51.805  25.346  34.243  1.00  0.00     0.124 S 
ATOM     95  O   UNL A   1      51.995  25.329  32.796  1.00  0.00    -0.237 OA
ATOM     96  O   UNL A   1      51.148  26.534  34.780  1.00  0.00    -0.237 OA
ATOM     97  O   UNL A   1      52.941  24.875  35.028  1.00  0.00    -0.744 OA
ENDBRANCH  90  94
ENDBRANCH  63  87
BRANCH  75  98
ATOM     98  C   UNL A   1      44.939  29.546  37.265  1.00  0.00     0.023 A 
ATOM     99  C   UNL A   1      44.434  30.084  38.439  1.00  0.00     0.031 A 
ATOM    100  C   UNL A   1      45.717  30.468  36.485  1.00  0.00     0.131 A 
ATOM    101  C   UNL A   1      44.578  31.448  38.742  1.00  0.00     0.055 A 
ATOM    102  C   UNL A   1      45.979  31.790  36.860  1.00  0.00     0.041 A 
ATOM    103  F   UNL A   1      46.299  30.140  35.322  1.00  0.00    -0.206 F 
ATOM    104  C   UNL A   1      45.367  32.305  37.982  1.00  0.00     0.022 A 
BRANCH 101 105
ATOM    105  S   UNL A   1      43.550  32.080  40.078  1.00  0.00     0.124 S 
ATOM    106  O   UNL A   1      43.902  31.173  41.170  1.00  0.00    -0.237 OA
ATOM    107  O   UNL A   1      44.030  33.450  40.215  1.00  0.00    -0.237 OA
ATOM    108  O   UNL A   1      42.191  31.934  39.565  1.00  0.00    -0.744 OA
ENDBRANCH 101 105
ENDBRANCH  75  98
ENDBRANCH  49  50
ENDBRANCH  42  44
ENDBRANCH  41  42
ENDBRANCH  40  41
ENDBRANCH  39  40
ENDBRANCH  38  39
ENDBRANCH  37  38
ENDBRANCH   1  37
TORSDOF 26
ENDMDL
MODEL 2
REMARK VINA RESULT:      -8.8      3.890      8.192
REMARK SMILES Cc1ccc(C2=NN(C(=O)CCC(=O)OCCOCCOCCOC(=O)c3ccc(-c4c5nc(c(-c6cc(S(=O)(=O)[O-])ccc6F)c6ccc([nH]6)c(-c6cc(S(=O)(=O)[O-])ccc6F)c6nc(c(-c7cc(S(=O)(=O)[O-])ccc7F)c7ccc4[nH]7)C=C6)C=C5)cc3)[C@H](C[C@@H]3C=c4cccc(C)c4=NC3=O)C2)cc1
REMARK SMILES IDX 19 1 18 2 17 3 16 4 15 5 13 6 14 7 12 8 11 9 9 10 10 11 8 12
REMARK SMILES IDX 6 13 7 14 104 15 90 16 5 17 1 18 2 19 3 20 106 21 4 22
REMARK SMILES IDX 105 23 91 24 92 25 93 26 102 27 94 28 101 29 103 30 95 31
REMARK SMILES IDX 100 32 96 33 98 34 97 35 99 36 20 37 21 38 22 39 23 40 24 41
REMARK SMILES IDX 25 42 26 43 27 44 28 45 89 46 29 47 88 48 30 49 31 50 32 51
REMARK SMILES IDX 82 52 33 53 87 54 81 55 83 56 34 57 86 58 80 59 79 60 35 62
REMARK SMILES IDX 67 63 47 64 66 65 48 66 51 67 65 68 84 69 49 70 50 71 64 73
REMARK SMILES IDX 85 74 52 75 36 76 37 77 45 78 38 79 44 80 46 81 43 82 39 83
REMARK SMILES IDX 40 84 41 85 42 86 68 87 69 88 77 89 70 90 76 91 78 92 75 93
REMARK SMILES IDX 71 94 72 95 73 96 74 97 53 98 54 99 62 100 55 101 61 102
REMARK SMILES IDX 63 103 60 104 56 105 57 106 58 107 59 108
REMARK H PARENT 83 61 51 72
REMARK Flexibility Score: inf
ROOT
ATOM      1  C   UNL A   1      43.787  28.763  27.042  1.00  0.00     0.188 C 
ENDROOT
BRANCH   1   2
ATOM      2  O   UNL A   1      43.808  28.325  25.643  1.00  0.00    -0.376 OA
BRANCH   2   3
ATOM      3  C   UNL A   1      43.609  26.985  25.156  1.00  0.00     0.202 C 
BRANCH   3   4
ATOM      4  C   UNL A   1      44.726  25.758  25.460  1.00  0.00     0.261 C 
BRANCH   4   5
ATOM      5  O   UNL A   1      45.085  24.516  24.563  1.00  0.00    -0.463 OA
BRANCH   5   6
ATOM      6  C   UNL A   1      44.736  23.315  25.085  1.00  0.00     0.306 C 
ATOM      7  O   UNL A   1      45.719  22.806  25.621  1.00  0.00    -0.252 OA
BRANCH   6   8
ATOM      8  C   UNL A   1      43.000  22.550  25.246  1.00  0.00     0.132 C 
BRANCH   8   9
ATOM      9  C   UNL A   1      42.437  21.648  26.296  1.00  0.00     0.114 C 
BRANCH   9  10
ATOM     10  C   UNL A   1      40.971  21.432  26.462  1.00  0.00     0.243 C 
ATOM     11  O   UNL A   1      40.657  20.248  26.673  1.00  0.00    -0.273 OA
BRANCH  10  12
ATOM     12  N   UNL A   1      40.004  22.408  26.270  1.00  0.00    -0.230 N 
ATOM     13  C   UNL A   1      39.611  24.442  26.842  1.00  0.00     0.070 C 
ATOM     14  N   UNL A   1      40.513  23.533  26.851  1.00  0.00    -0.174 NA
ATOM     15  C   UNL A   1      38.364  24.189  26.046  1.00  0.00     0.086 C 
ATOM     16  C   UNL A   1      38.420  22.660  26.060  1.00  0.00     0.118 C 
BRANCH  13  17
ATOM     17  C   UNL A   1      39.892  25.707  27.463  1.00  0.00    -0.002 A 
ATOM     18  C   UNL A   1      41.072  29.164  29.580  1.00  0.00     0.044 C 
ATOM     19  C   UNL A   1      40.574  27.977  28.821  1.00  0.00    -0.051 A 
ATOM     20  C   UNL A   1      40.403  26.774  29.518  1.00  0.00     0.004 A 
ATOM     21  C   UNL A   1      40.300  28.050  27.443  1.00  0.00     0.004 A 
ATOM     22  C   UNL A   1      40.039  25.635  28.839  1.00  0.00     0.010 A 
ATOM     23  C   UNL A   1      39.942  26.901  26.749  1.00  0.00     0.010 A 
ENDBRANCH  13  17
BRANCH  16  24
ATOM     24  C   UNL A   1      37.133  21.703  25.285  1.00  0.00     0.045 C 
BRANCH  24  25
ATOM     25  C   UNL A   1      35.252  21.796  25.037  1.00  0.00     0.106 C 
ATOM     26  C   UNL A   1      34.329  22.861  23.343  1.00  0.00    -0.003 C 
ATOM     27  C   UNL A   1      34.293  22.480  26.701  1.00  0.00     0.253 C 
ATOM     28  C   UNL A   1      33.486  24.059  23.523  1.00  0.00    -0.003 A 
ATOM     29  N   UNL A   1      33.269  23.893  26.461  1.00  0.00    -0.212 NA
ATOM     30  O   UNL A   1      34.309  21.930  27.790  1.00  0.00    -0.272 OA
ATOM     31  C   UNL A   1      33.649  25.074  22.498  1.00  0.00     0.010 A 
ATOM     32  C   UNL A   1      33.028  24.587  25.219  1.00  0.00     0.077 A 
ATOM     33  C   UNL A   1      33.507  26.365  22.798  1.00  0.00     0.001 A 
ATOM     34  C   UNL A   1      32.730  26.085  25.166  1.00  0.00    -0.025 A 
ATOM     35  C   UNL A   1      33.001  26.825  24.067  1.00  0.00     0.005 A 
ATOM     36  C   UNL A   1      32.340  26.771  26.432  1.00  0.00     0.047 C 
ENDBRANCH  24  25
ENDBRANCH  16  24
ENDBRANCH  10  12
ENDBRANCH   9  10
ENDBRANCH   8   9
ENDBRANCH   6   8
ENDBRANCH   5   6
ENDBRANCH   4   5
ENDBRANCH   3   4
ENDBRANCH   2   3
ENDBRANCH   1   2
BRANCH   1  37
ATOM     37  C   UNL A   1      44.979  29.099  28.035  1.00  0.00     0.188 C 
BRANCH  37  38
ATOM     38  O   UNL A   1      45.246  30.490  28.290  1.00  0.00    -0.376 OA
BRANCH  38  39
ATOM     39  C   UNL A   1      45.471  31.422  27.225  1.00  0.00     0.202 C 
BRANCH  39  40
ATOM     40  C   UNL A   1      45.354  32.911  27.780  1.00  0.00     0.261 C 
BRANCH  40  41
ATOM     41  O   UNL A   1      44.841  32.962  29.163  1.00  0.00    -0.460 OA
BRANCH  41  42
ATOM     42  C   UNL A   1      45.263  33.903  30.072  1.00  0.00     0.338 C 
ATOM     43  O   UNL A   1      44.918  35.065  29.992  1.00  0.00    -0.246 OA
BRANCH  42  44
ATOM     44  C   UNL A   1      46.343  33.109  31.161  1.00  0.00     0.060 A 
ATOM     45  C   UNL A   1      47.948  31.878  30.943  1.00  0.00     0.016 A 
ATOM     46  C   UNL A   1      45.414  32.866  32.478  1.00  0.00     0.016 A 
ATOM     47  C   UNL A   1      48.177  30.443  32.034  1.00  0.00     0.010 A 
ATOM     48  C   UNL A   1      45.790  31.349  33.318  1.00  0.00     0.010 A 
ATOM     49  C   UNL A   1      47.042  30.068  33.248  1.00  0.00    -0.014 A 
BRANCH  49  50
ATOM     50  C   UNL A   1      46.853  28.504  34.245  1.00  0.00     0.031 A 
ATOM     51  C   UNL A   1      47.236  28.019  36.010  1.00  0.00     0.074 A 
ATOM     52  C   UNL A   1      45.729  27.773  33.917  1.00  0.00     0.049 A 
ATOM     53  N   UNL A   1      47.451  26.818  36.559  1.00  0.00    -0.248 NA
ATOM     54  C   UNL A   1      47.352  28.861  37.349  1.00  0.00     0.031 C 
ATOM     55  C   UNL A   1      44.847  27.132  34.921  1.00  0.00     0.029 A 
ATOM     56  N   UNL A   1      44.938  27.678  32.761  1.00  0.00    -0.354 N 
ATOM     57  C   UNL A   1      47.635  27.090  37.998  1.00  0.00     0.074 A 
ATOM     58  C   UNL A   1      48.355  28.285  38.005  1.00  0.00     0.031 C 
ATOM     59  C   UNL A   1      43.763  26.590  34.340  1.00  0.00     0.029 A 
ATOM     60  C   UNL A   1      44.068  26.554  32.938  1.00  0.00     0.049 A 
ATOM     61  H   UNL A   1      44.973  28.272  31.977  1.00  0.00     0.167 HD
ATOM     62  C   UNL A   1      46.685  26.947  39.034  1.00  0.00     0.034 A 
ATOM     63  C   UNL A   1      44.276  25.378  32.266  1.00  0.00     0.034 A 
ATOM     64  C   UNL A   1      45.594  26.153  38.563  1.00  0.00     0.049 A 
ATOM     65  C   UNL A   1      44.727  24.241  33.199  1.00  0.00     0.074 A 
ATOM     66  C   UNL A   1      44.220  26.143  38.481  1.00  0.00     0.029 A 
ATOM     67  N   UNL A   1      46.027  25.108  37.816  1.00  0.00    -0.354 N 
ATOM     68  N   UNL A   1      45.002  24.448  34.464  1.00  0.00    -0.248 NA
ATOM     69  C   UNL A   1      44.831  22.814  32.897  1.00  0.00     0.031 C 
ATOM     70  C   UNL A   1      43.874  25.050  37.598  1.00  0.00     0.029 A 
ATOM     71  C   UNL A   1      45.045  24.402  37.232  1.00  0.00     0.049 A 
ATOM     72  H   UNL A   1      46.980  24.885  37.711  1.00  0.00     0.167 HD
ATOM     73  C   UNL A   1      45.286  23.295  35.128  1.00  0.00     0.074 A 
ATOM     74  C   UNL A   1      45.202  22.293  34.089  1.00  0.00     0.031 C 
ATOM     75  C   UNL A   1      45.557  23.283  36.470  1.00  0.00     0.034 A 
BRANCH  62  76
ATOM     76  C   UNL A   1      46.669  27.643  40.455  1.00  0.00     0.023 A 
ATOM     77  C   UNL A   1      45.694  28.640  40.680  1.00  0.00     0.031 A 
ATOM     78  C   UNL A   1      47.517  27.430  41.586  1.00  0.00     0.131 A 
ATOM     79  C   UNL A   1      45.526  29.271  41.944  1.00  0.00     0.055 A 
ATOM     80  C   UNL A   1      47.309  28.009  42.858  1.00  0.00     0.041 A 
ATOM     81  F   UNL A   1      48.647  26.711  41.533  1.00  0.00    -0.206 F 
ATOM     82  C   UNL A   1      46.298  28.926  43.048  1.00  0.00     0.022 A 
BRANCH  79  83
ATOM     83  S   UNL A   1      44.256  30.555  42.137  1.00  0.00     0.124 S 
ATOM     84  O   UNL A   1      43.283  29.886  42.995  1.00  0.00    -0.237 OA
ATOM     85  O   UNL A   1      45.012  31.647  42.737  1.00  0.00    -0.237 OA
ATOM     86  O   UNL A   1      43.803  30.800  40.767  1.00  0.00    -0.744 OA
ENDBRANCH  79  83
ENDBRANCH  62  76
BRANCH  63  87
ATOM     87  C   UNL A   1      44.538  25.691  30.820  1.00  0.00     0.023 A 
ATOM     88  C   UNL A   1      45.797  26.304  30.564  1.00  0.00     0.031 A 
ATOM     89  C   UNL A   1      44.057  24.792  29.851  1.00  0.00     0.131 A 
ATOM     90  C   UNL A   1      46.638  25.806  29.549  1.00  0.00     0.055 A 
ATOM     91  C   UNL A   1      44.893  24.322  28.825  1.00  0.00     0.041 A 
ATOM     92  F   UNL A   1      42.880  24.172  30.029  1.00  0.00    -0.206 F 
ATOM     93  C   UNL A   1      46.213  24.766  28.722  1.00  0.00     0.022 A 
BRANCH  90  94
ATOM     94  S   UNL A   1      48.373  26.366  29.467  1.00  0.00     0.124 S 
ATOM     95  O   UNL A   1      48.236  27.673  28.831  1.00  0.00    -0.237 OA
ATOM     96  O   UNL A   1      48.784  26.385  30.869  1.00  0.00    -0.237 OA
ATOM     97  O   UNL A   1      49.026  25.342  28.658  1.00  0.00    -0.744 OA
ENDBRANCH  90  94
ENDBRANCH  63  87
BRANCH  75  98
ATOM     98  C   UNL A   1      46.567  22.341  37.158  1.00  0.00     0.023 A 
ATOM     99  C   UNL A   1      46.145  21.183  37.796  1.00  0.00     0.031 A 
ATOM    100  C   UNL A   1      47.995  22.483  37.087  1.00  0.00     0.131 A 
ATOM    101  C   UNL A   1      47.057  20.316  38.420  1.00  0.00     0.055 A 
ATOM    102  C   UNL A   1      48.905  21.544  37.585  1.00  0.00     0.041 A 
ATOM    103  F   UNL A   1      48.601  23.526  36.503  1.00  0.00    -0.206 F 
ATOM    104  C   UNL A   1      48.434  20.466  38.301  1.00  0.00     0.022 A 
BRANCH 101 105
ATOM    105  S   UNL A   1      46.353  19.086  39.530  1.00  0.00     0.124 S 
ATOM    106  O   UNL A   1      45.646  19.930  40.491  1.00  0.00    -0.237 OA
ATOM    107  O   UNL A   1      45.508  18.308  38.630  1.00  0.00    -0.237 OA
ATOM    108  O   UNL A   1      47.523  18.390  40.057  1.00  0.00    -0.744 OA
ENDBRANCH 101 105
ENDBRANCH  75  98
ENDBRANCH  49  50
ENDBRANCH  42  44
ENDBRANCH  41  42
ENDBRANCH  40  41
ENDBRANCH  39  40
ENDBRANCH  38  39
ENDBRANCH  37  38
ENDBRANCH   1  37
TORSDOF 26
ENDMDL
MODEL 3
REMARK VINA RESULT:      -8.5      4.426     10.453
REMARK SMILES Cc1ccc(C2=NN(C(=O)CCC(=O)OCCOCCOCCOC(=O)c3ccc(-c4c5nc(c(-c6cc(S(=O)(=O)[O-])ccc6F)c6ccc([nH]6)c(-c6cc(S(=O)(=O)[O-])ccc6F)c6nc(c(-c7cc(S(=O)(=O)[O-])ccc7F)c7ccc4[nH]7)C=C6)C=C5)cc3)[C@H](C[C@@H]3C=c4cccc(C)c4=NC3=O)C2)cc1
REMARK SMILES IDX 19 1 18 2 17 3 16 4 15 5 13 6 14 7 12 8 11 9 9 10 10 11 8 12
REMARK SMILES IDX 6 13 7 14 104 15 90 16 5 17 1 18 2 19 3 20 106 21 4 22
REMARK SMILES IDX 105 23 91 24 92 25 93 26 102 27 94 28 101 29 103 30 95 31
REMARK SMILES IDX 100 32 96 33 98 34 97 35 99 36 20 37 21 38 22 39 23 40 24 41
REMARK SMILES IDX 25 42 26 43 27 44 28 45 89 46 29 47 88 48 30 49 31 50 32 51
REMARK SMILES IDX 82 52 33 53 87 54 81 55 83 56 34 57 86 58 80 59 79 60 35 62
REMARK SMILES IDX 67 63 47 64 66 65 48 66 51 67 65 68 84 69 49 70 50 71 64 73
REMARK SMILES IDX 85 74 52 75 36 76 37 77 45 78 38 79 44 80 46 81 43 82 39 83
REMARK SMILES IDX 40 84 41 85 42 86 68 87 69 88 77 89 70 90 76 91 78 92 75 93
REMARK SMILES IDX 71 94 72 95 73 96 74 97 53 98 54 99 62 100 55 101 61 102
REMARK SMILES IDX 63 103 60 104 56 105 57 106 58 107 59 108
REMARK H PARENT 83 61 51 72
REMARK Flexibility Score: inf
ROOT
ATOM      1  C   UNL A   1      37.673  33.018  31.144  1.00  0.00     0.188 C 
ENDROOT
BRANCH   1   2
ATOM      2  O   UNL A   1      36.705  33.959  30.572  1.00  0.00    -0.376 OA
BRANCH   2   3
ATOM      3  C   UNL A   1      35.275  33.802  30.523  1.00  0.00     0.202 C 
BRANCH   3   4
ATOM      4  C   UNL A   1      34.542  32.683  29.496  1.00  0.00     0.261 C 
BRANCH   4   5
ATOM      5  O   UNL A   1      35.134  31.340  28.927  1.00  0.00    -0.463 OA
BRANCH   5   6
ATOM      6  C   UNL A   1      34.474  30.836  27.856  1.00  0.00     0.306 C 
ATOM      7  O   UNL A   1      33.891  31.749  27.273  1.00  0.00    -0.252 OA
BRANCH   6   8
ATOM      8  C   UNL A   1      34.559  29.079  27.129  1.00  0.00     0.132 C 
BRANCH   8   9
ATOM      9  C   UNL A   1      33.464  28.118  26.797  1.00  0.00     0.114 C 
BRANCH   9  10
ATOM     10  C   UNL A   1      32.072  28.562  26.501  1.00  0.00     0.243 C 
ATOM     11  O   UNL A   1      31.531  29.178  27.436  1.00  0.00    -0.273 OA
BRANCH  10  12
ATOM     12  N   UNL A   1      31.361  28.221  25.358  1.00  0.00    -0.230 N 
ATOM     13  C   UNL A   1      30.183  29.171  23.833  1.00  0.00     0.070 C 
ATOM     14  N   UNL A   1      30.971  29.410  24.814  1.00  0.00    -0.174 NA
ATOM     15  C   UNL A   1      30.050  27.751  23.367  1.00  0.00     0.086 C 
ATOM     16  C   UNL A   1      30.458  27.068  24.673  1.00  0.00     0.118 C 
BRANCH  13  17
ATOM     17  C   UNL A   1      29.584  30.277  23.137  1.00  0.00    -0.002 A 
ATOM     18  C   UNL A   1      27.567  33.160  20.805  1.00  0.00     0.044 C 
ATOM     19  C   UNL A   1      28.347  32.198  21.640  1.00  0.00    -0.051 A 
ATOM     20  C   UNL A   1      28.873  31.059  21.014  1.00  0.00     0.004 A 
ATOM     21  C   UNL A   1      28.538  32.409  23.017  1.00  0.00     0.004 A 
ATOM     22  C   UNL A   1      29.514  30.101  21.764  1.00  0.00     0.010 A 
ATOM     23  C   UNL A   1      29.177  31.441  23.782  1.00  0.00     0.010 A 
ENDBRANCH  13  17
BRANCH  16  24
ATOM     24  C   UNL A   1      30.462  25.291  24.798  1.00  0.00     0.045 C 
BRANCH  24  25
ATOM     25  C   UNL A   1      31.120  23.803  23.818  1.00  0.00     0.106 C 
ATOM     26  C   UNL A   1      31.931  22.002  24.797  1.00  0.00    -0.003 C 
ATOM     27  C   UNL A   1      32.517  24.351  22.439  1.00  0.00     0.253 C 
ATOM     28  C   UNL A   1      33.346  21.600  24.672  1.00  0.00    -0.003 A 
ATOM     29  N   UNL A   1      34.072  23.533  22.565  1.00  0.00    -0.212 NA
ATOM     30  O   UNL A   1      32.315  25.111  21.506  1.00  0.00    -0.272 OA
ATOM     31  C   UNL A   1      33.923  21.035  25.878  1.00  0.00     0.010 A 
ATOM     32  C   UNL A   1      34.439  22.515  23.518  1.00  0.00     0.077 A 
ATOM     33  C   UNL A   1      35.214  21.213  26.157  1.00  0.00     0.001 A 
ATOM     34  C   UNL A   1      35.874  22.342  24.016  1.00  0.00    -0.025 A 
ATOM     35  C   UNL A   1      36.147  21.785  25.218  1.00  0.00     0.005 A 
ATOM     36  C   UNL A   1      36.970  23.005  23.252  1.00  0.00     0.047 C 
ENDBRANCH  24  25
ENDBRANCH  16  24
ENDBRANCH  10  12
ENDBRANCH   9  10
ENDBRANCH   8   9
ENDBRANCH   6   8
ENDBRANCH   5   6
ENDBRANCH   4   5
ENDBRANCH   3   4
ENDBRANCH   2   3
ENDBRANCH   1   2
BRANCH   1  37
ATOM     37  C   UNL A   1      37.932  32.596  32.652  1.00  0.00     0.188 C 
BRANCH  37  38
ATOM     38  O   UNL A   1      38.943  33.326  33.370  1.00  0.00    -0.376 OA
BRANCH  38  39
ATOM     39  C   UNL A   1      38.738  33.772  34.716  1.00  0.00     0.202 C 
BRANCH  39  40
ATOM     40  C   UNL A   1      39.707  32.977  35.700  1.00  0.00     0.261 C 
BRANCH  40  41
ATOM     41  O   UNL A   1      39.625  33.462  37.091  1.00  0.00    -0.460 OA
BRANCH  41  42
ATOM     42  C   UNL A   1      40.365  32.909  38.110  1.00  0.00     0.338 C 
ATOM     43  O   UNL A   1      39.893  32.729  39.214  1.00  0.00    -0.246 OA
BRANCH  42  44
ATOM     44  C   UNL A   1      41.960  32.654  37.497  1.00  0.00     0.060 A 
ATOM     45  C   UNL A   1      43.405  33.858  36.722  1.00  0.00     0.016 A 
ATOM     46  C   UNL A   1      41.882  31.137  36.907  1.00  0.00     0.016 A 
ATOM     47  C   UNL A   1      44.385  33.330  35.284  1.00  0.00     0.010 A 
ATOM     48  C   UNL A   1      42.871  30.912  35.451  1.00  0.00     0.010 A 
ATOM     49  C   UNL A   1      44.101  31.831  34.527  1.00  0.00    -0.014 A 
BRANCH  49  50
ATOM     50  C   UNL A   1      44.699  31.213  32.873  1.00  0.00     0.031 A 
ATOM     51  C   UNL A   1      44.303  29.730  31.805  1.00  0.00     0.074 A 
ATOM     52  C   UNL A   1      44.986  32.223  31.977  1.00  0.00     0.049 A 
ATOM     53  N   UNL A   1      45.016  29.128  30.845  1.00  0.00    -0.248 NA
ATOM     54  C   UNL A   1      43.014  28.814  31.683  1.00  0.00     0.031 C 
ATOM     55  C   UNL A   1      44.608  32.179  30.544  1.00  0.00     0.029 A 
ATOM     56  N   UNL A   1      45.348  33.572  32.119  1.00  0.00    -0.354 N 
ATOM     57  C   UNL A   1      44.134  28.059  30.337  1.00  0.00     0.074 A 
ATOM     58  C   UNL A   1      43.504  27.593  31.491  1.00  0.00     0.031 C 
ATOM     59  C   UNL A   1      44.897  33.338  29.929  1.00  0.00     0.029 A 
ATOM     60  C   UNL A   1      45.770  34.033  30.831  1.00  0.00     0.049 A 
ATOM     61  H   UNL A   1      45.317  34.102  32.948  1.00  0.00     0.167 HD
ATOM     62  C   UNL A   1      43.334  28.077  29.173  1.00  0.00     0.034 A 
ATOM     63  C   UNL A   1      47.095  34.244  30.548  1.00  0.00     0.034 A 
ATOM     64  C   UNL A   1      43.755  29.152  28.331  1.00  0.00     0.049 A 
ATOM     65  C   UNL A   1      47.652  33.217  29.547  1.00  0.00     0.074 A 
ATOM     66  C   UNL A   1      43.267  30.235  27.634  1.00  0.00     0.029 A 
ATOM     67  N   UNL A   1      45.107  29.253  28.294  1.00  0.00    -0.354 N 
ATOM     68  N   UNL A   1      46.946  32.189  29.141  1.00  0.00    -0.248 NA
ATOM     69  C   UNL A   1      48.933  33.246  28.844  1.00  0.00     0.031 C 
ATOM     70  C   UNL A   1      44.421  31.005  27.222  1.00  0.00     0.029 A 
ATOM     71  C   UNL A   1      45.562  30.328  27.630  1.00  0.00     0.049 A 
ATOM     72  H   UNL A   1      45.704  28.595  28.717  1.00  0.00     0.167 HD
ATOM     73  C   UNL A   1      47.589  31.464  28.186  1.00  0.00     0.074 A 
ATOM     74  C   UNL A   1      48.857  32.148  28.059  1.00  0.00     0.031 C 
ATOM     75  C   UNL A   1      47.008  30.375  27.594  1.00  0.00     0.034 A 
BRANCH  62  76
ATOM     76  C   UNL A   1      42.062  27.196  28.842  1.00  0.00     0.023 A 
ATOM     77  C   UNL A   1      42.285  25.889  28.354  1.00  0.00     0.031 A 
ATOM     78  C   UNL A   1      40.673  27.520  28.948  1.00  0.00     0.131 A 
ATOM     79  C   UNL A   1      41.223  24.976  28.107  1.00  0.00     0.055 A 
ATOM     80  C   UNL A   1      39.623  26.594  28.763  1.00  0.00     0.041 A 
ATOM     81  F   UNL A   1      40.223  28.765  29.161  1.00  0.00    -0.206 F 
ATOM     82  C   UNL A   1      39.895  25.306  28.354  1.00  0.00     0.022 A 
BRANCH  79  83
ATOM     83  S   UNL A   1      41.603  23.321  27.465  1.00  0.00     0.124 S 
ATOM     84  O   UNL A   1      40.330  22.934  26.863  1.00  0.00    -0.237 OA
ATOM     85  O   UNL A   1      42.702  23.592  26.546  1.00  0.00    -0.237 OA
ATOM     86  O   UNL A   1      41.973  22.564  28.660  1.00  0.00    -0.744 OA
ENDBRANCH  79  83
ENDBRANCH  62  76
BRANCH  63  87
ATOM     87  C   UNL A   1      47.709  35.023  31.676  1.00  0.00     0.023 A 
ATOM     88  C   UNL A   1      48.154  34.230  32.771  1.00  0.00     0.031 A 
ATOM     89  C   UNL A   1      48.476  36.158  31.356  1.00  0.00     0.131 A 
ATOM     90  C   UNL A   1      49.447  34.409  33.300  1.00  0.00     0.055 A 
ATOM     91  C   UNL A   1      49.753  36.345  31.910  1.00  0.00     0.041 A 
ATOM     92  F   UNL A   1      48.119  36.948  30.332  1.00  0.00    -0.206 F 
ATOM     93  C   UNL A   1      50.276  35.425  32.822  1.00  0.00     0.022 A 
BRANCH  90  94
ATOM     94  S   UNL A   1      50.126  33.166  34.452  1.00  0.00     0.124 S 
ATOM     95  O   UNL A   1      49.243  32.028  34.217  1.00  0.00    -0.237 OA
ATOM     96  O   UNL A   1      51.503  33.004  33.995  1.00  0.00    -0.237 OA
ATOM     97  O   UNL A   1      49.993  33.802  35.759  1.00  0.00    -0.744 OA
ENDBRANCH  90  94
ENDBRANCH  63  87
BRANCH  75  98
ATOM     98  C   UNL A   1      47.762  29.104  27.152  1.00  0.00     0.023 A 
ATOM     99  C   UNL A   1      47.500  28.505  25.929  1.00  0.00     0.031 A 
ATOM    100  C   UNL A   1      48.867  28.521  27.863  1.00  0.00     0.131 A 
ATOM    101  C   UNL A   1      48.185  27.351  25.514  1.00  0.00     0.055 A 
ATOM    102  C   UNL A   1      49.641  27.460  27.382  1.00  0.00     0.041 A 
ATOM    103  F   UNL A   1      49.285  28.961  29.058  1.00  0.00    -0.206 F 
ATOM    104  C   UNL A   1      49.271  26.834  26.212  1.00  0.00     0.022 A 
BRANCH 101 105
ATOM    105  S   UNL A   1      47.480  26.467  24.113  1.00  0.00     0.124 S 
ATOM    106  O   UNL A   1      47.379  27.532  23.117  1.00  0.00    -0.237 OA
ATOM    107  O   UNL A   1      48.492  25.449  23.851  1.00  0.00    -0.237 OA
ATOM    108  O   UNL A   1      46.205  25.973  24.625  1.00  0.00    -0.744 OA
ENDBRANCH 101 105
ENDBRANCH  75  98
ENDBRANCH  49  50
ENDBRANCH  42  44
ENDBRANCH  41  42
ENDBRANCH  40  41
ENDBRANCH  39  40
ENDBRANCH  38  39
ENDBRANCH  37  38
ENDBRANCH   1  37
TORSDOF 26
ENDMDL
