MODEL 1
REMARK VINA RESULT:     -10.2      0.000      0.000
REMARK SMILES CCN(C(=O)C1(C)CCCC1)[C@@H]1COC[C@H]1C(=O)OCCOCCOCCOC(=O)c1ccc(-c2c3nc(c(-c4cc(S(=O)(=O)[O-])ccc4F)c4ccc([nH]4)c(-c4cc(S(=O)(=O)[O-])ccc4F)c4nc(c(-c5cc(S(=O)(=O)[O-])ccc5F)c5ccc2[nH]5)C=C4)C=C3)cc1
REMARK SMILES IDX 23 1 22 2 21 3 20 4 19 5 17 6 18 7 16 8 12 9 13 10 14 11
REMARK SMILES IDX 15 12 3 13 2 14 1 15 4 16 5 17 6 18 7 19 8 20 11 21 9 22
REMARK SMILES IDX 10 23 24 24 25 25 26 26 27 27 28 28 29 29 30 30 31 31 32 32
REMARK SMILES IDX 93 33 33 34 92 35 34 36 35 37 36 38 86 39 37 40 91 41 85 42
REMARK SMILES IDX 87 43 38 44 90 45 84 46 83 47 39 49 71 50 51 51 70 52 52 53
REMARK SMILES IDX 55 54 69 55 88 56 53 57 54 58 68 60 89 61 56 62 40 63 41 64
REMARK SMILES IDX 49 65 42 66 48 67 50 68 47 69 43 70 44 71 45 72 46 73 72 74
REMARK SMILES IDX 73 75 81 76 74 77 80 78 82 79 79 80 75 81 76 82 77 83 78 84
REMARK SMILES IDX 57 85 58 86 66 87 59 88 65 89 67 90 64 91 60 92 61 93 62 94
REMARK SMILES IDX 63 95
REMARK H PARENT 87 48 55 59
REMARK Flexibility Score: inf
ROOT
ATOM      1  C   UNL A   1      33.106  20.977  25.219  1.00  0.00     0.188 C 
ENDROOT
BRANCH   1   2
ATOM      2  O   UNL A   1      31.755  21.391  25.041  1.00  0.00    -0.376 OA
BRANCH   2   3
ATOM      3  C   UNL A   1      31.300  22.548  25.725  1.00  0.00     0.202 C 
BRANCH   3   4
ATOM      4  C   UNL A   1      32.234  23.759  25.690  1.00  0.00     0.261 C 
BRANCH   4   5
ATOM      5  O   UNL A   1      32.295  24.438  24.412  1.00  0.00    -0.463 OA
BRANCH   5   6
ATOM      6  C   UNL A   1      31.096  24.671  23.827  1.00  0.00     0.313 C 
ATOM      7  O   UNL A   1      30.543  23.879  23.068  1.00  0.00    -0.252 OA
BRANCH   6   8
ATOM      8  C   UNL A   1      30.504  26.043  24.052  1.00  0.00     0.150 C 
ATOM      9  C   UNL A   1      30.846  27.295  23.226  1.00  0.00     0.127 C 
ATOM     10  C   UNL A   1      29.482  28.023  23.166  1.00  0.00     0.186 C 
ATOM     11  O   UNL A   1      28.443  27.132  23.576  1.00  0.00    -0.378 OA
ATOM     12  C   UNL A   1      29.015  25.855  23.820  1.00  0.00     0.177 C 
BRANCH   9  13
ATOM     13  N   UNL A   1      31.936  28.246  23.699  1.00  0.00    -0.336 N 
BRANCH  13  14
ATOM     14  C   UNL A   1      33.263  28.115  23.098  1.00  0.00     0.116 C 
ATOM     15  C   UNL A   1      33.342  27.126  21.943  1.00  0.00     0.027 C 
ENDBRANCH  13  14
BRANCH  13  16
ATOM     16  C   UNL A   1      31.705  28.890  24.934  1.00  0.00     0.228 C 
ATOM     17  O   UNL A   1      31.251  30.046  24.894  1.00  0.00    -0.274 OA
BRANCH  16  18
ATOM     18  C   UNL A   1      32.219  28.397  26.348  1.00  0.00     0.047 C 
ATOM     19  C   UNL A   1      31.095  27.487  26.851  1.00  0.00     0.022 C 
ATOM     20  C   UNL A   1      33.501  27.534  26.184  1.00  0.00     0.016 C 
ATOM     21  C   UNL A   1      32.680  29.295  27.498  1.00  0.00     0.016 C 
ATOM     22  C   UNL A   1      34.679  28.474  26.441  1.00  0.00     0.001 C 
ATOM     23  C   UNL A   1      34.102  29.693  27.149  1.00  0.00     0.001 C 
ENDBRANCH  16  18
ENDBRANCH  13  16
ENDBRANCH   9  13
ENDBRANCH   6   8
ENDBRANCH   5   6
ENDBRANCH   4   5
ENDBRANCH   3   4
ENDBRANCH   2   3
ENDBRANCH   1   2
BRANCH   1  24
ATOM     24  C   UNL A   1      33.496  19.542  24.841  1.00  0.00     0.188 C 
BRANCH  24  25
ATOM     25  O   UNL A   1      34.905  19.392  24.715  1.00  0.00    -0.376 OA
BRANCH  25  26
ATOM     26  C   UNL A   1      35.657  20.564  24.985  1.00  0.00     0.202 C 
BRANCH  26  27
ATOM     27  C   UNL A   1      37.156  20.280  24.936  1.00  0.00     0.261 C 
BRANCH  27  28
ATOM     28  O   UNL A   1      37.968  21.431  25.245  1.00  0.00    -0.460 OA
BRANCH  28  29
ATOM     29  C   UNL A   1      39.115  21.175  25.910  1.00  0.00     0.338 C 
ATOM     30  O   UNL A   1      39.729  20.126  25.926  1.00  0.00    -0.246 OA
BRANCH  29  31
ATOM     31  C   UNL A   1      39.566  22.392  26.612  1.00  0.00     0.060 A 
ATOM     32  C   UNL A   1      39.080  23.638  26.215  1.00  0.00     0.016 A 
ATOM     33  C   UNL A   1      40.599  22.309  27.541  1.00  0.00     0.016 A 
ATOM     34  C   UNL A   1      39.696  24.809  26.664  1.00  0.00     0.010 A 
ATOM     35  C   UNL A   1      41.175  23.483  28.039  1.00  0.00     0.010 A 
ATOM     36  C   UNL A   1      40.764  24.745  27.569  1.00  0.00    -0.014 A 
BRANCH  36  37
ATOM     37  C   UNL A   1      41.517  25.971  27.962  1.00  0.00     0.031 A 
ATOM     38  C   UNL A   1      40.824  27.034  28.779  1.00  0.00     0.074 A 
ATOM     39  C   UNL A   1      42.803  26.140  27.603  1.00  0.00     0.049 A 
ATOM     40  N   UNL A   1      41.193  28.265  29.032  1.00  0.00    -0.248 NA
ATOM     41  C   UNL A   1      39.538  26.658  29.384  1.00  0.00     0.031 C 
ATOM     42  C   UNL A   1      43.616  25.155  26.888  1.00  0.00     0.029 A 
ATOM     43  N   UNL A   1      43.653  27.206  27.779  1.00  0.00    -0.354 N 
ATOM     44  C   UNL A   1      40.159  28.828  29.777  1.00  0.00     0.074 A 
ATOM     45  C   UNL A   1      39.152  27.800  29.935  1.00  0.00     0.031 C 
ATOM     46  C   UNL A   1      44.845  25.658  26.694  1.00  0.00     0.029 A 
ATOM     47  C   UNL A   1      44.881  27.032  27.182  1.00  0.00     0.049 A 
ATOM     48  H   UNL A   1      43.407  28.014  28.284  1.00  0.00     0.167 HD
ATOM     49  C   UNL A   1      40.061  30.090  30.269  1.00  0.00     0.034 A 
ATOM     50  C   UNL A   1      45.896  27.900  26.991  1.00  0.00     0.034 A 
ATOM     51  C   UNL A   1      41.092  31.090  30.114  1.00  0.00     0.049 A 
ATOM     52  C   UNL A   1      45.740  29.317  27.482  1.00  0.00     0.074 A 
ATOM     53  C   UNL A   1      41.099  32.404  30.552  1.00  0.00     0.029 A 
ATOM     54  N   UNL A   1      42.309  30.883  29.473  1.00  0.00    -0.354 N 
ATOM     55  N   UNL A   1      44.725  29.865  28.110  1.00  0.00    -0.248 NA
ATOM     56  C   UNL A   1      46.859  30.233  27.229  1.00  0.00     0.031 C 
ATOM     57  C   UNL A   1      42.288  33.006  30.122  1.00  0.00     0.029 A 
ATOM     58  C   UNL A   1      43.059  32.049  29.481  1.00  0.00     0.049 A 
ATOM     59  H   UNL A   1      42.596  30.032  29.070  1.00  0.00     0.167 HD
ATOM     60  C   UNL A   1      45.091  31.190  28.336  1.00  0.00     0.074 A 
ATOM     61  C   UNL A   1      46.428  31.346  27.802  1.00  0.00     0.031 C 
ATOM     62  C   UNL A   1      44.386  32.188  28.928  1.00  0.00     0.034 A 
BRANCH  49  63
ATOM     63  C   UNL A   1      38.764  30.477  30.944  1.00  0.00     0.023 A 
ATOM     64  C   UNL A   1      37.761  31.209  30.284  1.00  0.00     0.031 A 
ATOM     65  C   UNL A   1      38.545  30.133  32.291  1.00  0.00     0.131 A 
ATOM     66  C   UNL A   1      36.622  31.631  30.991  1.00  0.00     0.055 A 
ATOM     67  C   UNL A   1      37.375  30.489  32.965  1.00  0.00     0.041 A 
ATOM     68  F   UNL A   1      39.475  29.454  32.982  1.00  0.00    -0.206 F 
ATOM     69  C   UNL A   1      36.411  31.256  32.319  1.00  0.00     0.022 A 
BRANCH  66  70
ATOM     70  S   UNL A   1      35.487  32.800  30.191  1.00  0.00     0.124 S 
ATOM     71  O   UNL A   1      34.300  32.680  31.034  1.00  0.00    -0.237 OA
ATOM     72  O   UNL A   1      36.213  34.060  30.285  1.00  0.00    -0.237 OA
ATOM     73  O   UNL A   1      35.339  32.263  28.839  1.00  0.00    -0.744 OA
ENDBRANCH  66  70
ENDBRANCH  49  63
BRANCH  50  74
ATOM     74  C   UNL A   1      47.110  27.483  26.227  1.00  0.00     0.023 A 
ATOM     75  C   UNL A   1      47.268  27.809  24.871  1.00  0.00     0.031 A 
ATOM     76  C   UNL A   1      48.121  26.719  26.840  1.00  0.00     0.131 A 
ATOM     77  C   UNL A   1      48.393  27.352  24.167  1.00  0.00     0.055 A 
ATOM     78  C   UNL A   1      49.266  26.315  26.151  1.00  0.00     0.041 A 
ATOM     79  F   UNL A   1      48.020  26.369  28.132  1.00  0.00    -0.206 F 
ATOM     80  C   UNL A   1      49.402  26.624  24.802  1.00  0.00     0.022 A 
BRANCH  77  81
ATOM     81  S   UNL A   1      48.483  27.653  22.380  1.00  0.00     0.124 S 
ATOM     82  O   UNL A   1      47.212  28.323  22.126  1.00  0.00    -0.237 OA
ATOM     83  O   UNL A   1      49.678  28.481  22.273  1.00  0.00    -0.237 OA
ATOM     84  O   UNL A   1      48.605  26.310  21.814  1.00  0.00    -0.744 OA
ENDBRANCH  77  81
ENDBRANCH  50  74
BRANCH  62  85
ATOM     85  C   UNL A   1      45.080  33.522  29.057  1.00  0.00     0.023 A 
ATOM     86  C   UNL A   1      45.859  33.842  30.183  1.00  0.00     0.031 A 
ATOM     87  C   UNL A   1      44.931  34.497  28.055  1.00  0.00     0.131 A 
ATOM     88  C   UNL A   1      46.408  35.127  30.309  1.00  0.00     0.055 A 
ATOM     89  C   UNL A   1      45.529  35.753  28.158  1.00  0.00     0.041 A 
ATOM     90  F   UNL A   1      44.195  34.243  26.960  1.00  0.00    -0.206 F 
ATOM     91  C   UNL A   1      46.260  36.079  29.297  1.00  0.00     0.022 A 
BRANCH  88  92
ATOM     92  S   UNL A   1      47.233  35.573  31.862  1.00  0.00     0.124 S 
ATOM     93  O   UNL A   1      46.113  36.027  32.680  1.00  0.00    -0.237 OA
ATOM     94  O   UNL A   1      47.845  34.310  32.264  1.00  0.00    -0.237 OA
ATOM     95  O   UNL A   1      48.174  36.618  31.463  1.00  0.00    -0.744 OA
ENDBRANCH  88  92
ENDBRANCH  62  85
ENDBRANCH  36  37
ENDBRANCH  29  31
ENDBRANCH  28  29
ENDBRANCH  27  28
ENDBRANCH  26  27
ENDBRANCH  25  26
ENDBRANCH  24  25
ENDBRANCH   1  24
TORSDOF 24
ENDMDL
MODEL 2
REMARK VINA RESULT:     -10.1      1.621      7.626
REMARK SMILES CCN(C(=O)C1(C)CCCC1)[C@@H]1COC[C@H]1C(=O)OCCOCCOCCOC(=O)c1ccc(-c2c3nc(c(-c4cc(S(=O)(=O)[O-])ccc4F)c4ccc([nH]4)c(-c4cc(S(=O)(=O)[O-])ccc4F)c4nc(c(-c5cc(S(=O)(=O)[O-])ccc5F)c5ccc2[nH]5)C=C4)C=C3)cc1
REMARK SMILES IDX 23 1 22 2 21 3 20 4 19 5 17 6 18 7 16 8 12 9 13 10 14 11
REMARK SMILES IDX 15 12 3 13 2 14 1 15 4 16 5 17 6 18 7 19 8 20 11 21 9 22
REMARK SMILES IDX 10 23 24 24 25 25 26 26 27 27 28 28 29 29 30 30 31 31 32 32
REMARK SMILES IDX 93 33 33 34 92 35 34 36 35 37 36 38 86 39 37 40 91 41 85 42
REMARK SMILES IDX 87 43 38 44 90 45 84 46 83 47 39 49 71 50 51 51 70 52 52 53
REMARK SMILES IDX 55 54 69 55 88 56 53 57 54 58 68 60 89 61 56 62 40 63 41 64
REMARK SMILES IDX 49 65 42 66 48 67 50 68 47 69 43 70 44 71 45 72 46 73 72 74
REMARK SMILES IDX 73 75 81 76 74 77 80 78 82 79 79 80 75 81 76 82 77 83 78 84
REMARK SMILES IDX 57 85 58 86 66 87 59 88 65 89 67 90 64 91 60 92 61 93 62 94
REMARK SMILES IDX 63 95
REMARK H PARENT 87 48 55 59
REMARK Flexibility Score: inf
ROOT
ATOM      1  C   UNL A   1      35.654  21.560  25.454  1.00  0.00     0.188 C 
ENDROOT
BRANCH   1   2
ATOM      2  O   UNL A   1      34.498  22.390  25.400  1.00  0.00    -0.376 OA
BRANCH   2   3
ATOM      3  C   UNL A   1      34.597  23.730  25.855  1.00  0.00     0.202 C 
BRANCH   3   4
ATOM      4  C   UNL A   1      34.795  24.792  24.773  1.00  0.00     0.261 C 
BRANCH   4   5
ATOM      5  O   UNL A   1      34.315  24.413  23.459  1.00  0.00    -0.463 OA
BRANCH   5   6
ATOM      6  C   UNL A   1      33.529  25.331  22.848  1.00  0.00     0.313 C 
ATOM      7  O   UNL A   1      33.886  25.993  21.876  1.00  0.00    -0.252 OA
BRANCH   6   8
ATOM      8  C   UNL A   1      32.198  25.610  23.508  1.00  0.00     0.150 C 
ATOM      9  C   UNL A   1      31.186  26.668  23.035  1.00  0.00     0.127 C 
ATOM     10  C   UNL A   1      29.836  25.970  23.320  1.00  0.00     0.186 C 
ATOM     11  O   UNL A   1      30.055  24.580  23.568  1.00  0.00    -0.378 OA
ATOM     12  C   UNL A   1      31.435  24.302  23.385  1.00  0.00     0.177 C 
BRANCH   9  13
ATOM     13  N   UNL A   1      31.203  28.063  23.642  1.00  0.00    -0.336 N 
BRANCH  13  14
ATOM     14  C   UNL A   1      30.091  28.958  23.325  1.00  0.00     0.116 C 
ATOM     15  C   UNL A   1      30.203  29.658  21.977  1.00  0.00     0.027 C 
ENDBRANCH  13  14
BRANCH  13  16
ATOM     16  C   UNL A   1      32.452  28.519  24.118  1.00  0.00     0.228 C 
ATOM     17  O   UNL A   1      33.355  28.675  23.279  1.00  0.00    -0.274 OA
BRANCH  16  18
ATOM     18  C   UNL A   1      32.897  28.588  25.636  1.00  0.00     0.047 C 
ATOM     19  C   UNL A   1      33.853  29.784  25.685  1.00  0.00     0.022 C 
ATOM     20  C   UNL A   1      31.676  28.909  26.541  1.00  0.00     0.016 C 
ATOM     21  C   UNL A   1      33.502  27.439  26.446  1.00  0.00     0.016 C 
ATOM     22  C   UNL A   1      31.185  27.565  27.080  1.00  0.00     0.001 C 
ATOM     23  C   UNL A   1      32.323  26.577  26.859  1.00  0.00     0.001 C 
ENDBRANCH  16  18
ENDBRANCH  13  16
ENDBRANCH   9  13
ENDBRANCH   6   8
ENDBRANCH   5   6
ENDBRANCH   4   5
ENDBRANCH   3   4
ENDBRANCH   2   3
ENDBRANCH   1   2
BRANCH   1  24
ATOM     24  C   UNL A   1      35.609  20.183  24.780  1.00  0.00     0.188 C 
BRANCH  24  25
ATOM     25  O   UNL A   1      36.791  19.432  25.029  1.00  0.00    -0.376 OA
BRANCH  25  26
ATOM     26  C   UNL A   1      37.997  20.177  24.964  1.00  0.00     0.202 C 
BRANCH  26  27
ATOM     27  C   UNL A   1      39.144  19.429  25.638  1.00  0.00     0.261 C 
BRANCH  27  28
ATOM     28  O   UNL A   1      40.325  20.236  25.820  1.00  0.00    -0.460 OA
BRANCH  28  29
ATOM     29  C   UNL A   1      40.770  20.343  27.091  1.00  0.00     0.338 C 
ATOM     30  O   UNL A   1      41.105  19.434  27.824  1.00  0.00    -0.246 OA
BRANCH  29  31
ATOM     31  C   UNL A   1      40.833  21.766  27.478  1.00  0.00     0.060 A 
ATOM     32  C   UNL A   1      40.132  22.715  26.735  1.00  0.00     0.016 A 
ATOM     33  C   UNL A   1      41.725  22.172  28.467  1.00  0.00     0.016 A 
ATOM     34  C   UNL A   1      40.399  24.077  26.902  1.00  0.00     0.010 A 
ATOM     35  C   UNL A   1      41.946  23.538  28.677  1.00  0.00     0.010 A 
ATOM     36  C   UNL A   1      41.324  24.504  27.864  1.00  0.00    -0.014 A 
BRANCH  36  37
ATOM     37  C   UNL A   1      41.717  25.939  27.973  1.00  0.00     0.031 A 
ATOM     38  C   UNL A   1      43.080  26.371  27.494  1.00  0.00     0.074 A 
ATOM     39  C   UNL A   1      40.870  26.851  28.487  1.00  0.00     0.049 A 
ATOM     40  N   UNL A   1      43.719  27.495  27.700  1.00  0.00    -0.248 NA
ATOM     41  C   UNL A   1      43.825  25.399  26.680  1.00  0.00     0.031 C 
ATOM     42  C   UNL A   1      39.494  26.584  28.907  1.00  0.00     0.029 A 
ATOM     43  N   UNL A   1      41.045  28.188  28.755  1.00  0.00    -0.354 N 
ATOM     44  C   UNL A   1      44.963  27.345  27.091  1.00  0.00     0.074 A 
ATOM     45  C   UNL A   1      44.984  26.020  26.506  1.00  0.00     0.031 C 
ATOM     46  C   UNL A   1      38.949  27.720  29.371  1.00  0.00     0.029 A 
ATOM     47  C   UNL A   1      39.961  28.770  29.373  1.00  0.00     0.049 A 
ATOM     48  H   UNL A   1      41.866  28.681  28.527  1.00  0.00     0.167 HD
ATOM     49  C   UNL A   1      45.992  28.229  27.039  1.00  0.00     0.034 A 
ATOM     50  C   UNL A   1      39.819  29.987  29.936  1.00  0.00     0.034 A 
ATOM     51  C   UNL A   1      45.936  29.554  27.613  1.00  0.00     0.049 A 
ATOM     52  C   UNL A   1      40.996  30.930  29.930  1.00  0.00     0.074 A 
ATOM     53  C   UNL A   1      46.919  30.530  27.638  1.00  0.00     0.029 A 
ATOM     54  N   UNL A   1      44.830  30.093  28.260  1.00  0.00    -0.354 N 
ATOM     55  N   UNL A   1      42.196  30.748  29.428  1.00  0.00    -0.248 NA
ATOM     56  C   UNL A   1      40.803  32.234  30.577  1.00  0.00     0.031 C 
ATOM     57  C   UNL A   1      46.429  31.630  28.353  1.00  0.00     0.029 A 
ATOM     58  C   UNL A   1      45.114  31.373  28.710  1.00  0.00     0.049 A 
ATOM     59  H   UNL A   1      43.969  29.632  28.383  1.00  0.00     0.167 HD
ATOM     60  C   UNL A   1      42.898  31.922  29.690  1.00  0.00     0.074 A 
ATOM     61  C   UNL A   1      41.977  32.811  30.368  1.00  0.00     0.031 C 
ATOM     62  C   UNL A   1      44.186  32.238  29.399  1.00  0.00     0.034 A 
BRANCH  49  63
ATOM     63  C   UNL A   1      47.286  27.759  26.412  1.00  0.00     0.023 A 
ATOM     64  C   UNL A   1      47.544  27.881  25.036  1.00  0.00     0.031 A 
ATOM     65  C   UNL A   1      48.268  27.143  27.211  1.00  0.00     0.131 A 
ATOM     66  C   UNL A   1      48.718  27.333  24.492  1.00  0.00     0.055 A 
ATOM     67  C   UNL A   1      49.468  26.671  26.676  1.00  0.00     0.041 A 
ATOM     68  F   UNL A   1      48.071  26.978  28.529  1.00  0.00    -0.206 F 
ATOM     69  C   UNL A   1      49.693  26.751  25.305  1.00  0.00     0.022 A 
BRANCH  66  70
ATOM     70  S   UNL A   1      48.890  27.264  22.686  1.00  0.00     0.124 S 
ATOM     71  O   UNL A   1      48.038  28.375  22.268  1.00  0.00    -0.237 OA
ATOM     72  O   UNL A   1      50.323  27.452  22.498  1.00  0.00    -0.237 OA
ATOM     73  O   UNL A   1      48.383  25.937  22.344  1.00  0.00    -0.744 OA
ENDBRANCH  66  70
ENDBRANCH  49  63
BRANCH  50  74
ATOM     74  C   UNL A   1      38.547  30.353  30.629  1.00  0.00     0.023 A 
ATOM     75  C   UNL A   1      37.552  31.102  29.980  1.00  0.00     0.031 A 
ATOM     76  C   UNL A   1      38.323  29.985  31.969  1.00  0.00     0.131 A 
ATOM     77  C   UNL A   1      36.394  31.480  30.678  1.00  0.00     0.055 A 
ATOM     78  C   UNL A   1      37.144  30.314  32.640  1.00  0.00     0.041 A 
ATOM     79  F   UNL A   1      39.244  29.278  32.643  1.00  0.00    -0.206 F 
ATOM     80  C   UNL A   1      36.175  31.075  31.997  1.00  0.00     0.022 A 
BRANCH  77  81
ATOM     81  S   UNL A   1      35.207  32.581  29.861  1.00  0.00     0.124 S 
ATOM     82  O   UNL A   1      36.058  33.701  29.473  1.00  0.00    -0.237 OA
ATOM     83  O   UNL A   1      34.714  31.742  28.774  1.00  0.00    -0.237 OA
ATOM     84  O   UNL A   1      34.233  32.872  30.912  1.00  0.00    -0.744 OA
ENDBRANCH  77  81
ENDBRANCH  50  74
BRANCH  62  85
ATOM     85  C   UNL A   1      44.647  33.622  29.787  1.00  0.00     0.023 A 
ATOM     86  C   UNL A   1      44.373  34.742  28.982  1.00  0.00     0.031 A 
ATOM     87  C   UNL A   1      45.399  33.815  30.958  1.00  0.00     0.131 A 
ATOM     88  C   UNL A   1      44.902  35.995  29.327  1.00  0.00     0.055 A 
ATOM     89  C   UNL A   1      45.872  35.075  31.327  1.00  0.00     0.041 A 
ATOM     90  F   UNL A   1      45.691  32.778  31.761  1.00  0.00    -0.206 F 
ATOM     91  C   UNL A   1      45.637  36.170  30.502  1.00  0.00     0.022 A 
BRANCH  88  92
ATOM     92  S   UNL A   1      44.704  37.374  28.165  1.00  0.00     0.124 S 
ATOM     93  O   UNL A   1      43.253  37.528  28.122  1.00  0.00    -0.237 OA
ATOM     94  O   UNL A   1      45.440  38.447  28.825  1.00  0.00    -0.237 OA
ATOM     95  O   UNL A   1      45.311  36.873  26.933  1.00  0.00    -0.744 OA
ENDBRANCH  88  92
ENDBRANCH  62  85
ENDBRANCH  36  37
ENDBRANCH  29  31
ENDBRANCH  28  29
ENDBRANCH  27  28
ENDBRANCH  26  27
ENDBRANCH  25  26
ENDBRANCH  24  25
ENDBRANCH   1  24
TORSDOF 24
ENDMDL
MODEL 3
REMARK VINA RESULT:      -9.7      2.518      7.903
REMARK SMILES CCN(C(=O)C1(C)CCCC1)[C@@H]1COC[C@H]1C(=O)OCCOCCOCCOC(=O)c1ccc(-c2c3nc(c(-c4cc(S(=O)(=O)[O-])ccc4F)c4ccc([nH]4)c(-c4cc(S(=O)(=O)[O-])ccc4F)c4nc(c(-c5cc(S(=O)(=O)[O-])ccc5F)c5ccc2[nH]5)C=C4)C=C3)cc1
REMARK SMILES IDX 23 1 22 2 21 3 20 4 19 5 17 6 18 7 16 8 12 9 13 10 14 11
REMARK SMILES IDX 15 12 3 13 2 14 1 15 4 16 5 17 6 18 7 19 8 20 11 21 9 22
REMARK SMILES IDX 10 23 24 24 25 25 26 26 27 27 28 28 29 29 30 30 31 31 32 32
REMARK SMILES IDX 93 33 33 34 92 35 34 36 35 37 36 38 86 39 37 40 91 41 85 42
REMARK SMILES IDX 87 43 38 44 90 45 84 46 83 47 39 49 71 50 51 51 70 52 52 53
REMARK SMILES IDX 55 54 69 55 88 56 53 57 54 58 68 60 89 61 56 62 40 63 41 64
REMARK SMILES IDX 49 65 42 66 48 67 50 68 47 69 43 70 44 71 45 72 46 73 72 74
REMARK SMILES IDX 73 75 81 76 74 77 80 78 82 79 79 80 75 81 76 82 77 83 78 84
REMARK SMILES IDX 57 85 58 86 66 87 59 88 65 89 67 90 64 91 60 92 61 93 62 94
REMARK SMILES IDX 63 95
REMARK H PARENT 87 48 55 59
REMARK Flexibility Score: inf
ROOT
ATOM      1  C   UNL A   1      35.360  21.298  26.158  1.00  0.00     0.188 C 
ENDROOT
BRANCH   1   2
ATOM      2  O   UNL A   1      34.052  21.327  26.719  1.00  0.00    -0.376 OA
BRANCH   2   3
ATOM      3  C   UNL A   1      33.725  22.358  27.637  1.00  0.00     0.202 C 
BRANCH   3   4
ATOM      4  C   UNL A   1      33.346  23.707  27.022  1.00  0.00     0.261 C 
BRANCH   4   5
ATOM      5  O   UNL A   1      34.336  24.259  26.120  1.00  0.00    -0.463 OA
BRANCH   5   6
ATOM      6  C   UNL A   1      33.910  24.454  24.849  1.00  0.00     0.313 C 
ATOM      7  O   UNL A   1      34.638  24.845  23.940  1.00  0.00    -0.252 OA
BRANCH   6   8
ATOM      8  C   UNL A   1      32.426  24.289  24.614  1.00  0.00     0.150 C 
ATOM      9  C   UNL A   1      31.574  25.186  23.700  1.00  0.00     0.127 C 
ATOM     10  C   UNL A   1      30.576  24.171  23.094  1.00  0.00     0.186 C 
ATOM     11  O   UNL A   1      31.032  22.840  23.341  1.00  0.00    -0.378 OA
ATOM     12  C   UNL A   1      32.294  22.910  23.989  1.00  0.00     0.177 C 
BRANCH   9  13
ATOM     13  N   UNL A   1      30.832  26.380  24.281  1.00  0.00    -0.336 N 
BRANCH  13  14
ATOM     14  C   UNL A   1      30.241  27.337  23.346  1.00  0.00     0.116 C 
ATOM     15  C   UNL A   1      28.739  27.530  23.499  1.00  0.00     0.027 C 
ENDBRANCH  13  14
BRANCH  13  16
ATOM     16  C   UNL A   1      31.111  26.688  25.631  1.00  0.00     0.228 C 
ATOM     17  O   UNL A   1      30.502  26.038  26.498  1.00  0.00    -0.274 OA
BRANCH  16  18
ATOM     18  C   UNL A   1      31.910  27.953  26.149  1.00  0.00     0.047 C 
ATOM     19  C   UNL A   1      31.493  28.076  27.617  1.00  0.00     0.022 C 
ATOM     20  C   UNL A   1      33.438  27.680  26.102  1.00  0.00     0.016 C 
ATOM     21  C   UNL A   1      31.893  29.345  25.512  1.00  0.00     0.016 C 
ATOM     22  C   UNL A   1      33.938  28.299  24.795  1.00  0.00     0.001 C 
ATOM     23  C   UNL A   1      32.847  29.257  24.336  1.00  0.00     0.001 C 
ENDBRANCH  16  18
ENDBRANCH  13  16
ENDBRANCH   9  13
ENDBRANCH   6   8
ENDBRANCH   5   6
ENDBRANCH   4   5
ENDBRANCH   3   4
ENDBRANCH   2   3
ENDBRANCH   1   2
BRANCH   1  24
ATOM     24  C   UNL A   1      35.555  20.679  24.768  1.00  0.00     0.188 C 
BRANCH  24  25
ATOM     25  O   UNL A   1      36.839  20.082  24.629  1.00  0.00    -0.376 OA
BRANCH  25  26
ATOM     26  C   UNL A   1      37.906  20.821  25.204  1.00  0.00     0.202 C 
BRANCH  26  27
ATOM     27  C   UNL A   1      38.986  19.891  25.752  1.00  0.00     0.261 C 
BRANCH  27  28
ATOM     28  O   UNL A   1      40.270  20.530  25.901  1.00  0.00    -0.460 OA
BRANCH  28  29
ATOM     29  C   UNL A   1      40.717  20.654  27.169  1.00  0.00     0.338 C 
ATOM     30  O   UNL A   1      40.959  19.753  27.947  1.00  0.00    -0.246 OA
BRANCH  29  31
ATOM     31  C   UNL A   1      40.919  22.080  27.489  1.00  0.00     0.060 A 
ATOM     32  C   UNL A   1      40.230  23.054  26.766  1.00  0.00     0.016 A 
ATOM     33  C   UNL A   1      41.919  22.451  28.383  1.00  0.00     0.016 A 
ATOM     34  C   UNL A   1      40.610  24.396  26.852  1.00  0.00     0.010 A 
ATOM     35  C   UNL A   1      42.258  23.803  28.517  1.00  0.00     0.010 A 
ATOM     36  C   UNL A   1      41.643  24.784  27.717  1.00  0.00    -0.014 A 
BRANCH  36  37
ATOM     37  C   UNL A   1      42.149  26.187  27.732  1.00  0.00     0.031 A 
ATOM     38  C   UNL A   1      43.465  26.507  27.069  1.00  0.00     0.074 A 
ATOM     39  C   UNL A   1      41.445  27.171  28.325  1.00  0.00     0.049 A 
ATOM     40  N   UNL A   1      44.205  27.583  27.158  1.00  0.00    -0.248 NA
ATOM     41  C   UNL A   1      44.025  25.465  26.195  1.00  0.00     0.031 C 
ATOM     42  C   UNL A   1      40.120  27.016  28.926  1.00  0.00     0.029 A 
ATOM     43  N   UNL A   1      41.749  28.495  28.529  1.00  0.00    -0.354 N 
ATOM     44  C   UNL A   1      45.344  27.328  26.398  1.00  0.00     0.074 A 
ATOM     45  C   UNL A   1      45.192  25.994  25.854  1.00  0.00     0.031 C 
ATOM     46  C   UNL A   1      39.724  28.199  29.424  1.00  0.00     0.029 A 
ATOM     47  C   UNL A   1      40.800  29.169  29.265  1.00  0.00     0.049 A 
ATOM     48  H   UNL A   1      42.566  28.921  28.182  1.00  0.00     0.167 HD
ATOM     49  C   UNL A   1      46.418  28.131  26.187  1.00  0.00     0.034 A 
ATOM     50  C   UNL A   1      40.821  30.405  29.805  1.00  0.00     0.034 A 
ATOM     51  C   UNL A   1      46.534  29.467  26.725  1.00  0.00     0.049 A 
ATOM     52  C   UNL A   1      42.052  31.256  29.620  1.00  0.00     0.074 A 
ATOM     53  C   UNL A   1      47.579  30.367  26.595  1.00  0.00     0.029 A 
ATOM     54  N   UNL A   1      45.564  30.101  27.494  1.00  0.00    -0.354 N 
ATOM     55  N   UNL A   1      43.160  30.975  28.972  1.00  0.00    -0.248 NA
ATOM     56  C   UNL A   1      42.040  32.583  30.248  1.00  0.00     0.031 C 
ATOM     57  C   UNL A   1      47.268  31.515  27.335  1.00  0.00     0.029 A 
ATOM     58  C   UNL A   1      45.996  31.365  27.865  1.00  0.00     0.049 A 
ATOM     59  H   UNL A   1      44.695  29.708  27.740  1.00  0.00     0.167 HD
ATOM     60  C   UNL A   1      43.972  32.098  29.107  1.00  0.00     0.074 A 
ATOM     61  C   UNL A   1      43.215  33.067  29.873  1.00  0.00     0.031 C 
ATOM     62  C   UNL A   1      45.231  32.310  28.644  1.00  0.00     0.034 A 
BRANCH  49  63
ATOM     63  C   UNL A   1      47.582  27.553  25.413  1.00  0.00     0.023 A 
ATOM     64  C   UNL A   1      48.682  26.948  26.046  1.00  0.00     0.031 A 
ATOM     65  C   UNL A   1      47.603  27.642  24.009  1.00  0.00     0.131 A 
ATOM     66  C   UNL A   1      49.782  26.522  25.283  1.00  0.00     0.055 A 
ATOM     67  C   UNL A   1      48.665  27.146  23.250  1.00  0.00     0.041 A 
ATOM     68  F   UNL A   1      46.592  28.229  23.347  1.00  0.00    -0.206 F 
ATOM     69  C   UNL A   1      49.771  26.594  23.889  1.00  0.00     0.022 A 
BRANCH  66  70
ATOM     70  S   UNL A   1      51.290  26.001  26.149  1.00  0.00     0.124 S 
ATOM     71  O   UNL A   1      51.602  27.191  26.938  1.00  0.00    -0.237 OA
ATOM     72  O   UNL A   1      50.838  24.837  26.900  1.00  0.00    -0.237 OA
ATOM     73  O   UNL A   1      52.228  25.719  25.064  1.00  0.00    -0.744 OA
ENDBRANCH  66  70
ENDBRANCH  49  63
BRANCH  50  74
ATOM     74  C   UNL A   1      39.680  30.879  30.645  1.00  0.00     0.023 A 
ATOM     75  C   UNL A   1      39.760  30.888  32.047  1.00  0.00     0.031 A 
ATOM     76  C   UNL A   1      38.475  31.301  30.053  1.00  0.00     0.131 A 
ATOM     77  C   UNL A   1      38.649  31.284  32.808  1.00  0.00     0.055 A 
ATOM     78  C   UNL A   1      37.393  31.750  30.813  1.00  0.00     0.041 A 
ATOM     79  F   UNL A   1      38.338  31.305  28.717  1.00  0.00    -0.206 F 
ATOM     80  C   UNL A   1      37.473  31.733  32.201  1.00  0.00     0.022 A 
BRANCH  77  81
ATOM     81  S   UNL A   1      38.731  31.129  34.613  1.00  0.00     0.124 S 
ATOM     82  O   UNL A   1      37.400  31.573  35.012  1.00  0.00    -0.237 OA
ATOM     83  O   UNL A   1      39.012  29.707  34.782  1.00  0.00    -0.237 OA
ATOM     84  O   UNL A   1      39.825  32.026  34.983  1.00  0.00    -0.744 OA
ENDBRANCH  77  81
ENDBRANCH  50  74
BRANCH  62  85
ATOM     85  C   UNL A   1      45.837  33.662  28.928  1.00  0.00     0.023 A 
ATOM     86  C   UNL A   1      45.777  34.709  27.990  1.00  0.00     0.031 A 
ATOM     87  C   UNL A   1      46.513  33.894  30.138  1.00  0.00     0.131 A 
ATOM     88  C   UNL A   1      46.436  35.920  28.253  1.00  0.00     0.055 A 
ATOM     89  C   UNL A   1      47.117  35.121  30.418  1.00  0.00     0.041 A 
ATOM     90  F   UNL A   1      46.603  32.928  31.067  1.00  0.00    -0.206 F 
ATOM     91  C   UNL A   1      47.093  36.136  29.467  1.00  0.00     0.022 A 
BRANCH  88  92
ATOM     92  S   UNL A   1      46.512  37.171  26.941  1.00  0.00     0.124 S 
ATOM     93  O   UNL A   1      47.736  37.890  27.279  1.00  0.00    -0.237 OA
ATOM     94  O   UNL A   1      46.564  36.354  25.733  1.00  0.00    -0.237 OA
ATOM     95  O   UNL A   1      45.276  37.931  27.121  1.00  0.00    -0.744 OA
ENDBRANCH  88  92
ENDBRANCH  62  85
ENDBRANCH  36  37
ENDBRANCH  29  31
ENDBRANCH  28  29
ENDBRANCH  27  28
ENDBRANCH  26  27
ENDBRANCH  25  26
ENDBRANCH  24  25
ENDBRANCH   1  24
TORSDOF 24
ENDMDL
