MODEL 1
REMARK VINA RESULT:     -11.2      0.000      0.000
REMARK SMILES Cc1ncccc1C(=O)Nc1ccccc1C(=O)OCCOCCOCCOC(=O)c1ccc(-c2c3nc(c(-c4cc(S(=O)(=O)[O-])ccc4F)c4ccc([nH]4)c(-c4cc(S(=O)(=O)[O-])ccc4F)c4nc(c(-c5cc(S(=O)(=O)[O-])ccc5F)c5ccc2[nH]5)C=C4)C=C3)cc1
REMARK SMILES IDX 24 1 23 2 22 3 21 4 20 5 19 6 17 7 18 8 16 9 11 10 12 11
REMARK SMILES IDX 13 12 15 13 14 14 10 15 8 16 9 17 7 19 1 20 2 21 3 22 4 23
REMARK SMILES IDX 6 24 5 25 25 26 26 27 27 28 28 29 29 30 30 31 31 32 32 33
REMARK SMILES IDX 93 34 33 35 92 36 34 37 35 38 36 39 86 40 37 41 91 42 85 43
REMARK SMILES IDX 87 44 38 45 90 46 84 47 83 48 39 50 71 51 51 52 70 53 52 54
REMARK SMILES IDX 55 55 69 56 88 57 53 58 54 59 68 61 89 62 56 63 40 64 41 65
REMARK SMILES IDX 49 66 42 67 48 68 50 69 47 70 43 71 44 72 45 73 46 74 72 75
REMARK SMILES IDX 73 76 81 77 74 78 80 79 82 80 79 81 75 82 76 83 77 84 78 85
REMARK SMILES IDX 57 86 58 87 66 88 59 89 65 90 67 91 64 92 60 93 61 94 62 95
REMARK SMILES IDX 63 96
REMARK H PARENT 10 18 87 49 55 60
REMARK Flexibility Score: inf
ROOT
ATOM      1  C   UNL A   1      34.503  21.768  25.104  1.00  0.00     0.188 C 
ENDROOT
BRANCH   1   2
ATOM      2  C   UNL A   1      33.128  22.203  24.551  1.00  0.00     0.188 C 
BRANCH   2   3
ATOM      3  O   UNL A   1      33.088  22.891  23.320  1.00  0.00    -0.376 OA
BRANCH   3   4
ATOM      4  C   UNL A   1      31.842  23.274  22.773  1.00  0.00     0.202 C 
BRANCH   4   5
ATOM      5  C   UNL A   1      30.785  24.074  23.539  1.00  0.00     0.261 C 
BRANCH   5   6
ATOM      6  O   UNL A   1      30.485  25.401  23.086  1.00  0.00    -0.460 OA
BRANCH   6   7
ATOM      7  C   UNL A   1      29.908  26.208  24.019  1.00  0.00     0.340 C 
ATOM      8  O   UNL A   1      29.974  26.054  25.229  1.00  0.00    -0.246 OA
BRANCH   7   9
ATOM      9  C   UNL A   1      29.323  27.429  23.410  1.00  0.00     0.083 A 
ATOM     10  C   UNL A   1      30.033  28.456  22.766  1.00  0.00     0.056 A 
ATOM     11  C   UNL A   1      29.331  29.624  22.399  1.00  0.00     0.027 A 
ATOM     12  C   UNL A   1      27.947  29.727  22.557  1.00  0.00     0.002 A 
ATOM     13  C   UNL A   1      27.925  27.550  23.573  1.00  0.00     0.018 A 
ATOM     14  C   UNL A   1      27.240  28.681  23.132  1.00  0.00     0.001 A 
BRANCH  10  15
ATOM     15  N   UNL A   1      31.381  28.460  22.356  1.00  0.00    -0.321 N 
ATOM     16  C   UNL A   1      32.582  28.544  23.015  1.00  0.00     0.257 C 
ATOM     17  O   UNL A   1      33.610  28.625  22.335  1.00  0.00    -0.269 OA
ATOM     18  H   UNL A   1      31.483  28.385  21.379  1.00  0.00     0.170 HD
BRANCH  16  19
ATOM     19  C   UNL A   1      32.735  28.522  24.484  1.00  0.00     0.061 A 
ATOM     20  C   UNL A   1      33.722  26.163  24.727  1.00  0.00     0.067 C 
ATOM     21  C   UNL A   1      33.187  27.455  25.263  1.00  0.00     0.050 A 
ATOM     22  N   UNL A   1      33.145  27.500  26.625  1.00  0.00    -0.261 NA
ATOM     23  C   UNL A   1      32.667  28.613  27.220  1.00  0.00     0.111 A 
ATOM     24  C   UNL A   1      32.374  29.709  25.141  1.00  0.00     0.017 A 
ATOM     25  C   UNL A   1      32.310  29.752  26.529  1.00  0.00     0.021 A 
ENDBRANCH  16  19
ENDBRANCH  10  15
ENDBRANCH   7   9
ENDBRANCH   6   7
ENDBRANCH   5   6
ENDBRANCH   4   5
ENDBRANCH   3   4
ENDBRANCH   2   3
ENDBRANCH   1   2
BRANCH   1  26
ATOM     26  O   UNL A   1      35.694  22.261  24.528  1.00  0.00    -0.376 OA
BRANCH  26  27
ATOM     27  C   UNL A   1      36.809  21.398  24.399  1.00  0.00     0.202 C 
BRANCH  27  28
ATOM     28  C   UNL A   1      37.887  21.226  25.488  1.00  0.00     0.261 C 
BRANCH  28  29
ATOM     29  O   UNL A   1      38.926  22.214  25.550  1.00  0.00    -0.460 OA
BRANCH  29  30
ATOM     30  C   UNL A   1      39.720  22.162  26.657  1.00  0.00     0.338 C 
ATOM     31  O   UNL A   1      40.399  21.224  27.017  1.00  0.00    -0.246 OA
BRANCH  30  32
ATOM     32  C   UNL A   1      39.834  23.527  27.234  1.00  0.00     0.060 A 
ATOM     33  C   UNL A   1      38.919  24.509  26.819  1.00  0.00     0.016 A 
ATOM     34  C   UNL A   1      40.813  23.836  28.177  1.00  0.00     0.016 A 
ATOM     35  C   UNL A   1      39.000  25.810  27.319  1.00  0.00     0.010 A 
ATOM     36  C   UNL A   1      40.919  25.150  28.649  1.00  0.00     0.010 A 
ATOM     37  C   UNL A   1      40.039  26.152  28.193  1.00  0.00    -0.014 A 
BRANCH  37  38
ATOM     38  C   UNL A   1      40.385  27.583  28.396  1.00  0.00     0.031 A 
ATOM     39  C   UNL A   1      41.807  27.997  28.120  1.00  0.00     0.074 A 
ATOM     40  C   UNL A   1      39.484  28.503  28.785  1.00  0.00     0.049 A 
ATOM     41  N   UNL A   1      42.398  29.149  28.304  1.00  0.00    -0.248 NA
ATOM     42  C   UNL A   1      42.683  26.951  27.569  1.00  0.00     0.031 C 
ATOM     43  C   UNL A   1      38.062  28.256  29.010  1.00  0.00     0.029 A 
ATOM     44  N   UNL A   1      39.644  29.838  29.068  1.00  0.00    -0.354 N 
ATOM     45  C   UNL A   1      43.717  28.963  27.901  1.00  0.00     0.074 A 
ATOM     46  C   UNL A   1      43.845  27.576  27.510  1.00  0.00     0.031 C 
ATOM     47  C   UNL A   1      37.480  29.403  29.406  1.00  0.00     0.029 A 
ATOM     48  C   UNL A   1      38.495  30.453  29.506  1.00  0.00     0.049 A 
ATOM     49  H   UNL A   1      40.501  30.310  28.965  1.00  0.00     0.167 HD
ATOM     50  C   UNL A   1      44.727  29.868  27.849  1.00  0.00     0.034 A 
ATOM     51  C   UNL A   1      38.296  31.708  29.963  1.00  0.00     0.034 A 
ATOM     52  C   UNL A   1      44.593  31.240  28.267  1.00  0.00     0.049 A 
ATOM     53  C   UNL A   1      39.465  32.667  30.024  1.00  0.00     0.074 A 
ATOM     54  C   UNL A   1      45.551  32.238  28.273  1.00  0.00     0.029 A 
ATOM     55  N   UNL A   1      43.429  31.808  28.772  1.00  0.00    -0.354 N 
ATOM     56  N   UNL A   1      40.713  32.481  29.659  1.00  0.00    -0.248 NA
ATOM     57  C   UNL A   1      39.193  34.010  30.558  1.00  0.00     0.031 C 
ATOM     58  C   UNL A   1      44.993  33.380  28.855  1.00  0.00     0.029 A 
ATOM     59  C   UNL A   1      43.657  33.130  29.124  1.00  0.00     0.049 A 
ATOM     60  H   UNL A   1      42.568  31.340  28.867  1.00  0.00     0.167 HD
ATOM     61  C   UNL A   1      41.362  33.697  29.879  1.00  0.00     0.074 A 
ATOM     62  C   UNL A   1      40.366  34.607  30.403  1.00  0.00     0.031 C 
ATOM     63  C   UNL A   1      42.658  34.033  29.654  1.00  0.00     0.034 A 
BRANCH  50  64
ATOM     64  C   UNL A   1      46.072  29.362  27.381  1.00  0.00     0.023 A 
ATOM     65  C   UNL A   1      46.309  29.027  26.036  1.00  0.00     0.031 A 
ATOM     66  C   UNL A   1      47.108  29.140  28.305  1.00  0.00     0.131 A 
ATOM     67  C   UNL A   1      47.508  28.396  25.672  1.00  0.00     0.055 A 
ATOM     68  C   UNL A   1      48.338  28.604  27.917  1.00  0.00     0.041 A 
ATOM     69  F   UNL A   1      46.936  29.414  29.608  1.00  0.00    -0.206 F 
ATOM     70  C   UNL A   1      48.535  28.208  26.598  1.00  0.00     0.022 A 
BRANCH  67  71
ATOM     71  S   UNL A   1      47.622  27.650  24.022  1.00  0.00     0.124 S 
ATOM     72  O   UNL A   1      46.974  26.358  24.236  1.00  0.00    -0.237 OA
ATOM     73  O   UNL A   1      46.891  28.602  23.194  1.00  0.00    -0.237 OA
ATOM     74  O   UNL A   1      49.061  27.583  23.776  1.00  0.00    -0.744 OA
ENDBRANCH  67  71
ENDBRANCH  50  64
BRANCH  51  75
ATOM     75  C   UNL A   1      36.946  32.139  30.432  1.00  0.00     0.023 A 
ATOM     76  C   UNL A   1      36.056  32.800  29.569  1.00  0.00     0.031 A 
ATOM     77  C   UNL A   1      36.549  31.953  31.769  1.00  0.00     0.131 A 
ATOM     78  C   UNL A   1      34.832  33.284  30.059  1.00  0.00     0.055 A 
ATOM     79  C   UNL A   1      35.307  32.387  32.238  1.00  0.00     0.041 A 
ATOM     80  F   UNL A   1      37.364  31.339  32.641  1.00  0.00    -0.206 F 
ATOM     81  C   UNL A   1      34.445  33.067  31.383  1.00  0.00     0.022 A 
BRANCH  78  82
ATOM     82  S   UNL A   1      33.786  34.277  28.959  1.00  0.00     0.124 S 
ATOM     83  O   UNL A   1      33.311  33.272  28.016  1.00  0.00    -0.237 OA
ATOM     84  O   UNL A   1      32.792  34.809  29.885  1.00  0.00    -0.237 OA
ATOM     85  O   UNL A   1      34.712  35.264  28.408  1.00  0.00    -0.744 OA
ENDBRANCH  78  82
ENDBRANCH  51  75
BRANCH  63  86
ATOM     86  C   UNL A   1      43.064  35.467  29.909  1.00  0.00     0.023 A 
ATOM     87  C   UNL A   1      42.947  36.467  28.927  1.00  0.00     0.031 A 
ATOM     88  C   UNL A   1      43.581  35.838  31.165  1.00  0.00     0.131 A 
ATOM     89  C   UNL A   1      43.392  37.771  29.199  1.00  0.00     0.055 A 
ATOM     90  C   UNL A   1      43.958  37.151  31.451  1.00  0.00     0.041 A 
ATOM     91  F   UNL A   1      43.722  34.927  32.142  1.00  0.00    -0.206 F 
ATOM     92  C   UNL A   1      43.877  38.123  30.461  1.00  0.00     0.022 A 
BRANCH  89  93
ATOM     93  S   UNL A   1      43.427  38.982  27.848  1.00  0.00     0.124 S 
ATOM     94  O   UNL A   1      44.607  38.564  27.096  1.00  0.00    -0.237 OA
ATOM     95  O   UNL A   1      42.142  38.757  27.193  1.00  0.00    -0.237 OA
ATOM     96  O   UNL A   1      43.554  40.264  28.538  1.00  0.00    -0.744 OA
ENDBRANCH  89  93
ENDBRANCH  63  86
ENDBRANCH  37  38
ENDBRANCH  30  32
ENDBRANCH  29  30
ENDBRANCH  28  29
ENDBRANCH  27  28
ENDBRANCH  26  27
ENDBRANCH   1  26
TORSDOF 22
ENDMDL
MODEL 2
REMARK VINA RESULT:      -9.7      2.527      3.174
REMARK SMILES Cc1ncccc1C(=O)Nc1ccccc1C(=O)OCCOCCOCCOC(=O)c1ccc(-c2c3nc(c(-c4cc(S(=O)(=O)[O-])ccc4F)c4ccc([nH]4)c(-c4cc(S(=O)(=O)[O-])ccc4F)c4nc(c(-c5cc(S(=O)(=O)[O-])ccc5F)c5ccc2[nH]5)C=C4)C=C3)cc1
REMARK SMILES IDX 24 1 23 2 22 3 21 4 20 5 19 6 17 7 18 8 16 9 11 10 12 11
REMARK SMILES IDX 13 12 15 13 14 14 10 15 8 16 9 17 7 19 1 20 2 21 3 22 4 23
REMARK SMILES IDX 6 24 5 25 25 26 26 27 27 28 28 29 29 30 30 31 31 32 32 33
REMARK SMILES IDX 93 34 33 35 92 36 34 37 35 38 36 39 86 40 37 41 91 42 85 43
REMARK SMILES IDX 87 44 38 45 90 46 84 47 83 48 39 50 71 51 51 52 70 53 52 54
REMARK SMILES IDX 55 55 69 56 88 57 53 58 54 59 68 61 89 62 56 63 40 64 41 65
REMARK SMILES IDX 49 66 42 67 48 68 50 69 47 70 43 71 44 72 45 73 46 74 72 75
REMARK SMILES IDX 73 76 81 77 74 78 80 79 82 80 79 81 75 82 76 83 77 84 78 85
REMARK SMILES IDX 57 86 58 87 66 88 59 89 65 90 67 91 64 92 60 93 61 94 62 95
REMARK SMILES IDX 63 96
REMARK H PARENT 10 18 87 49 55 60
REMARK Flexibility Score: inf
ROOT
ATOM      1  C   UNL A   1      34.798  21.878  25.196  1.00  0.00     0.188 C 
ENDROOT
BRANCH   1   2
ATOM      2  C   UNL A   1      33.445  22.585  24.955  1.00  0.00     0.188 C 
BRANCH   2   3
ATOM      3  O   UNL A   1      33.254  23.270  23.738  1.00  0.00    -0.376 OA
BRANCH   3   4
ATOM      4  C   UNL A   1      31.967  23.316  23.155  1.00  0.00     0.202 C 
BRANCH   4   5
ATOM      5  C   UNL A   1      30.787  24.086  23.753  1.00  0.00     0.261 C 
BRANCH   5   6
ATOM      6  O   UNL A   1      30.532  25.411  23.269  1.00  0.00    -0.460 OA
BRANCH   6   7
ATOM      7  C   UNL A   1      29.904  26.234  24.154  1.00  0.00     0.340 C 
ATOM      8  O   UNL A   1      29.941  26.129  25.370  1.00  0.00    -0.246 OA
BRANCH   7   9
ATOM      9  C   UNL A   1      29.299  27.412  23.482  1.00  0.00     0.083 A 
ATOM     10  C   UNL A   1      29.995  28.441  22.826  1.00  0.00     0.056 A 
ATOM     11  C   UNL A   1      29.266  29.569  22.394  1.00  0.00     0.027 A 
ATOM     12  C   UNL A   1      27.875  29.629  22.503  1.00  0.00     0.002 A 
ATOM     13  C   UNL A   1      27.893  27.489  23.595  1.00  0.00     0.018 A 
ATOM     14  C   UNL A   1      27.185  28.579  23.091  1.00  0.00     0.001 A 
BRANCH  10  15
ATOM     15  N   UNL A   1      31.355  28.478  22.461  1.00  0.00    -0.321 N 
ATOM     16  C   UNL A   1      32.529  28.635  23.155  1.00  0.00     0.257 C 
ATOM     17  O   UNL A   1      33.577  28.726  22.506  1.00  0.00    -0.269 OA
ATOM     18  H   UNL A   1      31.494  28.368  21.492  1.00  0.00     0.170 HD
BRANCH  16  19
ATOM     19  C   UNL A   1      32.632  28.678  24.628  1.00  0.00     0.061 A 
ATOM     20  C   UNL A   1      33.763  26.401  24.997  1.00  0.00     0.067 C 
ATOM     21  C   UNL A   1      33.126  27.674  25.464  1.00  0.00     0.050 A 
ATOM     22  N   UNL A   1      33.033  27.767  26.820  1.00  0.00    -0.261 NA
ATOM     23  C   UNL A   1      32.463  28.868  27.355  1.00  0.00     0.111 A 
ATOM     24  C   UNL A   1      32.171  29.862  25.225  1.00  0.00     0.017 A 
ATOM     25  C   UNL A   1      32.057  29.953  26.607  1.00  0.00     0.021 A 
ENDBRANCH  16  19
ENDBRANCH  10  15
ENDBRANCH   7   9
ENDBRANCH   6   7
ENDBRANCH   5   6
ENDBRANCH   4   5
ENDBRANCH   3   4
ENDBRANCH   2   3
ENDBRANCH   1   2
BRANCH   1  26
ATOM     26  O   UNL A   1      35.938  22.246  24.450  1.00  0.00    -0.376 OA
BRANCH  26  27
ATOM     27  C   UNL A   1      36.997  21.318  24.303  1.00  0.00     0.202 C 
BRANCH  27  28
ATOM     28  C   UNL A   1      38.037  21.026  25.404  1.00  0.00     0.261 C 
BRANCH  28  29
ATOM     29  O   UNL A   1      39.106  21.969  25.570  1.00  0.00    -0.460 OA
BRANCH  29  30
ATOM     30  C   UNL A   1      40.004  21.673  26.551  1.00  0.00     0.338 C 
ATOM     31  O   UNL A   1      40.510  20.593  26.767  1.00  0.00    -0.246 OA
BRANCH  30  32
ATOM     32  C   UNL A   1      40.474  22.938  27.174  1.00  0.00     0.060 A 
ATOM     33  C   UNL A   1      39.920  24.150  26.730  1.00  0.00     0.016 A 
ATOM     34  C   UNL A   1      41.433  22.935  28.186  1.00  0.00     0.016 A 
ATOM     35  C   UNL A   1      40.346  25.365  27.271  1.00  0.00     0.010 A 
ATOM     36  C   UNL A   1      41.887  24.155  28.701  1.00  0.00     0.010 A 
ATOM     37  C   UNL A   1      41.375  25.376  28.220  1.00  0.00    -0.014 A 
BRANCH  37  38
ATOM     38  C   UNL A   1      42.112  26.640  28.485  1.00  0.00     0.031 A 
ATOM     39  C   UNL A   1      43.426  26.837  27.774  1.00  0.00     0.074 A 
ATOM     40  C   UNL A   1      41.643  27.599  29.303  1.00  0.00     0.049 A 
ATOM     41  N   UNL A   1      44.311  27.792  27.893  1.00  0.00    -0.248 NA
ATOM     42  C   UNL A   1      43.788  25.797  26.798  1.00  0.00     0.031 C 
ATOM     43  C   UNL A   1      40.355  27.573  29.992  1.00  0.00     0.029 A 
ATOM     44  N   UNL A   1      42.213  28.786  29.696  1.00  0.00    -0.354 N 
ATOM     45  C   UNL A   1      45.339  27.463  27.016  1.00  0.00     0.074 A 
ATOM     46  C   UNL A   1      44.986  26.197  26.411  1.00  0.00     0.031 C 
ATOM     47  C   UNL A   1      40.237  28.690  30.732  1.00  0.00     0.029 A 
ATOM     48  C   UNL A   1      41.458  29.488  30.606  1.00  0.00     0.049 A 
ATOM     49  H   UNL A   1      43.080  29.105  29.358  1.00  0.00     0.167 HD
ATOM     50  C   UNL A   1      46.470  28.156  26.731  1.00  0.00     0.034 A 
ATOM     51  C   UNL A   1      41.735  30.626  31.278  1.00  0.00     0.034 A 
ATOM     52  C   UNL A   1      46.824  29.403  27.361  1.00  0.00     0.049 A 
ATOM     53  C   UNL A   1      43.060  31.317  31.047  1.00  0.00     0.074 A 
ATOM     54  C   UNL A   1      47.949  30.182  27.160  1.00  0.00     0.029 A 
ATOM     55  N   UNL A   1      46.064  30.047  28.330  1.00  0.00    -0.354 N 
ATOM     56  N   UNL A   1      44.037  30.992  30.230  1.00  0.00    -0.248 NA
ATOM     57  C   UNL A   1      43.318  32.535  31.830  1.00  0.00     0.031 C 
ATOM     58  C   UNL A   1      47.911  31.249  28.063  1.00  0.00     0.029 A 
ATOM     59  C   UNL A   1      46.715  31.194  28.761  1.00  0.00     0.049 A 
ATOM     60  H   UNL A   1      45.193  29.735  28.663  1.00  0.00     0.167 HD
ATOM     61  C   UNL A   1      45.002  31.989  30.371  1.00  0.00     0.074 A 
ATOM     62  C   UNL A   1      44.488  32.927  31.347  1.00  0.00     0.031 C 
ATOM     63  C   UNL A   1      46.198  32.124  29.740  1.00  0.00     0.034 A 
BRANCH  50  64
ATOM     64  C   UNL A   1      47.423  27.529  25.739  1.00  0.00     0.023 A 
ATOM     65  C   UNL A   1      47.578  28.041  24.438  1.00  0.00     0.031 A 
ATOM     66  C   UNL A   1      48.129  26.360  26.072  1.00  0.00     0.131 A 
ATOM     67  C   UNL A   1      48.333  27.333  23.491  1.00  0.00     0.055 A 
ATOM     68  C   UNL A   1      48.959  25.714  25.153  1.00  0.00     0.041 A 
ATOM     69  F   UNL A   1      48.002  25.805  27.288  1.00  0.00    -0.206 F 
ATOM     70  C   UNL A   1      49.048  26.188  23.848  1.00  0.00     0.022 A 
BRANCH  67  71
ATOM     71  S   UNL A   1      48.206  27.820  21.748  1.00  0.00     0.124 S 
ATOM     72  O   UNL A   1      49.294  28.788  21.632  1.00  0.00    -0.237 OA
ATOM     73  O   UNL A   1      48.400  26.553  21.053  1.00  0.00    -0.237 OA
ATOM     74  O   UNL A   1      46.864  28.388  21.649  1.00  0.00    -0.744 OA
ENDBRANCH  67  71
ENDBRANCH  50  64
BRANCH  51  75
ATOM     75  C   UNL A   1      40.759  31.181  32.263  1.00  0.00     0.023 A 
ATOM     76  C   UNL A   1      39.764  32.088  31.863  1.00  0.00     0.031 A 
ATOM     77  C   UNL A   1      40.848  30.863  33.630  1.00  0.00     0.131 A 
ATOM     78  C   UNL A   1      38.921  32.673  32.823  1.00  0.00     0.055 A 
ATOM     79  C   UNL A   1      39.972  31.405  34.573  1.00  0.00     0.041 A 
ATOM     80  F   UNL A   1      41.788  30.012  34.071  1.00  0.00    -0.206 F 
ATOM     81  C   UNL A   1      39.008  32.325  34.172  1.00  0.00     0.022 A 
BRANCH  78  82
ATOM     82  S   UNL A   1      37.762  33.963  32.291  1.00  0.00     0.124 S 
ATOM     83  O   UNL A   1      38.280  34.300  30.971  1.00  0.00    -0.237 OA
ATOM     84  O   UNL A   1      36.487  33.255  32.319  1.00  0.00    -0.237 OA
ATOM     85  O   UNL A   1      37.918  35.001  33.308  1.00  0.00    -0.744 OA
ENDBRANCH  78  82
ENDBRANCH  51  75
BRANCH  63  86
ATOM     86  C   UNL A   1      47.007  33.368  30.034  1.00  0.00     0.023 A 
ATOM     87  C   UNL A   1      46.850  34.557  29.299  1.00  0.00     0.031 A 
ATOM     88  C   UNL A   1      47.957  33.359  31.073  1.00  0.00     0.131 A 
ATOM     89  C   UNL A   1      47.668  35.665  29.575  1.00  0.00     0.055 A 
ATOM     90  C   UNL A   1      48.719  34.485  31.387  1.00  0.00     0.041 A 
ATOM     91  F   UNL A   1      48.156  32.252  31.806  1.00  0.00    -0.206 F 
ATOM     92  C   UNL A   1      48.587  35.642  30.628  1.00  0.00     0.022 A 
BRANCH  89  93
ATOM     93  S   UNL A   1      47.592  37.104  28.474  1.00  0.00     0.124 S 
ATOM     94  O   UNL A   1      48.857  37.774  28.761  1.00  0.00    -0.237 OA
ATOM     95  O   UNL A   1      47.482  36.485  27.157  1.00  0.00    -0.237 OA
ATOM     96  O   UNL A   1      46.398  37.818  28.923  1.00  0.00    -0.744 OA
ENDBRANCH  89  93
ENDBRANCH  63  86
ENDBRANCH  37  38
ENDBRANCH  30  32
ENDBRANCH  29  30
ENDBRANCH  28  29
ENDBRANCH  27  28
ENDBRANCH  26  27
ENDBRANCH   1  26
TORSDOF 22
ENDMDL
MODEL 3
REMARK VINA RESULT:      -9.6      6.668     11.060
REMARK SMILES Cc1ncccc1C(=O)Nc1ccccc1C(=O)OCCOCCOCCOC(=O)c1ccc(-c2c3nc(c(-c4cc(S(=O)(=O)[O-])ccc4F)c4ccc([nH]4)c(-c4cc(S(=O)(=O)[O-])ccc4F)c4nc(c(-c5cc(S(=O)(=O)[O-])ccc5F)c5ccc2[nH]5)C=C4)C=C3)cc1
REMARK SMILES IDX 24 1 23 2 22 3 21 4 20 5 19 6 17 7 18 8 16 9 11 10 12 11
REMARK SMILES IDX 13 12 15 13 14 14 10 15 8 16 9 17 7 19 1 20 2 21 3 22 4 23
REMARK SMILES IDX 6 24 5 25 25 26 26 27 27 28 28 29 29 30 30 31 31 32 32 33
REMARK SMILES IDX 93 34 33 35 92 36 34 37 35 38 36 39 86 40 37 41 91 42 85 43
REMARK SMILES IDX 87 44 38 45 90 46 84 47 83 48 39 50 71 51 51 52 70 53 52 54
REMARK SMILES IDX 55 55 69 56 88 57 53 58 54 59 68 61 89 62 56 63 40 64 41 65
REMARK SMILES IDX 49 66 42 67 48 68 50 69 47 70 43 71 44 72 45 73 46 74 72 75
REMARK SMILES IDX 73 76 81 77 74 78 80 79 82 80 79 81 75 82 76 83 77 84 78 85
REMARK SMILES IDX 57 86 58 87 66 88 59 89 65 90 67 91 64 92 60 93 61 94 62 95
REMARK SMILES IDX 63 96
REMARK H PARENT 10 18 87 49 55 60
REMARK Flexibility Score: inf
ROOT
ATOM      1  C   UNL A   1      35.062  32.776  27.998  1.00  0.00     0.188 C 
ENDROOT
BRANCH   1   2
ATOM      2  C   UNL A   1      33.879  31.807  28.211  1.00  0.00     0.188 C 
BRANCH   2   3
ATOM      3  O   UNL A   1      33.440  31.033  27.116  1.00  0.00    -0.376 OA
BRANCH   3   4
ATOM      4  C   UNL A   1      34.074  29.803  26.828  1.00  0.00     0.202 C 
BRANCH   4   5
ATOM      5  C   UNL A   1      33.588  28.450  27.353  1.00  0.00     0.261 C 
BRANCH   5   6
ATOM      6  O   UNL A   1      33.180  27.463  26.396  1.00  0.00    -0.460 OA
BRANCH   6   7
ATOM      7  C   UNL A   1      31.993  26.855  26.670  1.00  0.00     0.340 C 
ATOM      8  O   UNL A   1      31.055  27.365  27.261  1.00  0.00    -0.246 OA
BRANCH   7   9
ATOM      9  C   UNL A   1      31.881  25.533  26.004  1.00  0.00     0.083 A 
ATOM     10  C   UNL A   1      30.956  25.182  25.006  1.00  0.00     0.056 A 
ATOM     11  C   UNL A   1      30.883  23.830  24.610  1.00  0.00     0.027 A 
ATOM     12  C   UNL A   1      31.775  22.874  25.099  1.00  0.00     0.002 A 
ATOM     13  C   UNL A   1      32.772  24.554  26.497  1.00  0.00     0.018 A 
ATOM     14  C   UNL A   1      32.733  23.240  26.033  1.00  0.00     0.001 A 
BRANCH  10  15
ATOM     15  N   UNL A   1      30.107  26.030  24.269  1.00  0.00    -0.321 N 
ATOM     16  C   UNL A   1      30.312  27.083  23.413  1.00  0.00     0.257 C 
ATOM     17  O   UNL A   1      29.322  27.695  23.000  1.00  0.00    -0.269 OA
ATOM     18  H   UNL A   1      29.153  25.820  24.396  1.00  0.00     0.170 HD
BRANCH  16  19
ATOM     19  C   UNL A   1      31.637  27.524  22.929  1.00  0.00     0.061 A 
ATOM     20  C   UNL A   1      32.189  25.503  21.443  1.00  0.00     0.067 C 
ATOM     21  C   UNL A   1      32.506  26.811  22.100  1.00  0.00     0.050 A 
ATOM     22  N   UNL A   1      33.767  27.256  21.841  1.00  0.00    -0.261 NA
ATOM     23  C   UNL A   1      34.168  28.421  22.393  1.00  0.00     0.111 A 
ATOM     24  C   UNL A   1      32.044  28.793  23.372  1.00  0.00     0.017 A 
ATOM     25  C   UNL A   1      33.337  29.240  23.127  1.00  0.00     0.021 A 
ENDBRANCH  16  19
ENDBRANCH  10  15
ENDBRANCH   7   9
ENDBRANCH   6   7
ENDBRANCH   5   6
ENDBRANCH   4   5
ENDBRANCH   3   4
ENDBRANCH   2   3
ENDBRANCH   1   2
BRANCH   1  26
ATOM     26  O   UNL A   1      36.110  32.844  28.941  1.00  0.00    -0.376 OA
BRANCH  26  27
ATOM     27  C   UNL A   1      37.296  32.105  28.711  1.00  0.00     0.202 C 
BRANCH  27  28
ATOM     28  C   UNL A   1      37.842  31.039  29.683  1.00  0.00     0.261 C 
BRANCH  28  29
ATOM     29  O   UNL A   1      36.904  30.413  30.571  1.00  0.00    -0.460 OA
BRANCH  29  30
ATOM     30  C   UNL A   1      37.139  30.600  31.900  1.00  0.00     0.338 C 
ATOM     31  O   UNL A   1      36.372  31.072  32.712  1.00  0.00    -0.246 OA
BRANCH  30  32
ATOM     32  C   UNL A   1      38.399  29.903  32.270  1.00  0.00     0.060 A 
ATOM     33  C   UNL A   1      39.517  30.678  32.619  1.00  0.00     0.016 A 
ATOM     34  C   UNL A   1      38.477  28.511  32.287  1.00  0.00     0.016 A 
ATOM     35  C   UNL A   1      40.727  30.066  32.954  1.00  0.00     0.010 A 
ATOM     36  C   UNL A   1      39.701  27.899  32.585  1.00  0.00     0.010 A 
ATOM     37  C   UNL A   1      40.841  28.673  32.881  1.00  0.00    -0.014 A 
BRANCH  37  38
ATOM     38  C   UNL A   1      42.189  28.050  32.821  1.00  0.00     0.031 A 
ATOM     39  C   UNL A   1      42.900  27.810  34.127  1.00  0.00     0.074 A 
ATOM     40  C   UNL A   1      42.771  27.683  31.665  1.00  0.00     0.049 A 
ATOM     41  N   UNL A   1      44.111  27.374  34.357  1.00  0.00    -0.248 NA
ATOM     42  C   UNL A   1      42.129  28.118  35.342  1.00  0.00     0.031 C 
ATOM     43  C   UNL A   1      42.165  27.785  30.339  1.00  0.00     0.029 A 
ATOM     44  N   UNL A   1      44.016  27.152  31.428  1.00  0.00    -0.354 N 
ATOM     45  C   UNL A   1      44.251  27.366  35.741  1.00  0.00     0.074 A 
ATOM     46  C   UNL A   1      43.018  27.886  36.291  1.00  0.00     0.031 C 
ATOM     47  C   UNL A   1      43.047  27.339  29.425  1.00  0.00     0.029 A 
ATOM     48  C   UNL A   1      44.293  26.963  30.094  1.00  0.00     0.049 A 
ATOM     49  H   UNL A   1      44.651  26.927  32.145  1.00  0.00     0.167 HD
ATOM     50  C   UNL A   1      45.305  26.952  36.489  1.00  0.00     0.034 A 
ATOM     51  C   UNL A   1      45.430  26.561  29.486  1.00  0.00     0.034 A 
ATOM     52  C   UNL A   1      46.539  26.461  35.929  1.00  0.00     0.049 A 
ATOM     53  C   UNL A   1      46.642  26.230  30.329  1.00  0.00     0.074 A 
ATOM     54  C   UNL A   1      47.676  26.031  36.589  1.00  0.00     0.029 A 
ATOM     55  N   UNL A   1      46.806  26.351  34.569  1.00  0.00    -0.354 N 
ATOM     56  N   UNL A   1      46.774  26.242  31.636  1.00  0.00    -0.248 NA
ATOM     57  C   UNL A   1      47.859  25.828  29.609  1.00  0.00     0.031 C 
ATOM     58  C   UNL A   1      48.655  25.740  35.634  1.00  0.00     0.029 A 
ATOM     59  C   UNL A   1      48.100  25.893  34.373  1.00  0.00     0.049 A 
ATOM     60  H   UNL A   1      46.170  26.567  33.850  1.00  0.00     0.167 HD
ATOM     61  C   UNL A   1      48.074  25.807  31.893  1.00  0.00     0.074 A 
ATOM     62  C   UNL A   1      48.682  25.538  30.607  1.00  0.00     0.031 C 
ATOM     63  C   UNL A   1      48.703  25.632  33.085  1.00  0.00     0.034 A 
BRANCH  50  64
ATOM     64  C   UNL A   1      45.172  27.084  37.988  1.00  0.00     0.023 A 
ATOM     65  C   UNL A   1      45.644  28.217  38.675  1.00  0.00     0.031 A 
ATOM     66  C   UNL A   1      44.633  26.033  38.750  1.00  0.00     0.131 A 
ATOM     67  C   UNL A   1      45.665  28.227  40.078  1.00  0.00     0.055 A 
ATOM     68  C   UNL A   1      44.565  26.093  40.144  1.00  0.00     0.041 A 
ATOM     69  F   UNL A   1      44.190  24.913  38.157  1.00  0.00    -0.206 F 
ATOM     70  C   UNL A   1      45.103  27.185  40.817  1.00  0.00     0.022 A 
BRANCH  67  71
ATOM     71  S   UNL A   1      46.613  29.528  40.916  1.00  0.00     0.124 S 
ATOM     72  O   UNL A   1      45.831  29.724  42.135  1.00  0.00    -0.237 OA
ATOM     73  O   UNL A   1      47.920  28.904  41.089  1.00  0.00    -0.237 OA
ATOM     74  O   UNL A   1      46.573  30.643  39.973  1.00  0.00    -0.744 OA
ENDBRANCH  67  71
ENDBRANCH  50  64
BRANCH  51  75
ATOM     75  C   UNL A   1      45.503  26.474  27.997  1.00  0.00     0.023 A 
ATOM     76  C   UNL A   1      45.365  25.242  27.337  1.00  0.00     0.031 A 
ATOM     77  C   UNL A   1      45.776  27.611  27.216  1.00  0.00     0.131 A 
ATOM     78  C   UNL A   1      45.537  25.168  25.945  1.00  0.00     0.055 A 
ATOM     79  C   UNL A   1      45.892  27.542  25.827  1.00  0.00     0.041 A 
ATOM     80  F   UNL A   1      45.931  28.812  27.796  1.00  0.00    -0.206 F 
ATOM     81  C   UNL A   1      45.782  26.313  25.183  1.00  0.00     0.022 A 
BRANCH  78  82
ATOM     82  S   UNL A   1      45.517  23.537  25.151  1.00  0.00     0.124 S 
ATOM     83  O   UNL A   1      46.287  22.739  26.097  1.00  0.00    -0.237 OA
ATOM     84  O   UNL A   1      44.088  23.251  25.083  1.00  0.00    -0.237 OA
ATOM     85  O   UNL A   1      46.165  23.778  23.863  1.00  0.00    -0.744 OA
ENDBRANCH  78  82
ENDBRANCH  51  75
BRANCH  63  86
ATOM     86  C   UNL A   1      50.103  25.059  33.060  1.00  0.00     0.023 A 
ATOM     87  C   UNL A   1      50.348  23.675  33.006  1.00  0.00     0.031 A 
ATOM     88  C   UNL A   1      51.216  25.922  33.091  1.00  0.00     0.131 A 
ATOM     89  C   UNL A   1      51.667  23.195  33.044  1.00  0.00     0.055 A 
ATOM     90  C   UNL A   1      52.525  25.440  33.059  1.00  0.00     0.041 A 
ATOM     91  F   UNL A   1      51.046  27.253  33.148  1.00  0.00    -0.206 F 
ATOM     92  C   UNL A   1      52.756  24.070  33.049  1.00  0.00     0.022 A 
BRANCH  89  93
ATOM     93  S   UNL A   1      51.942  21.408  33.191  1.00  0.00     0.124 S 
ATOM     94  O   UNL A   1      52.402  21.284  34.571  1.00  0.00    -0.237 OA
ATOM     95  O   UNL A   1      50.618  20.863  32.909  1.00  0.00    -0.237 OA
ATOM     96  O   UNL A   1      52.955  21.131  32.173  1.00  0.00    -0.744 OA
ENDBRANCH  89  93
ENDBRANCH  63  86
ENDBRANCH  37  38
ENDBRANCH  30  32
ENDBRANCH  29  30
ENDBRANCH  28  29
ENDBRANCH  27  28
ENDBRANCH  26  27
ENDBRANCH   1  26
TORSDOF 22
ENDMDL
