MODEL 1
REMARK VINA RESULT:      -9.9      0.000      0.000
REMARK SMILES O=C(/C=C/c1ccc(NC(=O)c2cc(C(F)(F)F)cc(C(F)(F)F)c2)cc1)OCCOCCOCCOC(=O)c1ccc(-c2c3nc(c(-c4cc(S(=O)(=O)[O-])ccc4F)c4ccc([nH]4)c(-c4cc(S(=O)(=O)[O-])ccc4F)c4nc(c(-c5cc(S(=O)(=O)[O-])ccc5F)c5ccc2[nH]5)C=C4)C=C3)cc1
REMARK SMILES IDX 32 1 31 2 30 3 29 4 28 5 2 6 1 7 3 8 4 9 5 10 6 11 27 12
REMARK SMILES IDX 7 13 26 14 8 15 9 16 10 17 11 19 12 20 13 21 25 22 14 23
REMARK SMILES IDX 20 24 19 25 15 26 16 27 17 28 18 29 21 30 22 31 23 32 24 33
REMARK SMILES IDX 33 34 34 35 35 36 36 37 37 38 38 39 39 40 40 41 41 42 102 43
REMARK SMILES IDX 42 44 101 45 43 46 44 47 45 48 95 49 46 50 100 51 94 52
REMARK SMILES IDX 96 53 47 54 99 55 93 56 92 57 48 59 80 60 60 61 79 62 61 63
REMARK SMILES IDX 64 64 78 65 97 66 62 67 63 68 77 70 98 71 65 72 49 73 50 74
REMARK SMILES IDX 58 75 51 76 57 77 59 78 56 79 52 80 53 81 54 82 55 83 81 84
REMARK SMILES IDX 82 85 90 86 83 87 89 88 91 89 88 90 84 91 85 92 86 93 87 94
REMARK SMILES IDX 66 95 67 96 75 97 68 98 74 99 76 100 73 101 69 102 70 103
REMARK SMILES IDX 71 104 72 105
REMARK H PARENT 9 18 96 58 64 69
REMARK Flexibility Score: inf
ROOT
ATOM      1  C   UNL A   1      44.643  18.820  25.025  1.00  0.00     0.188 C 
ENDROOT
BRANCH   1   2
ATOM      2  O   UNL A   1      43.618  19.557  25.669  1.00  0.00    -0.376 OA
BRANCH   2   3
ATOM      3  C   UNL A   1      42.422  18.939  26.098  1.00  0.00     0.202 C 
BRANCH   3   4
ATOM      4  C   UNL A   1      41.098  19.708  26.108  1.00  0.00     0.261 C 
BRANCH   4   5
ATOM      5  O   UNL A   1      41.169  21.072  25.689  1.00  0.00    -0.460 OA
BRANCH   5   6
ATOM      6  C   UNL A   1      40.460  21.969  26.414  1.00  0.00     0.330 C 
ATOM      7  O   UNL A   1      40.893  22.547  27.396  1.00  0.00    -0.247 OA
BRANCH   6   8
ATOM      8  C   UNL A   1      39.034  21.937  26.057  1.00  0.00     0.094 C 
ATOM      9  C   UNL A   1      38.326  23.073  26.054  1.00  0.00     0.015 C 
BRANCH   9  10
ATOM     10  C   UNL A   1      36.943  23.162  25.580  1.00  0.00    -0.025 A 
ATOM     11  C   UNL A   1      35.984  23.713  26.435  1.00  0.00     0.010 A 
ATOM     12  C   UNL A   1      36.532  22.668  24.341  1.00  0.00     0.010 A 
ATOM     13  C   UNL A   1      34.637  23.766  26.063  1.00  0.00     0.027 A 
ATOM     14  C   UNL A   1      35.184  22.738  23.964  1.00  0.00     0.027 A 
ATOM     15  C   UNL A   1      34.225  23.301  24.814  1.00  0.00     0.041 A 
BRANCH  15  16
ATOM     16  N   UNL A   1      32.887  23.293  24.373  1.00  0.00    -0.322 N 
ATOM     17  C   UNL A   1      31.877  24.222  24.464  1.00  0.00     0.255 C 
ATOM     18  H   UNL A   1      32.627  22.463  23.911  1.00  0.00     0.170 HD
ATOM     19  O   UNL A   1      30.703  23.877  24.331  1.00  0.00    -0.269 OA
BRANCH  17  20
ATOM     20  C   UNL A   1      32.154  25.661  24.665  1.00  0.00     0.041 A 
ATOM     21  C   UNL A   1      32.661  26.399  23.589  1.00  0.00     0.027 A 
ATOM     22  C   UNL A   1      31.950  26.273  25.908  1.00  0.00     0.027 A 
ATOM     23  C   UNL A   1      32.913  27.773  23.725  1.00  0.00     0.057 A 
ATOM     24  C   UNL A   1      32.174  27.649  26.062  1.00  0.00     0.057 A 
ATOM     25  C   UNL A   1      32.655  28.387  24.964  1.00  0.00     0.026 A 
BRANCH  23  26
ATOM     26  C   UNL A   1      33.434  28.562  22.548  1.00  0.00     0.416 C 
ATOM     27  F   UNL A   1      32.501  29.395  22.016  1.00  0.00    -0.166 F 
ATOM     28  F   UNL A   1      34.495  29.348  22.882  1.00  0.00    -0.166 F 
ATOM     29  F   UNL A   1      33.866  27.778  21.520  1.00  0.00    -0.166 F 
ENDBRANCH  23  26
BRANCH  24  30
ATOM     30  C   UNL A   1      31.876  28.348  27.369  1.00  0.00     0.416 C 
ATOM     31  F   UNL A   1      32.748  27.997  28.353  1.00  0.00    -0.166 F 
ATOM     32  F   UNL A   1      31.974  29.703  27.252  1.00  0.00    -0.166 F 
ATOM     33  F   UNL A   1      30.632  28.100  27.857  1.00  0.00    -0.166 F 
ENDBRANCH  24  30
ENDBRANCH  17  20
ENDBRANCH  15  16
ENDBRANCH   9  10
ENDBRANCH   6   8
ENDBRANCH   5   6
ENDBRANCH   4   5
ENDBRANCH   3   4
ENDBRANCH   2   3
ENDBRANCH   1   2
BRANCH   1  34
ATOM     34  C   UNL A   1      46.106  19.275  25.104  1.00  0.00     0.188 C 
BRANCH  34  35
ATOM     35  O   UNL A   1      46.423  20.642  25.316  1.00  0.00    -0.376 OA
BRANCH  35  36
ATOM     36  C   UNL A   1      46.293  21.575  24.255  1.00  0.00     0.202 C 
BRANCH  36  37
ATOM     37  C   UNL A   1      45.023  22.421  24.167  1.00  0.00     0.261 C 
BRANCH  37  38
ATOM     38  O   UNL A   1      45.036  23.550  25.058  1.00  0.00    -0.460 OA
BRANCH  38  39
ATOM     39  C   UNL A   1      44.290  23.395  26.177  1.00  0.00     0.338 C 
ATOM     40  O   UNL A   1      44.063  22.351  26.762  1.00  0.00    -0.246 OA
BRANCH  39  41
ATOM     41  C   UNL A   1      43.874  24.706  26.716  1.00  0.00     0.060 A 
ATOM     42  C   UNL A   1      43.812  25.773  25.814  1.00  0.00     0.016 A 
ATOM     43  C   UNL A   1      43.663  24.921  28.082  1.00  0.00     0.016 A 
ATOM     44  C   UNL A   1      43.611  27.070  26.281  1.00  0.00     0.010 A 
ATOM     45  C   UNL A   1      43.468  26.229  28.551  1.00  0.00     0.010 A 
ATOM     46  C   UNL A   1      43.487  27.314  27.656  1.00  0.00    -0.014 A 
BRANCH  46  47
ATOM     47  C   UNL A   1      43.550  28.720  28.134  1.00  0.00     0.031 A 
ATOM     48  C   UNL A   1      42.294  29.375  28.647  1.00  0.00     0.074 A 
ATOM     49  C   UNL A   1      44.725  29.374  28.197  1.00  0.00     0.049 A 
ATOM     50  N   UNL A   1      42.134  30.554  29.192  1.00  0.00    -0.248 NA
ATOM     51  C   UNL A   1      41.055  28.592  28.531  1.00  0.00     0.031 C 
ATOM     52  C   UNL A   1      46.012  28.839  27.756  1.00  0.00     0.029 A 
ATOM     53  N   UNL A   1      45.025  30.626  28.669  1.00  0.00    -0.354 N 
ATOM     54  C   UNL A   1      40.782  30.647  29.506  1.00  0.00     0.074 A 
ATOM     55  C   UNL A   1      40.160  29.426  29.038  1.00  0.00     0.031 C 
ATOM     56  C   UNL A   1      46.965  29.761  27.977  1.00  0.00     0.029 A 
ATOM     57  C   UNL A   1      46.355  30.956  28.558  1.00  0.00     0.049 A 
ATOM     58  H   UNL A   1      44.349  31.234  29.051  1.00  0.00     0.167 HD
ATOM     59  C   UNL A   1      40.121  31.647  30.143  1.00  0.00     0.034 A 
ATOM     60  C   UNL A   1      47.004  32.093  28.883  1.00  0.00     0.034 A 
ATOM     61  C   UNL A   1      40.742  32.874  30.580  1.00  0.00     0.049 A 
ATOM     62  C   UNL A   1      46.236  33.219  29.532  1.00  0.00     0.074 A 
ATOM     63  C   UNL A   1      40.161  33.957  31.217  1.00  0.00     0.029 A 
ATOM     64  N   UNL A   1      42.084  33.189  30.414  1.00  0.00    -0.354 N 
ATOM     65  N   UNL A   1      44.960  33.285  29.837  1.00  0.00    -0.248 NA
ATOM     66  C   UNL A   1      47.004  34.416  29.899  1.00  0.00     0.031 C 
ATOM     67  C   UNL A   1      41.137  34.947  31.383  1.00  0.00     0.029 A 
ATOM     68  C   UNL A   1      42.344  34.457  30.914  1.00  0.00     0.049 A 
ATOM     69  H   UNL A   1      42.755  32.597  30.003  1.00  0.00     0.167 HD
ATOM     70  C   UNL A   1      44.780  34.523  30.451  1.00  0.00     0.074 A 
ATOM     71  C   UNL A   1      46.082  35.156  30.496  1.00  0.00     0.031 C 
ATOM     72  C   UNL A   1      43.642  35.088  30.933  1.00  0.00     0.034 A 
BRANCH  59  73
ATOM     73  C   UNL A   1      38.639  31.459  30.364  1.00  0.00     0.023 A 
ATOM     74  C   UNL A   1      37.710  31.659  29.328  1.00  0.00     0.031 A 
ATOM     75  C   UNL A   1      38.148  31.105  31.632  1.00  0.00     0.131 A 
ATOM     76  C   UNL A   1      36.335  31.567  29.594  1.00  0.00     0.055 A 
ATOM     77  C   UNL A   1      36.782  30.945  31.872  1.00  0.00     0.041 A 
ATOM     78  F   UNL A   1      38.987  30.923  32.664  1.00  0.00    -0.206 F 
ATOM     79  C   UNL A   1      35.865  31.188  30.853  1.00  0.00     0.022 A 
BRANCH  76  80
ATOM     80  S   UNL A   1      35.165  32.073  28.303  1.00  0.00     0.124 S 
ATOM     81  O   UNL A   1      35.866  33.201  27.694  1.00  0.00    -0.237 OA
ATOM     82  O   UNL A   1      35.057  30.871  27.486  1.00  0.00    -0.237 OA
ATOM     83  O   UNL A   1      33.961  32.429  29.053  1.00  0.00    -0.744 OA
ENDBRANCH  76  80
ENDBRANCH  59  73
BRANCH  60  84
ATOM     84  C   UNL A   1      48.454  32.248  28.571  1.00  0.00     0.023 A 
ATOM     85  C   UNL A   1      48.891  32.968  27.449  1.00  0.00     0.031 A 
ATOM     86  C   UNL A   1      49.423  31.612  29.367  1.00  0.00     0.131 A 
ATOM     87  C   UNL A   1      50.256  32.992  27.123  1.00  0.00     0.055 A 
ATOM     88  C   UNL A   1      50.785  31.680  29.066  1.00  0.00     0.041 A 
ATOM     89  F   UNL A   1      49.059  30.914  30.455  1.00  0.00    -0.206 F 
ATOM     90  C   UNL A   1      51.206  32.361  27.930  1.00  0.00     0.022 A 
BRANCH  87  91
ATOM     91  S   UNL A   1      50.766  33.787  25.574  1.00  0.00     0.124 S 
ATOM     92  O   UNL A   1      49.504  34.334  25.090  1.00  0.00    -0.237 OA
ATOM     93  O   UNL A   1      51.749  34.757  26.043  1.00  0.00    -0.237 OA
ATOM     94  O   UNL A   1      51.311  32.681  24.789  1.00  0.00    -0.744 OA
ENDBRANCH  87  91
ENDBRANCH  60  84
BRANCH  72  95
ATOM     95  C   UNL A   1      43.776  36.450  31.572  1.00  0.00     0.023 A 
ATOM     96  C   UNL A   1      43.838  37.624  30.800  1.00  0.00     0.031 A 
ATOM     97  C   UNL A   1      43.879  36.572  32.969  1.00  0.00     0.131 A 
ATOM     98  C   UNL A   1      44.068  38.860  31.424  1.00  0.00     0.055 A 
ATOM     99  C   UNL A   1      44.047  37.812  33.588  1.00  0.00     0.041 A 
ATOM    100  F   UNL A   1      43.825  35.486  33.757  1.00  0.00    -0.206 F 
ATOM    101  C   UNL A   1      44.160  38.963  32.814  1.00  0.00     0.022 A 
BRANCH  98 102
ATOM    102  S   UNL A   1      44.361  40.318  30.383  1.00  0.00     0.124 S 
ATOM    103  O   UNL A   1      43.377  40.138  29.322  1.00  0.00    -0.237 OA
ATOM    104  O   UNL A   1      44.108  41.417  31.310  1.00  0.00    -0.237 OA
ATOM    105  O   UNL A   1      45.756  40.168  29.968  1.00  0.00    -0.744 OA
ENDBRANCH  98 102
ENDBRANCH  72  95
ENDBRANCH  46  47
ENDBRANCH  39  41
ENDBRANCH  38  39
ENDBRANCH  37  38
ENDBRANCH  36  37
ENDBRANCH  35  36
ENDBRANCH  34  35
ENDBRANCH   1  34
TORSDOF 25
ENDMDL
MODEL 2
REMARK VINA RESULT:      -9.9      5.295     11.241
REMARK SMILES O=C(/C=C/c1ccc(NC(=O)c2cc(C(F)(F)F)cc(C(F)(F)F)c2)cc1)OCCOCCOCCOC(=O)c1ccc(-c2c3nc(c(-c4cc(S(=O)(=O)[O-])ccc4F)c4ccc([nH]4)c(-c4cc(S(=O)(=O)[O-])ccc4F)c4nc(c(-c5cc(S(=O)(=O)[O-])ccc5F)c5ccc2[nH]5)C=C4)C=C3)cc1
REMARK SMILES IDX 32 1 31 2 30 3 29 4 28 5 2 6 1 7 3 8 4 9 5 10 6 11 27 12
REMARK SMILES IDX 7 13 26 14 8 15 9 16 10 17 11 19 12 20 13 21 25 22 14 23
REMARK SMILES IDX 20 24 19 25 15 26 16 27 17 28 18 29 21 30 22 31 23 32 24 33
REMARK SMILES IDX 33 34 34 35 35 36 36 37 37 38 38 39 39 40 40 41 41 42 102 43
REMARK SMILES IDX 42 44 101 45 43 46 44 47 45 48 95 49 46 50 100 51 94 52
REMARK SMILES IDX 96 53 47 54 99 55 93 56 92 57 48 59 80 60 60 61 79 62 61 63
REMARK SMILES IDX 64 64 78 65 97 66 62 67 63 68 77 70 98 71 65 72 49 73 50 74
REMARK SMILES IDX 58 75 51 76 57 77 59 78 56 79 52 80 53 81 54 82 55 83 81 84
REMARK SMILES IDX 82 85 90 86 83 87 89 88 91 89 88 90 84 91 85 92 86 93 87 94
REMARK SMILES IDX 66 95 67 96 75 97 68 98 74 99 76 100 73 101 69 102 70 103
REMARK SMILES IDX 71 104 72 105
REMARK H PARENT 9 18 96 58 64 69
REMARK Flexibility Score: inf
ROOT
ATOM      1  C   UNL A   1      35.359  33.055  27.834  1.00  0.00     0.188 C 
ENDROOT
BRANCH   1   2
ATOM      2  O   UNL A   1      34.570  31.931  28.184  1.00  0.00    -0.376 OA
BRANCH   2   3
ATOM      3  C   UNL A   1      34.740  30.682  27.547  1.00  0.00     0.202 C 
BRANCH   3   4
ATOM      4  C   UNL A   1      36.138  30.094  27.329  1.00  0.00     0.261 C 
BRANCH   4   5
ATOM      5  O   UNL A   1      36.650  29.298  28.399  1.00  0.00    -0.460 OA
BRANCH   5   6
ATOM      6  C   UNL A   1      37.825  29.695  28.944  1.00  0.00     0.330 C 
ATOM      7  O   UNL A   1      37.915  30.354  29.966  1.00  0.00    -0.247 OA
BRANCH   6   8
ATOM      8  C   UNL A   1      38.942  29.492  28.010  1.00  0.00     0.094 C 
ATOM      9  C   UNL A   1      40.111  29.025  28.466  1.00  0.00     0.015 C 
BRANCH   9  10
ATOM     10  C   UNL A   1      41.231  28.661  27.596  1.00  0.00    -0.025 A 
ATOM     11  C   UNL A   1      42.518  29.060  27.970  1.00  0.00     0.010 A 
ATOM     12  C   UNL A   1      41.063  27.989  26.384  1.00  0.00     0.010 A 
ATOM     13  C   UNL A   1      43.618  28.797  27.147  1.00  0.00     0.027 A 
ATOM     14  C   UNL A   1      42.169  27.712  25.569  1.00  0.00     0.027 A 
ATOM     15  C   UNL A   1      43.460  28.099  25.949  1.00  0.00     0.041 A 
BRANCH  15  16
ATOM     16  N   UNL A   1      44.508  27.818  25.052  1.00  0.00    -0.322 N 
ATOM     17  C   UNL A   1      45.438  26.804  25.003  1.00  0.00     0.255 C 
ATOM     18  H   UNL A   1      44.592  28.471  24.321  1.00  0.00     0.170 HD
ATOM     19  O   UNL A   1      46.471  26.940  24.350  1.00  0.00    -0.269 OA
BRANCH  17  20
ATOM     20  C   UNL A   1      45.213  25.505  25.674  1.00  0.00     0.041 A 
ATOM     21  C   UNL A   1      45.372  24.332  24.928  1.00  0.00     0.027 A 
ATOM     22  C   UNL A   1      44.817  25.441  27.016  1.00  0.00     0.027 A 
ATOM     23  C   UNL A   1      45.197  23.077  25.530  1.00  0.00     0.057 A 
ATOM     24  C   UNL A   1      44.656  24.197  27.645  1.00  0.00     0.057 A 
ATOM     25  C   UNL A   1      44.849  23.024  26.891  1.00  0.00     0.026 A 
BRANCH  23  26
ATOM     26  C   UNL A   1      45.398  21.819  24.718  1.00  0.00     0.416 C 
ATOM     27  F   UNL A   1      44.848  20.720  25.301  1.00  0.00    -0.166 F 
ATOM     28  F   UNL A   1      44.840  21.908  23.479  1.00  0.00    -0.166 F 
ATOM     29  F   UNL A   1      46.710  21.515  24.510  1.00  0.00    -0.166 F 
ENDBRANCH  23  26
BRANCH  24  30
ATOM     30  C   UNL A   1      44.316  24.102  29.115  1.00  0.00     0.416 C 
ATOM     31  F   UNL A   1      42.995  23.848  29.324  1.00  0.00    -0.166 F 
ATOM     32  F   UNL A   1      44.991  23.088  29.726  1.00  0.00    -0.166 F 
ATOM     33  F   UNL A   1      44.602  25.227  29.822  1.00  0.00    -0.166 F 
ENDBRANCH  24  30
ENDBRANCH  17  20
ENDBRANCH  15  16
ENDBRANCH   9  10
ENDBRANCH   6   8
ENDBRANCH   5   6
ENDBRANCH   4   5
ENDBRANCH   3   4
ENDBRANCH   2   3
ENDBRANCH   1   2
BRANCH   1  34
ATOM     34  C   UNL A   1      36.630  33.399  28.622  1.00  0.00     0.188 C 
BRANCH  34  35
ATOM     35  O   UNL A   1      36.541  33.910  29.943  1.00  0.00    -0.376 OA
BRANCH  35  36
ATOM     36  C   UNL A   1      36.120  33.067  31.005  1.00  0.00     0.202 C 
BRANCH  36  37
ATOM     37  C   UNL A   1      35.366  33.684  32.182  1.00  0.00     0.261 C 
BRANCH  37  38
ATOM     38  O   UNL A   1      35.267  32.800  33.312  1.00  0.00    -0.460 OA
BRANCH  38  39
ATOM     39  C   UNL A   1      36.114  33.085  34.329  1.00  0.00     0.338 C 
ATOM     40  O   UNL A   1      35.857  33.725  35.333  1.00  0.00    -0.246 OA
BRANCH  39  41
ATOM     41  C   UNL A   1      37.405  32.391  34.147  1.00  0.00     0.060 A 
ATOM     42  C   UNL A   1      38.562  33.097  34.495  1.00  0.00     0.016 A 
ATOM     43  C   UNL A   1      37.500  31.132  33.543  1.00  0.00     0.016 A 
ATOM     44  C   UNL A   1      39.816  32.582  34.177  1.00  0.00     0.010 A 
ATOM     45  C   UNL A   1      38.764  30.619  33.217  1.00  0.00     0.010 A 
ATOM     46  C   UNL A   1      39.925  31.364  33.491  1.00  0.00    -0.014 A 
BRANCH  46  47
ATOM     47  C   UNL A   1      41.248  30.983  32.931  1.00  0.00     0.031 A 
ATOM     48  C   UNL A   1      41.988  29.816  33.529  1.00  0.00     0.074 A 
ATOM     49  C   UNL A   1      41.742  31.609  31.846  1.00  0.00     0.049 A 
ATOM     50  N   UNL A   1      43.107  29.255  33.146  1.00  0.00    -0.248 NA
ATOM     51  C   UNL A   1      41.381  29.198  34.718  1.00  0.00     0.031 C 
ATOM     52  C   UNL A   1      41.108  32.734  31.161  1.00  0.00     0.029 A 
ATOM     53  N   UNL A   1      42.885  31.376  31.125  1.00  0.00    -0.354 N 
ATOM     54  C   UNL A   1      43.328  28.203  34.030  1.00  0.00     0.074 A 
ATOM     55  C   UNL A   1      42.254  28.243  35.001  1.00  0.00     0.031 C 
ATOM     56  C   UNL A   1      41.875  33.096  30.118  1.00  0.00     0.029 A 
ATOM     57  C   UNL A   1      43.060  32.241  30.071  1.00  0.00     0.049 A 
ATOM     58  H   UNL A   1      43.523  30.658  31.343  1.00  0.00     0.167 HD
ATOM     59  C   UNL A   1      44.320  27.279  34.024  1.00  0.00     0.034 A 
ATOM     60  C   UNL A   1      44.064  32.336  29.175  1.00  0.00     0.034 A 
ATOM     61  C   UNL A   1      45.403  27.263  33.071  1.00  0.00     0.049 A 
ATOM     62  C   UNL A   1      45.193  31.335  29.226  1.00  0.00     0.074 A 
ATOM     63  C   UNL A   1      46.469  26.383  32.987  1.00  0.00     0.029 A 
ATOM     64  N   UNL A   1      45.569  28.180  32.041  1.00  0.00    -0.354 N 
ATOM     65  N   UNL A   1      45.379  30.336  30.059  1.00  0.00    -0.248 NA
ATOM     66  C   UNL A   1      46.237  31.463  28.200  1.00  0.00     0.031 C 
ATOM     67  C   UNL A   1      47.306  26.801  31.946  1.00  0.00     0.029 A 
ATOM     68  C   UNL A   1      46.729  27.901  31.333  1.00  0.00     0.049 A 
ATOM     69  H   UNL A   1      44.951  28.920  31.841  1.00  0.00     0.167 HD
ATOM     70  C   UNL A   1      46.550  29.707  29.642  1.00  0.00     0.074 A 
ATOM     71  C   UNL A   1      47.009  30.422  28.469  1.00  0.00     0.031 C 
ATOM     72  C   UNL A   1      47.190  28.636  30.179  1.00  0.00     0.034 A 
BRANCH  59  73
ATOM     73  C   UNL A   1      44.291  26.232  35.112  1.00  0.00     0.023 A 
ATOM     74  C   UNL A   1      44.647  26.538  36.437  1.00  0.00     0.031 A 
ATOM     75  C   UNL A   1      43.931  24.906  34.816  1.00  0.00     0.131 A 
ATOM     76  C   UNL A   1      44.698  25.521  37.402  1.00  0.00     0.055 A 
ATOM     77  C   UNL A   1      43.914  23.912  35.796  1.00  0.00     0.041 A 
ATOM     78  F   UNL A   1      43.603  24.550  33.564  1.00  0.00    -0.206 F 
ATOM     79  C   UNL A   1      44.312  24.214  37.096  1.00  0.00     0.022 A 
BRANCH  76  80
ATOM     80  S   UNL A   1      45.398  25.902  39.031  1.00  0.00     0.124 S 
ATOM     81  O   UNL A   1      45.154  24.658  39.757  1.00  0.00    -0.237 OA
ATOM     82  O   UNL A   1      46.791  26.196  38.715  1.00  0.00    -0.237 OA
ATOM     83  O   UNL A   1      44.608  27.045  39.485  1.00  0.00    -0.744 OA
ENDBRANCH  76  80
ENDBRANCH  59  73
BRANCH  60  84
ATOM     84  C   UNL A   1      44.076  33.437  28.170  1.00  0.00     0.023 A 
ATOM     85  C   UNL A   1      44.284  34.773  28.546  1.00  0.00     0.031 A 
ATOM     86  C   UNL A   1      43.808  33.166  26.816  1.00  0.00     0.131 A 
ATOM     87  C   UNL A   1      44.170  35.794  27.589  1.00  0.00     0.055 A 
ATOM     88  C   UNL A   1      43.745  34.180  25.858  1.00  0.00     0.041 A 
ATOM     89  F   UNL A   1      43.607  31.905  26.401  1.00  0.00    -0.206 F 
ATOM     90  C   UNL A   1      43.912  35.505  26.247  1.00  0.00     0.022 A 
BRANCH  87  91
ATOM     91  S   UNL A   1      44.275  37.519  28.142  1.00  0.00     0.124 S 
ATOM     92  O   UNL A   1      43.136  37.612  29.048  1.00  0.00    -0.237 OA
ATOM     93  O   UNL A   1      45.595  37.556  28.762  1.00  0.00    -0.237 OA
ATOM     94  O   UNL A   1      44.151  38.280  26.900  1.00  0.00    -0.744 OA
ENDBRANCH  87  91
ENDBRANCH  60  84
BRANCH  72  95
ATOM     95  C   UNL A   1      48.443  28.167  29.476  1.00  0.00     0.023 A 
ATOM     96  C   UNL A   1      48.403  27.164  28.492  1.00  0.00     0.031 A 
ATOM     97  C   UNL A   1      49.695  28.706  29.819  1.00  0.00     0.131 A 
ATOM     98  C   UNL A   1      49.599  26.680  27.936  1.00  0.00     0.055 A 
ATOM     99  C   UNL A   1      50.875  28.265  29.219  1.00  0.00     0.041 A 
ATOM    100  F   UNL A   1      49.793  29.668  30.751  1.00  0.00    -0.206 F 
ATOM    101  C   UNL A   1      50.834  27.234  28.285  1.00  0.00     0.022 A 
BRANCH  98 102
ATOM    102  S   UNL A   1      49.527  25.238  26.837  1.00  0.00     0.124 S 
ATOM    103  O   UNL A   1      49.365  25.861  25.528  1.00  0.00    -0.237 OA
ATOM    104  O   UNL A   1      50.815  24.596  27.083  1.00  0.00    -0.237 OA
ATOM    105  O   UNL A   1      48.363  24.496  27.320  1.00  0.00    -0.744 OA
ENDBRANCH  98 102
ENDBRANCH  72  95
ENDBRANCH  46  47
ENDBRANCH  39  41
ENDBRANCH  38  39
ENDBRANCH  37  38
ENDBRANCH  36  37
ENDBRANCH  35  36
ENDBRANCH  34  35
ENDBRANCH   1  34
TORSDOF 25
ENDMDL
MODEL 3
REMARK VINA RESULT:      -9.8      5.230     11.308
REMARK SMILES O=C(/C=C/c1ccc(NC(=O)c2cc(C(F)(F)F)cc(C(F)(F)F)c2)cc1)OCCOCCOCCOC(=O)c1ccc(-c2c3nc(c(-c4cc(S(=O)(=O)[O-])ccc4F)c4ccc([nH]4)c(-c4cc(S(=O)(=O)[O-])ccc4F)c4nc(c(-c5cc(S(=O)(=O)[O-])ccc5F)c5ccc2[nH]5)C=C4)C=C3)cc1
REMARK SMILES IDX 32 1 31 2 30 3 29 4 28 5 2 6 1 7 3 8 4 9 5 10 6 11 27 12
REMARK SMILES IDX 7 13 26 14 8 15 9 16 10 17 11 19 12 20 13 21 25 22 14 23
REMARK SMILES IDX 20 24 19 25 15 26 16 27 17 28 18 29 21 30 22 31 23 32 24 33
REMARK SMILES IDX 33 34 34 35 35 36 36 37 37 38 38 39 39 40 40 41 41 42 102 43
REMARK SMILES IDX 42 44 101 45 43 46 44 47 45 48 95 49 46 50 100 51 94 52
REMARK SMILES IDX 96 53 47 54 99 55 93 56 92 57 48 59 80 60 60 61 79 62 61 63
REMARK SMILES IDX 64 64 78 65 97 66 62 67 63 68 77 70 98 71 65 72 49 73 50 74
REMARK SMILES IDX 58 75 51 76 57 77 59 78 56 79 52 80 53 81 54 82 55 83 81 84
REMARK SMILES IDX 82 85 90 86 83 87 89 88 91 89 88 90 84 91 85 92 86 93 87 94
REMARK SMILES IDX 66 95 67 96 75 97 68 98 74 99 76 100 73 101 69 102 70 103
REMARK SMILES IDX 71 104 72 105
REMARK H PARENT 9 18 96 58 64 69
REMARK Flexibility Score: inf
ROOT
ATOM      1  C   UNL A   1      34.983  32.935  27.999  1.00  0.00     0.188 C 
ENDROOT
BRANCH   1   2
ATOM      2  O   UNL A   1      34.309  31.821  28.559  1.00  0.00    -0.376 OA
BRANCH   2   3
ATOM      3  C   UNL A   1      34.395  30.536  27.976  1.00  0.00     0.202 C 
BRANCH   3   4
ATOM      4  C   UNL A   1      35.667  30.085  27.251  1.00  0.00     0.261 C 
BRANCH   4   5
ATOM      5  O   UNL A   1      36.565  29.279  28.017  1.00  0.00    -0.460 OA
BRANCH   5   6
ATOM      6  C   UNL A   1      37.699  29.877  28.452  1.00  0.00     0.330 C 
ATOM      7  O   UNL A   1      37.783  31.061  28.728  1.00  0.00    -0.247 OA
BRANCH   6   8
ATOM      8  C   UNL A   1      38.868  29.004  28.266  1.00  0.00     0.094 C 
ATOM      9  C   UNL A   1      40.090  29.460  28.568  1.00  0.00     0.015 C 
BRANCH   9  10
ATOM     10  C   UNL A   1      41.292  28.624  28.549  1.00  0.00    -0.025 A 
ATOM     11  C   UNL A   1      41.409  27.609  29.503  1.00  0.00     0.010 A 
ATOM     12  C   UNL A   1      42.349  28.836  27.661  1.00  0.00     0.010 A 
ATOM     13  C   UNL A   1      42.562  26.821  29.574  1.00  0.00     0.027 A 
ATOM     14  C   UNL A   1      43.496  28.033  27.724  1.00  0.00     0.027 A 
ATOM     15  C   UNL A   1      43.609  27.007  28.671  1.00  0.00     0.041 A 
BRANCH  15  16
ATOM     16  N   UNL A   1      44.812  26.277  28.690  1.00  0.00    -0.322 N 
ATOM     17  C   UNL A   1      45.122  24.992  28.308  1.00  0.00     0.255 C 
ATOM     18  H   UNL A   1      45.578  26.783  29.046  1.00  0.00     0.170 HD
ATOM     19  O   UNL A   1      46.138  24.445  28.734  1.00  0.00    -0.269 OA
BRANCH  17  20
ATOM     20  C   UNL A   1      44.292  24.245  27.338  1.00  0.00     0.041 A 
ATOM     21  C   UNL A   1      44.931  23.592  26.276  1.00  0.00     0.027 A 
ATOM     22  C   UNL A   1      42.897  24.213  27.449  1.00  0.00     0.027 A 
ATOM     23  C   UNL A   1      44.187  22.848  25.348  1.00  0.00     0.057 A 
ATOM     24  C   UNL A   1      42.134  23.458  26.545  1.00  0.00     0.057 A 
ATOM     25  C   UNL A   1      42.791  22.781  25.500  1.00  0.00     0.026 A 
BRANCH  23  26
ATOM     26  C   UNL A   1      44.893  22.127  24.224  1.00  0.00     0.416 C 
ATOM     27  F   UNL A   1      46.247  22.242  24.291  1.00  0.00    -0.166 F 
ATOM     28  F   UNL A   1      44.628  20.791  24.220  1.00  0.00    -0.166 F 
ATOM     29  F   UNL A   1      44.540  22.577  22.987  1.00  0.00    -0.166 F 
ENDBRANCH  23  26
BRANCH  24  30
ATOM     30  C   UNL A   1      40.635  23.337  26.698  1.00  0.00     0.416 C 
ATOM     31  F   UNL A   1      40.142  22.225  26.087  1.00  0.00    -0.166 F 
ATOM     32  F   UNL A   1      40.266  23.237  28.006  1.00  0.00    -0.166 F 
ATOM     33  F   UNL A   1      39.941  24.388  26.188  1.00  0.00    -0.166 F 
ENDBRANCH  24  30
ENDBRANCH  17  20
ENDBRANCH  15  16
ENDBRANCH   9  10
ENDBRANCH   6   8
ENDBRANCH   5   6
ENDBRANCH   4   5
ENDBRANCH   3   4
ENDBRANCH   2   3
ENDBRANCH   1   2
BRANCH   1  34
ATOM     34  C   UNL A   1      35.839  33.857  28.877  1.00  0.00     0.188 C 
BRANCH  34  35
ATOM     35  O   UNL A   1      35.478  34.102  30.228  1.00  0.00    -0.376 OA
BRANCH  35  36
ATOM     36  C   UNL A   1      36.171  33.445  31.278  1.00  0.00     0.202 C 
BRANCH  36  37
ATOM     37  C   UNL A   1      35.623  33.547  32.701  1.00  0.00     0.261 C 
BRANCH  37  38
ATOM     38  O   UNL A   1      35.876  32.369  33.487  1.00  0.00    -0.460 OA
BRANCH  38  39
ATOM     39  C   UNL A   1      36.882  32.493  34.385  1.00  0.00     0.338 C 
ATOM     40  O   UNL A   1      36.866  33.149  35.411  1.00  0.00    -0.246 OA
BRANCH  39  41
ATOM     41  C   UNL A   1      38.007  31.600  34.039  1.00  0.00     0.060 A 
ATOM     42  C   UNL A   1      39.246  31.882  34.623  1.00  0.00     0.016 A 
ATOM     43  C   UNL A   1      37.891  30.586  33.081  1.00  0.00     0.016 A 
ATOM     44  C   UNL A   1      40.387  31.204  34.201  1.00  0.00     0.010 A 
ATOM     45  C   UNL A   1      39.042  29.909  32.653  1.00  0.00     0.010 A 
ATOM     46  C   UNL A   1      40.301  30.247  33.179  1.00  0.00    -0.014 A 
BRANCH  46  47
ATOM     47  C   UNL A   1      41.562  29.748  32.571  1.00  0.00     0.031 A 
ATOM     48  C   UNL A   1      42.215  30.551  31.477  1.00  0.00     0.074 A 
ATOM     49  C   UNL A   1      42.166  28.643  33.047  1.00  0.00     0.049 A 
ATOM     50  N   UNL A   1      43.357  30.353  30.868  1.00  0.00    -0.248 NA
ATOM     51  C   UNL A   1      41.481  31.737  31.011  1.00  0.00     0.031 C 
ATOM     52  C   UNL A   1      41.648  27.795  34.120  1.00  0.00     0.029 A 
ATOM     53  N   UNL A   1      43.354  28.054  32.697  1.00  0.00    -0.354 N 
ATOM     54  C   UNL A   1      43.492  31.402  29.964  1.00  0.00     0.074 A 
ATOM     55  C   UNL A   1      42.287  32.200  30.066  1.00  0.00     0.031 C 
ATOM     56  C   UNL A   1      42.515  26.791  34.338  1.00  0.00     0.029 A 
ATOM     57  C   UNL A   1      43.639  26.915  33.412  1.00  0.00     0.049 A 
ATOM     58  H   UNL A   1      43.948  28.413  31.997  1.00  0.00     0.167 HD
ATOM     59  C   UNL A   1      44.529  31.688  29.137  1.00  0.00     0.034 A 
ATOM     60  C   UNL A   1      44.684  26.066  33.325  1.00  0.00     0.034 A 
ATOM     61  C   UNL A   1      45.714  30.872  29.018  1.00  0.00     0.049 A 
ATOM     62  C   UNL A   1      45.798  26.368  32.351  1.00  0.00     0.074 A 
ATOM     63  C   UNL A   1      46.815  31.061  28.200  1.00  0.00     0.029 A 
ATOM     64  N   UNL A   1      45.949  29.703  29.730  1.00  0.00    -0.354 N 
ATOM     65  N   UNL A   1      45.918  27.373  31.514  1.00  0.00    -0.248 NA
ATOM     66  C   UNL A   1      46.928  25.430  32.330  1.00  0.00     0.031 C 
ATOM     67  C   UNL A   1      47.685  29.979  28.374  1.00  0.00     0.029 A 
ATOM     68  C   UNL A   1      47.164  29.149  29.353  1.00  0.00     0.049 A 
ATOM     69  H   UNL A   1      45.342  29.324  30.406  1.00  0.00     0.167 HD
ATOM     70  C   UNL A   1      47.147  27.196  30.882  1.00  0.00     0.074 A 
ATOM     71  C   UNL A   1      47.740  26.005  31.456  1.00  0.00     0.031 C 
ATOM     72  C   UNL A   1      47.734  27.947  29.914  1.00  0.00     0.034 A 
BRANCH  59  73
ATOM     73  C   UNL A   1      44.400  32.918  28.272  1.00  0.00     0.023 A 
ATOM     74  C   UNL A   1      44.598  34.209  28.794  1.00  0.00     0.031 A 
ATOM     75  C   UNL A   1      44.047  32.802  26.917  1.00  0.00     0.131 A 
ATOM     76  C   UNL A   1      44.379  35.333  27.984  1.00  0.00     0.055 A 
ATOM     77  C   UNL A   1      43.900  33.923  26.097  1.00  0.00     0.041 A 
ATOM     78  F   UNL A   1      43.824  31.597  26.369  1.00  0.00    -0.206 F 
ATOM     79  C   UNL A   1      44.054  35.199  26.632  1.00  0.00     0.022 A 
BRANCH  76  80
ATOM     80  S   UNL A   1      44.400  36.976  28.753  1.00  0.00     0.124 S 
ATOM     81  O   UNL A   1      44.832  37.818  27.640  1.00  0.00    -0.237 OA
ATOM     82  O   UNL A   1      43.016  37.141  29.181  1.00  0.00    -0.237 OA
ATOM     83  O   UNL A   1      45.374  36.836  29.834  1.00  0.00    -0.744 OA
ENDBRANCH  76  80
ENDBRANCH  59  73
BRANCH  60  84
ATOM     84  C   UNL A   1      44.719  24.827  34.153  1.00  0.00     0.023 A 
ATOM     85  C   UNL A   1      45.259  24.825  35.448  1.00  0.00     0.031 A 
ATOM     86  C   UNL A   1      44.269  23.605  33.622  1.00  0.00     0.131 A 
ATOM     87  C   UNL A   1      45.383  23.615  36.151  1.00  0.00     0.055 A 
ATOM     88  C   UNL A   1      44.348  22.412  34.344  1.00  0.00     0.041 A 
ATOM     89  F   UNL A   1      43.738  23.552  32.390  1.00  0.00    -0.206 F 
ATOM     90  C   UNL A   1      44.922  22.412  35.611  1.00  0.00     0.022 A 
BRANCH  87  91
ATOM     91  S   UNL A   1      46.240  23.622  37.749  1.00  0.00     0.124 S 
ATOM     92  O   UNL A   1      46.817  22.283  37.785  1.00  0.00    -0.237 OA
ATOM     93  O   UNL A   1      47.182  24.723  37.581  1.00  0.00    -0.237 OA
ATOM     94  O   UNL A   1      45.165  23.867  38.709  1.00  0.00    -0.744 OA
ENDBRANCH  87  91
ENDBRANCH  60  84
BRANCH  72  95
ATOM     95  C   UNL A   1      49.100  27.505  29.443  1.00  0.00     0.023 A 
ATOM     96  C   UNL A   1      50.272  27.883  30.122  1.00  0.00     0.031 A 
ATOM     97  C   UNL A   1      49.233  26.727  28.280  1.00  0.00     0.131 A 
ATOM     98  C   UNL A   1      51.527  27.542  29.595  1.00  0.00     0.055 A 
ATOM     99  C   UNL A   1      50.482  26.338  27.794  1.00  0.00     0.041 A 
ATOM    100  F   UNL A   1      48.148  26.335  27.591  1.00  0.00    -0.206 F 
ATOM    101  C   UNL A   1      51.639  26.761  28.442  1.00  0.00     0.022 A 
BRANCH  98 102
ATOM    102  S   UNL A   1      53.014  28.232  30.373  1.00  0.00     0.124 S 
ATOM    103  O   UNL A   1      53.942  28.301  29.250  1.00  0.00    -0.237 OA
ATOM    104  O   UNL A   1      52.533  29.512  30.883  1.00  0.00    -0.237 OA
ATOM    105  O   UNL A   1      53.354  27.246  31.398  1.00  0.00    -0.744 OA
ENDBRANCH  98 102
ENDBRANCH  72  95
ENDBRANCH  46  47
ENDBRANCH  39  41
ENDBRANCH  38  39
ENDBRANCH  37  38
ENDBRANCH  36  37
ENDBRANCH  35  36
ENDBRANCH  34  35
ENDBRANCH   1  34
TORSDOF 25
ENDMDL
