MODEL 1
REMARK VINA RESULT:     -10.5      0.000      0.000
REMARK SMILES CS(=O)(=O)c1ccc(/C=C(/C(=O)OCCOCCOCCOC(=O)c2ccc(-c3c4nc(c(-c5cc(S(=O)(=O)[O-])ccc5F)c5ccc([nH]5)c(-c5cc(S(=O)(=O)[O-])ccc5F)c5nc(c(-c6cc(S(=O)(=O)[O-])ccc6F)c6ccc3[nH]6)C=C5)C=C4)cc2)c2ccc(-c3ccc(S(C)(=O)=O)cc3)cc2)cc1
REMARK SMILES IDX 17 1 16 2 15 3 14 4 13 5 11 6 12 7 10 8 9 9 8 10 5 11 6 12
REMARK SMILES IDX 105 13 7 14 104 15 2 16 1 17 3 18 4 19 88 20 89 21 103 22
REMARK SMILES IDX 90 23 102 24 91 25 92 26 93 27 101 28 94 29 100 30 95 31
REMARK SMILES IDX 96 32 97 33 98 34 99 35 18 36 19 37 20 38 21 39 22 40 23 41
REMARK SMILES IDX 24 42 25 43 26 44 87 45 27 46 86 47 28 48 29 49 30 50 80 51
REMARK SMILES IDX 31 52 85 53 79 54 81 55 32 56 84 57 78 58 77 59 33 61 65 62
REMARK SMILES IDX 45 63 64 64 46 65 49 66 63 67 82 68 47 69 48 70 62 72 83 73
REMARK SMILES IDX 50 74 34 75 35 76 43 77 36 78 42 79 44 80 41 81 37 82 38 83
REMARK SMILES IDX 39 84 40 85 66 86 67 87 75 88 68 89 74 90 76 91 73 92 69 93
REMARK SMILES IDX 70 94 71 95 72 96 51 97 52 98 60 99 53 100 59 101 61 102
REMARK SMILES IDX 58 103 54 104 55 105 56 106 57 107
REMARK H PARENT 81 60 49 71
REMARK Flexibility Score: inf
ROOT
ATOM      1  C   UNL A   1      31.184  29.233  24.175  1.00  0.00     0.188 C 
ENDROOT
BRANCH   1   2
ATOM      2  O   UNL A   1      32.074  29.048  23.082  1.00  0.00    -0.376 OA
BRANCH   2   3
ATOM      3  C   UNL A   1      31.966  27.807  22.402  1.00  0.00     0.202 C 
BRANCH   3   4
ATOM      4  C   UNL A   1      32.994  26.763  22.844  1.00  0.00     0.261 C 
BRANCH   4   5
ATOM      5  O   UNL A   1      32.638  25.402  22.545  1.00  0.00    -0.460 OA
BRANCH   5   6
ATOM      6  C   UNL A   1      31.868  24.745  23.448  1.00  0.00     0.338 C 
ATOM      7  O   UNL A   1      30.782  25.130  23.851  1.00  0.00    -0.246 OA
BRANCH   6   8
ATOM      8  C   UNL A   1      32.496  23.428  23.819  1.00  0.00     0.067 C 
ATOM      9  C   UNL A   1      31.745  22.301  23.751  1.00  0.00     0.024 C 
BRANCH   9  10
ATOM     10  C   UNL A   1      32.151  20.889  23.948  1.00  0.00    -0.025 A 
ATOM     11  C   UNL A   1      33.193  18.283  24.094  1.00  0.00     0.067 A 
ATOM     12  C   UNL A   1      33.082  19.049  25.253  1.00  0.00     0.021 A 
ATOM     13  C   UNL A   1      32.692  18.762  22.885  1.00  0.00     0.021 A 
ATOM     14  C   UNL A   1      32.539  20.337  25.178  1.00  0.00     0.009 A 
ATOM     15  C   UNL A   1      32.169  20.056  22.817  1.00  0.00     0.009 A 
BRANCH  11  16
ATOM     16  S   UNL A   1      34.053  16.729  24.125  1.00  0.00     0.175 S 
ATOM     17  C   UNL A   1      33.012  15.642  25.069  1.00  0.00     0.163 C 
ATOM     18  O   UNL A   1      35.266  16.927  24.900  1.00  0.00    -0.224 OA
ATOM     19  O   UNL A   1      34.115  16.249  22.760  1.00  0.00    -0.224 OA
ENDBRANCH  11  16
ENDBRANCH   9  10
BRANCH   8  20
ATOM     20  C   UNL A   1      33.909  23.429  24.246  1.00  0.00    -0.011 A 
ATOM     21  C   UNL A   1      34.209  23.648  25.596  1.00  0.00     0.009 A 
ATOM     22  C   UNL A   1      34.950  23.105  23.371  1.00  0.00     0.009 A 
ATOM     23  C   UNL A   1      35.516  23.506  26.067  1.00  0.00     0.009 A 
ATOM     24  C   UNL A   1      36.260  22.961  23.851  1.00  0.00     0.009 A 
ATOM     25  C   UNL A   1      36.564  23.143  25.212  1.00  0.00    -0.018 A 
BRANCH  25  26
ATOM     26  C   UNL A   1      37.919  22.902  25.744  1.00  0.00    -0.018 A 
ATOM     27  C   UNL A   1      38.597  23.912  26.455  1.00  0.00     0.010 A 
ATOM     28  C   UNL A   1      38.568  21.663  25.587  1.00  0.00     0.010 A 
ATOM     29  C   UNL A   1      39.851  23.685  27.024  1.00  0.00     0.021 A 
ATOM     30  C   UNL A   1      39.829  21.425  26.151  1.00  0.00     0.021 A 
ATOM     31  C   UNL A   1      40.456  22.436  26.880  1.00  0.00     0.067 A 
BRANCH  31  32
ATOM     32  S   UNL A   1      41.968  22.119  27.764  1.00  0.00     0.175 S 
ATOM     33  C   UNL A   1      43.242  22.672  26.663  1.00  0.00     0.163 C 
ATOM     34  O   UNL A   1      41.953  22.990  28.926  1.00  0.00    -0.224 OA
ATOM     35  O   UNL A   1      42.085  20.685  27.942  1.00  0.00    -0.224 OA
ENDBRANCH  31  32
ENDBRANCH  25  26
ENDBRANCH   8  20
ENDBRANCH   6   8
ENDBRANCH   5   6
ENDBRANCH   4   5
ENDBRANCH   3   4
ENDBRANCH   2   3
ENDBRANCH   1   2
BRANCH   1  36
ATOM     36  C   UNL A   1      31.878  29.211  25.551  1.00  0.00     0.188 C 
BRANCH  36  37
ATOM     37  O   UNL A   1      31.909  30.377  26.367  1.00  0.00    -0.376 OA
BRANCH  37  38
ATOM     38  C   UNL A   1      32.855  30.468  27.419  1.00  0.00     0.202 C 
BRANCH  38  39
ATOM     39  C   UNL A   1      33.698  31.743  27.529  1.00  0.00     0.261 C 
BRANCH  39  40
ATOM     40  O   UNL A   1      35.112  31.549  27.381  1.00  0.00    -0.460 OA
BRANCH  40  41
ATOM     41  C   UNL A   1      35.537  30.281  27.616  1.00  0.00     0.338 C 
ATOM     42  O   UNL A   1      35.298  29.293  26.944  1.00  0.00    -0.246 OA
BRANCH  41  43
ATOM     43  C   UNL A   1      36.499  30.270  28.739  1.00  0.00     0.060 A 
ATOM     44  C   UNL A   1      37.597  31.138  28.668  1.00  0.00     0.016 A 
ATOM     45  C   UNL A   1      36.371  29.380  29.809  1.00  0.00     0.016 A 
ATOM     46  C   UNL A   1      38.589  31.095  29.646  1.00  0.00     0.010 A 
ATOM     47  C   UNL A   1      37.381  29.322  30.778  1.00  0.00     0.010 A 
ATOM     48  C   UNL A   1      38.508  30.158  30.684  1.00  0.00    -0.014 A 
BRANCH  48  49
ATOM     49  C   UNL A   1      39.696  29.922  31.542  1.00  0.00     0.031 A 
ATOM     50  C   UNL A   1      39.777  30.639  32.863  1.00  0.00     0.074 A 
ATOM     51  C   UNL A   1      40.669  29.070  31.171  1.00  0.00     0.049 A 
ATOM     52  N   UNL A   1      40.712  30.596  33.775  1.00  0.00    -0.248 NA
ATOM     53  C   UNL A   1      38.650  31.525  33.191  1.00  0.00     0.031 C 
ATOM     54  C   UNL A   1      40.686  28.303  29.928  1.00  0.00     0.029 A 
ATOM     55  N   UNL A   1      41.836  28.716  31.801  1.00  0.00    -0.354 N 
ATOM     56  C   UNL A   1      40.285  31.446  34.791  1.00  0.00     0.074 A 
ATOM     57  C   UNL A   1      39.023  32.013  34.364  1.00  0.00     0.031 C 
ATOM     58  C   UNL A   1      41.814  27.573  29.881  1.00  0.00     0.029 A 
ATOM     59  C   UNL A   1      42.622  27.858  31.065  1.00  0.00     0.049 A 
ATOM     60  H   UNL A   1      42.088  29.044  32.694  1.00  0.00     0.167 HD
ATOM     61  C   UNL A   1      40.888  31.726  35.973  1.00  0.00     0.034 A 
ATOM     62  C   UNL A   1      43.865  27.389  31.303  1.00  0.00     0.034 A 
ATOM     63  C   UNL A   1      42.164  31.186  36.367  1.00  0.00     0.049 A 
ATOM     64  C   UNL A   1      44.560  27.784  32.586  1.00  0.00     0.074 A 
ATOM     65  C   UNL A   1      42.868  31.400  37.539  1.00  0.00     0.029 A 
ATOM     66  N   UNL A   1      42.942  30.339  35.587  1.00  0.00    -0.354 N 
ATOM     67  N   UNL A   1      44.115  28.532  33.570  1.00  0.00    -0.248 NA
ATOM     68  C   UNL A   1      45.909  27.246  32.805  1.00  0.00     0.031 C 
ATOM     69  C   UNL A   1      44.097  30.739  37.439  1.00  0.00     0.029 A 
ATOM     70  C   UNL A   1      44.130  30.046  36.239  1.00  0.00     0.049 A 
ATOM     71  H   UNL A   1      42.687  29.997  34.699  1.00  0.00     0.167 HD
ATOM     72  C   UNL A   1      45.124  28.540  34.531  1.00  0.00     0.074 A 
ATOM     73  C   UNL A   1      46.184  27.694  34.023  1.00  0.00     0.031 C 
ATOM     74  C   UNL A   1      45.170  29.186  35.725  1.00  0.00     0.034 A 
BRANCH  61  75
ATOM     75  C   UNL A   1      40.191  32.706  36.884  1.00  0.00     0.023 A 
ATOM     76  C   UNL A   1      39.269  32.279  37.857  1.00  0.00     0.031 A 
ATOM     77  C   UNL A   1      40.415  34.087  36.750  1.00  0.00     0.131 A 
ATOM     78  C   UNL A   1      38.554  33.226  38.606  1.00  0.00     0.055 A 
ATOM     79  C   UNL A   1      39.756  35.021  37.552  1.00  0.00     0.041 A 
ATOM     80  F   UNL A   1      41.265  34.553  35.821  1.00  0.00    -0.206 F 
ATOM     81  C   UNL A   1      38.808  34.593  38.478  1.00  0.00     0.022 A 
BRANCH  78  82
ATOM     82  S   UNL A   1      37.184  32.650  39.646  1.00  0.00     0.124 S 
ATOM     83  O   UNL A   1      37.159  33.672  40.691  1.00  0.00    -0.237 OA
ATOM     84  O   UNL A   1      36.059  32.659  38.718  1.00  0.00    -0.237 OA
ATOM     85  O   UNL A   1      37.622  31.328  40.087  1.00  0.00    -0.744 OA
ENDBRANCH  78  82
ENDBRANCH  61  75
BRANCH  62  86
ATOM     86  C   UNL A   1      44.555  26.531  30.297  1.00  0.00     0.023 A 
ATOM     87  C   UNL A   1      45.137  27.080  29.146  1.00  0.00     0.031 A 
ATOM     88  C   UNL A   1      44.598  25.133  30.445  1.00  0.00     0.131 A 
ATOM     89  C   UNL A   1      45.702  26.242  28.172  1.00  0.00     0.055 A 
ATOM     90  C   UNL A   1      45.199  24.306  29.494  1.00  0.00     0.041 A 
ATOM     91  F   UNL A   1      44.057  24.550  31.526  1.00  0.00    -0.206 F 
ATOM     92  C   UNL A   1      45.744  24.859  28.340  1.00  0.00     0.022 A 
BRANCH  89  93
ATOM     93  S   UNL A   1      46.303  26.996  26.637  1.00  0.00     0.124 S 
ATOM     94  O   UNL A   1      45.227  26.673  25.709  1.00  0.00    -0.237 OA
ATOM     95  O   UNL A   1      46.419  28.395  27.034  1.00  0.00    -0.237 OA
ATOM     96  O   UNL A   1      47.568  26.305  26.395  1.00  0.00    -0.744 OA
ENDBRANCH  89  93
ENDBRANCH  62  86
BRANCH  74  97
ATOM     97  C   UNL A   1      46.379  28.943  36.599  1.00  0.00     0.023 A 
ATOM     98  C   UNL A   1      46.396  27.943  37.585  1.00  0.00     0.031 A 
ATOM     99  C   UNL A   1      47.535  29.727  36.431  1.00  0.00     0.131 A 
ATOM    100  C   UNL A   1      47.530  27.785  38.400  1.00  0.00     0.055 A 
ATOM    101  C   UNL A   1      48.680  29.525  37.203  1.00  0.00     0.041 A 
ATOM    102  F   UNL A   1      47.572  30.699  35.504  1.00  0.00    -0.206 F 
ATOM    103  C   UNL A   1      48.677  28.558  38.202  1.00  0.00     0.022 A 
BRANCH 100 104
ATOM    104  S   UNL A   1      47.452  26.613  39.781  1.00  0.00     0.124 S 
ATOM    105  O   UNL A   1      46.092  26.098  39.664  1.00  0.00    -0.237 OA
ATOM    106  O   UNL A   1      48.520  25.674  39.453  1.00  0.00    -0.237 OA
ATOM    107  O   UNL A   1      47.701  27.448  40.955  1.00  0.00    -0.744 OA
ENDBRANCH 100 104
ENDBRANCH  74  97
ENDBRANCH  48  49
ENDBRANCH  41  43
ENDBRANCH  40  41
ENDBRANCH  39  40
ENDBRANCH  38  39
ENDBRANCH  37  38
ENDBRANCH  36  37
ENDBRANCH   1  36
TORSDOF 25
ENDMDL
MODEL 2
REMARK VINA RESULT:      -9.7      2.307      2.653
REMARK SMILES CS(=O)(=O)c1ccc(/C=C(/C(=O)OCCOCCOCCOC(=O)c2ccc(-c3c4nc(c(-c5cc(S(=O)(=O)[O-])ccc5F)c5ccc([nH]5)c(-c5cc(S(=O)(=O)[O-])ccc5F)c5nc(c(-c6cc(S(=O)(=O)[O-])ccc6F)c6ccc3[nH]6)C=C5)C=C4)cc2)c2ccc(-c3ccc(S(C)(=O)=O)cc3)cc2)cc1
REMARK SMILES IDX 17 1 16 2 15 3 14 4 13 5 11 6 12 7 10 8 9 9 8 10 5 11 6 12
REMARK SMILES IDX 105 13 7 14 104 15 2 16 1 17 3 18 4 19 88 20 89 21 103 22
REMARK SMILES IDX 90 23 102 24 91 25 92 26 93 27 101 28 94 29 100 30 95 31
REMARK SMILES IDX 96 32 97 33 98 34 99 35 18 36 19 37 20 38 21 39 22 40 23 41
REMARK SMILES IDX 24 42 25 43 26 44 87 45 27 46 86 47 28 48 29 49 30 50 80 51
REMARK SMILES IDX 31 52 85 53 79 54 81 55 32 56 84 57 78 58 77 59 33 61 65 62
REMARK SMILES IDX 45 63 64 64 46 65 49 66 63 67 82 68 47 69 48 70 62 72 83 73
REMARK SMILES IDX 50 74 34 75 35 76 43 77 36 78 42 79 44 80 41 81 37 82 38 83
REMARK SMILES IDX 39 84 40 85 66 86 67 87 75 88 68 89 74 90 76 91 73 92 69 93
REMARK SMILES IDX 70 94 71 95 72 96 51 97 52 98 60 99 53 100 59 101 61 102
REMARK SMILES IDX 58 103 54 104 55 105 56 106 57 107
REMARK H PARENT 81 60 49 71
REMARK Flexibility Score: inf
ROOT
ATOM      1  C   UNL A   1      31.403  28.048  25.038  1.00  0.00     0.188 C 
ENDROOT
BRANCH   1   2
ATOM      2  O   UNL A   1      32.334  28.928  24.422  1.00  0.00    -0.376 OA
BRANCH   2   3
ATOM      3  C   UNL A   1      32.955  28.440  23.243  1.00  0.00     0.202 C 
BRANCH   3   4
ATOM      4  C   UNL A   1      33.554  27.038  23.389  1.00  0.00     0.261 C 
BRANCH   4   5
ATOM      5  O   UNL A   1      33.051  26.068  22.456  1.00  0.00    -0.460 OA
BRANCH   5   6
ATOM      6  C   UNL A   1      32.012  25.293  22.858  1.00  0.00     0.338 C 
ATOM      7  O   UNL A   1      30.835  25.603  22.769  1.00  0.00    -0.246 OA
BRANCH   6   8
ATOM      8  C   UNL A   1      32.507  23.960  23.349  1.00  0.00     0.067 C 
ATOM      9  C   UNL A   1      31.683  22.885  23.270  1.00  0.00     0.024 C 
BRANCH   9  10
ATOM     10  C   UNL A   1      31.965  21.461  23.573  1.00  0.00    -0.025 A 
ATOM     11  C   UNL A   1      32.803  18.807  23.955  1.00  0.00     0.067 A 
ATOM     12  C   UNL A   1      32.596  19.631  25.059  1.00  0.00     0.021 A 
ATOM     13  C   UNL A   1      32.495  19.258  22.672  1.00  0.00     0.021 A 
ATOM     14  C   UNL A   1      32.154  20.945  24.863  1.00  0.00     0.009 A 
ATOM     15  C   UNL A   1      32.073  20.577  22.487  1.00  0.00     0.009 A 
BRANCH  11  16
ATOM     16  S   UNL A   1      33.547  17.205  24.158  1.00  0.00     0.175 S 
ATOM     17  C   UNL A   1      35.240  17.531  24.583  1.00  0.00     0.163 C 
ATOM     18  O   UNL A   1      33.555  16.570  22.852  1.00  0.00    -0.224 OA
ATOM     19  O   UNL A   1      32.894  16.573  25.286  1.00  0.00    -0.224 OA
ENDBRANCH  11  16
ENDBRANCH   9  10
BRANCH   8  20
ATOM     20  C   UNL A   1      33.874  23.886  23.901  1.00  0.00    -0.011 A 
ATOM     21  C   UNL A   1      34.083  24.231  25.242  1.00  0.00     0.009 A 
ATOM     22  C   UNL A   1      34.946  23.376  23.164  1.00  0.00     0.009 A 
ATOM     23  C   UNL A   1      35.327  24.030  25.843  1.00  0.00     0.009 A 
ATOM     24  C   UNL A   1      36.193  23.175  23.774  1.00  0.00     0.009 A 
ATOM     25  C   UNL A   1      36.402  23.484  25.130  1.00  0.00    -0.018 A 
BRANCH  25  26
ATOM     26  C   UNL A   1      37.680  23.188  25.806  1.00  0.00    -0.018 A 
ATOM     27  C   UNL A   1      38.273  21.916  25.687  1.00  0.00     0.010 A 
ATOM     28  C   UNL A   1      38.360  24.160  26.564  1.00  0.00     0.010 A 
ATOM     29  C   UNL A   1      39.513  21.634  26.262  1.00  0.00     0.021 A 
ATOM     30  C   UNL A   1      39.604  23.887  27.149  1.00  0.00     0.021 A 
ATOM     31  C   UNL A   1      40.180  22.627  26.981  1.00  0.00     0.067 A 
BRANCH  31  32
ATOM     32  S   UNL A   1      41.833  22.297  27.549  1.00  0.00     0.175 S 
ATOM     33  C   UNL A   1      42.868  22.798  26.199  1.00  0.00     0.163 C 
ATOM     34  O   UNL A   1      42.069  23.193  28.668  1.00  0.00    -0.224 OA
ATOM     35  O   UNL A   1      41.960  20.866  27.737  1.00  0.00    -0.224 OA
ENDBRANCH  31  32
ENDBRANCH  25  26
ENDBRANCH   8  20
ENDBRANCH   6   8
ENDBRANCH   5   6
ENDBRANCH   4   5
ENDBRANCH   3   4
ENDBRANCH   2   3
ENDBRANCH   1   2
BRANCH   1  36
ATOM     36  C   UNL A   1      31.361  28.166  26.574  1.00  0.00     0.188 C 
BRANCH  36  37
ATOM     37  O   UNL A   1      32.282  29.004  27.263  1.00  0.00    -0.376 OA
BRANCH  37  38
ATOM     38  C   UNL A   1      32.175  30.412  27.138  1.00  0.00     0.202 C 
BRANCH  38  39
ATOM     39  C   UNL A   1      33.429  31.260  27.372  1.00  0.00     0.261 C 
BRANCH  39  40
ATOM     40  O   UNL A   1      34.464  30.613  28.129  1.00  0.00    -0.460 OA
BRANCH  40  41
ATOM     41  C   UNL A   1      35.246  29.767  27.412  1.00  0.00     0.338 C 
ATOM     42  O   UNL A   1      34.930  29.150  26.409  1.00  0.00    -0.246 OA
BRANCH  41  43
ATOM     43  C   UNL A   1      36.634  29.808  27.920  1.00  0.00     0.060 A 
ATOM     44  C   UNL A   1      37.310  28.591  28.076  1.00  0.00     0.016 A 
ATOM     45  C   UNL A   1      37.242  31.007  28.305  1.00  0.00     0.016 A 
ATOM     46  C   UNL A   1      38.580  28.561  28.649  1.00  0.00     0.010 A 
ATOM     47  C   UNL A   1      38.508  30.973  28.902  1.00  0.00     0.010 A 
ATOM     48  C   UNL A   1      39.169  29.748  29.104  1.00  0.00    -0.014 A 
BRANCH  48  49
ATOM     49  C   UNL A   1      40.374  29.675  29.967  1.00  0.00     0.031 A 
ATOM     50  C   UNL A   1      40.331  30.349  31.312  1.00  0.00     0.074 A 
ATOM     51  C   UNL A   1      41.474  29.005  29.579  1.00  0.00     0.049 A 
ATOM     52  N   UNL A   1      41.254  30.424  32.234  1.00  0.00    -0.248 NA
ATOM     53  C   UNL A   1      39.073  31.030  31.657  1.00  0.00     0.031 C 
ATOM     54  C   UNL A   1      41.623  28.295  28.311  1.00  0.00     0.029 A 
ATOM     55  N   UNL A   1      42.679  28.820  30.210  1.00  0.00    -0.354 N 
ATOM     56  C   UNL A   1      40.690  31.157  33.273  1.00  0.00     0.074 A 
ATOM     57  C   UNL A   1      39.356  31.529  32.851  1.00  0.00     0.031 C 
ATOM     58  C   UNL A   1      42.853  27.758  28.253  1.00  0.00     0.029 A 
ATOM     59  C   UNL A   1      43.597  28.127  29.455  1.00  0.00     0.049 A 
ATOM     60  H   UNL A   1      42.869  29.152  31.118  1.00  0.00     0.167 HD
ATOM     61  C   UNL A   1      41.232  31.489  34.471  1.00  0.00     0.034 A 
ATOM     62  C   UNL A   1      44.898  27.855  29.692  1.00  0.00     0.034 A 
ATOM     63  C   UNL A   1      42.577  31.147  34.861  1.00  0.00     0.049 A 
ATOM     64  C   UNL A   1      45.512  28.310  30.996  1.00  0.00     0.074 A 
ATOM     65  C   UNL A   1      43.229  31.429  36.049  1.00  0.00     0.029 A 
ATOM     66  N   UNL A   1      43.486  30.465  34.063  1.00  0.00    -0.354 N 
ATOM     67  N   UNL A   1      44.947  28.943  31.999  1.00  0.00    -0.248 NA
ATOM     68  C   UNL A   1      46.929  27.989  31.213  1.00  0.00     0.031 C 
ATOM     69  C   UNL A   1      44.549  30.978  35.941  1.00  0.00     0.029 A 
ATOM     70  C   UNL A   1      44.701  30.343  34.718  1.00  0.00     0.049 A 
ATOM     71  H   UNL A   1      43.294  30.118  33.161  1.00  0.00     0.167 HD
ATOM     72  C   UNL A   1      45.935  29.078  32.972  1.00  0.00     0.074 A 
ATOM     73  C   UNL A   1      47.120  28.431  32.448  1.00  0.00     0.031 C 
ATOM     74  C   UNL A   1      45.869  29.679  34.188  1.00  0.00     0.034 A 
BRANCH  61  75
ATOM     75  C   UNL A   1      40.381  32.311  35.407  1.00  0.00     0.023 A 
ATOM     76  C   UNL A   1      40.537  33.705  35.513  1.00  0.00     0.031 A 
ATOM     77  C   UNL A   1      39.432  31.690  36.237  1.00  0.00     0.131 A 
ATOM     78  C   UNL A   1      39.810  34.418  36.478  1.00  0.00     0.055 A 
ATOM     79  C   UNL A   1      38.656  32.417  37.142  1.00  0.00     0.041 A 
ATOM     80  F   UNL A   1      39.258  30.359  36.197  1.00  0.00    -0.206 F 
ATOM     81  C   UNL A   1      38.854  33.788  37.277  1.00  0.00     0.022 A 
BRANCH  78  82
ATOM     82  S   UNL A   1      40.238  36.156  36.773  1.00  0.00     0.124 S 
ATOM     83  O   UNL A   1      41.683  36.072  36.981  1.00  0.00    -0.237 OA
ATOM     84  O   UNL A   1      39.808  36.800  35.537  1.00  0.00    -0.237 OA
ATOM     85  O   UNL A   1      39.464  36.502  37.962  1.00  0.00    -0.744 OA
ENDBRANCH  78  82
ENDBRANCH  61  75
BRANCH  62  86
ATOM     86  C   UNL A   1      45.723  27.155  28.665  1.00  0.00     0.023 A 
ATOM     87  C   UNL A   1      46.179  27.820  27.518  1.00  0.00     0.031 A 
ATOM     88  C   UNL A   1      46.028  25.788  28.790  1.00  0.00     0.131 A 
ATOM     89  C   UNL A   1      46.878  27.116  26.526  1.00  0.00     0.055 A 
ATOM     90  C   UNL A   1      46.761  25.101  27.820  1.00  0.00     0.041 A 
ATOM     91  F   UNL A   1      45.618  25.099  29.867  1.00  0.00    -0.206 F 
ATOM     92  C   UNL A   1      47.179  25.763  26.670  1.00  0.00     0.022 A 
BRANCH  89  93
ATOM     93  S   UNL A   1      47.310  27.991  24.998  1.00  0.00     0.124 S 
ATOM     94  O   UNL A   1      46.819  27.068  23.981  1.00  0.00    -0.237 OA
ATOM     95  O   UNL A   1      46.562  29.233  25.160  1.00  0.00    -0.237 OA
ATOM     96  O   UNL A   1      48.763  28.118  25.081  1.00  0.00    -0.744 OA
ENDBRANCH  89  93
ENDBRANCH  62  86
BRANCH  74  97
ATOM     97  C   UNL A   1      47.096  29.603  35.067  1.00  0.00     0.023 A 
ATOM     98  C   UNL A   1      48.105  30.579  35.024  1.00  0.00     0.031 A 
ATOM     99  C   UNL A   1      47.247  28.533  35.969  1.00  0.00     0.131 A 
ATOM    100  C   UNL A   1      49.245  30.440  35.832  1.00  0.00     0.055 A 
ATOM    101  C   UNL A   1      48.354  28.433  36.813  1.00  0.00     0.041 A 
ATOM    102  F   UNL A   1      46.313  27.571  36.049  1.00  0.00    -0.206 F 
ATOM    103  C   UNL A   1      49.367  29.383  36.739  1.00  0.00     0.022 A 
BRANCH 100 104
ATOM    104  S   UNL A   1      50.611  31.614  35.620  1.00  0.00     0.124 S 
ATOM    105  O   UNL A   1      50.527  32.399  36.848  1.00  0.00    -0.237 OA
ATOM    106  O   UNL A   1      51.767  30.730  35.506  1.00  0.00    -0.237 OA
ATOM    107  O   UNL A   1      50.259  32.334  34.397  1.00  0.00    -0.744 OA
ENDBRANCH 100 104
ENDBRANCH  74  97
ENDBRANCH  48  49
ENDBRANCH  41  43
ENDBRANCH  40  41
ENDBRANCH  39  40
ENDBRANCH  38  39
ENDBRANCH  37  38
ENDBRANCH  36  37
ENDBRANCH   1  36
TORSDOF 25
ENDMDL
MODEL 3
REMARK VINA RESULT:      -9.7      3.348      5.114
REMARK SMILES CS(=O)(=O)c1ccc(/C=C(/C(=O)OCCOCCOCCOC(=O)c2ccc(-c3c4nc(c(-c5cc(S(=O)(=O)[O-])ccc5F)c5ccc([nH]5)c(-c5cc(S(=O)(=O)[O-])ccc5F)c5nc(c(-c6cc(S(=O)(=O)[O-])ccc6F)c6ccc3[nH]6)C=C5)C=C4)cc2)c2ccc(-c3ccc(S(C)(=O)=O)cc3)cc2)cc1
REMARK SMILES IDX 17 1 16 2 15 3 14 4 13 5 11 6 12 7 10 8 9 9 8 10 5 11 6 12
REMARK SMILES IDX 105 13 7 14 104 15 2 16 1 17 3 18 4 19 88 20 89 21 103 22
REMARK SMILES IDX 90 23 102 24 91 25 92 26 93 27 101 28 94 29 100 30 95 31
REMARK SMILES IDX 96 32 97 33 98 34 99 35 18 36 19 37 20 38 21 39 22 40 23 41
REMARK SMILES IDX 24 42 25 43 26 44 87 45 27 46 86 47 28 48 29 49 30 50 80 51
REMARK SMILES IDX 31 52 85 53 79 54 81 55 32 56 84 57 78 58 77 59 33 61 65 62
REMARK SMILES IDX 45 63 64 64 46 65 49 66 63 67 82 68 47 69 48 70 62 72 83 73
REMARK SMILES IDX 50 74 34 75 35 76 43 77 36 78 42 79 44 80 41 81 37 82 38 83
REMARK SMILES IDX 39 84 40 85 66 86 67 87 75 88 68 89 74 90 76 91 73 92 69 93
REMARK SMILES IDX 70 94 71 95 72 96 51 97 52 98 60 99 53 100 59 101 61 102
REMARK SMILES IDX 58 103 54 104 55 105 56 106 57 107
REMARK H PARENT 81 60 49 71
REMARK Flexibility Score: inf
ROOT
ATOM      1  C   UNL A   1      33.046  28.413  25.799  1.00  0.00     0.188 C 
ENDROOT
BRANCH   1   2
ATOM      2  O   UNL A   1      33.601  28.662  24.515  1.00  0.00    -0.376 OA
BRANCH   2   3
ATOM      3  C   UNL A   1      33.312  27.691  23.520  1.00  0.00     0.202 C 
BRANCH   3   4
ATOM      4  C   UNL A   1      34.008  26.345  23.743  1.00  0.00     0.261 C 
BRANCH   4   5
ATOM      5  O   UNL A   1      33.487  25.261  22.956  1.00  0.00    -0.460 OA
BRANCH   5   6
ATOM      6  C   UNL A   1      32.433  24.572  23.460  1.00  0.00     0.338 C 
ATOM      7  O   UNL A   1      31.278  24.968  23.465  1.00  0.00    -0.246 OA
BRANCH   6   8
ATOM      8  C   UNL A   1      32.868  23.212  23.934  1.00  0.00     0.067 C 
ATOM      9  C   UNL A   1      32.029  22.160  23.768  1.00  0.00     0.024 C 
BRANCH   9  10
ATOM     10  C   UNL A   1      32.261  20.721  24.039  1.00  0.00    -0.025 A 
ATOM     11  C   UNL A   1      32.992  18.024  24.335  1.00  0.00     0.067 A 
ATOM     12  C   UNL A   1      32.913  18.846  25.458  1.00  0.00     0.021 A 
ATOM     13  C   UNL A   1      32.608  18.503  23.084  1.00  0.00     0.021 A 
ATOM     14  C   UNL A   1      32.524  20.182  25.306  1.00  0.00     0.009 A 
ATOM     15  C   UNL A   1      32.239  19.844  22.942  1.00  0.00     0.009 A 
BRANCH  11  16
ATOM     16  S   UNL A   1      33.667  16.386  24.469  1.00  0.00     0.175 S 
ATOM     17  C   UNL A   1      32.458  15.458  25.382  1.00  0.00     0.163 C 
ATOM     18  O   UNL A   1      34.849  16.478  25.310  1.00  0.00    -0.224 OA
ATOM     19  O   UNL A   1      33.753  15.849  23.126  1.00  0.00    -0.224 OA
ENDBRANCH  11  16
ENDBRANCH   9  10
BRANCH   8  20
ATOM     20  C   UNL A   1      34.197  23.089  24.566  1.00  0.00    -0.011 A 
ATOM     21  C   UNL A   1      35.274  22.629  23.798  1.00  0.00     0.009 A 
ATOM     22  C   UNL A   1      34.441  23.525  25.871  1.00  0.00     0.009 A 
ATOM     23  C   UNL A   1      36.572  22.643  24.311  1.00  0.00     0.009 A 
ATOM     24  C   UNL A   1      35.748  23.538  26.380  1.00  0.00     0.009 A 
ATOM     25  C   UNL A   1      36.840  23.112  25.604  1.00  0.00    -0.018 A 
BRANCH  25  26
ATOM     26  C   UNL A   1      38.228  23.211  26.094  1.00  0.00    -0.018 A 
ATOM     27  C   UNL A   1      39.052  22.069  26.139  1.00  0.00     0.010 A 
ATOM     28  C   UNL A   1      38.783  24.437  26.506  1.00  0.00     0.010 A 
ATOM     29  C   UNL A   1      40.388  22.152  26.536  1.00  0.00     0.021 A 
ATOM     30  C   UNL A   1      40.122  24.530  26.911  1.00  0.00     0.021 A 
ATOM     31  C   UNL A   1      40.921  23.386  26.908  1.00  0.00     0.067 A 
BRANCH  31  32
ATOM     32  S   UNL A   1      42.667  23.492  27.237  1.00  0.00     0.175 S 
ATOM     33  C   UNL A   1      42.788  23.348  29.000  1.00  0.00     0.163 C 
ATOM     34  O   UNL A   1      43.269  22.315  26.636  1.00  0.00    -0.224 OA
ATOM     35  O   UNL A   1      43.113  24.811  26.838  1.00  0.00    -0.224 OA
ENDBRANCH  31  32
ENDBRANCH  25  26
ENDBRANCH   8  20
ENDBRANCH   6   8
ENDBRANCH   5   6
ENDBRANCH   4   5
ENDBRANCH   3   4
ENDBRANCH   2   3
ENDBRANCH   1   2
BRANCH   1  36
ATOM     36  C   UNL A   1      34.102  28.242  26.909  1.00  0.00     0.188 C 
BRANCH  36  37
ATOM     37  O   UNL A   1      35.145  29.197  27.072  1.00  0.00    -0.376 OA
BRANCH  37  38
ATOM     38  C   UNL A   1      35.577  29.543  28.377  1.00  0.00     0.202 C 
BRANCH  38  39
ATOM     39  C   UNL A   1      36.383  30.834  28.557  1.00  0.00     0.261 C 
BRANCH  39  40
ATOM     40  O   UNL A   1      37.759  30.643  28.916  1.00  0.00    -0.460 OA
BRANCH  40  41
ATOM     41  C   UNL A   1      38.145  31.287  30.047  1.00  0.00     0.338 C 
ATOM     42  O   UNL A   1      37.544  32.177  30.623  1.00  0.00    -0.246 OA
BRANCH  41  43
ATOM     43  C   UNL A   1      39.350  30.643  30.610  1.00  0.00     0.060 A 
ATOM     44  C   UNL A   1      40.523  31.406  30.690  1.00  0.00     0.016 A 
ATOM     45  C   UNL A   1      39.357  29.297  30.988  1.00  0.00     0.016 A 
ATOM     46  C   UNL A   1      41.714  30.819  31.113  1.00  0.00     0.010 A 
ATOM     47  C   UNL A   1      40.560  28.703  31.390  1.00  0.00     0.010 A 
ATOM     48  C   UNL A   1      41.749  29.454  31.426  1.00  0.00    -0.014 A 
BRANCH  48  49
ATOM     49  C   UNL A   1      43.061  28.780  31.589  1.00  0.00     0.031 A 
ATOM     50  C   UNL A   1      43.649  28.685  32.971  1.00  0.00     0.074 A 
ATOM     51  C   UNL A   1      43.706  28.241  30.538  1.00  0.00     0.049 A 
ATOM     52  N   UNL A   1      44.777  28.151  33.360  1.00  0.00    -0.248 NA
ATOM     53  C   UNL A   1      42.854  29.279  34.057  1.00  0.00     0.031 C 
ATOM     54  C   UNL A   1      43.224  28.252  29.159  1.00  0.00     0.029 A 
ATOM     55  N   UNL A   1      44.913  27.590  30.467  1.00  0.00    -0.354 N 
ATOM     56  C   UNL A   1      44.826  28.338  34.737  1.00  0.00     0.074 A 
ATOM     57  C   UNL A   1      43.630  29.063  35.108  1.00  0.00     0.031 C 
ATOM     58  C   UNL A   1      44.129  27.641  28.376  1.00  0.00     0.029 A 
ATOM     59  C   UNL A   1      45.277  27.243  29.186  1.00  0.00     0.049 A 
ATOM     60  H   UNL A   1      45.465  27.389  31.258  1.00  0.00     0.167 HD
ATOM     61  C   UNL A   1      45.780  27.939  35.614  1.00  0.00     0.034 A 
ATOM     62  C   UNL A   1      46.422  26.700  28.720  1.00  0.00     0.034 A 
ATOM     63  C   UNL A   1      46.987  27.253  35.225  1.00  0.00     0.049 A 
ATOM     64  C   UNL A   1      47.514  26.343  29.703  1.00  0.00     0.074 A 
ATOM     65  C   UNL A   1      48.020  26.801  36.028  1.00  0.00     0.029 A 
ATOM     66  N   UNL A   1      47.334  26.938  33.918  1.00  0.00    -0.354 N 
ATOM     67  N   UNL A   1      47.518  26.461  31.011  1.00  0.00    -0.248 NA
ATOM     68  C   UNL A   1      48.740  25.750  29.151  1.00  0.00     0.031 C 
ATOM     69  C   UNL A   1      49.019  26.276  35.201  1.00  0.00     0.029 A 
ATOM     70  C   UNL A   1      48.578  26.326  33.888  1.00  0.00     0.049 A 
ATOM     71  H   UNL A   1      46.778  27.124  33.127  1.00  0.00     0.167 HD
ATOM     72  C   UNL A   1      48.739  25.943  31.438  1.00  0.00     0.074 A 
ATOM     73  C   UNL A   1      49.428  25.479  30.252  1.00  0.00     0.031 C 
ATOM     74  C   UNL A   1      49.244  25.855  32.696  1.00  0.00     0.034 A 
BRANCH  61  75
ATOM     75  C   UNL A   1      45.572  28.295  37.066  1.00  0.00     0.023 A 
ATOM     76  C   UNL A   1      45.841  29.586  37.553  1.00  0.00     0.031 A 
ATOM     77  C   UNL A   1      45.143  27.321  37.983  1.00  0.00     0.131 A 
ATOM     78  C   UNL A   1      45.747  29.848  38.929  1.00  0.00     0.055 A 
ATOM     79  C   UNL A   1      44.978  27.608  39.340  1.00  0.00     0.041 A 
ATOM     80  F   UNL A   1      44.896  26.064  37.579  1.00  0.00    -0.206 F 
ATOM     81  C   UNL A   1      45.295  28.875  39.822  1.00  0.00     0.022 A 
BRANCH  78  82
ATOM     82  S   UNL A   1      46.365  31.436  39.551  1.00  0.00     0.124 S 
ATOM     83  O   UNL A   1      45.483  31.667  40.693  1.00  0.00    -0.237 OA
ATOM     84  O   UNL A   1      47.755  31.129  39.869  1.00  0.00    -0.237 OA
ATOM     85  O   UNL A   1      46.166  32.345  38.425  1.00  0.00    -0.744 OA
ENDBRANCH  78  82
ENDBRANCH  61  75
BRANCH  62  86
ATOM     86  C   UNL A   1      46.621  26.497  27.256  1.00  0.00     0.023 A 
ATOM     87  C   UNL A   1      46.271  25.291  26.631  1.00  0.00     0.031 A 
ATOM     88  C   UNL A   1      47.216  27.493  26.461  1.00  0.00     0.131 A 
ATOM     89  C   UNL A   1      46.549  25.095  25.270  1.00  0.00     0.055 A 
ATOM     90  C   UNL A   1      47.453  27.309  25.097  1.00  0.00     0.041 A 
ATOM     91  F   UNL A   1      47.573  28.668  27.003  1.00  0.00    -0.206 F 
ATOM     92  C   UNL A   1      47.131  26.097  24.496  1.00  0.00     0.022 A 
BRANCH  89  93
ATOM     93  S   UNL A   1      46.213  23.464  24.553  1.00  0.00     0.124 S 
ATOM     94  O   UNL A   1      46.399  22.591  25.706  1.00  0.00    -0.237 OA
ATOM     95  O   UNL A   1      44.841  23.636  24.087  1.00  0.00    -0.237 OA
ATOM     96  O   UNL A   1      47.222  23.342  23.504  1.00  0.00    -0.744 OA
ENDBRANCH  89  93
ENDBRANCH  62  86
BRANCH  74  97
ATOM     97  C   UNL A   1      50.579  25.167  32.861  1.00  0.00     0.023 A 
ATOM     98  C   UNL A   1      50.691  23.770  32.959  1.00  0.00     0.031 A 
ATOM     99  C   UNL A   1      51.760  25.931  32.913  1.00  0.00     0.131 A 
ATOM    100  C   UNL A   1      51.952  23.183  33.154  1.00  0.00     0.055 A 
ATOM    101  C   UNL A   1      53.015  25.337  33.046  1.00  0.00     0.041 A 
ATOM    102  F   UNL A   1      51.710  27.270  32.827  1.00  0.00    -0.206 F 
ATOM    103  C   UNL A   1      53.115  23.956  33.180  1.00  0.00     0.022 A 
BRANCH 100 104
ATOM    104  S   UNL A   1      52.042  21.397  33.461  1.00  0.00     0.124 S 
ATOM    105  O   UNL A   1      53.220  21.297  34.315  1.00  0.00    -0.237 OA
ATOM    106  O   UNL A   1      50.761  21.127  34.106  1.00  0.00    -0.237 OA
ATOM    107  O   UNL A   1      52.194  20.826  32.123  1.00  0.00    -0.744 OA
ENDBRANCH 100 104
ENDBRANCH  74  97
ENDBRANCH  48  49
ENDBRANCH  41  43
ENDBRANCH  40  41
ENDBRANCH  39  40
ENDBRANCH  38  39
ENDBRANCH  37  38
ENDBRANCH  36  37
ENDBRANCH   1  36
TORSDOF 25
ENDMDL
