MODEL 1
REMARK VINA RESULT:     -10.3      0.000      0.000
REMARK SMILES O=C(COc1cc(-c2ccccc2)nc(NCc2ccc(Cl)cc2)n1)OCCOCCOCCOC(=O)c1ccc(-c2c3nc(c(-c4cc(S(=O)(=O)[O-])ccc4F)c4ccc([nH]4)c(-c4cc(S(=O)(=O)[O-])ccc4F)c4nc(c(-c5cc(S(=O)(=O)[O-])ccc5F)c5ccc2[nH]5)C=C4)C=C3)cc1
REMARK SMILES IDX 30 1 29 2 28 3 27 4 26 5 2 6 1 7 3 8 4 9 5 10 6 11 25 12
REMARK SMILES IDX 7 13 15 14 14 15 8 16 9 17 13 18 10 19 12 20 11 21 16 22
REMARK SMILES IDX 17 24 18 25 19 26 24 27 20 28 23 29 21 30 22 31 31 32 32 33
REMARK SMILES IDX 33 34 34 35 35 36 36 37 37 38 38 39 39 40 100 41 40 42 99 43
REMARK SMILES IDX 41 44 42 45 43 46 93 47 44 48 98 49 92 50 94 51 45 52 97 53
REMARK SMILES IDX 91 54 90 55 46 57 78 58 58 59 77 60 59 61 62 62 76 63 95 64
REMARK SMILES IDX 60 65 61 66 75 68 96 69 63 70 47 71 48 72 56 73 49 74 55 75
REMARK SMILES IDX 57 76 54 77 50 78 51 79 52 80 53 81 79 82 80 83 88 84 81 85
REMARK SMILES IDX 87 86 89 87 86 88 82 89 83 90 84 91 85 92 64 93 65 94 73 95
REMARK SMILES IDX 66 96 72 97 74 98 71 99 67 100 68 101 69 102 70 103
REMARK H PARENT 16 23 94 56 62 67
REMARK Flexibility Score: inf
ROOT
ATOM      1  C   UNL A   1      33.899  21.029  25.815  1.00  0.00     0.188 C 
ENDROOT
BRANCH   1   2
ATOM      2  O   UNL A   1      33.250  20.776  24.582  1.00  0.00    -0.376 OA
BRANCH   2   3
ATOM      3  C   UNL A   1      31.962  21.319  24.393  1.00  0.00     0.202 C 
BRANCH   3   4
ATOM      4  C   UNL A   1      31.854  22.229  23.171  1.00  0.00     0.261 C 
BRANCH   4   5
ATOM      5  O   UNL A   1      33.028  23.012  22.836  1.00  0.00    -0.461 OA
BRANCH   5   6
ATOM      6  C   UNL A   1      33.263  24.321  23.094  1.00  0.00     0.344 C 
ATOM      7  O   UNL A   1      34.228  24.878  22.578  1.00  0.00    -0.248 OA
BRANCH   6   8
ATOM      8  C   UNL A   1      32.330  25.060  24.042  1.00  0.00     0.353 C 
BRANCH   8   9
ATOM      9  O   UNL A   1      32.999  25.560  25.198  1.00  0.00    -0.466 OA
BRANCH   9  10
ATOM     10  C   UNL A   1      33.173  26.901  25.024  1.00  0.00     0.219 A 
ATOM     11  C   UNL A   1      33.988  27.609  25.854  1.00  0.00     0.097 A 
ATOM     12  N   UNL A   1      32.341  27.439  24.153  1.00  0.00    -0.177 NA
ATOM     13  C   UNL A   1      33.748  28.960  25.894  1.00  0.00     0.080 A 
ATOM     14  C   UNL A   1      32.211  28.762  24.187  1.00  0.00     0.226 A 
ATOM     15  N   UNL A   1      32.856  29.552  25.065  1.00  0.00    -0.213 NA
BRANCH  13  16
ATOM     16  C   UNL A   1      34.350  29.741  26.990  1.00  0.00     0.000 A 
ATOM     17  C   UNL A   1      35.668  29.508  27.406  1.00  0.00     0.010 A 
ATOM     18  C   UNL A   1      33.680  30.860  27.531  1.00  0.00     0.010 A 
ATOM     19  C   UNL A   1      36.301  30.375  28.303  1.00  0.00     0.001 A 
ATOM     20  C   UNL A   1      34.312  31.730  28.420  1.00  0.00     0.001 A 
ATOM     21  C   UNL A   1      35.627  31.488  28.803  1.00  0.00     0.000 A 
ENDBRANCH  13  16
BRANCH  14  22
ATOM     22  N   UNL A   1      31.333  29.320  23.306  1.00  0.00    -0.350 N 
ATOM     23  H   UNL A   1      31.648  29.634  22.428  1.00  0.00     0.164 HD
BRANCH  22  24
ATOM     24  C   UNL A   1      29.941  29.448  23.661  1.00  0.00     0.152 C 
BRANCH  24  25
ATOM     25  C   UNL A   1      29.289  30.520  22.833  1.00  0.00    -0.029 A 
ATOM     26  C   UNL A   1      29.125  31.816  23.348  1.00  0.00     0.007 A 
ATOM     27  C   UNL A   1      28.852  30.235  21.534  1.00  0.00     0.007 A 
ATOM     28  C   UNL A   1      28.501  32.802  22.585  1.00  0.00     0.021 A 
ATOM     29  C   UNL A   1      28.230  31.222  20.773  1.00  0.00     0.021 A 
ATOM     30  C   UNL A   1      28.044  32.495  21.305  1.00  0.00     0.041 A 
ATOM     31  Cl  UNL A   1      27.212  33.670  20.371  1.00  0.00    -0.084 Cl
ENDBRANCH  24  25
ENDBRANCH  22  24
ENDBRANCH  14  22
ENDBRANCH   9  10
ENDBRANCH   8   9
ENDBRANCH   6   8
ENDBRANCH   5   6
ENDBRANCH   4   5
ENDBRANCH   3   4
ENDBRANCH   2   3
ENDBRANCH   1   2
BRANCH   1  32
ATOM     32  C   UNL A   1      34.616  22.389  25.881  1.00  0.00     0.188 C 
BRANCH  32  33
ATOM     33  O   UNL A   1      35.785  22.615  25.102  1.00  0.00    -0.376 OA
BRANCH  33  34
ATOM     34  C   UNL A   1      36.471  21.514  24.528  1.00  0.00     0.202 C 
BRANCH  34  35
ATOM     35  C   UNL A   1      37.854  21.141  25.086  1.00  0.00     0.261 C 
BRANCH  35  36
ATOM     36  O   UNL A   1      38.289  21.858  26.260  1.00  0.00    -0.460 OA
BRANCH  36  37
ATOM     37  C   UNL A   1      39.632  21.893  26.476  1.00  0.00     0.338 C 
ATOM     38  O   UNL A   1      40.438  21.050  26.125  1.00  0.00    -0.246 OA
BRANCH  37  39
ATOM     39  C   UNL A   1      40.047  23.200  27.057  1.00  0.00     0.060 A 
ATOM     40  C   UNL A   1      39.450  24.370  26.559  1.00  0.00     0.016 A 
ATOM     41  C   UNL A   1      41.051  23.297  28.022  1.00  0.00     0.016 A 
ATOM     42  C   UNL A   1      39.886  25.631  26.984  1.00  0.00     0.010 A 
ATOM     43  C   UNL A   1      41.505  24.564  28.428  1.00  0.00     0.010 A 
ATOM     44  C   UNL A   1      40.954  25.742  27.884  1.00  0.00    -0.014 A 
BRANCH  44  45
ATOM     45  C   UNL A   1      41.629  27.058  28.085  1.00  0.00     0.031 A 
ATOM     46  C   UNL A   1      43.022  27.245  27.530  1.00  0.00     0.074 A 
ATOM     47  C   UNL A   1      41.037  28.085  28.726  1.00  0.00     0.049 A 
ATOM     48  N   UNL A   1      43.842  28.257  27.650  1.00  0.00    -0.248 NA
ATOM     49  C   UNL A   1      43.557  26.128  26.737  1.00  0.00     0.031 C 
ATOM     50  C   UNL A   1      39.682  28.080  29.273  1.00  0.00     0.029 A 
ATOM     51  N   UNL A   1      41.518  29.337  29.034  1.00  0.00    -0.354 N 
ATOM     52  C   UNL A   1      44.997  27.897  26.961  1.00  0.00     0.074 A 
ATOM     53  C   UNL A   1      44.777  26.558  26.453  1.00  0.00     0.031 C 
ATOM     54  C   UNL A   1      39.449  29.264  29.872  1.00  0.00     0.029 A 
ATOM     55  C   UNL A   1      40.647  30.097  29.780  1.00  0.00     0.049 A 
ATOM     56  H   UNL A   1      42.404  29.657  28.748  1.00  0.00     0.167 HD
ATOM     57  C   UNL A   1      46.134  28.610  26.763  1.00  0.00     0.034 A 
ATOM     58  C   UNL A   1      40.810  31.308  30.352  1.00  0.00     0.034 A 
ATOM     59  C   UNL A   1      46.359  29.941  27.271  1.00  0.00     0.049 A 
ATOM     60  C   UNL A   1      42.121  32.048  30.202  1.00  0.00     0.074 A 
ATOM     61  C   UNL A   1      47.468  30.752  27.100  1.00  0.00     0.029 A 
ATOM     62  N   UNL A   1      45.470  30.654  28.065  1.00  0.00    -0.354 N 
ATOM     63  N   UNL A   1      43.205  31.692  29.552  1.00  0.00    -0.248 NA
ATOM     64  C   UNL A   1      42.226  33.356  30.868  1.00  0.00     0.031 C 
ATOM     65  C   UNL A   1      47.288  31.915  27.856  1.00  0.00     0.029 A 
ATOM     66  C   UNL A   1      46.026  31.874  28.424  1.00  0.00     0.049 A 
ATOM     67  H   UNL A   1      44.577  30.340  28.333  1.00  0.00     0.167 HD
ATOM     68  C   UNL A   1      44.103  32.748  29.707  1.00  0.00     0.074 A 
ATOM     69  C   UNL A   1      43.433  33.756  30.500  1.00  0.00     0.031 C 
ATOM     70  C   UNL A   1      45.367  32.875  29.228  1.00  0.00     0.034 A 
BRANCH  57  71
ATOM     71  C   UNL A   1      47.254  27.935  26.007  1.00  0.00     0.023 A 
ATOM     72  C   UNL A   1      47.488  28.184  24.643  1.00  0.00     0.031 A 
ATOM     73  C   UNL A   1      48.094  27.016  26.662  1.00  0.00     0.131 A 
ATOM     74  C   UNL A   1      48.488  27.471  23.964  1.00  0.00     0.055 A 
ATOM     75  C   UNL A   1      49.141  26.373  26.000  1.00  0.00     0.041 A 
ATOM     76  F   UNL A   1      47.905  26.721  27.958  1.00  0.00    -0.206 F 
ATOM     77  C   UNL A   1      49.334  26.588  24.640  1.00  0.00     0.022 A 
BRANCH  74  78
ATOM     78  S   UNL A   1      48.576  27.609  22.158  1.00  0.00     0.124 S 
ATOM     79  O   UNL A   1      48.538  26.205  21.754  1.00  0.00    -0.237 OA
ATOM     80  O   UNL A   1      47.391  28.397  21.844  1.00  0.00    -0.237 OA
ATOM     81  O   UNL A   1      49.853  28.281  21.928  1.00  0.00    -0.744 OA
ENDBRANCH  74  78
ENDBRANCH  57  71
BRANCH  58  82
ATOM     82  C   UNL A   1      39.744  31.901  31.209  1.00  0.00     0.023 A 
ATOM     83  C   UNL A   1      39.682  31.626  32.583  1.00  0.00     0.031 A 
ATOM     84  C   UNL A   1      38.694  32.632  30.627  1.00  0.00     0.131 A 
ATOM     85  C   UNL A   1      38.549  32.007  33.317  1.00  0.00     0.055 A 
ATOM     86  C   UNL A   1      37.590  33.046  31.370  1.00  0.00     0.041 A 
ATOM     87  F   UNL A   1      38.718  32.933  29.319  1.00  0.00    -0.206 F 
ATOM     88  C   UNL A   1      37.504  32.712  32.718  1.00  0.00     0.022 A 
BRANCH  85  89
ATOM     89  S   UNL A   1      38.418  31.490  35.051  1.00  0.00     0.124 S 
ATOM     90  O   UNL A   1      37.277  32.275  35.506  1.00  0.00    -0.237 OA
ATOM     91  O   UNL A   1      38.198  30.052  34.925  1.00  0.00    -0.237 OA
ATOM     92  O   UNL A   1      39.709  31.871  35.621  1.00  0.00    -0.744 OA
ENDBRANCH  85  89
ENDBRANCH  58  82
BRANCH  70  93
ATOM     93  C   UNL A   1      46.090  34.175  29.499  1.00  0.00     0.023 A 
ATOM     94  C   UNL A   1      45.869  35.329  28.724  1.00  0.00     0.031 A 
ATOM     95  C   UNL A   1      47.027  34.255  30.545  1.00  0.00     0.131 A 
ATOM     96  C   UNL A   1      46.614  36.493  28.974  1.00  0.00     0.055 A 
ATOM     97  C   UNL A   1      47.718  35.434  30.829  1.00  0.00     0.041 A 
ATOM     98  F   UNL A   1      47.285  33.185  31.314  1.00  0.00    -0.206 F 
ATOM     99  C   UNL A   1      47.523  36.558  30.033  1.00  0.00     0.022 A 
BRANCH  96 100
ATOM    100  S   UNL A   1      46.453  37.896  27.834  1.00  0.00     0.124 S 
ATOM    101  O   UNL A   1      45.020  38.169  27.888  1.00  0.00    -0.237 OA
ATOM    102  O   UNL A   1      47.316  38.898  28.449  1.00  0.00    -0.237 OA
ATOM    103  O   UNL A   1      46.934  37.362  26.561  1.00  0.00    -0.744 OA
ENDBRANCH  96 100
ENDBRANCH  70  93
ENDBRANCH  44  45
ENDBRANCH  37  39
ENDBRANCH  36  37
ENDBRANCH  35  36
ENDBRANCH  34  35
ENDBRANCH  33  34
ENDBRANCH  32  33
ENDBRANCH   1  32
TORSDOF 26
ENDMDL
MODEL 2
REMARK VINA RESULT:      -9.8      3.492      8.712
REMARK SMILES O=C(COc1cc(-c2ccccc2)nc(NCc2ccc(Cl)cc2)n1)OCCOCCOCCOC(=O)c1ccc(-c2c3nc(c(-c4cc(S(=O)(=O)[O-])ccc4F)c4ccc([nH]4)c(-c4cc(S(=O)(=O)[O-])ccc4F)c4nc(c(-c5cc(S(=O)(=O)[O-])ccc5F)c5ccc2[nH]5)C=C4)C=C3)cc1
REMARK SMILES IDX 30 1 29 2 28 3 27 4 26 5 2 6 1 7 3 8 4 9 5 10 6 11 25 12
REMARK SMILES IDX 7 13 15 14 14 15 8 16 9 17 13 18 10 19 12 20 11 21 16 22
REMARK SMILES IDX 17 24 18 25 19 26 24 27 20 28 23 29 21 30 22 31 31 32 32 33
REMARK SMILES IDX 33 34 34 35 35 36 36 37 37 38 38 39 39 40 100 41 40 42 99 43
REMARK SMILES IDX 41 44 42 45 43 46 93 47 44 48 98 49 92 50 94 51 45 52 97 53
REMARK SMILES IDX 91 54 90 55 46 57 78 58 58 59 77 60 59 61 62 62 76 63 95 64
REMARK SMILES IDX 60 65 61 66 75 68 96 69 63 70 47 71 48 72 56 73 49 74 55 75
REMARK SMILES IDX 57 76 54 77 50 78 51 79 52 80 53 81 79 82 80 83 88 84 81 85
REMARK SMILES IDX 87 86 89 87 86 88 82 89 83 90 84 91 85 92 64 93 65 94 73 95
REMARK SMILES IDX 66 96 72 97 74 98 71 99 67 100 68 101 69 102 70 103
REMARK H PARENT 16 23 94 56 62 67
REMARK Flexibility Score: inf
ROOT
ATOM      1  C   UNL A   1      36.357  22.133  25.742  1.00  0.00     0.188 C 
ENDROOT
BRANCH   1   2
ATOM      2  O   UNL A   1      35.574  21.736  24.631  1.00  0.00    -0.376 OA
BRANCH   2   3
ATOM      3  C   UNL A   1      34.538  20.805  24.854  1.00  0.00     0.202 C 
BRANCH   3   4
ATOM      4  C   UNL A   1      33.169  21.450  25.056  1.00  0.00     0.261 C 
BRANCH   4   5
ATOM      5  O   UNL A   1      33.053  22.855  24.716  1.00  0.00    -0.461 OA
BRANCH   5   6
ATOM      6  C   UNL A   1      33.073  23.922  25.550  1.00  0.00     0.344 C 
ATOM      7  O   UNL A   1      32.596  23.823  26.677  1.00  0.00    -0.248 OA
BRANCH   6   8
ATOM      8  C   UNL A   1      33.670  25.230  25.051  1.00  0.00     0.353 C 
BRANCH   8   9
ATOM      9  O   UNL A   1      32.866  25.862  24.057  1.00  0.00    -0.466 OA
BRANCH   9  10
ATOM     10  C   UNL A   1      32.460  27.063  24.561  1.00  0.00     0.219 A 
ATOM     11  C   UNL A   1      31.255  27.590  24.210  1.00  0.00     0.097 A 
ATOM     12  N   UNL A   1      33.404  27.717  25.210  1.00  0.00    -0.177 NA
ATOM     13  C   UNL A   1      31.140  28.947  24.383  1.00  0.00     0.080 A 
ATOM     14  C   UNL A   1      33.198  29.014  25.419  1.00  0.00     0.226 A 
ATOM     15  N   UNL A   1      32.110  29.675  24.987  1.00  0.00    -0.213 NA
BRANCH  13  16
ATOM     16  C   UNL A   1      30.010  29.639  23.735  1.00  0.00     0.000 A 
ATOM     17  C   UNL A   1      29.108  28.943  22.918  1.00  0.00     0.010 A 
ATOM     18  C   UNL A   1      29.703  30.978  24.058  1.00  0.00     0.010 A 
ATOM     19  C   UNL A   1      27.932  29.553  22.466  1.00  0.00     0.001 A 
ATOM     20  C   UNL A   1      28.528  31.586  23.615  1.00  0.00     0.001 A 
ATOM     21  C   UNL A   1      27.640  30.869  22.821  1.00  0.00     0.000 A 
ENDBRANCH  13  16
BRANCH  14  22
ATOM     22  N   UNL A   1      34.183  29.700  26.066  1.00  0.00    -0.350 N 
ATOM     23  H   UNL A   1      34.450  30.594  25.752  1.00  0.00     0.164 HD
BRANCH  22  24
ATOM     24  C   UNL A   1      34.832  29.115  27.214  1.00  0.00     0.152 C 
BRANCH  24  25
ATOM     25  C   UNL A   1      35.774  30.106  27.839  1.00  0.00    -0.029 A 
ATOM     26  C   UNL A   1      35.326  31.389  28.191  1.00  0.00     0.007 A 
ATOM     27  C   UNL A   1      37.105  29.749  28.086  1.00  0.00     0.007 A 
ATOM     28  C   UNL A   1      36.209  32.312  28.751  1.00  0.00     0.021 A 
ATOM     29  C   UNL A   1      37.984  30.672  28.647  1.00  0.00     0.021 A 
ATOM     30  C   UNL A   1      37.538  31.952  28.964  1.00  0.00     0.041 A 
ATOM     31  Cl  UNL A   1      38.661  33.090  29.589  1.00  0.00    -0.084 Cl
ENDBRANCH  24  25
ENDBRANCH  22  24
ENDBRANCH  14  22
ENDBRANCH   9  10
ENDBRANCH   8   9
ENDBRANCH   6   8
ENDBRANCH   5   6
ENDBRANCH   4   5
ENDBRANCH   3   4
ENDBRANCH   2   3
ENDBRANCH   1   2
BRANCH   1  32
ATOM     32  C   UNL A   1      37.342  23.276  25.440  1.00  0.00     0.188 C 
BRANCH  32  33
ATOM     33  O   UNL A   1      38.378  23.585  26.366  1.00  0.00    -0.376 OA
BRANCH  33  34
ATOM     34  C   UNL A   1      39.417  22.648  26.597  1.00  0.00     0.202 C 
BRANCH  34  35
ATOM     35  C   UNL A   1      40.874  23.114  26.434  1.00  0.00     0.261 C 
BRANCH  35  36
ATOM     36  O   UNL A   1      41.246  24.318  27.136  1.00  0.00    -0.460 OA
BRANCH  36  37
ATOM     37  C   UNL A   1      41.273  25.458  26.393  1.00  0.00     0.338 C 
ATOM     38  O   UNL A   1      41.052  25.543  25.199  1.00  0.00    -0.246 OA
BRANCH  37  39
ATOM     39  C   UNL A   1      41.440  26.657  27.261  1.00  0.00     0.060 A 
ATOM     40  C   UNL A   1      40.898  27.877  26.824  1.00  0.00     0.016 A 
ATOM     41  C   UNL A   1      42.172  26.616  28.450  1.00  0.00     0.016 A 
ATOM     42  C   UNL A   1      41.126  29.058  27.542  1.00  0.00     0.010 A 
ATOM     43  C   UNL A   1      42.421  27.807  29.154  1.00  0.00     0.010 A 
ATOM     44  C   UNL A   1      41.934  29.044  28.685  1.00  0.00    -0.014 A 
BRANCH  44  45
ATOM     45  C   UNL A   1      42.443  30.325  29.258  1.00  0.00     0.031 A 
ATOM     46  C   UNL A   1      41.759  30.888  30.482  1.00  0.00     0.074 A 
ATOM     47  C   UNL A   1      43.494  30.984  28.734  1.00  0.00     0.049 A 
ATOM     48  N   UNL A   1      41.961  32.020  31.107  1.00  0.00    -0.248 NA
ATOM     49  C   UNL A   1      40.700  30.055  31.072  1.00  0.00     0.031 C 
ATOM     50  C   UNL A   1      44.290  30.547  27.589  1.00  0.00     0.029 A 
ATOM     51  N   UNL A   1      44.066  32.182  29.100  1.00  0.00    -0.354 N 
ATOM     52  C   UNL A   1      41.046  32.045  32.156  1.00  0.00     0.074 A 
ATOM     53  C   UNL A   1      40.270  30.826  32.060  1.00  0.00     0.031 C 
ATOM     54  C   UNL A   1      45.231  31.476  27.331  1.00  0.00     0.029 A 
ATOM     55  C   UNL A   1      45.085  32.587  28.270  1.00  0.00     0.049 A 
ATOM     56  H   UNL A   1      43.771  32.700  29.884  1.00  0.00     0.167 HD
ATOM     57  C   UNL A   1      40.866  32.989  33.113  1.00  0.00     0.034 A 
ATOM     58  C   UNL A   1      45.793  33.735  28.248  1.00  0.00     0.034 A 
ATOM     59  C   UNL A   1      41.633  34.207  33.209  1.00  0.00     0.049 A 
ATOM     60  C   UNL A   1      45.513  34.819  29.265  1.00  0.00     0.074 A 
ATOM     61  C   UNL A   1      41.541  35.210  34.160  1.00  0.00     0.029 A 
ATOM     62  N   UNL A   1      42.621  34.601  32.317  1.00  0.00    -0.354 N 
ATOM     63  N   UNL A   1      44.641  34.830  30.247  1.00  0.00    -0.248 NA
ATOM     64  C   UNL A   1      46.317  36.048  29.165  1.00  0.00     0.031 C 
ATOM     65  C   UNL A   1      42.408  36.245  33.798  1.00  0.00     0.029 A 
ATOM     66  C   UNL A   1      43.113  35.850  32.673  1.00  0.00     0.049 A 
ATOM     67  H   UNL A   1      42.928  34.073  31.546  1.00  0.00     0.167 HD
ATOM     68  C   UNL A   1      44.819  36.052  30.897  1.00  0.00     0.074 A 
ATOM     69  C   UNL A   1      45.885  36.744  30.205  1.00  0.00     0.031 C 
ATOM     70  C   UNL A   1      44.164  36.551  31.976  1.00  0.00     0.034 A 
BRANCH  57  71
ATOM     71  C   UNL A   1      39.750  32.767  34.107  1.00  0.00     0.023 A 
ATOM     72  C   UNL A   1      38.438  33.208  33.863  1.00  0.00     0.031 A 
ATOM     73  C   UNL A   1      40.010  32.114  35.325  1.00  0.00     0.131 A 
ATOM     74  C   UNL A   1      37.453  33.052  34.852  1.00  0.00     0.055 A 
ATOM     75  C   UNL A   1      39.007  31.889  36.269  1.00  0.00     0.041 A 
ATOM     76  F   UNL A   1      41.249  31.692  35.624  1.00  0.00    -0.206 F 
ATOM     77  C   UNL A   1      37.723  32.372  36.041  1.00  0.00     0.022 A 
BRANCH  74  78
ATOM     78  S   UNL A   1      35.855  33.877  34.620  1.00  0.00     0.124 S 
ATOM     79  O   UNL A   1      35.422  34.073  36.002  1.00  0.00    -0.237 OA
ATOM     80  O   UNL A   1      36.225  35.083  33.889  1.00  0.00    -0.237 OA
ATOM     81  O   UNL A   1      35.073  32.902  33.863  1.00  0.00    -0.744 OA
ENDBRANCH  74  78
ENDBRANCH  57  71
BRANCH  58  82
ATOM     82  C   UNL A   1      46.797  33.995  27.178  1.00  0.00     0.023 A 
ATOM     83  C   UNL A   1      48.124  33.556  27.306  1.00  0.00     0.031 A 
ATOM     84  C   UNL A   1      46.469  34.815  26.084  1.00  0.00     0.131 A 
ATOM     85  C   UNL A   1      49.096  34.007  26.401  1.00  0.00     0.055 A 
ATOM     86  C   UNL A   1      47.431  35.225  25.162  1.00  0.00     0.041 A 
ATOM     87  F   UNL A   1      45.210  35.246  25.911  1.00  0.00    -0.206 F 
ATOM     88  C   UNL A   1      48.757  34.840  25.333  1.00  0.00     0.022 A 
BRANCH  85  89
ATOM     89  S   UNL A   1      50.831  33.562  26.689  1.00  0.00     0.124 S 
ATOM     90  O   UNL A   1      51.344  34.775  27.316  1.00  0.00    -0.237 OA
ATOM     91  O   UNL A   1      50.706  32.395  27.557  1.00  0.00    -0.237 OA
ATOM     92  O   UNL A   1      51.340  33.285  25.348  1.00  0.00    -0.744 OA
ENDBRANCH  85  89
ENDBRANCH  58  82
BRANCH  70  93
ATOM     93  C   UNL A   1      44.619  37.889  32.512  1.00  0.00     0.023 A 
ATOM     94  C   UNL A   1      43.883  39.070  32.301  1.00  0.00     0.031 A 
ATOM     95  C   UNL A   1      45.821  37.985  33.239  1.00  0.00     0.131 A 
ATOM     96  C   UNL A   1      44.382  40.299  32.763  1.00  0.00     0.055 A 
ATOM     97  C   UNL A   1      46.279  39.200  33.751  1.00  0.00     0.041 A 
ATOM     98  F   UNL A   1      46.570  36.894  33.467  1.00  0.00    -0.206 F 
ATOM     99  C   UNL A   1      45.566  40.368  33.502  1.00  0.00     0.022 A 
BRANCH  96 100
ATOM    100  S   UNL A   1      43.514  41.824  32.301  1.00  0.00     0.124 S 
ATOM    101  O   UNL A   1      43.904  41.986  30.905  1.00  0.00    -0.237 OA
ATOM    102  O   UNL A   1      42.118  41.472  32.537  1.00  0.00    -0.237 OA
ATOM    103  O   UNL A   1      44.063  42.822  33.217  1.00  0.00    -0.744 OA
ENDBRANCH  96 100
ENDBRANCH  70  93
ENDBRANCH  44  45
ENDBRANCH  37  39
ENDBRANCH  36  37
ENDBRANCH  35  36
ENDBRANCH  34  35
ENDBRANCH  33  34
ENDBRANCH  32  33
ENDBRANCH   1  32
TORSDOF 26
ENDMDL
MODEL 3
REMARK VINA RESULT:      -9.6      5.317     10.909
REMARK SMILES O=C(COc1cc(-c2ccccc2)nc(NCc2ccc(Cl)cc2)n1)OCCOCCOCCOC(=O)c1ccc(-c2c3nc(c(-c4cc(S(=O)(=O)[O-])ccc4F)c4ccc([nH]4)c(-c4cc(S(=O)(=O)[O-])ccc4F)c4nc(c(-c5cc(S(=O)(=O)[O-])ccc5F)c5ccc2[nH]5)C=C4)C=C3)cc1
REMARK SMILES IDX 30 1 29 2 28 3 27 4 26 5 2 6 1 7 3 8 4 9 5 10 6 11 25 12
REMARK SMILES IDX 7 13 15 14 14 15 8 16 9 17 13 18 10 19 12 20 11 21 16 22
REMARK SMILES IDX 17 24 18 25 19 26 24 27 20 28 23 29 21 30 22 31 31 32 32 33
REMARK SMILES IDX 33 34 34 35 35 36 36 37 37 38 38 39 39 40 100 41 40 42 99 43
REMARK SMILES IDX 41 44 42 45 43 46 93 47 44 48 98 49 92 50 94 51 45 52 97 53
REMARK SMILES IDX 91 54 90 55 46 57 78 58 58 59 77 60 59 61 62 62 76 63 95 64
REMARK SMILES IDX 60 65 61 66 75 68 96 69 63 70 47 71 48 72 56 73 49 74 55 75
REMARK SMILES IDX 57 76 54 77 50 78 51 79 52 80 53 81 79 82 80 83 88 84 81 85
REMARK SMILES IDX 87 86 89 87 86 88 82 89 83 90 84 91 85 92 64 93 65 94 73 95
REMARK SMILES IDX 66 96 72 97 74 98 71 99 67 100 68 101 69 102 70 103
REMARK H PARENT 16 23 94 56 62 67
REMARK Flexibility Score: inf
ROOT
ATOM      1  C   UNL A   1      33.119  34.473  28.520  1.00  0.00     0.188 C 
ENDROOT
BRANCH   1   2
ATOM      2  O   UNL A   1      34.107  33.476  28.329  1.00  0.00    -0.376 OA
BRANCH   2   3
ATOM      3  C   UNL A   1      34.707  32.916  29.476  1.00  0.00     0.202 C 
BRANCH   3   4
ATOM      4  C   UNL A   1      35.553  31.680  29.183  1.00  0.00     0.261 C 
BRANCH   4   5
ATOM      5  O   UNL A   1      35.191  30.903  28.013  1.00  0.00    -0.461 OA
BRANCH   5   6
ATOM      6  C   UNL A   1      35.424  29.591  27.773  1.00  0.00     0.344 C 
ATOM      7  O   UNL A   1      36.399  29.045  28.282  1.00  0.00    -0.248 OA
BRANCH   6   8
ATOM      8  C   UNL A   1      34.477  28.834  26.854  1.00  0.00     0.353 C 
BRANCH   8   9
ATOM      9  O   UNL A   1      33.939  29.653  25.817  1.00  0.00    -0.466 OA
BRANCH   9  10
ATOM     10  C   UNL A   1      33.151  28.861  25.037  1.00  0.00     0.219 A 
ATOM     11  C   UNL A   1      32.100  29.389  24.351  1.00  0.00     0.097 A 
ATOM     12  N   UNL A   1      33.373  27.569  25.188  1.00  0.00    -0.177 NA
ATOM     13  C   UNL A   1      31.130  28.489  23.986  1.00  0.00     0.080 A 
ATOM     14  C   UNL A   1      32.432  26.742  24.741  1.00  0.00     0.226 A 
ATOM     15  N   UNL A   1      31.283  27.157  24.179  1.00  0.00    -0.213 NA
BRANCH  13  16
ATOM     16  C   UNL A   1      29.826  29.012  23.540  1.00  0.00     0.000 A 
ATOM     17  C   UNL A   1      28.770  28.148  23.218  1.00  0.00     0.010 A 
ATOM     18  C   UNL A   1      29.549  30.396  23.591  1.00  0.00     0.010 A 
ATOM     19  C   UNL A   1      27.482  28.645  22.988  1.00  0.00     0.001 A 
ATOM     20  C   UNL A   1      28.264  30.892  23.368  1.00  0.00     0.001 A 
ATOM     21  C   UNL A   1      27.228  30.013  23.070  1.00  0.00     0.000 A 
ENDBRANCH  13  16
BRANCH  14  22
ATOM     22  N   UNL A   1      32.647  25.408  24.919  1.00  0.00    -0.350 N 
ATOM     23  H   UNL A   1      32.368  24.767  24.225  1.00  0.00     0.164 HD
BRANCH  22  24
ATOM     24  C   UNL A   1      33.284  24.936  26.123  1.00  0.00     0.152 C 
BRANCH  24  25
ATOM     25  C   UNL A   1      34.372  23.955  25.786  1.00  0.00    -0.029 A 
ATOM     26  C   UNL A   1      35.293  24.238  24.764  1.00  0.00     0.007 A 
ATOM     27  C   UNL A   1      34.481  22.755  26.499  1.00  0.00     0.007 A 
ATOM     28  C   UNL A   1      36.288  23.316  24.440  1.00  0.00     0.021 A 
ATOM     29  C   UNL A   1      35.475  21.836  26.173  1.00  0.00     0.021 A 
ATOM     30  C   UNL A   1      36.365  22.113  25.138  1.00  0.00     0.041 A 
ATOM     31  Cl  UNL A   1      37.536  20.932  24.715  1.00  0.00    -0.084 Cl
ENDBRANCH  24  25
ENDBRANCH  22  24
ENDBRANCH  14  22
ENDBRANCH   9  10
ENDBRANCH   8   9
ENDBRANCH   6   8
ENDBRANCH   5   6
ENDBRANCH   4   5
ENDBRANCH   3   4
ENDBRANCH   2   3
ENDBRANCH   1   2
BRANCH   1  32
ATOM     32  C   UNL A   1      33.679  35.834  28.971  1.00  0.00     0.188 C 
BRANCH  32  33
ATOM     33  O   UNL A   1      32.872  36.713  29.745  1.00  0.00    -0.376 OA
BRANCH  33  34
ATOM     34  C   UNL A   1      32.660  36.445  31.121  1.00  0.00     0.202 C 
BRANCH  34  35
ATOM     35  C   UNL A   1      33.520  35.366  31.800  1.00  0.00     0.261 C 
BRANCH  35  36
ATOM     36  O   UNL A   1      34.840  35.767  32.223  1.00  0.00    -0.460 OA
BRANCH  36  37
ATOM     37  C   UNL A   1      35.329  35.141  33.327  1.00  0.00     0.338 C 
ATOM     38  O   UNL A   1      34.930  35.282  34.469  1.00  0.00    -0.246 OA
BRANCH  37  39
ATOM     39  C   UNL A   1      36.327  34.100  32.953  1.00  0.00     0.060 A 
ATOM     40  C   UNL A   1      36.257  32.850  33.589  1.00  0.00     0.016 A 
ATOM     41  C   UNL A   1      37.361  34.356  32.049  1.00  0.00     0.016 A 
ATOM     42  C   UNL A   1      37.238  31.877  33.364  1.00  0.00     0.010 A 
ATOM     43  C   UNL A   1      38.359  33.387  31.844  1.00  0.00     0.010 A 
ATOM     44  C   UNL A   1      38.328  32.155  32.529  1.00  0.00    -0.014 A 
BRANCH  44  45
ATOM     45  C   UNL A   1      39.526  31.265  32.541  1.00  0.00     0.031 A 
ATOM     46  C   UNL A   1      40.540  31.438  33.648  1.00  0.00     0.074 A 
ATOM     47  C   UNL A   1      39.725  30.306  31.616  1.00  0.00     0.049 A 
ATOM     48  N   UNL A   1      41.696  30.850  33.824  1.00  0.00    -0.248 NA
ATOM     49  C   UNL A   1      40.199  32.418  34.690  1.00  0.00     0.031 C 
ATOM     50  C   UNL A   1      38.817  29.980  30.519  1.00  0.00     0.029 A 
ATOM     51  N   UNL A   1      40.776  29.433  31.451  1.00  0.00    -0.354 N 
ATOM     52  C   UNL A   1      42.228  31.395  34.989  1.00  0.00     0.074 A 
ATOM     53  C   UNL A   1      41.279  32.384  35.456  1.00  0.00     0.031 C 
ATOM     54  C   UNL A   1      39.362  28.995  29.779  1.00  0.00     0.029 A 
ATOM     55  C   UNL A   1      40.670  28.643  30.330  1.00  0.00     0.049 A 
ATOM     56  H   UNL A   1      41.534  29.380  32.077  1.00  0.00     0.167 HD
ATOM     57  C   UNL A   1      43.394  31.102  35.617  1.00  0.00     0.034 A 
ATOM     58  C   UNL A   1      41.542  27.766  29.790  1.00  0.00     0.034 A 
ATOM     59  C   UNL A   1      44.345  30.121  35.152  1.00  0.00     0.049 A 
ATOM     60  C   UNL A   1      42.880  27.523  30.452  1.00  0.00     0.074 A 
ATOM     61  C   UNL A   1      45.541  29.737  35.735  1.00  0.00     0.029 A 
ATOM     62  N   UNL A   1      44.222  29.381  33.984  1.00  0.00    -0.354 N 
ATOM     63  N   UNL A   1      43.372  28.050  31.550  1.00  0.00    -0.248 NA
ATOM     64  C   UNL A   1      43.782  26.563  29.794  1.00  0.00     0.031 C 
ATOM     65  C   UNL A   1      46.179  28.831  34.882  1.00  0.00     0.029 A 
ATOM     66  C   UNL A   1      45.340  28.576  33.811  1.00  0.00     0.049 A 
ATOM     67  H   UNL A   1      43.455  29.420  33.369  1.00  0.00     0.167 HD
ATOM     68  C   UNL A   1      44.623  27.458  31.726  1.00  0.00     0.074 A 
ATOM     69  C   UNL A   1      44.806  26.529  30.633  1.00  0.00     0.031 C 
ATOM     70  C   UNL A   1      45.534  27.661  32.712  1.00  0.00     0.034 A 
BRANCH  57  71
ATOM     71  C   UNL A   1      43.738  31.900  36.853  1.00  0.00     0.023 A 
ATOM     72  C   UNL A   1      43.197  31.589  38.113  1.00  0.00     0.031 A 
ATOM     73  C   UNL A   1      44.612  32.998  36.763  1.00  0.00     0.131 A 
ATOM     74  C   UNL A   1      43.481  32.409  39.216  1.00  0.00     0.055 A 
ATOM     75  C   UNL A   1      44.955  33.760  37.881  1.00  0.00     0.041 A 
ATOM     76  F   UNL A   1      45.140  33.356  35.582  1.00  0.00    -0.206 F 
ATOM     77  C   UNL A   1      44.378  33.476  39.114  1.00  0.00     0.022 A 
BRANCH  74  78
ATOM     78  S   UNL A   1      42.552  32.149  40.752  1.00  0.00     0.124 S 
ATOM     79  O   UNL A   1      43.217  30.970  41.302  1.00  0.00    -0.237 OA
ATOM     80  O   UNL A   1      42.770  33.400  41.468  1.00  0.00    -0.237 OA
ATOM     81  O   UNL A   1      41.184  31.924  40.289  1.00  0.00    -0.744 OA
ENDBRANCH  74  78
ENDBRANCH  57  71
BRANCH  58  82
ATOM     82  C   UNL A   1      41.246  27.088  28.497  1.00  0.00     0.023 A 
ATOM     83  C   UNL A   1      40.974  25.713  28.445  1.00  0.00     0.031 A 
ATOM     84  C   UNL A   1      41.377  27.788  27.285  1.00  0.00     0.131 A 
ATOM     85  C   UNL A   1      40.925  25.060  27.204  1.00  0.00     0.055 A 
ATOM     86  C   UNL A   1      41.284  27.143  26.053  1.00  0.00     0.041 A 
ATOM     87  F   UNL A   1      41.621  29.108  27.284  1.00  0.00    -0.206 F 
ATOM     88  C   UNL A   1      41.080  25.767  26.010  1.00  0.00     0.022 A 
BRANCH  85  89
ATOM     89  S   UNL A   1      40.742  23.256  27.173  1.00  0.00     0.124 S 
ATOM     90  O   UNL A   1      39.351  23.109  26.760  1.00  0.00    -0.237 OA
ATOM     91  O   UNL A   1      41.747  22.864  26.190  1.00  0.00    -0.237 OA
ATOM     92  O   UNL A   1      41.034  22.858  28.548  1.00  0.00    -0.744 OA
ENDBRANCH  85  89
ENDBRANCH  58  82
BRANCH  70  93
ATOM     93  C   UNL A   1      46.790  26.820  32.686  1.00  0.00     0.023 A 
ATOM     94  C   UNL A   1      46.937  25.669  33.482  1.00  0.00     0.031 A 
ATOM     95  C   UNL A   1      47.866  27.186  31.856  1.00  0.00     0.131 A 
ATOM     96  C   UNL A   1      48.149  24.959  33.471  1.00  0.00     0.055 A 
ATOM     97  C   UNL A   1      49.044  26.440  31.802  1.00  0.00     0.041 A 
ATOM     98  F   UNL A   1      47.788  28.278  31.079  1.00  0.00    -0.206 F 
ATOM     99  C   UNL A   1      49.196  25.328  32.622  1.00  0.00     0.022 A 
BRANCH  96 100
ATOM    100  S   UNL A   1      48.379  23.602  34.654  1.00  0.00     0.124 S 
ATOM    101  O   UNL A   1      49.678  23.070  34.258  1.00  0.00    -0.237 OA
ATOM    102  O   UNL A   1      48.338  24.296  35.936  1.00  0.00    -0.237 OA
ATOM    103  O   UNL A   1      47.242  22.721  34.391  1.00  0.00    -0.744 OA
ENDBRANCH  96 100
ENDBRANCH  70  93
ENDBRANCH  44  45
ENDBRANCH  37  39
ENDBRANCH  36  37
ENDBRANCH  35  36
ENDBRANCH  34  35
ENDBRANCH  33  34
ENDBRANCH  32  33
ENDBRANCH   1  32
TORSDOF 26
ENDMDL
