MODEL 1
REMARK VINA RESULT:      -8.7      0.000      0.000
REMARK SMILES O=C(CCn1c(SCc2ccccn2)nc2ccccc2c1=O)OCCOCCOCCOC(=O)c1ccc(-c2c3nc(c(-c4cc(S(=O)(=O)[O-])ccc4F)c4ccc([nH]4)c(-c4cc(S(=O)(=O)[O-])ccc4F)c4nc(c(-c5cc(S(=O)(=O)[O-])ccc5F)c5ccc2[nH]5)C=C4)C=C3)cc1
REMARK SMILES IDX 28 1 27 2 26 3 25 4 24 5 2 6 1 7 3 8 4 9 5 10 6 11 22 12
REMARK SMILES IDX 15 13 21 14 23 15 16 16 20 17 17 18 19 19 18 20 7 21 8 22
REMARK SMILES IDX 9 23 10 24 14 25 11 26 13 27 12 28 29 29 30 30 31 31 32 32
REMARK SMILES IDX 33 33 34 34 35 35 36 36 37 37 98 38 38 39 97 40 39 41 40 42
REMARK SMILES IDX 41 43 91 44 42 45 96 46 90 47 92 48 43 49 95 50 89 51 88 52
REMARK SMILES IDX 44 54 76 55 56 56 75 57 57 58 60 59 74 60 93 61 58 62 59 63
REMARK SMILES IDX 73 65 94 66 61 67 45 68 46 69 54 70 47 71 53 72 55 73 52 74
REMARK SMILES IDX 48 75 49 76 50 77 51 78 77 79 78 80 86 81 79 82 85 83 87 84
REMARK SMILES IDX 84 85 80 86 81 87 82 88 83 89 62 90 63 91 71 92 64 93 70 94
REMARK SMILES IDX 72 95 69 96 65 97 66 98 67 99 68 100
REMARK H PARENT 92 53 60 64
REMARK Flexibility Score: inf
ROOT
ATOM      1  C   UNL A   1      38.468  29.229  28.679  1.00  0.00     0.188 C 
ENDROOT
BRANCH   1   2
ATOM      2  O   UNL A   1      37.254  29.278  27.944  1.00  0.00    -0.376 OA
BRANCH   2   3
ATOM      3  C   UNL A   1      36.052  29.566  28.637  1.00  0.00     0.202 C 
BRANCH   3   4
ATOM      4  C   UNL A   1      35.112  30.606  28.044  1.00  0.00     0.261 C 
BRANCH   4   5
ATOM      5  O   UNL A   1      34.234  30.283  26.941  1.00  0.00    -0.463 OA
BRANCH   5   6
ATOM      6  C   UNL A   1      33.016  29.744  26.850  1.00  0.00     0.307 C 
ATOM      7  O   UNL A   1      32.078  30.467  26.504  1.00  0.00    -0.252 OA
BRANCH   6   8
ATOM      8  C   UNL A   1      32.743  28.307  27.170  1.00  0.00     0.144 C 
BRANCH   8   9
ATOM      9  C   UNL A   1      32.806  27.209  26.122  1.00  0.00     0.140 C 
BRANCH   9  10
ATOM     10  N   UNL A   1      31.728  27.000  25.174  1.00  0.00    -0.286 N 
ATOM     11  C   UNL A   1      30.664  26.114  25.217  1.00  0.00     0.171 A 
ATOM     12  C   UNL A   1      31.908  27.733  23.990  1.00  0.00     0.262 A 
ATOM     13  N   UNL A   1      29.618  26.292  24.454  1.00  0.00    -0.224 NA
ATOM     14  C   UNL A   1      30.681  28.151  23.322  1.00  0.00     0.066 A 
ATOM     15  O   UNL A   1      32.983  28.128  23.549  1.00  0.00    -0.269 OA
ATOM     16  C   UNL A   1      29.547  27.422  23.632  1.00  0.00     0.079 A 
ATOM     17  C   UNL A   1      30.628  29.350  22.600  1.00  0.00     0.016 A 
ATOM     18  C   UNL A   1      28.313  27.910  23.196  1.00  0.00     0.029 A 
ATOM     19  C   UNL A   1      29.391  29.844  22.198  1.00  0.00     0.001 A 
ATOM     20  C   UNL A   1      28.234  29.123  22.496  1.00  0.00     0.002 A 
BRANCH  11  21
ATOM     21  S   UNL A   1      30.456  24.726  26.257  1.00  0.00    -0.081 SA
BRANCH  21  22
ATOM     22  C   UNL A   1      31.742  23.480  26.233  1.00  0.00     0.134 C 
BRANCH  22  23
ATOM     23  C   UNL A   1      31.785  22.483  25.105  1.00  0.00     0.051 A 
ATOM     24  C   UNL A   1      32.218  21.176  25.369  1.00  0.00     0.025 A 
ATOM     25  N   UNL A   1      31.538  22.923  23.848  1.00  0.00    -0.260 NA
ATOM     26  C   UNL A   1      32.545  20.349  24.300  1.00  0.00     0.003 A 
ATOM     27  C   UNL A   1      31.814  22.077  22.832  1.00  0.00     0.111 A 
ATOM     28  C   UNL A   1      32.353  20.812  23.005  1.00  0.00     0.020 A 
ENDBRANCH  22  23
ENDBRANCH  21  22
ENDBRANCH  11  21
ENDBRANCH   9  10
ENDBRANCH   8   9
ENDBRANCH   6   8
ENDBRANCH   5   6
ENDBRANCH   4   5
ENDBRANCH   3   4
ENDBRANCH   2   3
ENDBRANCH   1   2
BRANCH   1  29
ATOM     29  C   UNL A   1      39.157  27.876  28.785  1.00  0.00     0.188 C 
BRANCH  29  30
ATOM     30  O   UNL A   1      39.076  27.134  27.577  1.00  0.00    -0.376 OA
BRANCH  30  31
ATOM     31  C   UNL A   1      39.775  25.894  27.621  1.00  0.00     0.202 C 
BRANCH  31  32
ATOM     32  C   UNL A   1      40.441  25.387  26.324  1.00  0.00     0.261 C 
BRANCH  32  33
ATOM     33  O   UNL A   1      41.187  26.311  25.515  1.00  0.00    -0.460 OA
BRANCH  33  34
ATOM     34  C   UNL A   1      42.482  26.554  25.822  1.00  0.00     0.338 C 
ATOM     35  O   UNL A   1      43.451  26.047  25.294  1.00  0.00    -0.246 OA
BRANCH  34  36
ATOM     36  C   UNL A   1      42.525  27.633  26.847  1.00  0.00     0.060 A 
ATOM     37  C   UNL A   1      43.100  27.401  28.099  1.00  0.00     0.016 A 
ATOM     38  C   UNL A   1      42.019  28.904  26.542  1.00  0.00     0.016 A 
ATOM     39  C   UNL A   1      43.185  28.444  29.033  1.00  0.00     0.010 A 
ATOM     40  C   UNL A   1      42.082  29.940  27.487  1.00  0.00     0.010 A 
ATOM     41  C   UNL A   1      42.694  29.731  28.731  1.00  0.00    -0.014 A 
BRANCH  41  42
ATOM     42  C   UNL A   1      43.071  30.882  29.600  1.00  0.00     0.031 A 
ATOM     43  C   UNL A   1      44.352  31.647  29.459  1.00  0.00     0.074 A 
ATOM     44  C   UNL A   1      42.197  31.233  30.565  1.00  0.00     0.049 A 
ATOM     45  N   UNL A   1      44.705  32.765  30.043  1.00  0.00    -0.248 NA
ATOM     46  C   UNL A   1      45.377  31.084  28.571  1.00  0.00     0.031 C 
ATOM     47  C   UNL A   1      40.958  30.512  30.855  1.00  0.00     0.029 A 
ATOM     48  N   UNL A   1      42.201  32.270  31.465  1.00  0.00    -0.354 N 
ATOM     49  C   UNL A   1      45.977  33.068  29.571  1.00  0.00     0.074 A 
ATOM     50  C   UNL A   1      46.359  31.972  28.700  1.00  0.00     0.031 C 
ATOM     51  C   UNL A   1      40.303  31.147  31.835  1.00  0.00     0.029 A 
ATOM     52  C   UNL A   1      41.082  32.308  32.261  1.00  0.00     0.049 A 
ATOM     53  H   UNL A   1      42.935  32.923  31.532  1.00  0.00     0.167 HD
ATOM     54  C   UNL A   1      46.736  34.166  29.825  1.00  0.00     0.034 A 
ATOM     55  C   UNL A   1      40.703  33.182  33.216  1.00  0.00     0.034 A 
ATOM     56  C   UNL A   1      46.350  35.225  30.733  1.00  0.00     0.049 A 
ATOM     57  C   UNL A   1      41.552  34.396  33.475  1.00  0.00     0.074 A 
ATOM     58  C   UNL A   1      47.025  36.404  31.009  1.00  0.00     0.029 A 
ATOM     59  N   UNL A   1      45.210  35.235  31.528  1.00  0.00    -0.354 N 
ATOM     60  N   UNL A   1      42.678  34.752  32.902  1.00  0.00    -0.248 NA
ATOM     61  C   UNL A   1      41.070  35.345  34.487  1.00  0.00     0.031 C 
ATOM     62  C   UNL A   1      46.340  37.082  32.020  1.00  0.00     0.029 A 
ATOM     63  C   UNL A   1      45.185  36.378  32.319  1.00  0.00     0.049 A 
ATOM     64  H   UNL A   1      44.519  34.534  31.530  1.00  0.00     0.167 HD
ATOM     65  C   UNL A   1      43.035  35.968  33.478  1.00  0.00     0.074 A 
ATOM     66  C   UNL A   1      41.977  36.311  34.406  1.00  0.00     0.031 C 
ATOM     67  C   UNL A   1      44.145  36.722  33.262  1.00  0.00     0.034 A 
BRANCH  54  68
ATOM     68  C   UNL A   1      48.050  34.329  29.089  1.00  0.00     0.023 A 
ATOM     69  C   UNL A   1      48.086  34.894  27.797  1.00  0.00     0.031 A 
ATOM     70  C   UNL A   1      49.240  33.771  29.595  1.00  0.00     0.131 A 
ATOM     71  C   UNL A   1      49.269  34.848  27.046  1.00  0.00     0.055 A 
ATOM     72  C   UNL A   1      50.427  33.769  28.859  1.00  0.00     0.041 A 
ATOM     73  F   UNL A   1      49.267  33.212  30.816  1.00  0.00    -0.206 F 
ATOM     74  C   UNL A   1      50.440  34.296  27.572  1.00  0.00     0.022 A 
BRANCH  71  75
ATOM     75  S   UNL A   1      49.319  35.426  25.325  1.00  0.00     0.124 S 
ATOM     76  O   UNL A   1      48.190  34.709  24.738  1.00  0.00    -0.237 OA
ATOM     77  O   UNL A   1      49.130  36.866  25.482  1.00  0.00    -0.237 OA
ATOM     78  O   UNL A   1      50.633  35.008  24.855  1.00  0.00    -0.744 OA
ENDBRANCH  71  75
ENDBRANCH  54  68
BRANCH  55  79
ATOM     79  C   UNL A   1      39.404  32.954  33.916  1.00  0.00     0.023 A 
ATOM     80  C   UNL A   1      38.189  33.287  33.289  1.00  0.00     0.031 A 
ATOM     81  C   UNL A   1      39.366  32.542  35.258  1.00  0.00     0.131 A 
ATOM     82  C   UNL A   1      37.001  33.288  34.031  1.00  0.00     0.055 A 
ATOM     83  C   UNL A   1      38.169  32.463  35.969  1.00  0.00     0.041 A 
ATOM     84  F   UNL A   1      40.502  32.233  35.904  1.00  0.00    -0.206 F 
ATOM     85  C   UNL A   1      36.980  32.858  35.362  1.00  0.00     0.022 A 
BRANCH  82  86
ATOM     86  S   UNL A   1      35.482  34.002  33.343  1.00  0.00     0.124 S 
ATOM     87  O   UNL A   1      35.561  33.595  31.943  1.00  0.00    -0.237 OA
ATOM     88  O   UNL A   1      34.454  33.334  34.139  1.00  0.00    -0.237 OA
ATOM     89  O   UNL A   1      35.628  35.431  33.595  1.00  0.00    -0.744 OA
ENDBRANCH  82  86
ENDBRANCH  55  79
BRANCH  67  90
ATOM     90  C   UNL A   1      44.313  37.996  34.067  1.00  0.00     0.023 A 
ATOM     91  C   UNL A   1      43.678  39.186  33.664  1.00  0.00     0.031 A 
ATOM     92  C   UNL A   1      45.190  38.058  35.166  1.00  0.00     0.131 A 
ATOM     93  C   UNL A   1      43.949  40.388  34.333  1.00  0.00     0.055 A 
ATOM     94  C   UNL A   1      45.412  39.247  35.867  1.00  0.00     0.041 A 
ATOM     95  F   UNL A   1      45.837  36.960  35.586  1.00  0.00    -0.206 F 
ATOM     96  C   UNL A   1      44.801  40.421  35.442  1.00  0.00     0.022 A 
BRANCH  93  97
ATOM     97  S   UNL A   1      43.281  41.968  33.742  1.00  0.00     0.124 S 
ATOM     98  O   UNL A   1      41.844  41.710  33.748  1.00  0.00    -0.237 OA
ATOM     99  O   UNL A   1      43.751  42.902  34.763  1.00  0.00    -0.237 OA
ATOM    100  O   UNL A   1      43.879  42.131  32.421  1.00  0.00    -0.744 OA
ENDBRANCH  93  97
ENDBRANCH  67  90
ENDBRANCH  41  42
ENDBRANCH  34  36
ENDBRANCH  33  34
ENDBRANCH  32  33
ENDBRANCH  31  32
ENDBRANCH  30  31
ENDBRANCH  29  30
ENDBRANCH   1  29
TORSDOF 25
ENDMDL
MODEL 2
REMARK VINA RESULT:      -8.5      7.294     11.218
REMARK SMILES O=C(CCn1c(SCc2ccccn2)nc2ccccc2c1=O)OCCOCCOCCOC(=O)c1ccc(-c2c3nc(c(-c4cc(S(=O)(=O)[O-])ccc4F)c4ccc([nH]4)c(-c4cc(S(=O)(=O)[O-])ccc4F)c4nc(c(-c5cc(S(=O)(=O)[O-])ccc5F)c5ccc2[nH]5)C=C4)C=C3)cc1
REMARK SMILES IDX 28 1 27 2 26 3 25 4 24 5 2 6 1 7 3 8 4 9 5 10 6 11 22 12
REMARK SMILES IDX 15 13 21 14 23 15 16 16 20 17 17 18 19 19 18 20 7 21 8 22
REMARK SMILES IDX 9 23 10 24 14 25 11 26 13 27 12 28 29 29 30 30 31 31 32 32
REMARK SMILES IDX 33 33 34 34 35 35 36 36 37 37 98 38 38 39 97 40 39 41 40 42
REMARK SMILES IDX 41 43 91 44 42 45 96 46 90 47 92 48 43 49 95 50 89 51 88 52
REMARK SMILES IDX 44 54 76 55 56 56 75 57 57 58 60 59 74 60 93 61 58 62 59 63
REMARK SMILES IDX 73 65 94 66 61 67 45 68 46 69 54 70 47 71 53 72 55 73 52 74
REMARK SMILES IDX 48 75 49 76 50 77 51 78 77 79 78 80 86 81 79 82 85 83 87 84
REMARK SMILES IDX 84 85 80 86 81 87 82 88 83 89 62 90 63 91 71 92 64 93 70 94
REMARK SMILES IDX 72 95 69 96 65 97 66 98 67 99 68 100
REMARK H PARENT 92 53 60 64
REMARK Flexibility Score: inf
ROOT
ATOM      1  C   UNL A   1      38.137  28.968  28.378  1.00  0.00     0.188 C 
ENDROOT
BRANCH   1   2
ATOM      2  O   UNL A   1      37.637  30.045  27.599  1.00  0.00    -0.376 OA
BRANCH   2   3
ATOM      3  C   UNL A   1      36.287  30.440  27.771  1.00  0.00     0.202 C 
BRANCH   3   4
ATOM      4  C   UNL A   1      35.244  29.353  27.992  1.00  0.00     0.261 C 
BRANCH   4   5
ATOM      5  O   UNL A   1      34.408  28.885  26.909  1.00  0.00    -0.463 OA
BRANCH   5   6
ATOM      6  C   UNL A   1      33.110  29.005  26.617  1.00  0.00     0.307 C 
ATOM      7  O   UNL A   1      32.462  29.892  27.179  1.00  0.00    -0.252 OA
BRANCH   6   8
ATOM      8  C   UNL A   1      32.412  28.095  25.655  1.00  0.00     0.144 C 
BRANCH   8   9
ATOM      9  C   UNL A   1      31.536  26.940  26.111  1.00  0.00     0.140 C 
BRANCH   9  10
ATOM     10  N   UNL A   1      31.159  25.869  25.206  1.00  0.00    -0.286 N 
ATOM     11  C   UNL A   1      30.832  25.915  23.860  1.00  0.00     0.171 A 
ATOM     12  C   UNL A   1      30.982  24.646  25.871  1.00  0.00     0.262 A 
ATOM     13  N   UNL A   1      30.846  24.829  23.135  1.00  0.00    -0.224 NA
ATOM     14  C   UNL A   1      31.288  23.457  25.082  1.00  0.00     0.066 A 
ATOM     15  O   UNL A   1      30.705  24.509  27.058  1.00  0.00    -0.269 OA
ATOM     16  C   UNL A   1      31.255  23.620  23.709  1.00  0.00     0.079 A 
ATOM     17  C   UNL A   1      31.802  22.305  25.690  1.00  0.00     0.016 A 
ATOM     18  C   UNL A   1      31.748  22.584  22.913  1.00  0.00     0.029 A 
ATOM     19  C   UNL A   1      32.321  21.293  24.888  1.00  0.00     0.001 A 
ATOM     20  C   UNL A   1      32.293  21.433  23.500  1.00  0.00     0.002 A 
BRANCH  11  21
ATOM     21  S   UNL A   1      30.436  27.314  22.892  1.00  0.00    -0.081 SA
BRANCH  21  22
ATOM     22  C   UNL A   1      29.329  28.525  23.610  1.00  0.00     0.134 C 
BRANCH  22  23
ATOM     23  C   UNL A   1      29.093  29.829  22.895  1.00  0.00     0.051 A 
ATOM     24  C   UNL A   1      28.725  30.957  23.642  1.00  0.00     0.025 A 
ATOM     25  N   UNL A   1      29.109  29.831  21.541  1.00  0.00    -0.260 NA
ATOM     26  C   UNL A   1      28.219  32.067  22.973  1.00  0.00     0.003 A 
ATOM     27  C   UNL A   1      28.663  30.944  20.920  1.00  0.00     0.111 A 
ATOM     28  C   UNL A   1      28.174  32.056  21.586  1.00  0.00     0.020 A 
ENDBRANCH  22  23
ENDBRANCH  21  22
ENDBRANCH  11  21
ENDBRANCH   9  10
ENDBRANCH   8   9
ENDBRANCH   6   8
ENDBRANCH   5   6
ENDBRANCH   4   5
ENDBRANCH   3   4
ENDBRANCH   2   3
ENDBRANCH   1   2
BRANCH   1  29
ATOM     29  C   UNL A   1      39.585  28.561  28.147  1.00  0.00     0.188 C 
BRANCH  29  30
ATOM     30  O   UNL A   1      39.744  27.151  28.078  1.00  0.00    -0.376 OA
BRANCH  30  31
ATOM     31  C   UNL A   1      40.947  26.744  27.436  1.00  0.00     0.202 C 
BRANCH  31  32
ATOM     32  C   UNL A   1      40.847  26.126  26.024  1.00  0.00     0.261 C 
BRANCH  32  33
ATOM     33  O   UNL A   1      41.958  26.265  25.123  1.00  0.00    -0.460 OA
BRANCH  33  34
ATOM     34  C   UNL A   1      42.638  27.433  25.096  1.00  0.00     0.338 C 
ATOM     35  O   UNL A   1      42.208  28.505  24.720  1.00  0.00    -0.246 OA
BRANCH  34  36
ATOM     36  C   UNL A   1      43.976  27.210  25.710  1.00  0.00     0.060 A 
ATOM     37  C   UNL A   1      44.610  25.970  25.599  1.00  0.00     0.016 A 
ATOM     38  C   UNL A   1      44.622  28.261  26.376  1.00  0.00     0.016 A 
ATOM     39  C   UNL A   1      45.895  25.792  26.134  1.00  0.00     0.010 A 
ATOM     40  C   UNL A   1      45.896  28.073  26.933  1.00  0.00     0.010 A 
ATOM     41  C   UNL A   1      46.560  26.846  26.790  1.00  0.00    -0.014 A 
BRANCH  41  42
ATOM     42  C   UNL A   1      48.020  26.732  27.068  1.00  0.00     0.031 A 
ATOM     43  C   UNL A   1      49.086  27.009  26.050  1.00  0.00     0.074 A 
ATOM     44  C   UNL A   1      48.380  26.350  28.310  1.00  0.00     0.049 A 
ATOM     45  N   UNL A   1      50.380  27.107  26.227  1.00  0.00    -0.248 NA
ATOM     46  C   UNL A   1      48.656  27.177  24.656  1.00  0.00     0.031 C 
ATOM     47  C   UNL A   1      47.435  25.972  29.360  1.00  0.00     0.029 A 
ATOM     48  N   UNL A   1      49.611  26.225  28.904  1.00  0.00    -0.354 N 
ATOM     49  C   UNL A   1      50.925  27.385  24.980  1.00  0.00     0.074 A 
ATOM     50  C   UNL A   1      49.819  27.373  24.041  1.00  0.00     0.031 C 
ATOM     51  C   UNL A   1      48.115  25.693  30.480  1.00  0.00     0.029 A 
ATOM     52  C   UNL A   1      49.546  25.851  30.226  1.00  0.00     0.049 A 
ATOM     53  H   UNL A   1      50.459  26.388  28.430  1.00  0.00     0.167 HD
ATOM     54  C   UNL A   1      52.219  27.648  24.660  1.00  0.00     0.034 A 
ATOM     55  C   UNL A   1      50.516  25.670  31.144  1.00  0.00     0.034 A 
ATOM     56  C   UNL A   1      53.312  27.611  25.608  1.00  0.00     0.049 A 
ATOM     57  C   UNL A   1      51.942  25.976  30.773  1.00  0.00     0.074 A 
ATOM     58  C   UNL A   1      54.645  27.921  25.391  1.00  0.00     0.029 A 
ATOM     59  N   UNL A   1      53.215  27.227  26.941  1.00  0.00    -0.354 N 
ATOM     60  N   UNL A   1      52.422  26.396  29.626  1.00  0.00    -0.248 NA
ATOM     61  C   UNL A   1      52.955  25.815  31.823  1.00  0.00     0.031 C 
ATOM     62  C   UNL A   1      55.361  27.649  26.559  1.00  0.00     0.029 A 
ATOM     63  C   UNL A   1      54.468  27.255  27.542  1.00  0.00     0.049 A 
ATOM     64  H   UNL A   1      52.379  26.973  27.394  1.00  0.00     0.167 HD
ATOM     65  C   UNL A   1      53.791  26.556  29.819  1.00  0.00     0.074 A 
ATOM     66  C   UNL A   1      54.052  26.237  31.208  1.00  0.00     0.031 C 
ATOM     67  C   UNL A   1      54.744  26.921  28.921  1.00  0.00     0.034 A 
BRANCH  54  68
ATOM     68  C   UNL A   1      52.551  28.048  23.236  1.00  0.00     0.023 A 
ATOM     69  C   UNL A   1      52.340  29.370  22.793  1.00  0.00     0.031 A 
ATOM     70  C   UNL A   1      52.913  27.083  22.277  1.00  0.00     0.131 A 
ATOM     71  C   UNL A   1      52.451  29.677  21.429  1.00  0.00     0.055 A 
ATOM     72  C   UNL A   1      53.066  27.404  20.927  1.00  0.00     0.041 A 
ATOM     73  F   UNL A   1      53.120  25.806  22.637  1.00  0.00    -0.206 F 
ATOM     74  C   UNL A   1      52.819  28.703  20.495  1.00  0.00     0.022 A 
BRANCH  71  75
ATOM     75  S   UNL A   1      52.041  31.328  20.795  1.00  0.00     0.124 S 
ATOM     76  O   UNL A   1      53.112  31.549  19.826  1.00  0.00    -0.237 OA
ATOM     77  O   UNL A   1      50.716  31.113  20.222  1.00  0.00    -0.237 OA
ATOM     78  O   UNL A   1      52.089  32.178  21.979  1.00  0.00    -0.744 OA
ENDBRANCH  71  75
ENDBRANCH  54  68
BRANCH  55  79
ATOM     79  C   UNL A   1      50.123  25.259  32.524  1.00  0.00     0.023 A 
ATOM     80  C   UNL A   1      49.601  26.203  33.428  1.00  0.00     0.031 A 
ATOM     81  C   UNL A   1      50.396  23.966  33.001  1.00  0.00     0.131 A 
ATOM     82  C   UNL A   1      49.453  25.865  34.779  1.00  0.00     0.055 A 
ATOM     83  C   UNL A   1      50.166  23.610  34.330  1.00  0.00     0.041 A 
ATOM     84  F   UNL A   1      50.912  23.037  32.182  1.00  0.00    -0.206 F 
ATOM     85  C   UNL A   1      49.713  24.568  35.232  1.00  0.00     0.022 A 
BRANCH  82  86
ATOM     86  S   UNL A   1      49.080  27.140  36.015  1.00  0.00     0.124 S 
ATOM     87  O   UNL A   1      48.579  26.345  37.132  1.00  0.00    -0.237 OA
ATOM     88  O   UNL A   1      50.392  27.752  36.214  1.00  0.00    -0.237 OA
ATOM     89  O   UNL A   1      48.096  27.987  35.350  1.00  0.00    -0.744 OA
ENDBRANCH  82  86
ENDBRANCH  55  79
BRANCH  67  90
ATOM     90  C   UNL A   1      56.186  26.972  29.386  1.00  0.00     0.023 A 
ATOM     91  C   UNL A   1      57.005  25.829  29.300  1.00  0.00     0.031 A 
ATOM     92  C   UNL A   1      56.714  28.114  30.015  1.00  0.00     0.131 A 
ATOM     93  C   UNL A   1      58.292  25.846  29.858  1.00  0.00     0.055 A 
ATOM     94  C   UNL A   1      58.018  28.144  30.517  1.00  0.00     0.041 A 
ATOM     95  F   UNL A   1      55.975  29.228  30.142  1.00  0.00    -0.206 F 
ATOM     96  C   UNL A   1      58.808  27.002  30.452  1.00  0.00     0.022 A 
BRANCH  93  97
ATOM     97  S   UNL A   1      59.313  24.347  29.915  1.00  0.00     0.124 S 
ATOM     98  O   UNL A   1      60.165  24.516  28.741  1.00  0.00    -0.237 OA
ATOM     99  O   UNL A   1      59.992  24.486  31.202  1.00  0.00    -0.237 OA
ATOM    100  O   UNL A   1      58.346  23.259  29.830  1.00  0.00    -0.744 OA
ENDBRANCH  93  97
ENDBRANCH  67  90
ENDBRANCH  41  42
ENDBRANCH  34  36
ENDBRANCH  33  34
ENDBRANCH  32  33
ENDBRANCH  31  32
ENDBRANCH  30  31
ENDBRANCH  29  30
ENDBRANCH   1  29
TORSDOF 25
ENDMDL
MODEL 3
REMARK VINA RESULT:      -8.4      8.580     15.147
REMARK SMILES O=C(CCn1c(SCc2ccccn2)nc2ccccc2c1=O)OCCOCCOCCOC(=O)c1ccc(-c2c3nc(c(-c4cc(S(=O)(=O)[O-])ccc4F)c4ccc([nH]4)c(-c4cc(S(=O)(=O)[O-])ccc4F)c4nc(c(-c5cc(S(=O)(=O)[O-])ccc5F)c5ccc2[nH]5)C=C4)C=C3)cc1
REMARK SMILES IDX 28 1 27 2 26 3 25 4 24 5 2 6 1 7 3 8 4 9 5 10 6 11 22 12
REMARK SMILES IDX 15 13 21 14 23 15 16 16 20 17 17 18 19 19 18 20 7 21 8 22
REMARK SMILES IDX 9 23 10 24 14 25 11 26 13 27 12 28 29 29 30 30 31 31 32 32
REMARK SMILES IDX 33 33 34 34 35 35 36 36 37 37 98 38 38 39 97 40 39 41 40 42
REMARK SMILES IDX 41 43 91 44 42 45 96 46 90 47 92 48 43 49 95 50 89 51 88 52
REMARK SMILES IDX 44 54 76 55 56 56 75 57 57 58 60 59 74 60 93 61 58 62 59 63
REMARK SMILES IDX 73 65 94 66 61 67 45 68 46 69 54 70 47 71 53 72 55 73 52 74
REMARK SMILES IDX 48 75 49 76 50 77 51 78 77 79 78 80 86 81 79 82 85 83 87 84
REMARK SMILES IDX 84 85 80 86 81 87 82 88 83 89 62 90 63 91 71 92 64 93 70 94
REMARK SMILES IDX 72 95 69 96 65 97 66 98 67 99 68 100
REMARK H PARENT 92 53 60 64
REMARK Flexibility Score: inf
ROOT
ATOM      1  C   UNL A   1      46.662  24.905  33.703  1.00  0.00     0.188 C 
ENDROOT
BRANCH   1   2
ATOM      2  O   UNL A   1      45.990  23.665  33.541  1.00  0.00    -0.376 OA
BRANCH   2   3
ATOM      3  C   UNL A   1      44.776  23.453  34.240  1.00  0.00     0.202 C 
BRANCH   3   4
ATOM      4  C   UNL A   1      44.838  22.751  35.590  1.00  0.00     0.261 C 
BRANCH   4   5
ATOM      5  O   UNL A   1      45.585  23.311  36.694  1.00  0.00    -0.463 OA
BRANCH   5   6
ATOM      6  C   UNL A   1      45.562  23.133  38.017  1.00  0.00     0.307 C 
ATOM      7  O   UNL A   1      45.143  24.051  38.726  1.00  0.00    -0.252 OA
BRANCH   6   8
ATOM      8  C   UNL A   1      46.045  21.875  38.670  1.00  0.00     0.144 C 
BRANCH   8   9
ATOM      9  C   UNL A   1      46.429  20.637  37.877  1.00  0.00     0.140 C 
BRANCH   9  10
ATOM     10  N   UNL A   1      47.000  19.469  38.522  1.00  0.00    -0.286 N 
ATOM     11  C   UNL A   1      48.322  19.161  38.798  1.00  0.00     0.171 A 
ATOM     12  C   UNL A   1      46.043  18.470  38.760  1.00  0.00     0.262 A 
ATOM     13  N   UNL A   1      48.623  18.237  39.671  1.00  0.00    -0.224 NA
ATOM     14  C   UNL A   1      46.290  17.635  39.931  1.00  0.00     0.066 A 
ATOM     15  O   UNL A   1      44.993  18.321  38.142  1.00  0.00    -0.269 OA
ATOM     16  C   UNL A   1      47.598  17.596  40.378  1.00  0.00     0.079 A 
ATOM     17  C   UNL A   1      45.227  17.106  40.673  1.00  0.00     0.016 A 
ATOM     18  C   UNL A   1      47.853  16.995  41.613  1.00  0.00     0.029 A 
ATOM     19  C   UNL A   1      45.487  16.539  41.917  1.00  0.00     0.001 A 
ATOM     20  C   UNL A   1      46.800  16.483  42.386  1.00  0.00     0.002 A 
BRANCH  11  21
ATOM     21  S   UNL A   1      49.762  19.918  38.162  1.00  0.00    -0.081 SA
BRANCH  21  22
ATOM     22  C   UNL A   1      49.770  20.337  36.421  1.00  0.00     0.134 C 
BRANCH  22  23
ATOM     23  C   UNL A   1      51.065  20.291  35.654  1.00  0.00     0.051 A 
ATOM     24  C   UNL A   1      51.050  20.554  34.277  1.00  0.00     0.025 A 
ATOM     25  N   UNL A   1      52.177  19.859  36.296  1.00  0.00    -0.260 NA
ATOM     26  C   UNL A   1      52.168  20.223  33.518  1.00  0.00     0.003 A 
ATOM     27  C   UNL A   1      53.265  19.599  35.539  1.00  0.00     0.111 A 
ATOM     28  C   UNL A   1      53.294  19.722  34.159  1.00  0.00     0.020 A 
ENDBRANCH  22  23
ENDBRANCH  21  22
ENDBRANCH  11  21
ENDBRANCH   9  10
ENDBRANCH   8   9
ENDBRANCH   6   8
ENDBRANCH   5   6
ENDBRANCH   4   5
ENDBRANCH   3   4
ENDBRANCH   2   3
ENDBRANCH   1   2
BRANCH   1  29
ATOM     29  C   UNL A   1      48.180  24.888  33.599  1.00  0.00     0.188 C 
BRANCH  29  30
ATOM     30  O   UNL A   1      48.724  26.189  33.431  1.00  0.00    -0.376 OA
BRANCH  30  31
ATOM     31  C   UNL A   1      49.992  26.362  34.054  1.00  0.00     0.202 C 
BRANCH  31  32
ATOM     32  C   UNL A   1      50.169  27.543  35.032  1.00  0.00     0.261 C 
BRANCH  32  33
ATOM     33  O   UNL A   1      49.614  28.822  34.687  1.00  0.00    -0.460 OA
BRANCH  33  34
ATOM     34  C   UNL A   1      48.623  29.335  35.452  1.00  0.00     0.338 C 
ATOM     35  O   UNL A   1      48.749  29.819  36.559  1.00  0.00    -0.246 OA
BRANCH  34  36
ATOM     36  C   UNL A   1      47.361  29.307  34.663  1.00  0.00     0.060 A 
ATOM     37  C   UNL A   1      46.391  28.333  34.910  1.00  0.00     0.016 A 
ATOM     38  C   UNL A   1      47.127  30.287  33.688  1.00  0.00     0.016 A 
ATOM     39  C   UNL A   1      45.182  28.354  34.197  1.00  0.00     0.010 A 
ATOM     40  C   UNL A   1      45.928  30.291  32.958  1.00  0.00     0.010 A 
ATOM     41  C   UNL A   1      44.929  29.344  33.227  1.00  0.00    -0.014 A 
BRANCH  41  42
ATOM     42  C   UNL A   1      43.542  29.533  32.716  1.00  0.00     0.031 A 
ATOM     43  C   UNL A   1      42.461  30.234  33.483  1.00  0.00     0.074 A 
ATOM     44  C   UNL A   1      43.264  29.031  31.496  1.00  0.00     0.049 A 
ATOM     45  N   UNL A   1      41.274  30.604  33.070  1.00  0.00    -0.248 NA
ATOM     46  C   UNL A   1      42.729  30.543  34.893  1.00  0.00     0.031 C 
ATOM     47  C   UNL A   1      44.208  28.256  30.691  1.00  0.00     0.029 A 
ATOM     48  N   UNL A   1      42.135  29.098  30.719  1.00  0.00    -0.354 N 
ATOM     49  C   UNL A   1      40.660  31.223  34.151  1.00  0.00     0.074 A 
ATOM     50  C   UNL A   1      41.587  31.117  35.262  1.00  0.00     0.031 C 
ATOM     51  C   UNL A   1      43.635  27.951  29.520  1.00  0.00     0.029 A 
ATOM     52  C   UNL A   1      42.276  28.488  29.495  1.00  0.00     0.049 A 
ATOM     53  H   UNL A   1      41.304  29.540  31.010  1.00  0.00     0.167 HD
ATOM     54  C   UNL A   1      39.450  31.840  34.200  1.00  0.00     0.034 A 
ATOM     55  C   UNL A   1      41.424  28.381  28.455  1.00  0.00     0.034 A 
ATOM     56  C   UNL A   1      38.523  31.895  33.089  1.00  0.00     0.049 A 
ATOM     57  C   UNL A   1      40.093  29.080  28.523  1.00  0.00     0.074 A 
ATOM     58  C   UNL A   1      37.302  32.546  33.024  1.00  0.00     0.029 A 
ATOM     59  N   UNL A   1      38.693  31.265  31.861  1.00  0.00    -0.354 N 
ATOM     60  N   UNL A   1      39.591  29.801  29.499  1.00  0.00    -0.248 NA
ATOM     61  C   UNL A   1      39.223  28.979  27.345  1.00  0.00     0.031 C 
ATOM     62  C   UNL A   1      36.703  32.248  31.798  1.00  0.00     0.029 A 
ATOM     63  C   UNL A   1      37.584  31.482  31.052  1.00  0.00     0.049 A 
ATOM     64  H   UNL A   1      39.485  30.742  31.602  1.00  0.00     0.167 HD
ATOM     65  C   UNL A   1      38.351  30.245  29.048  1.00  0.00     0.074 A 
ATOM     66  C   UNL A   1      38.204  29.754  27.694  1.00  0.00     0.031 C 
ATOM     67  C   UNL A   1      37.417  30.982  29.706  1.00  0.00     0.034 A 
BRANCH  54  68
ATOM     68  C   UNL A   1      39.047  32.556  35.473  1.00  0.00     0.023 A 
ATOM     69  C   UNL A   1      39.507  33.862  35.739  1.00  0.00     0.031 A 
ATOM     70  C   UNL A   1      38.352  31.883  36.496  1.00  0.00     0.131 A 
ATOM     71  C   UNL A   1      39.303  34.432  37.004  1.00  0.00     0.055 A 
ATOM     72  C   UNL A   1      38.112  32.473  37.738  1.00  0.00     0.041 A 
ATOM     73  F   UNL A   1      37.896  30.634  36.304  1.00  0.00    -0.206 F 
ATOM     74  C   UNL A   1      38.603  33.747  38.002  1.00  0.00     0.022 A 
BRANCH  71  75
ATOM     75  S   UNL A   1      40.008  36.047  37.439  1.00  0.00     0.124 S 
ATOM     76  O   UNL A   1      39.816  36.799  36.201  1.00  0.00    -0.237 OA
ATOM     77  O   UNL A   1      39.162  36.458  38.556  1.00  0.00    -0.237 OA
ATOM     78  O   UNL A   1      41.395  35.744  37.773  1.00  0.00    -0.744 OA
ENDBRANCH  71  75
ENDBRANCH  54  68
BRANCH  55  79
ATOM     79  C   UNL A   1      41.876  27.648  27.236  1.00  0.00     0.023 A 
ATOM     80  C   UNL A   1      41.836  26.241  27.194  1.00  0.00     0.031 A 
ATOM     81  C   UNL A   1      42.483  28.325  26.166  1.00  0.00     0.131 A 
ATOM     82  C   UNL A   1      42.471  25.558  26.149  1.00  0.00     0.055 A 
ATOM     83  C   UNL A   1      43.040  27.641  25.085  1.00  0.00     0.041 A 
ATOM     84  F   UNL A   1      42.563  29.665  26.171  1.00  0.00    -0.206 F 
ATOM     85  C   UNL A   1      43.055  26.249  25.084  1.00  0.00     0.022 A 
BRANCH  82  86
ATOM     86  S   UNL A   1      42.702  23.760  26.227  1.00  0.00     0.124 S 
ATOM     87  O   UNL A   1      41.375  23.299  26.622  1.00  0.00    -0.237 OA
ATOM     88  O   UNL A   1      43.095  23.453  24.853  1.00  0.00    -0.237 OA
ATOM     89  O   UNL A   1      43.753  23.590  27.224  1.00  0.00    -0.744 OA
ENDBRANCH  82  86
ENDBRANCH  55  79
BRANCH  67  90
ATOM     90  C   UNL A   1      36.115  31.290  28.993  1.00  0.00     0.023 A 
ATOM     91  C   UNL A   1      35.593  32.598  28.990  1.00  0.00     0.031 A 
ATOM     92  C   UNL A   1      35.336  30.271  28.414  1.00  0.00     0.131 A 
ATOM     93  C   UNL A   1      34.324  32.846  28.448  1.00  0.00     0.055 A 
ATOM     94  C   UNL A   1      34.098  30.532  27.824  1.00  0.00     0.041 A 
ATOM     95  F   UNL A   1      35.773  29.001  28.402  1.00  0.00    -0.206 F 
ATOM     96  C   UNL A   1      33.580  31.823  27.851  1.00  0.00     0.022 A 
BRANCH  93  97
ATOM     97  S   UNL A   1      33.548  34.482  28.574  1.00  0.00     0.124 S 
ATOM     98  O   UNL A   1      32.405  34.344  27.675  1.00  0.00    -0.237 OA
ATOM     99  O   UNL A   1      33.217  34.556  29.995  1.00  0.00    -0.237 OA
ATOM    100  O   UNL A   1      34.588  35.400  28.123  1.00  0.00    -0.744 OA
ENDBRANCH  93  97
ENDBRANCH  67  90
ENDBRANCH  41  42
ENDBRANCH  34  36
ENDBRANCH  33  34
ENDBRANCH  32  33
ENDBRANCH  31  32
ENDBRANCH  30  31
ENDBRANCH  29  30
ENDBRANCH   1  29
TORSDOF 25
ENDMDL
