MODEL 1
REMARK VINA RESULT:     -10.8      0.000      0.000
REMARK SMILES O=C(OCCOCCOCCOC(=O)[C@@H]1CCCN1C(=O)OCc1ccc(/N=N/c2ccccc2)cc1)c1ccc(-c2c3nc(c(-c4cc(S(=O)(=O)[O-])ccc4F)c4ccc([nH]4)c(-c4cc(S(=O)(=O)[O-])ccc4F)c4nc(c(-c5cc(S(=O)(=O)[O-])ccc5F)c5ccc2[nH]5)C=C4)C=C3)cc1
REMARK SMILES IDX 9 1 8 2 7 3 6 4 5 5 4 6 3 7 2 8 1 9 38 10 39 11 100 12 40 13
REMARK SMILES IDX 99 14 41 15 42 16 43 17 93 18 44 19 98 20 92 21 94 22 45 23
REMARK SMILES IDX 97 24 91 25 90 26 46 28 78 29 58 30 77 31 59 32 62 33 76 34
REMARK SMILES IDX 95 35 60 36 61 37 75 39 96 40 63 41 47 42 48 43 56 44 49 45
REMARK SMILES IDX 55 46 57 47 54 48 50 49 51 50 52 51 53 52 79 53 80 54 88 55
REMARK SMILES IDX 81 56 87 57 89 58 86 59 82 60 83 61 84 62 85 63 64 64 65 65
REMARK SMILES IDX 73 66 66 67 72 68 74 69 71 70 67 71 68 72 69 73 70 74 10 75
REMARK SMILES IDX 11 76 12 77 13 78 14 79 15 80 16 81 19 82 17 83 18 84 20 85
REMARK SMILES IDX 21 86 22 87 23 88 24 89 25 90 37 91 26 92 36 93 27 94 28 95
REMARK SMILES IDX 29 96 30 97 31 98 35 99 32 100 34 101 33 102
REMARK H PARENT 94 27 62 38
REMARK Flexibility Score: inf
ROOT
ATOM      1  O   UNL A   1      35.967  23.354  25.718  1.00  0.00    -0.376 OA
ENDROOT
BRANCH   1   2
ATOM      2  C   UNL A   1      35.764  21.979  26.017  1.00  0.00     0.188 C 
BRANCH   2   3
ATOM      3  C   UNL A   1      36.229  20.923  25.002  1.00  0.00     0.188 C 
BRANCH   3   4
ATOM      4  O   UNL A   1      37.619  20.933  24.708  1.00  0.00    -0.376 OA
BRANCH   4   5
ATOM      5  C   UNL A   1      38.376  19.740  24.927  1.00  0.00     0.202 C 
BRANCH   5   6
ATOM      6  C   UNL A   1      39.426  19.621  26.060  1.00  0.00     0.261 C 
BRANCH   6   7
ATOM      7  O   UNL A   1      40.733  19.148  25.690  1.00  0.00    -0.460 OA
BRANCH   7   8
ATOM      8  C   UNL A   1      41.952  19.632  26.031  1.00  0.00     0.338 C 
ATOM      9  O   UNL A   1      42.893  18.846  26.127  1.00  0.00    -0.246 OA
BRANCH   8  10
ATOM     10  C   UNL A   1      42.181  21.062  26.385  1.00  0.00     0.060 A 
ATOM     11  C   UNL A   1      42.152  22.107  25.465  1.00  0.00     0.016 A 
ATOM     12  C   UNL A   1      42.328  21.383  27.744  1.00  0.00     0.016 A 
ATOM     13  C   UNL A   1      42.402  23.419  25.853  1.00  0.00     0.010 A 
ATOM     14  C   UNL A   1      42.500  22.711  28.154  1.00  0.00     0.010 A 
ATOM     15  C   UNL A   1      42.578  23.732  27.201  1.00  0.00    -0.014 A 
BRANCH  15  16
ATOM     16  C   UNL A   1      42.913  25.125  27.571  1.00  0.00     0.031 A 
ATOM     17  C   UNL A   1      44.294  25.635  27.300  1.00  0.00     0.074 A 
ATOM     18  C   UNL A   1      41.955  25.942  28.047  1.00  0.00     0.049 A 
ATOM     19  N   UNL A   1      44.802  26.810  27.551  1.00  0.00    -0.248 NA
ATOM     20  C   UNL A   1      45.226  24.698  26.653  1.00  0.00     0.031 C 
ATOM     21  C   UNL A   1      40.565  25.549  28.269  1.00  0.00     0.029 A 
ATOM     22  N   UNL A   1      41.987  27.266  28.407  1.00  0.00    -0.354 N 
ATOM     23  C   UNL A   1      46.119  26.752  27.115  1.00  0.00     0.074 A 
ATOM     24  C   UNL A   1      46.334  25.420  26.592  1.00  0.00     0.031 C 
ATOM     25  C   UNL A   1      39.879  26.617  28.699  1.00  0.00     0.029 A 
ATOM     26  C   UNL A   1      40.774  27.751  28.841  1.00  0.00     0.049 A 
ATOM     27  H   UNL A   1      42.802  27.817  28.360  1.00  0.00     0.167 HD
ATOM     28  C   UNL A   1      47.059  27.724  27.161  1.00  0.00     0.034 A 
ATOM     29  C   UNL A   1      40.422  28.958  29.327  1.00  0.00     0.034 A 
ATOM     30  C   UNL A   1      46.815  29.035  27.704  1.00  0.00     0.049 A 
ATOM     31  C   UNL A   1      41.508  29.996  29.437  1.00  0.00     0.074 A 
ATOM     32  C   UNL A   1      47.700  30.087  27.856  1.00  0.00     0.029 A 
ATOM     33  N   UNL A   1      45.589  29.473  28.195  1.00  0.00    -0.354 N 
ATOM     34  N   UNL A   1      42.765  29.911  29.059  1.00  0.00    -0.248 NA
ATOM     35  C   UNL A   1      41.147  31.277  30.051  1.00  0.00     0.031 C 
ATOM     36  C   UNL A   1      47.027  31.134  28.496  1.00  0.00     0.029 A 
ATOM     37  C   UNL A   1      45.704  30.765  28.682  1.00  0.00     0.049 A 
ATOM     38  H   UNL A   1      44.761  28.941  28.198  1.00  0.00     0.167 HD
ATOM     39  C   UNL A   1      43.341  31.131  29.388  1.00  0.00     0.074 A 
ATOM     40  C   UNL A   1      42.285  31.947  29.954  1.00  0.00     0.031 C 
ATOM     41  C   UNL A   1      44.629  31.540  29.254  1.00  0.00     0.034 A 
BRANCH  28  42
ATOM     42  C   UNL A   1      48.444  27.351  26.703  1.00  0.00     0.023 A 
ATOM     43  C   UNL A   1      48.921  27.680  25.423  1.00  0.00     0.031 A 
ATOM     44  C   UNL A   1      49.274  26.589  27.543  1.00  0.00     0.131 A 
ATOM     45  C   UNL A   1      50.165  27.190  24.995  1.00  0.00     0.055 A 
ATOM     46  C   UNL A   1      50.540  26.165  27.139  1.00  0.00     0.041 A 
ATOM     47  F   UNL A   1      48.854  26.218  28.763  1.00  0.00    -0.206 F 
ATOM     48  C   UNL A   1      50.989  26.455  25.853  1.00  0.00     0.022 A 
BRANCH  45  49
ATOM     49  S   UNL A   1      50.641  27.415  23.259  1.00  0.00     0.124 S 
ATOM     50  O   UNL A   1      50.731  28.870  23.166  1.00  0.00    -0.237 OA
ATOM     51  O   UNL A   1      51.904  26.692  23.179  1.00  0.00    -0.237 OA
ATOM     52  O   UNL A   1      49.531  26.817  22.519  1.00  0.00    -0.744 OA
ENDBRANCH  45  49
ENDBRANCH  28  42
BRANCH  29  53
ATOM     53  C   UNL A   1      39.030  29.235  29.811  1.00  0.00     0.023 A 
ATOM     54  C   UNL A   1      38.112  29.966  29.038  1.00  0.00     0.031 A 
ATOM     55  C   UNL A   1      38.614  28.827  31.095  1.00  0.00     0.131 A 
ATOM     56  C   UNL A   1      36.856  30.311  29.571  1.00  0.00     0.055 A 
ATOM     57  C   UNL A   1      37.339  29.109  31.591  1.00  0.00     0.041 A 
ATOM     58  F   UNL A   1      39.445  28.139  31.896  1.00  0.00    -0.206 F 
ATOM     59  C   UNL A   1      36.457  29.870  30.835  1.00  0.00     0.022 A 
BRANCH  56  60
ATOM     60  S   UNL A   1      35.801  31.467  28.649  1.00  0.00     0.124 S 
ATOM     61  O   UNL A   1      34.919  31.966  29.698  1.00  0.00    -0.237 OA
ATOM     62  O   UNL A   1      36.772  32.419  28.122  1.00  0.00    -0.237 OA
ATOM     63  O   UNL A   1      35.155  30.617  27.649  1.00  0.00    -0.744 OA
ENDBRANCH  56  60
ENDBRANCH  29  53
BRANCH  41  64
ATOM     64  C   UNL A   1      44.934  32.939  29.719  1.00  0.00     0.023 A 
ATOM     65  C   UNL A   1      44.828  34.036  28.848  1.00  0.00     0.031 A 
ATOM     66  C   UNL A   1      45.360  33.171  31.037  1.00  0.00     0.131 A 
ATOM     67  C   UNL A   1      45.205  35.311  29.287  1.00  0.00     0.055 A 
ATOM     68  C   UNL A   1      45.673  34.453  31.487  1.00  0.00     0.041 A 
ATOM     69  F   UNL A   1      45.477  32.155  31.906  1.00  0.00    -0.206 F 
ATOM     70  C   UNL A   1      45.610  35.529  30.607  1.00  0.00     0.022 A 
BRANCH  67  71
ATOM     71  S   UNL A   1      45.247  36.666  28.084  1.00  0.00     0.124 S 
ATOM     72  O   UNL A   1      45.296  37.839  28.952  1.00  0.00    -0.237 OA
ATOM     73  O   UNL A   1      46.465  36.379  27.331  1.00  0.00    -0.237 OA
ATOM     74  O   UNL A   1      44.003  36.498  27.335  1.00  0.00    -0.744 OA
ENDBRANCH  67  71
ENDBRANCH  41  64
ENDBRANCH  15  16
ENDBRANCH   8  10
ENDBRANCH   7   8
ENDBRANCH   6   7
ENDBRANCH   5   6
ENDBRANCH   4   5
ENDBRANCH   3   4
ENDBRANCH   2   3
ENDBRANCH   1   2
BRANCH   1  75
ATOM     75  C   UNL A   1      34.810  24.149  25.484  1.00  0.00     0.202 C 
BRANCH  75  76
ATOM     76  C   UNL A   1      34.689  24.913  24.156  1.00  0.00     0.261 C 
BRANCH  76  77
ATOM     77  O   UNL A   1      33.870  26.085  24.200  1.00  0.00    -0.462 OA
BRANCH  77  78
ATOM     78  C   UNL A   1      33.609  26.689  23.002  1.00  0.00     0.329 C 
ATOM     79  O   UNL A   1      33.828  26.197  21.902  1.00  0.00    -0.250 OA
BRANCH  78  80
ATOM     80  C   UNL A   1      33.024  28.088  23.242  1.00  0.00     0.198 C 
ATOM     81  C   UNL A   1      33.679  28.745  24.466  1.00  0.00     0.039 C 
ATOM     82  N   UNL A   1      31.614  28.017  23.599  1.00  0.00    -0.294 N 
ATOM     83  C   UNL A   1      32.540  29.516  25.127  1.00  0.00     0.024 C 
ATOM     84  C   UNL A   1      31.336  28.623  24.883  1.00  0.00     0.124 C 
BRANCH  82  85
ATOM     85  C   UNL A   1      30.628  27.522  22.788  1.00  0.00     0.410 C 
ATOM     86  O   UNL A   1      29.863  28.233  22.152  1.00  0.00    -0.224 OA
BRANCH  85  87
ATOM     87  O   UNL A   1      30.602  26.162  22.798  1.00  0.00    -0.445 OA
BRANCH  87  88
ATOM     88  C   UNL A   1      30.303  25.560  24.066  1.00  0.00     0.270 C 
BRANCH  88  89
ATOM     89  C   UNL A   1      30.986  24.220  24.167  1.00  0.00    -0.010 A 
ATOM     90  C   UNL A   1      31.529  23.632  23.021  1.00  0.00     0.009 A 
ATOM     91  C   UNL A   1      30.965  23.486  25.358  1.00  0.00     0.009 A 
ATOM     92  C   UNL A   1      31.992  22.317  23.053  1.00  0.00     0.031 A 
ATOM     93  C   UNL A   1      31.433  22.169  25.386  1.00  0.00     0.031 A 
ATOM     94  C   UNL A   1      31.936  21.560  24.227  1.00  0.00     0.086 A 
BRANCH  94  95
ATOM     95  N   UNL A   1      32.402  20.233  24.150  1.00  0.00    -0.151 NA
ATOM     96  N   UNL A   1      32.556  19.672  25.253  1.00  0.00    -0.151 NA
BRANCH  96  97
ATOM     97  C   UNL A   1      33.052  18.360  25.095  1.00  0.00     0.086 A 
ATOM     98  C   UNL A   1      32.421  17.321  25.788  1.00  0.00     0.030 A 
ATOM     99  C   UNL A   1      34.175  18.052  24.311  1.00  0.00     0.030 A 
ATOM    100  C   UNL A   1      32.890  16.007  25.694  1.00  0.00     0.002 A 
ATOM    101  C   UNL A   1      34.644  16.742  24.209  1.00  0.00     0.002 A 
ATOM    102  C   UNL A   1      34.002  15.719  24.903  1.00  0.00     0.000 A 
ENDBRANCH  96  97
ENDBRANCH  94  95
ENDBRANCH  88  89
ENDBRANCH  87  88
ENDBRANCH  85  87
ENDBRANCH  82  85
ENDBRANCH  78  80
ENDBRANCH  77  78
ENDBRANCH  76  77
ENDBRANCH  75  76
ENDBRANCH   1  75
TORSDOF 26
ENDMDL
MODEL 2
REMARK VINA RESULT:     -10.7      1.602      7.335
REMARK SMILES O=C(OCCOCCOCCOC(=O)[C@@H]1CCCN1C(=O)OCc1ccc(/N=N/c2ccccc2)cc1)c1ccc(-c2c3nc(c(-c4cc(S(=O)(=O)[O-])ccc4F)c4ccc([nH]4)c(-c4cc(S(=O)(=O)[O-])ccc4F)c4nc(c(-c5cc(S(=O)(=O)[O-])ccc5F)c5ccc2[nH]5)C=C4)C=C3)cc1
REMARK SMILES IDX 9 1 8 2 7 3 6 4 5 5 4 6 3 7 2 8 1 9 38 10 39 11 100 12 40 13
REMARK SMILES IDX 99 14 41 15 42 16 43 17 93 18 44 19 98 20 92 21 94 22 45 23
REMARK SMILES IDX 97 24 91 25 90 26 46 28 78 29 58 30 77 31 59 32 62 33 76 34
REMARK SMILES IDX 95 35 60 36 61 37 75 39 96 40 63 41 47 42 48 43 56 44 49 45
REMARK SMILES IDX 55 46 57 47 54 48 50 49 51 50 52 51 53 52 79 53 80 54 88 55
REMARK SMILES IDX 81 56 87 57 89 58 86 59 82 60 83 61 84 62 85 63 64 64 65 65
REMARK SMILES IDX 73 66 66 67 72 68 74 69 71 70 67 71 68 72 69 73 70 74 10 75
REMARK SMILES IDX 11 76 12 77 13 78 14 79 15 80 16 81 19 82 17 83 18 84 20 85
REMARK SMILES IDX 21 86 22 87 23 88 24 89 25 90 37 91 26 92 36 93 27 94 28 95
REMARK SMILES IDX 29 96 30 97 31 98 35 99 32 100 34 101 33 102
REMARK H PARENT 94 27 62 38
REMARK Flexibility Score: inf
ROOT
ATOM      1  O   UNL A   1      35.884  23.133  25.406  1.00  0.00    -0.376 OA
ENDROOT
BRANCH   1   2
ATOM      2  C   UNL A   1      35.661  21.785  25.801  1.00  0.00     0.188 C 
BRANCH   2   3
ATOM      3  C   UNL A   1      36.116  20.654  24.865  1.00  0.00     0.188 C 
BRANCH   3   4
ATOM      4  O   UNL A   1      37.497  20.660  24.531  1.00  0.00    -0.376 OA
BRANCH   4   5
ATOM      5  C   UNL A   1      38.332  19.618  25.043  1.00  0.00     0.202 C 
BRANCH   5   6
ATOM      6  C   UNL A   1      39.517  19.901  26.000  1.00  0.00     0.261 C 
BRANCH   6   7
ATOM      7  O   UNL A   1      40.705  19.112  25.818  1.00  0.00    -0.460 OA
BRANCH   7   8
ATOM      8  C   UNL A   1      42.001  19.447  26.024  1.00  0.00     0.338 C 
ATOM      9  O   UNL A   1      42.842  18.552  26.079  1.00  0.00    -0.246 OA
BRANCH   8  10
ATOM     10  C   UNL A   1      42.440  20.850  26.276  1.00  0.00     0.060 A 
ATOM     11  C   UNL A   1      42.498  21.838  25.297  1.00  0.00     0.016 A 
ATOM     12  C   UNL A   1      42.707  21.222  27.604  1.00  0.00     0.016 A 
ATOM     13  C   UNL A   1      42.943  23.123  25.590  1.00  0.00     0.010 A 
ATOM     14  C   UNL A   1      43.078  22.534  27.923  1.00  0.00     0.010 A 
ATOM     15  C   UNL A   1      43.237  23.481  26.905  1.00  0.00    -0.014 A 
BRANCH  15  16
ATOM     16  C   UNL A   1      43.775  24.833  27.171  1.00  0.00     0.031 A 
ATOM     17  C   UNL A   1      42.873  25.867  27.769  1.00  0.00     0.074 A 
ATOM     18  C   UNL A   1      45.082  25.088  26.970  1.00  0.00     0.049 A 
ATOM     19  N   UNL A   1      43.132  27.109  28.073  1.00  0.00    -0.248 NA
ATOM     20  C   UNL A   1      41.497  25.443  28.073  1.00  0.00     0.031 C 
ATOM     21  C   UNL A   1      46.048  24.115  26.464  1.00  0.00     0.029 A 
ATOM     22  N   UNL A   1      45.830  26.218  27.186  1.00  0.00    -0.354 N 
ATOM     23  C   UNL A   1      41.948  27.626  28.582  1.00  0.00     0.074 A 
ATOM     24  C   UNL A   1      40.967  26.564  28.538  1.00  0.00     0.031 C 
ATOM     25  C   UNL A   1      47.260  24.687  26.436  1.00  0.00     0.029 A 
ATOM     26  C   UNL A   1      47.160  26.071  26.862  1.00  0.00     0.049 A 
ATOM     27  H   UNL A   1      45.452  27.055  27.539  1.00  0.00     0.167 HD
ATOM     28  C   UNL A   1      41.709  28.879  29.035  1.00  0.00     0.034 A 
ATOM     29  C   UNL A   1      48.181  26.952  26.876  1.00  0.00     0.034 A 
ATOM     30  C   UNL A   1      42.706  29.918  29.050  1.00  0.00     0.049 A 
ATOM     31  C   UNL A   1      47.866  28.359  27.311  1.00  0.00     0.074 A 
ATOM     32  C   UNL A   1      42.571  31.241  29.433  1.00  0.00     0.029 A 
ATOM     33  N   UNL A   1      44.029  29.752  28.654  1.00  0.00    -0.354 N 
ATOM     34  N   UNL A   1      46.726  28.845  27.752  1.00  0.00    -0.248 NA
ATOM     35  C   UNL A   1      48.954  29.339  27.237  1.00  0.00     0.031 C 
ATOM     36  C   UNL A   1      43.792  31.886  29.207  1.00  0.00     0.029 A 
ATOM     37  C   UNL A   1      44.711  30.954  28.750  1.00  0.00     0.049 A 
ATOM     38  H   UNL A   1      44.423  28.903  28.348  1.00  0.00     0.167 HD
ATOM     39  C   UNL A   1      46.965  30.189  28.010  1.00  0.00     0.074 A 
ATOM     40  C   UNL A   1      48.366  30.424  27.718  1.00  0.00     0.031 C 
ATOM     41  C   UNL A   1      46.105  31.151  28.434  1.00  0.00     0.034 A 
BRANCH  28  42
ATOM     42  C   UNL A   1      40.295  29.195  29.444  1.00  0.00     0.023 A 
ATOM     43  C   UNL A   1      39.870  29.122  30.782  1.00  0.00     0.031 A 
ATOM     44  C   UNL A   1      39.338  29.505  28.462  1.00  0.00     0.131 A 
ATOM     45  C   UNL A   1      38.512  29.290  31.092  1.00  0.00     0.055 A 
ATOM     46  C   UNL A   1      38.002  29.742  28.785  1.00  0.00     0.041 A 
ATOM     47  F   UNL A   1      39.682  29.553  27.165  1.00  0.00    -0.206 F 
ATOM     48  C   UNL A   1      37.579  29.623  30.106  1.00  0.00     0.022 A 
BRANCH  45  49
ATOM     49  S   UNL A   1      37.954  28.941  32.783  1.00  0.00     0.124 S 
ATOM     50  O   UNL A   1      36.626  29.549  32.786  1.00  0.00    -0.237 OA
ATOM     51  O   UNL A   1      37.989  27.484  32.835  1.00  0.00    -0.237 OA
ATOM     52  O   UNL A   1      38.945  29.618  33.618  1.00  0.00    -0.744 OA
ENDBRANCH  45  49
ENDBRANCH  28  42
BRANCH  29  53
ATOM     53  C   UNL A   1      49.552  26.572  26.403  1.00  0.00     0.023 A 
ATOM     54  C   UNL A   1      50.097  27.100  25.219  1.00  0.00     0.031 A 
ATOM     55  C   UNL A   1      50.320  25.615  27.096  1.00  0.00     0.131 A 
ATOM     56  C   UNL A   1      51.335  26.633  24.741  1.00  0.00     0.055 A 
ATOM     57  C   UNL A   1      51.581  25.208  26.656  1.00  0.00     0.041 A 
ATOM     58  F   UNL A   1      49.856  25.056  28.226  1.00  0.00    -0.206 F 
ATOM     59  C   UNL A   1      52.089  25.704  25.462  1.00  0.00     0.022 A 
BRANCH  56  60
ATOM     60  S   UNL A   1      51.885  27.145  23.087  1.00  0.00     0.124 S 
ATOM     61  O   UNL A   1      51.971  28.594  23.237  1.00  0.00    -0.237 OA
ATOM     62  O   UNL A   1      53.154  26.439  22.951  1.00  0.00    -0.237 OA
ATOM     63  O   UNL A   1      50.813  26.676  22.210  1.00  0.00    -0.744 OA
ENDBRANCH  56  60
ENDBRANCH  29  53
BRANCH  41  64
ATOM     64  C   UNL A   1      46.685  32.528  28.612  1.00  0.00     0.023 A 
ATOM     65  C   UNL A   1      46.499  33.529  27.643  1.00  0.00     0.031 A 
ATOM     66  C   UNL A   1      47.452  32.833  29.748  1.00  0.00     0.131 A 
ATOM     67  C   UNL A   1      47.127  34.770  27.797  1.00  0.00     0.055 A 
ATOM     68  C   UNL A   1      48.023  34.093  29.927  1.00  0.00     0.041 A 
ATOM     69  F   UNL A   1      47.659  31.910  30.701  1.00  0.00    -0.206 F 
ATOM     70  C   UNL A   1      47.873  35.065  28.942  1.00  0.00     0.022 A 
BRANCH  67  71
ATOM     71  S   UNL A   1      47.031  35.966  26.438  1.00  0.00     0.124 S 
ATOM     72  O   UNL A   1      48.386  36.507  26.416  1.00  0.00    -0.237 OA
ATOM     73  O   UNL A   1      46.663  35.122  25.305  1.00  0.00    -0.237 OA
ATOM     74  O   UNL A   1      45.996  36.900  26.876  1.00  0.00    -0.744 OA
ENDBRANCH  67  71
ENDBRANCH  41  64
ENDBRANCH  15  16
ENDBRANCH   8  10
ENDBRANCH   7   8
ENDBRANCH   6   7
ENDBRANCH   5   6
ENDBRANCH   4   5
ENDBRANCH   3   4
ENDBRANCH   2   3
ENDBRANCH   1   2
BRANCH   1  75
ATOM     75  C   UNL A   1      34.740  23.961  25.237  1.00  0.00     0.202 C 
BRANCH  75  76
ATOM     76  C   UNL A   1      34.614  24.802  23.956  1.00  0.00     0.261 C 
BRANCH  76  77
ATOM     77  O   UNL A   1      33.884  26.023  24.098  1.00  0.00    -0.462 OA
BRANCH  77  78
ATOM     78  C   UNL A   1      33.567  26.681  22.942  1.00  0.00     0.329 C 
ATOM     79  O   UNL A   1      33.752  26.247  21.812  1.00  0.00    -0.250 OA
BRANCH  78  80
ATOM     80  C   UNL A   1      32.971  28.055  23.273  1.00  0.00     0.198 C 
ATOM     81  C   UNL A   1      33.697  28.686  24.470  1.00  0.00     0.039 C 
ATOM     82  N   UNL A   1      31.592  27.937  23.727  1.00  0.00    -0.294 N 
ATOM     83  C   UNL A   1      32.592  29.407  25.237  1.00  0.00     0.024 C 
ATOM     84  C   UNL A   1      31.394  28.492  25.048  1.00  0.00     0.124 C 
BRANCH  82  85
ATOM     85  C   UNL A   1      30.561  27.445  22.973  1.00  0.00     0.410 C 
ATOM     86  O   UNL A   1      29.703  28.154  22.465  1.00  0.00    -0.224 OA
BRANCH  85  87
ATOM     87  O   UNL A   1      30.607  26.089  22.877  1.00  0.00    -0.445 OA
BRANCH  87  88
ATOM     88  C   UNL A   1      30.213  25.375  24.058  1.00  0.00     0.270 C 
BRANCH  88  89
ATOM     89  C   UNL A   1      30.975  24.076  24.146  1.00  0.00    -0.010 A 
ATOM     90  C   UNL A   1      31.526  23.519  22.989  1.00  0.00     0.009 A 
ATOM     91  C   UNL A   1      31.022  23.345  25.338  1.00  0.00     0.009 A 
ATOM     92  C   UNL A   1      32.064  22.232  23.013  1.00  0.00     0.031 A 
ATOM     93  C   UNL A   1      31.566  22.058  25.358  1.00  0.00     0.031 A 
ATOM     94  C   UNL A   1      32.078  21.476  24.189  1.00  0.00     0.086 A 
BRANCH  94  95
ATOM     95  N   UNL A   1      32.618  20.178  24.103  1.00  0.00    -0.151 NA
ATOM     96  N   UNL A   1      32.193  19.382  24.963  1.00  0.00    -0.151 NA
BRANCH  96  97
ATOM     97  C   UNL A   1      32.802  18.115  24.831  1.00  0.00     0.086 A 
ATOM     98  C   UNL A   1      32.596  17.169  25.842  1.00  0.00     0.030 A 
ATOM     99  C   UNL A   1      33.639  17.772  23.757  1.00  0.00     0.030 A 
ATOM    100  C   UNL A   1      33.201  15.910  25.779  1.00  0.00     0.002 A 
ATOM    101  C   UNL A   1      34.240  16.515  23.687  1.00  0.00     0.002 A 
ATOM    102  C   UNL A   1      34.023  15.584  24.700  1.00  0.00     0.000 A 
ENDBRANCH  96  97
ENDBRANCH  94  95
ENDBRANCH  88  89
ENDBRANCH  87  88
ENDBRANCH  85  87
ENDBRANCH  82  85
ENDBRANCH  78  80
ENDBRANCH  77  78
ENDBRANCH  76  77
ENDBRANCH  75  76
ENDBRANCH   1  75
TORSDOF 26
ENDMDL
MODEL 3
REMARK VINA RESULT:     -10.1      1.507      7.330
REMARK SMILES O=C(OCCOCCOCCOC(=O)[C@@H]1CCCN1C(=O)OCc1ccc(/N=N/c2ccccc2)cc1)c1ccc(-c2c3nc(c(-c4cc(S(=O)(=O)[O-])ccc4F)c4ccc([nH]4)c(-c4cc(S(=O)(=O)[O-])ccc4F)c4nc(c(-c5cc(S(=O)(=O)[O-])ccc5F)c5ccc2[nH]5)C=C4)C=C3)cc1
REMARK SMILES IDX 9 1 8 2 7 3 6 4 5 5 4 6 3 7 2 8 1 9 38 10 39 11 100 12 40 13
REMARK SMILES IDX 99 14 41 15 42 16 43 17 93 18 44 19 98 20 92 21 94 22 45 23
REMARK SMILES IDX 97 24 91 25 90 26 46 28 78 29 58 30 77 31 59 32 62 33 76 34
REMARK SMILES IDX 95 35 60 36 61 37 75 39 96 40 63 41 47 42 48 43 56 44 49 45
REMARK SMILES IDX 55 46 57 47 54 48 50 49 51 50 52 51 53 52 79 53 80 54 88 55
REMARK SMILES IDX 81 56 87 57 89 58 86 59 82 60 83 61 84 62 85 63 64 64 65 65
REMARK SMILES IDX 73 66 66 67 72 68 74 69 71 70 67 71 68 72 69 73 70 74 10 75
REMARK SMILES IDX 11 76 12 77 13 78 14 79 15 80 16 81 19 82 17 83 18 84 20 85
REMARK SMILES IDX 21 86 22 87 23 88 24 89 25 90 37 91 26 92 36 93 27 94 28 95
REMARK SMILES IDX 29 96 30 97 31 98 35 99 32 100 34 101 33 102
REMARK H PARENT 94 27 62 38
REMARK Flexibility Score: inf
ROOT
ATOM      1  O   UNL A   1      36.281  23.763  25.631  1.00  0.00    -0.376 OA
ENDROOT
BRANCH   1   2
ATOM      2  C   UNL A   1      36.982  23.444  24.436  1.00  0.00     0.188 C 
BRANCH   2   3
ATOM      3  C   UNL A   1      36.945  21.997  23.920  1.00  0.00     0.188 C 
BRANCH   3   4
ATOM      4  O   UNL A   1      37.374  21.010  24.847  1.00  0.00    -0.376 OA
BRANCH   4   5
ATOM      5  C   UNL A   1      38.704  21.086  25.366  1.00  0.00     0.202 C 
BRANCH   5   6
ATOM      6  C   UNL A   1      39.322  19.958  26.230  1.00  0.00     0.261 C 
BRANCH   6   7
ATOM      7  O   UNL A   1      40.478  19.288  25.697  1.00  0.00    -0.460 OA
BRANCH   7   8
ATOM      8  C   UNL A   1      41.792  19.536  25.913  1.00  0.00     0.338 C 
ATOM      9  O   UNL A   1      42.582  18.595  25.892  1.00  0.00    -0.246 OA
BRANCH   8  10
ATOM     10  C   UNL A   1      42.309  20.890  26.265  1.00  0.00     0.060 A 
ATOM     11  C   UNL A   1      42.636  21.288  27.559  1.00  0.00     0.016 A 
ATOM     12  C   UNL A   1      42.586  21.778  25.212  1.00  0.00     0.016 A 
ATOM     13  C   UNL A   1      43.088  22.577  27.827  1.00  0.00     0.010 A 
ATOM     14  C   UNL A   1      43.117  23.048  25.464  1.00  0.00     0.010 A 
ATOM     15  C   UNL A   1      43.332  23.467  26.782  1.00  0.00    -0.014 A 
BRANCH  15  16
ATOM     16  C   UNL A   1      43.744  24.850  27.107  1.00  0.00     0.031 A 
ATOM     17  C   UNL A   1      42.764  25.758  27.782  1.00  0.00     0.074 A 
ATOM     18  C   UNL A   1      45.013  25.242  26.888  1.00  0.00     0.049 A 
ATOM     19  N   UNL A   1      42.909  27.003  28.145  1.00  0.00    -0.248 NA
ATOM     20  C   UNL A   1      41.445  25.186  28.096  1.00  0.00     0.031 C 
ATOM     21  C   UNL A   1      46.053  24.396  26.307  1.00  0.00     0.029 A 
ATOM     22  N   UNL A   1      45.654  26.428  27.146  1.00  0.00    -0.354 N 
ATOM     23  C   UNL A   1      41.697  27.374  28.710  1.00  0.00     0.074 A 
ATOM     24  C   UNL A   1      40.823  26.224  28.633  1.00  0.00     0.031 C 
ATOM     25  C   UNL A   1      47.203  25.085  26.280  1.00  0.00     0.029 A 
ATOM     26  C   UNL A   1      46.982  26.429  26.782  1.00  0.00     0.049 A 
ATOM     27  H   UNL A   1      45.207  27.205  27.552  1.00  0.00     0.167 HD
ATOM     28  C   UNL A   1      41.351  28.572  29.235  1.00  0.00     0.034 A 
ATOM     29  C   UNL A   1      47.912  27.404  26.818  1.00  0.00     0.034 A 
ATOM     30  C   UNL A   1      42.242  29.703  29.282  1.00  0.00     0.049 A 
ATOM     31  C   UNL A   1      47.475  28.749  27.336  1.00  0.00     0.074 A 
ATOM     32  C   UNL A   1      41.991  30.984  29.738  1.00  0.00     0.029 A 
ATOM     33  N   UNL A   1      43.563  29.688  28.845  1.00  0.00    -0.354 N 
ATOM     34  N   UNL A   1      46.308  29.098  27.830  1.00  0.00    -0.248 NA
ATOM     35  C   UNL A   1      48.460  29.834  27.288  1.00  0.00     0.031 C 
ATOM     36  C   UNL A   1      43.136  31.757  29.518  1.00  0.00     0.029 A 
ATOM     37  C   UNL A   1      44.127  30.945  28.989  1.00  0.00     0.049 A 
ATOM     38  H   UNL A   1      44.028  28.899  28.485  1.00  0.00     0.167 HD
ATOM     39  C   UNL A   1      46.422  30.444  28.154  1.00  0.00     0.074 A 
ATOM     40  C   UNL A   1      47.784  30.830  27.841  1.00  0.00     0.031 C 
ATOM     41  C   UNL A   1      45.486  31.294  28.649  1.00  0.00     0.034 A 
BRANCH  28  42
ATOM     42  C   UNL A   1      39.925  28.726  29.695  1.00  0.00     0.023 A 
ATOM     43  C   UNL A   1      38.918  29.221  28.850  1.00  0.00     0.031 A 
ATOM     44  C   UNL A   1      39.588  28.439  31.029  1.00  0.00     0.131 A 
ATOM     45  C   UNL A   1      37.637  29.476  29.367  1.00  0.00     0.055 A 
ATOM     46  C   UNL A   1      38.295  28.626  31.519  1.00  0.00     0.041 A 
ATOM     47  F   UNL A   1      40.521  27.996  31.888  1.00  0.00    -0.206 F 
ATOM     48  C   UNL A   1      37.313  29.159  30.689  1.00  0.00     0.022 A 
BRANCH  45  49
ATOM     49  S   UNL A   1      36.435  30.348  28.325  1.00  0.00     0.124 S 
ATOM     50  O   UNL A   1      35.172  29.791  28.804  1.00  0.00    -0.237 OA
ATOM     51  O   UNL A   1      36.681  31.746  28.657  1.00  0.00    -0.237 OA
ATOM     52  O   UNL A   1      36.808  29.954  26.967  1.00  0.00    -0.744 OA
ENDBRANCH  45  49
ENDBRANCH  28  42
BRANCH  29  53
ATOM     53  C   UNL A   1      49.299  27.186  26.292  1.00  0.00     0.023 A 
ATOM     54  C   UNL A   1      50.370  26.867  27.145  1.00  0.00     0.031 A 
ATOM     55  C   UNL A   1      49.593  27.362  24.925  1.00  0.00     0.131 A 
ATOM     56  C   UNL A   1      51.680  26.787  26.636  1.00  0.00     0.055 A 
ATOM     57  C   UNL A   1      50.883  27.210  24.412  1.00  0.00     0.041 A 
ATOM     58  F   UNL A   1      48.622  27.685  24.054  1.00  0.00    -0.206 F 
ATOM     59  C   UNL A   1      51.940  26.938  25.272  1.00  0.00     0.022 A 
BRANCH  56  60
ATOM     60  S   UNL A   1      53.064  26.627  27.802  1.00  0.00     0.124 S 
ATOM     61  O   UNL A   1      52.376  26.246  29.031  1.00  0.00    -0.237 OA
ATOM     62  O   UNL A   1      53.877  25.590  27.176  1.00  0.00    -0.237 OA
ATOM     63  O   UNL A   1      53.657  27.964  27.813  1.00  0.00    -0.744 OA
ENDBRANCH  56  60
ENDBRANCH  29  53
BRANCH  41  64
ATOM     64  C   UNL A   1      45.934  32.711  28.887  1.00  0.00     0.023 A 
ATOM     65  C   UNL A   1      45.748  33.707  27.914  1.00  0.00     0.031 A 
ATOM     66  C   UNL A   1      46.578  33.060  30.086  1.00  0.00     0.131 A 
ATOM     67  C   UNL A   1      46.257  34.993  28.131  1.00  0.00     0.055 A 
ATOM     68  C   UNL A   1      47.026  34.358  30.322  1.00  0.00     0.041 A 
ATOM     69  F   UNL A   1      46.780  32.142  31.045  1.00  0.00    -0.206 F 
ATOM     70  C   UNL A   1      46.880  35.330  29.336  1.00  0.00     0.022 A 
BRANCH  67  71
ATOM     71  S   UNL A   1      46.176  36.198  26.778  1.00  0.00     0.124 S 
ATOM     72  O   UNL A   1      46.425  35.358  25.611  1.00  0.00    -0.237 OA
ATOM     73  O   UNL A   1      44.820  36.723  26.908  1.00  0.00    -0.237 OA
ATOM     74  O   UNL A   1      47.240  37.146  27.100  1.00  0.00    -0.744 OA
ENDBRANCH  67  71
ENDBRANCH  41  64
ENDBRANCH  15  16
ENDBRANCH   8  10
ENDBRANCH   7   8
ENDBRANCH   6   7
ENDBRANCH   5   6
ENDBRANCH   4   5
ENDBRANCH   3   4
ENDBRANCH   2   3
ENDBRANCH   1   2
BRANCH   1  75
ATOM     75  C   UNL A   1      34.942  24.226  25.499  1.00  0.00     0.202 C 
BRANCH  75  76
ATOM     76  C   UNL A   1      34.468  24.750  24.133  1.00  0.00     0.261 C 
BRANCH  76  77
ATOM     77  O   UNL A   1      33.811  26.019  24.162  1.00  0.00    -0.462 OA
BRANCH  77  78
ATOM     78  C   UNL A   1      33.672  26.660  22.962  1.00  0.00     0.329 C 
ATOM     79  O   UNL A   1      33.947  26.178  21.871  1.00  0.00    -0.250 OA
BRANCH  78  80
ATOM     80  C   UNL A   1      33.145  28.083  23.191  1.00  0.00     0.198 C 
ATOM     81  C   UNL A   1      33.771  28.695  24.453  1.00  0.00     0.039 C 
ATOM     82  N   UNL A   1      31.717  28.077  23.480  1.00  0.00    -0.294 N 
ATOM     83  C   UNL A   1      32.640  29.515  25.067  1.00  0.00     0.024 C 
ATOM     84  C   UNL A   1      31.408  28.684  24.756  1.00  0.00     0.124 C 
BRANCH  82  85
ATOM     85  C   UNL A   1      30.749  27.639  22.618  1.00  0.00     0.410 C 
ATOM     86  O   UNL A   1      30.036  28.393  21.970  1.00  0.00    -0.224 OA
BRANCH  85  87
ATOM     87  O   UNL A   1      30.674  26.281  22.589  1.00  0.00    -0.445 OA
BRANCH  87  88
ATOM     88  C   UNL A   1      30.238  25.663  23.809  1.00  0.00     0.270 C 
BRANCH  88  89
ATOM     89  C   UNL A   1      30.924  24.330  23.977  1.00  0.00    -0.010 A 
ATOM     90  C   UNL A   1      31.452  23.678  22.859  1.00  0.00     0.009 A 
ATOM     91  C   UNL A   1      30.918  23.664  25.208  1.00  0.00     0.009 A 
ATOM     92  C   UNL A   1      31.915  22.367  22.960  1.00  0.00     0.031 A 
ATOM     93  C   UNL A   1      31.387  22.351  25.305  1.00  0.00     0.031 A 
ATOM     94  C   UNL A   1      31.875  21.677  24.175  1.00  0.00     0.086 A 
BRANCH  94  95
ATOM     95  N   UNL A   1      32.340  20.348  24.167  1.00  0.00    -0.151 NA
ATOM     96  N   UNL A   1      32.606  19.884  25.294  1.00  0.00    -0.151 NA
BRANCH  96  97
ATOM     97  C   UNL A   1      33.093  18.563  25.201  1.00  0.00     0.086 A 
ATOM     98  C   UNL A   1      34.260  18.333  24.464  1.00  0.00     0.030 A 
ATOM     99  C   UNL A   1      32.439  17.460  25.775  1.00  0.00     0.030 A 
ATOM    100  C   UNL A   1      34.769  17.039  24.312  1.00  0.00     0.002 A 
ATOM    101  C   UNL A   1      32.945  16.168  25.630  1.00  0.00     0.002 A 
ATOM    102  C   UNL A   1      34.110  15.958  24.896  1.00  0.00     0.000 A 
ENDBRANCH  96  97
ENDBRANCH  94  95
ENDBRANCH  88  89
ENDBRANCH  87  88
ENDBRANCH  85  87
ENDBRANCH  82  85
ENDBRANCH  78  80
ENDBRANCH  77  78
ENDBRANCH  76  77
ENDBRANCH  75  76
ENDBRANCH   1  75
TORSDOF 26
ENDMDL
