MODEL 1
REMARK VINA RESULT:     -10.5      0.000      0.000
REMARK SMILES C[C@@H](C(=O)OCCOCCOCCOC(=O)c1ccc(-c2c3nc(c(-c4cc(S(=O)(=O)[O-])ccc4F)c4ccc([nH]4)c(-c4cc(S(=O)(=O)[O-])ccc4F)c4nc(c(-c5cc(S(=O)(=O)[O-])ccc5F)c5ccc2[nH]5)C=C4)C=C3)cc1)c1ccc(-c2cccc(OC(=O)Nc3ccccc3)c2)c(F)c1
REMARK SMILES IDX 9 1 8 2 7 3 6 4 5 5 3 6 4 7 2 8 1 9 80 10 81 11 102 12 82 13
REMARK SMILES IDX 100 14 83 15 101 16 84 17 85 18 99 19 86 20 88 21 87 22
REMARK SMILES IDX 89 23 90 24 91 25 92 26 93 28 94 29 98 30 95 31 97 32 96 33
REMARK SMILES IDX 10 34 11 35 12 36 13 37 14 38 15 39 16 40 17 41 18 42 79 43
REMARK SMILES IDX 19 44 78 45 20 46 21 47 22 48 72 49 23 50 77 51 71 52 73 53
REMARK SMILES IDX 24 54 76 55 70 56 69 57 25 59 57 60 37 61 56 62 38 63 41 64
REMARK SMILES IDX 55 65 74 66 39 67 40 68 54 70 75 71 42 72 26 73 27 74 35 75
REMARK SMILES IDX 28 76 34 77 36 78 33 79 29 80 30 81 31 82 32 83 58 84 59 85
REMARK SMILES IDX 67 86 60 87 66 88 68 89 65 90 61 91 62 92 63 93 64 94 43 95
REMARK SMILES IDX 44 96 52 97 45 98 51 99 53 100 50 101 46 102 47 103 48 104
REMARK SMILES IDX 49 105
REMARK H PARENT 92 27 73 58 41 69
REMARK Flexibility Score: inf
ROOT
ATOM      1  C   UNL A   1      32.311  29.098  25.190  1.00  0.00     0.188 C 
ENDROOT
BRANCH   1   2
ATOM      2  O   UNL A   1      32.901  27.864  24.791  1.00  0.00    -0.376 OA
BRANCH   2   3
ATOM      3  C   UNL A   1      32.052  26.808  24.352  1.00  0.00     0.202 C 
BRANCH   3   4
ATOM      4  C   UNL A   1      32.500  25.936  23.166  1.00  0.00     0.261 C 
BRANCH   4   5
ATOM      5  O   UNL A   1      31.523  24.968  22.726  1.00  0.00    -0.463 OA
BRANCH   5   6
ATOM      6  C   UNL A   1      31.543  23.750  23.335  1.00  0.00     0.313 C 
ATOM      7  O   UNL A   1      30.818  23.455  24.279  1.00  0.00    -0.252 OA
BRANCH   6   8
ATOM      8  C   UNL A   1      32.538  22.750  22.716  1.00  0.00     0.126 C 
ATOM      9  C   UNL A   1      31.930  21.391  22.323  1.00  0.00     0.025 C 
BRANCH   8  10
ATOM     10  C   UNL A   1      33.887  22.613  23.443  1.00  0.00    -0.031 A 
ATOM     11  C   UNL A   1      35.047  23.185  22.888  1.00  0.00     0.005 A 
ATOM     12  C   UNL A   1      34.024  22.014  24.704  1.00  0.00     0.044 A 
ATOM     13  C   UNL A   1      36.279  23.173  23.570  1.00  0.00     0.012 A 
ATOM     14  C   UNL A   1      35.258  21.996  25.375  1.00  0.00     0.131 A 
ATOM     15  C   UNL A   1      36.407  22.588  24.837  1.00  0.00     0.018 A 
ATOM     16  F   UNL A   1      35.293  21.434  26.592  1.00  0.00    -0.206 F 
BRANCH  15  17
ATOM     17  C   UNL A   1      37.658  22.721  25.608  1.00  0.00    -0.012 A 
ATOM     18  C   UNL A   1      37.820  23.824  26.469  1.00  0.00     0.009 A 
ATOM     19  C   UNL A   1      38.679  21.754  25.580  1.00  0.00     0.056 A 
ATOM     20  C   UNL A   1      38.948  23.953  27.287  1.00  0.00     0.004 A 
ATOM     21  C   UNL A   1      39.793  21.880  26.420  1.00  0.00     0.133 A 
ATOM     22  C   UNL A   1      39.934  22.972  27.272  1.00  0.00     0.047 A 
BRANCH  21  23
ATOM     23  O   UNL A   1      40.639  20.758  26.690  1.00  0.00    -0.410 OA
BRANCH  23  24
ATOM     24  C   UNL A   1      42.008  20.645  26.459  1.00  0.00     0.417 C 
ATOM     25  O   UNL A   1      42.373  19.841  25.589  1.00  0.00    -0.224 OA
ATOM     26  N   UNL A   1      43.032  21.429  27.149  1.00  0.00    -0.291 N 
ATOM     27  H   UNL A   1      43.847  20.968  26.845  1.00  0.00     0.173 HD
BRANCH  26  28
ATOM     28  C   UNL A   1      43.625  22.482  28.020  1.00  0.00     0.044 A 
ATOM     29  C   UNL A   1      44.675  23.231  27.448  1.00  0.00     0.026 A 
ATOM     30  C   UNL A   1      43.293  22.907  29.299  1.00  0.00     0.026 A 
ATOM     31  C   UNL A   1      45.071  24.492  27.908  1.00  0.00     0.002 A 
ATOM     32  C   UNL A   1      43.659  24.179  29.783  1.00  0.00     0.002 A 
ATOM     33  C   UNL A   1      44.493  25.006  29.048  1.00  0.00     0.000 A 
ENDBRANCH  26  28
ENDBRANCH  23  24
ENDBRANCH  21  23
ENDBRANCH  15  17
ENDBRANCH   8  10
ENDBRANCH   6   8
ENDBRANCH   5   6
ENDBRANCH   4   5
ENDBRANCH   3   4
ENDBRANCH   2   3
ENDBRANCH   1   2
BRANCH   1  34
ATOM     34  C   UNL A   1      32.684  29.687  26.561  1.00  0.00     0.188 C 
BRANCH  34  35
ATOM     35  O   UNL A   1      33.321  30.943  26.490  1.00  0.00    -0.376 OA
BRANCH  35  36
ATOM     36  C   UNL A   1      33.277  31.789  27.623  1.00  0.00     0.202 C 
BRANCH  36  37
ATOM     37  C   UNL A   1      32.848  33.260  27.488  1.00  0.00     0.261 C 
BRANCH  37  38
ATOM     38  O   UNL A   1      32.740  34.035  28.690  1.00  0.00    -0.460 OA
BRANCH  38  39
ATOM     39  C   UNL A   1      33.744  34.899  28.972  1.00  0.00     0.338 C 
ATOM     40  O   UNL A   1      33.711  36.113  28.860  1.00  0.00    -0.246 OA
BRANCH  39  41
ATOM     41  C   UNL A   1      34.807  34.120  29.650  1.00  0.00     0.060 A 
ATOM     42  C   UNL A   1      34.459  33.172  30.621  1.00  0.00     0.016 A 
ATOM     43  C   UNL A   1      36.147  34.301  29.294  1.00  0.00     0.016 A 
ATOM     44  C   UNL A   1      35.454  32.412  31.244  1.00  0.00     0.010 A 
ATOM     45  C   UNL A   1      37.142  33.555  29.934  1.00  0.00     0.010 A 
ATOM     46  C   UNL A   1      36.806  32.618  30.924  1.00  0.00    -0.014 A 
BRANCH  46  47
ATOM     47  C   UNL A   1      37.882  32.016  31.764  1.00  0.00     0.031 A 
ATOM     48  C   UNL A   1      38.797  31.012  30.945  1.00  0.00     0.074 A 
ATOM     49  C   UNL A   1      38.030  32.461  33.064  1.00  0.00     0.049 A 
ATOM     50  N   UNL A   1      39.921  30.457  31.293  1.00  0.00    -0.248 NA
ATOM     51  C   UNL A   1      38.488  30.625  29.554  1.00  0.00     0.031 C 
ATOM     52  C   UNL A   1      37.350  33.588  33.726  1.00  0.00     0.029 A 
ATOM     53  N   UNL A   1      38.903  32.101  34.074  1.00  0.00    -0.354 N 
ATOM     54  C   UNL A   1      40.547  29.795  30.256  1.00  0.00     0.074 A 
ATOM     55  C   UNL A   1      39.544  29.873  29.199  1.00  0.00     0.031 C 
ATOM     56  C   UNL A   1      37.976  33.889  34.900  1.00  0.00     0.029 A 
ATOM     57  C   UNL A   1      39.118  32.980  35.138  1.00  0.00     0.049 A 
ATOM     58  H   UNL A   1      39.368  31.234  34.042  1.00  0.00     0.167 HD
ATOM     59  C   UNL A   1      41.790  29.181  30.272  1.00  0.00     0.034 A 
ATOM     60  C   UNL A   1      40.150  33.122  36.073  1.00  0.00     0.034 A 
ATOM     61  C   UNL A   1      42.840  29.126  31.375  1.00  0.00     0.049 A 
ATOM     62  C   UNL A   1      41.625  32.366  36.082  1.00  0.00     0.074 A 
ATOM     63  C   UNL A   1      43.745  28.105  31.666  1.00  0.00     0.029 A 
ATOM     64  N   UNL A   1      43.236  30.111  32.329  1.00  0.00    -0.354 N 
ATOM     65  N   UNL A   1      42.335  31.880  35.081  1.00  0.00    -0.248 NA
ATOM     66  C   UNL A   1      42.350  32.138  37.345  1.00  0.00     0.031 C 
ATOM     67  C   UNL A   1      44.333  28.339  32.939  1.00  0.00     0.029 A 
ATOM     68  C   UNL A   1      43.882  29.552  33.459  1.00  0.00     0.049 A 
ATOM     69  H   UNL A   1      43.077  31.075  32.214  1.00  0.00     0.167 HD
ATOM     70  C   UNL A   1      43.384  31.104  35.524  1.00  0.00     0.074 A 
ATOM     71  C   UNL A   1      43.432  31.451  36.946  1.00  0.00     0.031 C 
ATOM     72  C   UNL A   1      44.076  30.104  34.861  1.00  0.00     0.034 A 
BRANCH  59  73
ATOM     73  C   UNL A   1      41.894  28.143  29.180  1.00  0.00     0.023 A 
ATOM     74  C   UNL A   1      42.741  28.285  28.074  1.00  0.00     0.031 A 
ATOM     75  C   UNL A   1      41.016  27.036  29.205  1.00  0.00     0.131 A 
ATOM     76  C   UNL A   1      42.661  27.358  27.021  1.00  0.00     0.055 A 
ATOM     77  C   UNL A   1      40.997  26.078  28.193  1.00  0.00     0.041 A 
ATOM     78  F   UNL A   1      40.137  26.886  30.209  1.00  0.00    -0.206 F 
ATOM     79  C   UNL A   1      41.818  26.243  27.085  1.00  0.00     0.022 A 
BRANCH  76  80
ATOM     80  S   UNL A   1      43.567  27.708  25.491  1.00  0.00     0.124 S 
ATOM     81  O   UNL A   1      44.017  26.373  25.106  1.00  0.00    -0.237 OA
ATOM     82  O   UNL A   1      42.539  28.306  24.647  1.00  0.00    -0.237 OA
ATOM     83  O   UNL A   1      44.629  28.617  25.920  1.00  0.00    -0.744 OA
ENDBRANCH  76  80
ENDBRANCH  59  73
BRANCH  60  84
ATOM     84  C   UNL A   1      39.964  34.085  37.218  1.00  0.00     0.023 A 
ATOM     85  C   UNL A   1      39.534  33.644  38.483  1.00  0.00     0.031 A 
ATOM     86  C   UNL A   1      40.068  35.477  37.025  1.00  0.00     0.131 A 
ATOM     87  C   UNL A   1      39.179  34.574  39.476  1.00  0.00     0.055 A 
ATOM     88  C   UNL A   1      39.793  36.394  38.040  1.00  0.00     0.041 A 
ATOM     89  F   UNL A   1      40.410  35.979  35.828  1.00  0.00    -0.206 F 
ATOM     90  C   UNL A   1      39.328  35.946  39.270  1.00  0.00     0.022 A 
BRANCH  87  91
ATOM     91  S   UNL A   1      38.389  33.972  40.996  1.00  0.00     0.124 S 
ATOM     92  O   UNL A   1      39.209  32.809  41.315  1.00  0.00    -0.237 OA
ATOM     93  O   UNL A   1      38.522  35.117  41.890  1.00  0.00    -0.237 OA
ATOM     94  O   UNL A   1      37.022  33.671  40.572  1.00  0.00    -0.744 OA
ENDBRANCH  87  91
ENDBRANCH  60  84
BRANCH  72  95
ATOM     95  C   UNL A   1      45.047  29.317  35.745  1.00  0.00     0.023 A 
ATOM     96  C   UNL A   1      44.676  28.122  36.400  1.00  0.00     0.031 A 
ATOM     97  C   UNL A   1      46.380  29.736  35.885  1.00  0.00     0.131 A 
ATOM     98  C   UNL A   1      45.594  27.436  37.216  1.00  0.00     0.055 A 
ATOM     99  C   UNL A   1      47.309  29.017  36.646  1.00  0.00     0.041 A 
ATOM    100  F   UNL A   1      46.814  30.847  35.268  1.00  0.00    -0.206 F 
ATOM    101  C   UNL A   1      46.914  27.872  37.332  1.00  0.00     0.022 A 
BRANCH  98 102
ATOM    102  S   UNL A   1      45.020  26.025  38.209  1.00  0.00     0.124 S 
ATOM    103  O   UNL A   1      44.333  25.203  37.219  1.00  0.00    -0.237 OA
ATOM    104  O   UNL A   1      46.271  25.481  38.729  1.00  0.00    -0.237 OA
ATOM    105  O   UNL A   1      44.150  26.643  39.209  1.00  0.00    -0.744 OA
ENDBRANCH  98 102
ENDBRANCH  72  95
ENDBRANCH  46  47
ENDBRANCH  39  41
ENDBRANCH  38  39
ENDBRANCH  37  38
ENDBRANCH  36  37
ENDBRANCH  35  36
ENDBRANCH  34  35
ENDBRANCH   1  34
TORSDOF 25
ENDMDL
MODEL 2
REMARK VINA RESULT:     -10.2      4.194      7.782
REMARK SMILES C[C@@H](C(=O)OCCOCCOCCOC(=O)c1ccc(-c2c3nc(c(-c4cc(S(=O)(=O)[O-])ccc4F)c4ccc([nH]4)c(-c4cc(S(=O)(=O)[O-])ccc4F)c4nc(c(-c5cc(S(=O)(=O)[O-])ccc5F)c5ccc2[nH]5)C=C4)C=C3)cc1)c1ccc(-c2cccc(OC(=O)Nc3ccccc3)c2)c(F)c1
REMARK SMILES IDX 9 1 8 2 7 3 6 4 5 5 3 6 4 7 2 8 1 9 80 10 81 11 102 12 82 13
REMARK SMILES IDX 100 14 83 15 101 16 84 17 85 18 99 19 86 20 88 21 87 22
REMARK SMILES IDX 89 23 90 24 91 25 92 26 93 28 94 29 98 30 95 31 97 32 96 33
REMARK SMILES IDX 10 34 11 35 12 36 13 37 14 38 15 39 16 40 17 41 18 42 79 43
REMARK SMILES IDX 19 44 78 45 20 46 21 47 22 48 72 49 23 50 77 51 71 52 73 53
REMARK SMILES IDX 24 54 76 55 70 56 69 57 25 59 57 60 37 61 56 62 38 63 41 64
REMARK SMILES IDX 55 65 74 66 39 67 40 68 54 70 75 71 42 72 26 73 27 74 35 75
REMARK SMILES IDX 28 76 34 77 36 78 33 79 29 80 30 81 31 82 32 83 58 84 59 85
REMARK SMILES IDX 67 86 60 87 66 88 68 89 65 90 61 91 62 92 63 93 64 94 43 95
REMARK SMILES IDX 44 96 52 97 45 98 51 99 53 100 50 101 46 102 47 103 48 104
REMARK SMILES IDX 49 105
REMARK H PARENT 92 27 73 58 41 69
REMARK Flexibility Score: inf
ROOT
ATOM      1  C   UNL A   1      39.477  26.590  27.921  1.00  0.00     0.188 C 
ENDROOT
BRANCH   1   2
ATOM      2  O   UNL A   1      40.413  25.820  28.670  1.00  0.00    -0.376 OA
BRANCH   2   3
ATOM      3  C   UNL A   1      41.475  25.169  27.978  1.00  0.00     0.202 C 
BRANCH   3   4
ATOM      4  C   UNL A   1      41.785  23.697  28.304  1.00  0.00     0.261 C 
BRANCH   4   5
ATOM      5  O   UNL A   1      42.578  23.014  27.309  1.00  0.00    -0.463 OA
BRANCH   5   6
ATOM      6  C   UNL A   1      41.904  22.298  26.368  1.00  0.00     0.313 C 
ATOM      7  O   UNL A   1      42.285  22.182  25.207  1.00  0.00    -0.252 OA
BRANCH   6   8
ATOM      8  C   UNL A   1      40.629  21.609  26.890  1.00  0.00     0.126 C 
ATOM      9  C   UNL A   1      40.746  20.085  27.076  1.00  0.00     0.025 C 
BRANCH   8  10
ATOM     10  C   UNL A   1      39.316  22.028  26.207  1.00  0.00    -0.031 A 
ATOM     11  C   UNL A   1      38.626  21.114  25.389  1.00  0.00     0.005 A 
ATOM     12  C   UNL A   1      38.697  23.267  26.423  1.00  0.00     0.044 A 
ATOM     13  C   UNL A   1      37.371  21.420  24.829  1.00  0.00     0.012 A 
ATOM     14  C   UNL A   1      37.449  23.571  25.855  1.00  0.00     0.131 A 
ATOM     15  C   UNL A   1      36.749  22.654  25.062  1.00  0.00     0.018 A 
ATOM     16  F   UNL A   1      36.913  24.766  26.141  1.00  0.00    -0.206 F 
BRANCH  15  17
ATOM     17  C   UNL A   1      35.368  22.903  24.604  1.00  0.00    -0.012 A 
ATOM     18  C   UNL A   1      35.108  22.987  23.222  1.00  0.00     0.009 A 
ATOM     19  C   UNL A   1      34.274  22.989  25.485  1.00  0.00     0.056 A 
ATOM     20  C   UNL A   1      33.806  23.135  22.731  1.00  0.00     0.004 A 
ATOM     21  C   UNL A   1      32.973  23.113  24.982  1.00  0.00     0.133 A 
ATOM     22  C   UNL A   1      32.732  23.188  23.613  1.00  0.00     0.047 A 
BRANCH  21  23
ATOM     23  O   UNL A   1      31.838  22.827  25.806  1.00  0.00    -0.410 OA
BRANCH  23  24
ATOM     24  C   UNL A   1      31.190  23.683  26.694  1.00  0.00     0.417 C 
ATOM     25  O   UNL A   1      30.364  23.178  27.468  1.00  0.00    -0.224 OA
ATOM     26  N   UNL A   1      31.442  25.119  26.794  1.00  0.00    -0.291 N 
ATOM     27  H   UNL A   1      30.709  25.390  27.391  1.00  0.00     0.173 HD
BRANCH  26  28
ATOM     28  C   UNL A   1      32.105  26.434  26.564  1.00  0.00     0.044 A 
ATOM     29  C   UNL A   1      31.323  27.573  26.853  1.00  0.00     0.026 A 
ATOM     30  C   UNL A   1      33.393  26.753  26.160  1.00  0.00     0.026 A 
ATOM     31  C   UNL A   1      31.858  28.840  27.106  1.00  0.00     0.002 A 
ATOM     32  C   UNL A   1      33.968  28.013  26.419  1.00  0.00     0.002 A 
ATOM     33  C   UNL A   1      33.214  29.040  26.965  1.00  0.00     0.000 A 
ENDBRANCH  26  28
ENDBRANCH  23  24
ENDBRANCH  21  23
ENDBRANCH  15  17
ENDBRANCH   8  10
ENDBRANCH   6   8
ENDBRANCH   5   6
ENDBRANCH   4   5
ENDBRANCH   3   4
ENDBRANCH   2   3
ENDBRANCH   1   2
BRANCH   1  34
ATOM     34  C   UNL A   1      39.236  28.055  28.321  1.00  0.00     0.188 C 
BRANCH  34  35
ATOM     35  O   UNL A   1      37.874  28.417  28.371  1.00  0.00    -0.376 OA
BRANCH  35  36
ATOM     36  C   UNL A   1      37.536  29.789  28.310  1.00  0.00     0.202 C 
BRANCH  36  37
ATOM     37  C   UNL A   1      38.341  30.832  29.104  1.00  0.00     0.261 C 
BRANCH  37  38
ATOM     38  O   UNL A   1      37.775  31.317  30.330  1.00  0.00    -0.460 OA
BRANCH  38  39
ATOM     39  C   UNL A   1      37.377  30.400  31.243  1.00  0.00     0.338 C 
ATOM     40  O   UNL A   1      36.230  30.054  31.473  1.00  0.00    -0.246 OA
BRANCH  39  41
ATOM     41  C   UNL A   1      38.601  29.735  31.751  1.00  0.00     0.060 A 
ATOM     42  C   UNL A   1      39.728  30.505  32.066  1.00  0.00     0.016 A 
ATOM     43  C   UNL A   1      38.617  28.352  31.953  1.00  0.00     0.016 A 
ATOM     44  C   UNL A   1      40.876  29.889  32.574  1.00  0.00     0.010 A 
ATOM     45  C   UNL A   1      39.773  27.736  32.440  1.00  0.00     0.010 A 
ATOM     46  C   UNL A   1      40.916  28.495  32.739  1.00  0.00    -0.014 A 
BRANCH  46  47
ATOM     47  C   UNL A   1      42.208  27.803  33.018  1.00  0.00     0.031 A 
ATOM     48  C   UNL A   1      43.060  27.561  31.701  1.00  0.00     0.074 A 
ATOM     49  C   UNL A   1      42.557  27.564  34.333  1.00  0.00     0.049 A 
ATOM     50  N   UNL A   1      44.293  27.162  31.584  1.00  0.00    -0.248 NA
ATOM     51  C   UNL A   1      42.529  27.859  30.356  1.00  0.00     0.031 C 
ATOM     52  C   UNL A   1      41.886  28.038  35.556  1.00  0.00     0.029 A 
ATOM     53  N   UNL A   1      43.654  26.948  34.904  1.00  0.00    -0.354 N 
ATOM     54  C   UNL A   1      44.776  27.255  30.294  1.00  0.00     0.074 A 
ATOM     55  C   UNL A   1      43.578  27.630  29.550  1.00  0.00     0.031 C 
ATOM     56  C   UNL A   1      42.692  27.843  36.639  1.00  0.00     0.029 A 
ATOM     57  C   UNL A   1      43.966  27.205  36.241  1.00  0.00     0.049 A 
ATOM     58  H   UNL A   1      44.211  26.334  34.372  1.00  0.00     0.167 HD
ATOM     59  C   UNL A   1      46.065  26.996  29.854  1.00  0.00     0.034 A 
ATOM     60  C   UNL A   1      45.139  27.082  36.996  1.00  0.00     0.034 A 
ATOM     61  C   UNL A   1      47.314  26.628  30.644  1.00  0.00     0.049 A 
ATOM     62  C   UNL A   1      46.670  26.758  36.450  1.00  0.00     0.074 A 
ATOM     63  C   UNL A   1      48.382  25.819  30.258  1.00  0.00     0.029 A 
ATOM     64  N   UNL A   1      47.765  27.068  31.925  1.00  0.00    -0.354 N 
ATOM     65  N   UNL A   1      47.219  26.998  35.273  1.00  0.00    -0.248 NA
ATOM     66  C   UNL A   1      47.658  26.095  37.319  1.00  0.00     0.031 C 
ATOM     67  C   UNL A   1      49.181  25.510  31.393  1.00  0.00     0.029 A 
ATOM     68  C   UNL A   1      48.692  26.175  32.517  1.00  0.00     0.049 A 
ATOM     69  H   UNL A   1      47.463  27.902  32.351  1.00  0.00     0.167 HD
ATOM     70  C   UNL A   1      48.426  26.350  35.129  1.00  0.00     0.074 A 
ATOM     71  C   UNL A   1      48.716  25.946  36.506  1.00  0.00     0.031 C 
ATOM     72  C   UNL A   1      49.093  25.986  33.970  1.00  0.00     0.034 A 
BRANCH  59  73
ATOM     73  C   UNL A   1      46.078  26.687  28.375  1.00  0.00     0.023 A 
ATOM     74  C   UNL A   1      46.637  27.549  27.424  1.00  0.00     0.031 A 
ATOM     75  C   UNL A   1      45.394  25.541  27.912  1.00  0.00     0.131 A 
ATOM     76  C   UNL A   1      46.466  27.270  26.057  1.00  0.00     0.055 A 
ATOM     77  C   UNL A   1      45.294  25.231  26.557  1.00  0.00     0.041 A 
ATOM     78  F   UNL A   1      44.782  24.715  28.777  1.00  0.00    -0.206 F 
ATOM     79  C   UNL A   1      45.825  26.106  25.618  1.00  0.00     0.022 A 
BRANCH  76  80
ATOM     80  S   UNL A   1      46.961  28.528  24.850  1.00  0.00     0.124 S 
ATOM     81  O   UNL A   1      48.417  28.425  24.902  1.00  0.00    -0.237 OA
ATOM     82  O   UNL A   1      46.328  28.054  23.625  1.00  0.00    -0.237 OA
ATOM     83  O   UNL A   1      46.411  29.767  25.398  1.00  0.00    -0.744 OA
ENDBRANCH  76  80
ENDBRANCH  59  73
BRANCH  60  84
ATOM     84  C   UNL A   1      45.066  27.284  38.487  1.00  0.00     0.023 A 
ATOM     85  C   UNL A   1      45.518  28.473  39.088  1.00  0.00     0.031 A 
ATOM     86  C   UNL A   1      44.681  26.237  39.348  1.00  0.00     0.131 A 
ATOM     87  C   UNL A   1      45.624  28.566  40.488  1.00  0.00     0.055 A 
ATOM     88  C   UNL A   1      44.710  26.363  40.738  1.00  0.00     0.041 A 
ATOM     89  F   UNL A   1      44.298  25.049  38.853  1.00  0.00    -0.206 F 
ATOM     90  C   UNL A   1      45.200  27.527  41.316  1.00  0.00     0.022 A 
BRANCH  87  91
ATOM     91  S   UNL A   1      46.450  30.014  41.208  1.00  0.00     0.124 S 
ATOM     92  O   UNL A   1      47.601  29.401  41.863  1.00  0.00    -0.237 OA
ATOM     93  O   UNL A   1      46.737  30.826  40.030  1.00  0.00    -0.237 OA
ATOM     94  O   UNL A   1      45.442  30.565  42.112  1.00  0.00    -0.744 OA
ENDBRANCH  87  91
ENDBRANCH  60  84
BRANCH  72  95
ATOM     95  C   UNL A   1      50.315  25.093  34.200  1.00  0.00     0.023 A 
ATOM     96  C   UNL A   1      50.250  23.685  34.121  1.00  0.00     0.031 A 
ATOM     97  C   UNL A   1      51.576  25.663  34.441  1.00  0.00     0.131 A 
ATOM     98  C   UNL A   1      51.393  22.899  34.353  1.00  0.00     0.055 A 
ATOM     99  C   UNL A   1      52.725  24.881  34.610  1.00  0.00     0.041 A 
ATOM    100  F   UNL A   1      51.722  26.997  34.501  1.00  0.00    -0.206 F 
ATOM    101  C   UNL A   1      52.635  23.492  34.585  1.00  0.00     0.022 A 
BRANCH  98 102
ATOM    102  S   UNL A   1      51.225  21.091  34.454  1.00  0.00     0.124 S 
ATOM    103  O   UNL A   1      52.401  20.709  35.229  1.00  0.00    -0.237 OA
ATOM    104  O   UNL A   1      49.940  20.935  35.128  1.00  0.00    -0.237 OA
ATOM    105  O   UNL A   1      51.246  20.668  33.054  1.00  0.00    -0.744 OA
ENDBRANCH  98 102
ENDBRANCH  72  95
ENDBRANCH  46  47
ENDBRANCH  39  41
ENDBRANCH  38  39
ENDBRANCH  37  38
ENDBRANCH  36  37
ENDBRANCH  35  36
ENDBRANCH  34  35
ENDBRANCH   1  34
TORSDOF 25
ENDMDL
MODEL 3
REMARK VINA RESULT:     -10.1      1.941      3.507
REMARK SMILES C[C@@H](C(=O)OCCOCCOCCOC(=O)c1ccc(-c2c3nc(c(-c4cc(S(=O)(=O)[O-])ccc4F)c4ccc([nH]4)c(-c4cc(S(=O)(=O)[O-])ccc4F)c4nc(c(-c5cc(S(=O)(=O)[O-])ccc5F)c5ccc2[nH]5)C=C4)C=C3)cc1)c1ccc(-c2cccc(OC(=O)Nc3ccccc3)c2)c(F)c1
REMARK SMILES IDX 9 1 8 2 7 3 6 4 5 5 3 6 4 7 2 8 1 9 80 10 81 11 102 12 82 13
REMARK SMILES IDX 100 14 83 15 101 16 84 17 85 18 99 19 86 20 88 21 87 22
REMARK SMILES IDX 89 23 90 24 91 25 92 26 93 28 94 29 98 30 95 31 97 32 96 33
REMARK SMILES IDX 10 34 11 35 12 36 13 37 14 38 15 39 16 40 17 41 18 42 79 43
REMARK SMILES IDX 19 44 78 45 20 46 21 47 22 48 72 49 23 50 77 51 71 52 73 53
REMARK SMILES IDX 24 54 76 55 70 56 69 57 25 59 57 60 37 61 56 62 38 63 41 64
REMARK SMILES IDX 55 65 74 66 39 67 40 68 54 70 75 71 42 72 26 73 27 74 35 75
REMARK SMILES IDX 28 76 34 77 36 78 33 79 29 80 30 81 31 82 32 83 58 84 59 85
REMARK SMILES IDX 67 86 60 87 66 88 68 89 65 90 61 91 62 92 63 93 64 94 43 95
REMARK SMILES IDX 44 96 52 97 45 98 51 99 53 100 50 101 46 102 47 103 48 104
REMARK SMILES IDX 49 105
REMARK H PARENT 92 27 73 58 41 69
REMARK Flexibility Score: inf
ROOT
ATOM      1  C   UNL A   1      33.791  29.531  25.739  1.00  0.00     0.188 C 
ENDROOT
BRANCH   1   2
ATOM      2  O   UNL A   1      32.734  28.622  25.446  1.00  0.00    -0.376 OA
BRANCH   2   3
ATOM      3  C   UNL A   1      32.145  27.888  26.515  1.00  0.00     0.202 C 
BRANCH   3   4
ATOM      4  C   UNL A   1      31.053  26.851  26.195  1.00  0.00     0.261 C 
BRANCH   4   5
ATOM      5  O   UNL A   1      30.126  27.251  25.162  1.00  0.00    -0.463 OA
BRANCH   5   6
ATOM      6  C   UNL A   1      29.917  26.369  24.146  1.00  0.00     0.313 C 
ATOM      7  O   UNL A   1      28.804  25.985  23.804  1.00  0.00    -0.252 OA
BRANCH   6   8
ATOM      8  C   UNL A   1      31.203  25.913  23.430  1.00  0.00     0.126 C 
ATOM      9  C   UNL A   1      31.370  26.447  21.996  1.00  0.00     0.025 C 
BRANCH   8  10
ATOM     10  C   UNL A   1      31.541  24.417  23.553  1.00  0.00    -0.031 A 
ATOM     11  C   UNL A   1      32.143  23.740  22.476  1.00  0.00     0.005 A 
ATOM     12  C   UNL A   1      31.365  23.683  24.735  1.00  0.00     0.044 A 
ATOM     13  C   UNL A   1      32.562  22.401  22.582  1.00  0.00     0.012 A 
ATOM     14  C   UNL A   1      31.777  22.343  24.832  1.00  0.00     0.131 A 
ATOM     15  C   UNL A   1      32.399  21.677  23.770  1.00  0.00     0.018 A 
ATOM     16  F   UNL A   1      31.602  21.726  26.010  1.00  0.00    -0.206 F 
BRANCH  15  17
ATOM     17  C   UNL A   1      32.984  20.330  23.921  1.00  0.00    -0.012 A 
ATOM     18  C   UNL A   1      32.397  19.246  23.239  1.00  0.00     0.009 A 
ATOM     19  C   UNL A   1      34.154  20.083  24.662  1.00  0.00     0.056 A 
ATOM     20  C   UNL A   1      32.961  17.966  23.277  1.00  0.00     0.004 A 
ATOM     21  C   UNL A   1      34.724  18.804  24.675  1.00  0.00     0.133 A 
ATOM     22  C   UNL A   1      34.136  17.745  23.989  1.00  0.00     0.047 A 
BRANCH  21  23
ATOM     23  O   UNL A   1      36.079  18.609  25.091  1.00  0.00    -0.410 OA
BRANCH  23  24
ATOM     24  C   UNL A   1      37.161  19.467  24.908  1.00  0.00     0.417 C 
ATOM     25  O   UNL A   1      38.253  18.953  24.627  1.00  0.00    -0.224 OA
ATOM     26  N   UNL A   1      37.086  20.925  24.995  1.00  0.00    -0.291 N 
ATOM     27  H   UNL A   1      38.042  21.157  24.971  1.00  0.00     0.173 HD
BRANCH  26  28
ATOM     28  C   UNL A   1      36.480  22.282  25.099  1.00  0.00     0.044 A 
ATOM     29  C   UNL A   1      36.468  23.040  23.908  1.00  0.00     0.026 A 
ATOM     30  C   UNL A   1      35.865  22.933  26.159  1.00  0.00     0.026 A 
ATOM     31  C   UNL A   1      35.607  24.120  23.682  1.00  0.00     0.002 A 
ATOM     32  C   UNL A   1      34.977  24.009  25.962  1.00  0.00     0.002 A 
ATOM     33  C   UNL A   1      34.791  24.556  24.702  1.00  0.00     0.000 A 
ENDBRANCH  26  28
ENDBRANCH  23  24
ENDBRANCH  21  23
ENDBRANCH  15  17
ENDBRANCH   8  10
ENDBRANCH   6   8
ENDBRANCH   5   6
ENDBRANCH   4   5
ENDBRANCH   3   4
ENDBRANCH   2   3
ENDBRANCH   1   2
BRANCH   1  34
ATOM     34  C   UNL A   1      34.317  29.615  27.182  1.00  0.00     0.188 C 
BRANCH  34  35
ATOM     35  O   UNL A   1      34.497  30.932  27.650  1.00  0.00    -0.376 OA
BRANCH  35  36
ATOM     36  C   UNL A   1      33.352  31.708  27.944  1.00  0.00     0.202 C 
BRANCH  36  37
ATOM     37  C   UNL A   1      33.191  33.123  27.361  1.00  0.00     0.261 C 
BRANCH  37  38
ATOM     38  O   UNL A   1      33.900  34.192  28.002  1.00  0.00    -0.460 OA
BRANCH  38  39
ATOM     39  C   UNL A   1      33.565  34.490  29.280  1.00  0.00     0.338 C 
ATOM     40  O   UNL A   1      32.504  34.955  29.663  1.00  0.00    -0.246 OA
BRANCH  39  41
ATOM     41  C   UNL A   1      34.633  33.939  30.148  1.00  0.00     0.060 A 
ATOM     42  C   UNL A   1      35.970  34.273  29.897  1.00  0.00     0.016 A 
ATOM     43  C   UNL A   1      34.305  33.126  31.236  1.00  0.00     0.016 A 
ATOM     44  C   UNL A   1      36.981  33.782  30.730  1.00  0.00     0.010 A 
ATOM     45  C   UNL A   1      35.319  32.618  32.054  1.00  0.00     0.010 A 
ATOM     46  C   UNL A   1      36.664  32.928  31.798  1.00  0.00    -0.014 A 
BRANCH  46  47
ATOM     47  C   UNL A   1      37.740  32.188  32.519  1.00  0.00     0.031 A 
ATOM     48  C   UNL A   1      38.495  31.154  31.582  1.00  0.00     0.074 A 
ATOM     49  C   UNL A   1      38.025  32.544  33.824  1.00  0.00     0.049 A 
ATOM     50  N   UNL A   1      39.586  30.483  31.812  1.00  0.00    -0.248 NA
ATOM     51  C   UNL A   1      38.049  30.874  30.202  1.00  0.00     0.031 C 
ATOM     52  C   UNL A   1      37.504  33.688  34.592  1.00  0.00     0.029 A 
ATOM     53  N   UNL A   1      38.934  32.053  34.742  1.00  0.00    -0.354 N 
ATOM     54  C   UNL A   1      40.069  29.828  30.697  1.00  0.00     0.074 A 
ATOM     55  C   UNL A   1      39.001  30.054  29.728  1.00  0.00     0.031 C 
ATOM     56  C   UNL A   1      38.241  33.866  35.726  1.00  0.00     0.029 A 
ATOM     57  C   UNL A   1      39.309  32.848  35.827  1.00  0.00     0.049 A 
ATOM     58  H   UNL A   1      39.314  31.151  34.631  1.00  0.00     0.167 HD
ATOM     59  C   UNL A   1      41.248  29.106  30.584  1.00  0.00     0.034 A 
ATOM     60  C   UNL A   1      40.417  32.846  36.683  1.00  0.00     0.034 A 
ATOM     61  C   UNL A   1      42.367  28.897  31.595  1.00  0.00     0.049 A 
ATOM     62  C   UNL A   1      41.812  31.963  36.538  1.00  0.00     0.074 A 
ATOM     63  C   UNL A   1      43.193  27.786  31.763  1.00  0.00     0.029 A 
ATOM     64  N   UNL A   1      42.923  29.788  32.563  1.00  0.00    -0.354 N 
ATOM     65  N   UNL A   1      42.397  31.473  35.461  1.00  0.00    -0.248 NA
ATOM     66  C   UNL A   1      42.605  31.602  37.727  1.00  0.00     0.031 C 
ATOM     67  C   UNL A   1      43.894  27.895  32.996  1.00  0.00     0.029 A 
ATOM     68  C   UNL A   1      43.597  29.112  33.609  1.00  0.00     0.049 A 
ATOM     69  H   UNL A   1      42.845  30.768  32.508  1.00  0.00     0.167 HD
ATOM     70  C   UNL A   1      43.400  30.584  35.781  1.00  0.00     0.074 A 
ATOM     71  C   UNL A   1      43.586  30.845  37.209  1.00  0.00     0.031 C 
ATOM     72  C   UNL A   1      43.946  29.565  35.017  1.00  0.00     0.034 A 
BRANCH  59  73
ATOM     73  C   UNL A   1      41.173  28.126  29.437  1.00  0.00     0.023 A 
ATOM     74  C   UNL A   1      41.980  28.227  28.298  1.00  0.00     0.031 A 
ATOM     75  C   UNL A   1      40.167  27.134  29.452  1.00  0.00     0.131 A 
ATOM     76  C   UNL A   1      41.739  27.377  27.205  1.00  0.00     0.055 A 
ATOM     77  C   UNL A   1      39.985  26.244  28.396  1.00  0.00     0.041 A 
ATOM     78  F   UNL A   1      39.322  27.035  30.492  1.00  0.00    -0.206 F 
ATOM     79  C   UNL A   1      40.769  26.370  27.256  1.00  0.00     0.022 A 
BRANCH  76  80
ATOM     80  S   UNL A   1      42.611  27.700  25.649  1.00  0.00     0.124 S 
ATOM     81  O   UNL A   1      42.145  29.046  25.327  1.00  0.00    -0.237 OA
ATOM     82  O   UNL A   1      44.011  27.584  26.044  1.00  0.00    -0.237 OA
ATOM     83  O   UNL A   1      42.125  26.649  24.758  1.00  0.00    -0.744 OA
ENDBRANCH  76  80
ENDBRANCH  59  73
BRANCH  60  84
ATOM     84  C   UNL A   1      40.406  33.756  37.885  1.00  0.00     0.023 A 
ATOM     85  C   UNL A   1      39.586  33.490  38.997  1.00  0.00     0.031 A 
ATOM     86  C   UNL A   1      41.101  34.981  37.879  1.00  0.00     0.131 A 
ATOM     87  C   UNL A   1      39.443  34.446  40.018  1.00  0.00     0.055 A 
ATOM     88  C   UNL A   1      41.020  35.891  38.934  1.00  0.00     0.041 A 
ATOM     89  F   UNL A   1      41.855  35.336  36.826  1.00  0.00    -0.206 F 
ATOM     90  C   UNL A   1      40.173  35.635  40.005  1.00  0.00     0.022 A 
BRANCH  87  91
ATOM     91  S   UNL A   1      38.184  34.177  41.299  1.00  0.00     0.124 S 
ATOM     92  O   UNL A   1      37.818  35.546  41.646  1.00  0.00    -0.237 OA
ATOM     93  O   UNL A   1      37.174  33.403  40.584  1.00  0.00    -0.237 OA
ATOM     94  O   UNL A   1      38.907  33.444  42.337  1.00  0.00    -0.744 OA
ENDBRANCH  87  91
ENDBRANCH  60  84
BRANCH  72  95
ATOM     95  C   UNL A   1      44.903  28.647  35.780  1.00  0.00     0.023 A 
ATOM     96  C   UNL A   1      44.496  27.406  36.316  1.00  0.00     0.031 A 
ATOM     97  C   UNL A   1      46.257  28.992  35.922  1.00  0.00     0.131 A 
ATOM     98  C   UNL A   1      45.403  26.597  37.025  1.00  0.00     0.055 A 
ATOM     99  C   UNL A   1      47.172  28.157  36.573  1.00  0.00     0.041 A 
ATOM    100  F   UNL A   1      46.724  30.144  35.414  1.00  0.00    -0.206 F 
ATOM    101  C   UNL A   1      46.744  26.962  37.145  1.00  0.00     0.022 A 
BRANCH  98 102
ATOM    102  S   UNL A   1      44.792  25.113  37.880  1.00  0.00     0.124 S 
ATOM    103  O   UNL A   1      45.261  24.036  37.014  1.00  0.00    -0.237 OA
ATOM    104  O   UNL A   1      45.446  25.212  39.181  1.00  0.00    -0.237 OA
ATOM    105  O   UNL A   1      43.342  25.302  37.899  1.00  0.00    -0.744 OA
ENDBRANCH  98 102
ENDBRANCH  72  95
ENDBRANCH  46  47
ENDBRANCH  39  41
ENDBRANCH  38  39
ENDBRANCH  37  38
ENDBRANCH  36  37
ENDBRANCH  35  36
ENDBRANCH  34  35
ENDBRANCH   1  34
TORSDOF 25
ENDMDL
