MODEL 1
REMARK VINA RESULT:      -8.7      0.000      0.000
REMARK SMILES Cc1nn(C)c(OCC(C)(C)[NH+](C)C)c1C(=O)OCCOCCOCCOC(=O)c1ccc(-c2c3nc(c(-c4cc(S(=O)(=O)[O-])ccc4F)c4ccc([nH]4)c(-c4cc(S(=O)(=O)[O-])ccc4F)c4nc(c(-c5cc(S(=O)(=O)[O-])ccc5F)c5ccc2[nH]5)C=C4)C=C3)cc1
REMARK SMILES IDX 22 1 21 2 20 3 19 4 18 5 16 6 17 7 15 8 1 9 2 10 3 11 4 12
REMARK SMILES IDX 6 13 5 14 7 15 8 16 9 17 10 18 11 19 12 20 13 21 14 22 23 24
REMARK SMILES IDX 24 25 25 26 26 27 27 28 28 29 29 30 30 31 31 32 92 33 32 34
REMARK SMILES IDX 91 35 33 36 34 37 35 38 85 39 36 40 90 41 84 42 86 43 37 44
REMARK SMILES IDX 89 45 83 46 82 47 38 49 70 50 50 51 69 52 51 53 54 54 68 55
REMARK SMILES IDX 87 56 52 57 53 58 67 60 88 61 55 62 39 63 40 64 48 65 41 66
REMARK SMILES IDX 47 67 49 68 46 69 42 70 43 71 44 72 45 73 71 74 72 75 80 76
REMARK SMILES IDX 73 77 79 78 81 79 78 80 74 81 75 82 76 83 77 84 56 85 57 86
REMARK SMILES IDX 65 87 58 88 64 89 66 90 63 91 59 92 60 93 61 94 62 95
REMARK H PARENT 12 23 86 48 54 59
REMARK Flexibility Score: inf
ROOT
ATOM      1  C   UNL A   1      40.585  22.919  26.883  1.00  0.00     0.188 C 
ENDROOT
BRANCH   1   2
ATOM      2  O   UNL A   1      39.262  23.430  26.864  1.00  0.00    -0.376 OA
BRANCH   2   3
ATOM      3  C   UNL A   1      38.302  22.770  26.069  1.00  0.00     0.202 C 
BRANCH   3   4
ATOM      4  C   UNL A   1      36.851  23.315  26.088  1.00  0.00     0.261 C 
BRANCH   4   5
ATOM      5  O   UNL A   1      36.363  24.135  25.000  1.00  0.00    -0.459 OA
BRANCH   5   6
ATOM      6  C   UNL A   1      35.412  23.527  24.241  1.00  0.00     0.345 C 
ATOM      7  O   UNL A   1      35.645  23.275  23.081  1.00  0.00    -0.246 OA
BRANCH   6   8
ATOM      8  C   UNL A   1      34.190  23.108  24.902  1.00  0.00     0.144 A 
ATOM      9  C   UNL A   1      34.364  20.473  25.000  1.00  0.00     0.070 C 
ATOM     10  C   UNL A   1      33.714  21.793  25.185  1.00  0.00     0.078 A 
ATOM     11  N   UNL A   1      32.501  21.808  25.750  1.00  0.00    -0.174 NA
ATOM     12  N   UNL A   1      32.203  23.111  25.845  1.00  0.00    -0.236 N 
ATOM     13  C   UNL A   1      33.224  23.950  25.461  1.00  0.00     0.227 A 
ATOM     14  C   UNL A   1      30.903  23.495  26.354  1.00  0.00     0.178 C 
BRANCH  13  15
ATOM     15  O   UNL A   1      33.061  25.252  25.726  1.00  0.00    -0.471 OA
BRANCH  15  16
ATOM     16  C   UNL A   1      32.769  26.225  24.729  1.00  0.00     0.299 C 
BRANCH  16  17
ATOM     17  C   UNL A   1      31.517  27.186  24.981  1.00  0.00     0.126 C 
ATOM     18  C   UNL A   1      30.145  26.700  24.427  1.00  0.00     0.082 C 
ATOM     19  C   UNL A   1      31.414  27.254  26.533  1.00  0.00     0.082 C 
BRANCH  17  20
ATOM     20  N   UNL A   1      31.794  28.563  24.458  1.00  0.00    -0.333 N 
ATOM     21  C   UNL A   1      32.970  28.615  23.581  1.00  0.00     0.333 C 
ATOM     22  C   UNL A   1      30.664  29.209  23.785  1.00  0.00     0.333 C 
ATOM     23  H   UNL A   1      31.981  29.095  25.308  1.00  0.00     0.348 HD
ENDBRANCH  17  20
ENDBRANCH  16  17
ENDBRANCH  15  16
ENDBRANCH  13  15
ENDBRANCH   6   8
ENDBRANCH   5   6
ENDBRANCH   4   5
ENDBRANCH   3   4
ENDBRANCH   2   3
ENDBRANCH   1   2
BRANCH   1  24
ATOM     24  C   UNL A   1      40.720  21.583  26.126  1.00  0.00     0.188 C 
BRANCH  24  25
ATOM     25  O   UNL A   1      41.488  20.541  26.714  1.00  0.00    -0.376 OA
BRANCH  25  26
ATOM     26  C   UNL A   1      41.401  19.250  26.135  1.00  0.00     0.202 C 
BRANCH  26  27
ATOM     27  C   UNL A   1      42.695  18.478  25.793  1.00  0.00     0.261 C 
BRANCH  27  28
ATOM     28  O   UNL A   1      43.943  19.208  25.828  1.00  0.00    -0.460 OA
BRANCH  28  29
ATOM     29  C   UNL A   1      44.354  19.781  24.664  1.00  0.00     0.338 C 
ATOM     30  O   UNL A   1      44.152  19.341  23.544  1.00  0.00    -0.246 OA
BRANCH  29  31
ATOM     31  C   UNL A   1      44.935  21.136  24.898  1.00  0.00     0.060 A 
ATOM     32  C   UNL A   1      45.302  21.514  26.202  1.00  0.00     0.016 A 
ATOM     33  C   UNL A   1      45.010  22.078  23.872  1.00  0.00     0.016 A 
ATOM     34  C   UNL A   1      45.699  22.828  26.492  1.00  0.00     0.010 A 
ATOM     35  C   UNL A   1      45.377  23.404  24.170  1.00  0.00     0.010 A 
ATOM     36  C   UNL A   1      45.684  23.802  25.487  1.00  0.00    -0.014 A 
BRANCH  36  37
ATOM     37  C   UNL A   1      45.770  25.254  25.834  1.00  0.00     0.031 A 
ATOM     38  C   UNL A   1      47.119  25.930  25.763  1.00  0.00     0.074 A 
ATOM     39  C   UNL A   1      44.692  25.976  26.201  1.00  0.00     0.049 A 
ATOM     40  N   UNL A   1      47.474  27.133  26.141  1.00  0.00    -0.248 NA
ATOM     41  C   UNL A   1      48.217  25.133  25.193  1.00  0.00     0.031 C 
ATOM     42  C   UNL A   1      43.317  25.485  26.239  1.00  0.00     0.029 A 
ATOM     43  N   UNL A   1      44.592  27.280  26.630  1.00  0.00    -0.354 N 
ATOM     44  C   UNL A   1      48.838  27.229  25.877  1.00  0.00     0.074 A 
ATOM     45  C   UNL A   1      49.248  25.953  25.329  1.00  0.00     0.031 C 
ATOM     46  C   UNL A   1      42.515  26.468  26.689  1.00  0.00     0.029 A 
ATOM     47  C   UNL A   1      43.322  27.643  27.020  1.00  0.00     0.049 A 
ATOM     48  H   UNL A   1      45.358  27.898  26.655  1.00  0.00     0.167 HD
ATOM     49  C   UNL A   1      49.673  28.281  26.072  1.00  0.00     0.034 A 
ATOM     50  C   UNL A   1      42.869  28.770  27.613  1.00  0.00     0.034 A 
ATOM     51  C   UNL A   1      49.261  29.551  26.619  1.00  0.00     0.049 A 
ATOM     52  C   UNL A   1      43.841  29.891  27.923  1.00  0.00     0.074 A 
ATOM     53  C   UNL A   1      50.027  30.683  26.836  1.00  0.00     0.029 A 
ATOM     54  N   UNL A   1      47.977  29.857  27.049  1.00  0.00    -0.354 N 
ATOM     55  N   UNL A   1      45.129  29.966  27.674  1.00  0.00    -0.248 NA
ATOM     56  C   UNL A   1      43.295  31.082  28.593  1.00  0.00     0.031 C 
ATOM     57  C   UNL A   1      49.233  31.637  27.477  1.00  0.00     0.029 A 
ATOM     58  C   UNL A   1      47.943  31.143  27.568  1.00  0.00     0.049 A 
ATOM     59  H   UNL A   1      47.203  29.251  26.993  1.00  0.00     0.167 HD
ATOM     60  C   UNL A   1      45.530  31.228  28.114  1.00  0.00     0.074 A 
ATOM     61  C   UNL A   1      44.350  31.882  28.633  1.00  0.00     0.031 C 
ATOM     62  C   UNL A   1      46.763  31.797  28.085  1.00  0.00     0.034 A 
BRANCH  49  63
ATOM     63  C   UNL A   1      51.136  28.086  25.749  1.00  0.00     0.023 A 
ATOM     64  C   UNL A   1      51.626  28.153  24.433  1.00  0.00     0.031 A 
ATOM     65  C   UNL A   1      52.058  27.836  26.782  1.00  0.00     0.131 A 
ATOM     66  C   UNL A   1      52.986  27.917  24.181  1.00  0.00     0.055 A 
ATOM     67  C   UNL A   1      53.423  27.682  26.533  1.00  0.00     0.041 A 
ATOM     68  F   UNL A   1      51.648  27.738  28.056  1.00  0.00    -0.206 F 
ATOM     69  C   UNL A   1      53.893  27.711  25.223  1.00  0.00     0.022 A 
BRANCH  66  70
ATOM     70  S   UNL A   1      53.534  27.753  22.460  1.00  0.00     0.124 S 
ATOM     71  O   UNL A   1      53.870  26.332  22.390  1.00  0.00    -0.237 OA
ATOM     72  O   UNL A   1      52.355  28.168  21.711  1.00  0.00    -0.237 OA
ATOM     73  O   UNL A   1      54.678  28.659  22.376  1.00  0.00    -0.744 OA
ENDBRANCH  66  70
ENDBRANCH  49  63
BRANCH  50  74
ATOM     74  C   UNL A   1      41.434  28.902  28.019  1.00  0.00     0.023 A 
ATOM     75  C   UNL A   1      41.044  28.779  29.363  1.00  0.00     0.031 A 
ATOM     76  C   UNL A   1      40.420  29.051  27.055  1.00  0.00     0.131 A 
ATOM     77  C   UNL A   1      39.680  28.743  29.699  1.00  0.00     0.055 A 
ATOM     78  C   UNL A   1      39.068  29.086  27.401  1.00  0.00     0.041 A 
ATOM     79  F   UNL A   1      40.730  29.154  25.752  1.00  0.00    -0.206 F 
ATOM     80  C   UNL A   1      38.690  28.914  28.729  1.00  0.00     0.022 A 
BRANCH  77  81
ATOM     81  S   UNL A   1      39.214  28.337  31.405  1.00  0.00     0.124 S 
ATOM     82  O   UNL A   1      38.523  27.066  31.227  1.00  0.00    -0.237 OA
ATOM     83  O   UNL A   1      40.513  28.274  32.067  1.00  0.00    -0.237 OA
ATOM     84  O   UNL A   1      38.367  29.460  31.803  1.00  0.00    -0.744 OA
ENDBRANCH  77  81
ENDBRANCH  50  74
BRANCH  62  85
ATOM     85  C   UNL A   1      46.890  33.227  28.564  1.00  0.00     0.023 A 
ATOM     86  C   UNL A   1      46.638  34.325  27.722  1.00  0.00     0.031 A 
ATOM     87  C   UNL A   1      47.275  33.493  29.892  1.00  0.00     0.131 A 
ATOM     88  C   UNL A   1      46.827  35.632  28.200  1.00  0.00     0.055 A 
ATOM     89  C   UNL A   1      47.392  34.794  30.381  1.00  0.00     0.041 A 
ATOM     90  F   UNL A   1      47.535  32.486  30.743  1.00  0.00    -0.206 F 
ATOM     91  C   UNL A   1      47.183  35.874  29.530  1.00  0.00     0.022 A 
BRANCH  88  92
ATOM     92  S   UNL A   1      46.706  37.016  27.033  1.00  0.00     0.124 S 
ATOM     93  O   UNL A   1      47.636  37.981  27.609  1.00  0.00    -0.237 OA
ATOM     94  O   UNL A   1      47.123  36.402  25.777  1.00  0.00    -0.237 OA
ATOM     95  O   UNL A   1      45.297  37.399  27.097  1.00  0.00    -0.744 OA
ENDBRANCH  88  92
ENDBRANCH  62  85
ENDBRANCH  36  37
ENDBRANCH  29  31
ENDBRANCH  28  29
ENDBRANCH  27  28
ENDBRANCH  26  27
ENDBRANCH  25  26
ENDBRANCH  24  25
ENDBRANCH   1  24
TORSDOF 24
ENDMDL
MODEL 2
REMARK VINA RESULT:      -8.6      1.353      7.790
REMARK SMILES Cc1nn(C)c(OCC(C)(C)[NH+](C)C)c1C(=O)OCCOCCOCCOC(=O)c1ccc(-c2c3nc(c(-c4cc(S(=O)(=O)[O-])ccc4F)c4ccc([nH]4)c(-c4cc(S(=O)(=O)[O-])ccc4F)c4nc(c(-c5cc(S(=O)(=O)[O-])ccc5F)c5ccc2[nH]5)C=C4)C=C3)cc1
REMARK SMILES IDX 22 1 21 2 20 3 19 4 18 5 16 6 17 7 15 8 1 9 2 10 3 11 4 12
REMARK SMILES IDX 6 13 5 14 7 15 8 16 9 17 10 18 11 19 12 20 13 21 14 22 23 24
REMARK SMILES IDX 24 25 25 26 26 27 27 28 28 29 29 30 30 31 31 32 92 33 32 34
REMARK SMILES IDX 91 35 33 36 34 37 35 38 85 39 36 40 90 41 84 42 86 43 37 44
REMARK SMILES IDX 89 45 83 46 82 47 38 49 70 50 50 51 69 52 51 53 54 54 68 55
REMARK SMILES IDX 87 56 52 57 53 58 67 60 88 61 55 62 39 63 40 64 48 65 41 66
REMARK SMILES IDX 47 67 49 68 46 69 42 70 43 71 44 72 45 73 71 74 72 75 80 76
REMARK SMILES IDX 73 77 79 78 81 79 78 80 74 81 75 82 76 83 77 84 56 85 57 86
REMARK SMILES IDX 65 87 58 88 64 89 66 90 63 91 59 92 60 93 61 94 62 95
REMARK H PARENT 12 23 86 48 54 59
REMARK Flexibility Score: inf
ROOT
ATOM      1  C   UNL A   1      39.659  23.258  26.587  1.00  0.00     0.188 C 
ENDROOT
BRANCH   1   2
ATOM      2  O   UNL A   1      38.458  23.727  25.997  1.00  0.00    -0.376 OA
BRANCH   2   3
ATOM      3  C   UNL A   1      37.423  22.799  25.760  1.00  0.00     0.202 C 
BRANCH   3   4
ATOM      4  C   UNL A   1      35.963  23.282  25.951  1.00  0.00     0.261 C 
BRANCH   4   5
ATOM      5  O   UNL A   1      35.266  23.030  27.193  1.00  0.00    -0.459 OA
BRANCH   5   6
ATOM      6  C   UNL A   1      34.102  22.344  27.039  1.00  0.00     0.345 C 
ATOM      7  O   UNL A   1      33.578  21.831  28.001  1.00  0.00    -0.246 OA
BRANCH   6   8
ATOM      8  C   UNL A   1      33.482  22.358  25.727  1.00  0.00     0.144 A 
ATOM      9  C   UNL A   1      34.068  19.996  24.695  1.00  0.00     0.070 C 
ATOM     10  C   UNL A   1      33.508  21.370  24.697  1.00  0.00     0.078 A 
ATOM     11  N   UNL A   1      32.871  21.776  23.593  1.00  0.00    -0.174 NA
ATOM     12  N   UNL A   1      32.427  23.001  23.906  1.00  0.00    -0.236 N 
ATOM     13  C   UNL A   1      32.659  23.366  25.213  1.00  0.00     0.227 A 
ATOM     14  C   UNL A   1      31.745  23.778  22.893  1.00  0.00     0.178 C 
BRANCH  13  15
ATOM     15  O   UNL A   1      32.062  24.485  25.638  1.00  0.00    -0.471 OA
BRANCH  15  16
ATOM     16  C   UNL A   1      32.698  25.759  25.649  1.00  0.00     0.299 C 
BRANCH  16  17
ATOM     17  C   UNL A   1      31.793  27.037  25.330  1.00  0.00     0.126 C 
ATOM     18  C   UNL A   1      30.396  26.759  24.700  1.00  0.00     0.082 C 
ATOM     19  C   UNL A   1      31.572  27.688  26.727  1.00  0.00     0.082 C 
BRANCH  17  20
ATOM     20  N   UNL A   1      32.535  28.007  24.461  1.00  0.00    -0.333 N 
ATOM     21  C   UNL A   1      31.643  28.884  23.692  1.00  0.00     0.333 C 
ATOM     22  C   UNL A   1      33.531  28.826  25.157  1.00  0.00     0.333 C 
ATOM     23  H   UNL A   1      33.043  27.396  23.822  1.00  0.00     0.348 HD
ENDBRANCH  17  20
ENDBRANCH  16  17
ENDBRANCH  15  16
ENDBRANCH  13  15
ENDBRANCH   6   8
ENDBRANCH   5   6
ENDBRANCH   4   5
ENDBRANCH   3   4
ENDBRANCH   2   3
ENDBRANCH   1   2
BRANCH   1  24
ATOM     24  C   UNL A   1      39.751  21.720  26.614  1.00  0.00     0.188 C 
BRANCH  24  25
ATOM     25  O   UNL A   1      40.891  21.094  26.041  1.00  0.00    -0.376 OA
BRANCH  25  26
ATOM     26  C   UNL A   1      41.152  19.745  26.392  1.00  0.00     0.202 C 
BRANCH  26  27
ATOM     27  C   UNL A   1      42.480  19.086  25.960  1.00  0.00     0.261 C 
BRANCH  27  28
ATOM     28  O   UNL A   1      43.113  19.577  24.756  1.00  0.00    -0.460 OA
BRANCH  28  29
ATOM     29  C   UNL A   1      44.325  20.179  24.900  1.00  0.00     0.338 C 
ATOM     30  O   UNL A   1      45.385  19.758  24.470  1.00  0.00    -0.246 OA
BRANCH  29  31
ATOM     31  C   UNL A   1      44.190  21.540  25.499  1.00  0.00     0.060 A 
ATOM     32  C   UNL A   1      43.987  22.648  24.657  1.00  0.00     0.016 A 
ATOM     33  C   UNL A   1      44.383  21.752  26.864  1.00  0.00     0.016 A 
ATOM     34  C   UNL A   1      44.017  23.957  25.160  1.00  0.00     0.010 A 
ATOM     35  C   UNL A   1      44.445  23.068  27.362  1.00  0.00     0.010 A 
ATOM     36  C   UNL A   1      44.304  24.182  26.510  1.00  0.00    -0.014 A 
BRANCH  36  37
ATOM     37  C   UNL A   1      44.674  25.548  26.992  1.00  0.00     0.031 A 
ATOM     38  C   UNL A   1      43.593  26.412  27.599  1.00  0.00     0.074 A 
ATOM     39  C   UNL A   1      45.929  26.032  26.907  1.00  0.00     0.049 A 
ATOM     40  N   UNL A   1      43.630  27.670  27.962  1.00  0.00    -0.248 NA
ATOM     41  C   UNL A   1      42.290  25.765  27.818  1.00  0.00     0.031 C 
ATOM     42  C   UNL A   1      47.091  25.291  26.421  1.00  0.00     0.029 A 
ATOM     43  N   UNL A   1      46.433  27.276  27.216  1.00  0.00    -0.354 N 
ATOM     44  C   UNL A   1      42.354  27.971  28.430  1.00  0.00     0.074 A 
ATOM     45  C   UNL A   1      41.560  26.769  28.280  1.00  0.00     0.031 C 
ATOM     46  C   UNL A   1      48.166  26.101  26.443  1.00  0.00     0.029 A 
ATOM     47  C   UNL A   1      47.763  27.433  26.896  1.00  0.00     0.049 A 
ATOM     48  H   UNL A   1      45.892  27.987  27.629  1.00  0.00     0.167 HD
ATOM     49  C   UNL A   1      41.884  29.139  28.936  1.00  0.00     0.034 A 
ATOM     50  C   UNL A   1      48.554  28.529  26.924  1.00  0.00     0.034 A 
ATOM     51  C   UNL A   1      42.678  30.335  29.084  1.00  0.00     0.049 A 
ATOM     52  C   UNL A   1      47.977  29.852  27.389  1.00  0.00     0.074 A 
ATOM     53  C   UNL A   1      42.298  31.560  29.604  1.00  0.00     0.029 A 
ATOM     54  N   UNL A   1      44.005  30.466  28.699  1.00  0.00    -0.354 N 
ATOM     55  N   UNL A   1      46.767  30.123  27.823  1.00  0.00    -0.248 NA
ATOM     56  C   UNL A   1      48.877  31.015  27.373  1.00  0.00     0.031 C 
ATOM     57  C   UNL A   1      43.362  32.453  29.452  1.00  0.00     0.029 A 
ATOM     58  C   UNL A   1      44.442  31.761  28.932  1.00  0.00     0.049 A 
ATOM     59  H   UNL A   1      44.556  29.744  28.317  1.00  0.00     0.167 HD
ATOM     60  C   UNL A   1      46.781  31.474  28.172  1.00  0.00     0.074 A 
ATOM     61  C   UNL A   1      48.118  31.958  27.909  1.00  0.00     0.031 C 
ATOM     62  C   UNL A   1      45.778  32.244  28.671  1.00  0.00     0.034 A 
BRANCH  49  63
ATOM     63  C   UNL A   1      40.422  29.203  29.316  1.00  0.00     0.023 A 
ATOM     64  C   UNL A   1      39.994  29.138  30.653  1.00  0.00     0.031 A 
ATOM     65  C   UNL A   1      39.441  29.339  28.317  1.00  0.00     0.131 A 
ATOM     66  C   UNL A   1      38.622  29.153  30.949  1.00  0.00     0.055 A 
ATOM     67  C   UNL A   1      38.083  29.435  28.623  1.00  0.00     0.041 A 
ATOM     68  F   UNL A   1      39.787  29.382  27.020  1.00  0.00    -0.206 F 
ATOM     69  C   UNL A   1      37.665  29.330  29.947  1.00  0.00     0.022 A 
BRANCH  66  70
ATOM     70  S   UNL A   1      38.097  28.808  32.650  1.00  0.00     0.124 S 
ATOM     71  O   UNL A   1      39.182  29.411  33.422  1.00  0.00    -0.237 OA
ATOM     72  O   UNL A   1      36.807  29.482  32.726  1.00  0.00    -0.237 OA
ATOM     73  O   UNL A   1      38.043  27.348  32.703  1.00  0.00    -0.744 OA
ENDBRANCH  66  70
ENDBRANCH  49  63
BRANCH  50  74
ATOM     74  C   UNL A   1      49.971  28.468  26.446  1.00  0.00     0.023 A 
ATOM     75  C   UNL A   1      50.287  28.604  25.084  1.00  0.00     0.031 A 
ATOM     76  C   UNL A   1      51.021  28.170  27.334  1.00  0.00     0.131 A 
ATOM     77  C   UNL A   1      51.601  28.380  24.641  1.00  0.00     0.055 A 
ATOM     78  C   UNL A   1      52.339  28.018  26.899  1.00  0.00     0.041 A 
ATOM     79  F   UNL A   1      50.779  28.010  28.645  1.00  0.00    -0.206 F 
ATOM     80  C   UNL A   1      52.633  28.106  25.541  1.00  0.00     0.022 A 
BRANCH  77  81
ATOM     81  S   UNL A   1      51.919  28.320  22.855  1.00  0.00     0.124 S 
ATOM     82  O   UNL A   1      52.170  26.899  22.648  1.00  0.00    -0.237 OA
ATOM     83  O   UNL A   1      50.671  28.838  22.307  1.00  0.00    -0.237 OA
ATOM     84  O   UNL A   1      53.081  29.191  22.687  1.00  0.00    -0.744 OA
ENDBRANCH  77  81
ENDBRANCH  50  74
BRANCH  62  85
ATOM     85  C   UNL A   1      46.106  33.676  29.036  1.00  0.00     0.023 A 
ATOM     86  C   UNL A   1      45.860  34.748  28.160  1.00  0.00     0.031 A 
ATOM     87  C   UNL A   1      46.678  33.970  30.289  1.00  0.00     0.131 A 
ATOM     88  C   UNL A   1      46.236  36.051  28.525  1.00  0.00     0.055 A 
ATOM     89  C   UNL A   1      46.984  35.275  30.674  1.00  0.00     0.041 A 
ATOM     90  F   UNL A   1      46.942  32.987  31.167  1.00  0.00    -0.206 F 
ATOM     91  C   UNL A   1      46.779  36.324  29.784  1.00  0.00     0.022 A 
BRANCH  88  92
ATOM     92  S   UNL A   1      46.108  37.376  27.291  1.00  0.00     0.124 S 
ATOM     93  O   UNL A   1      44.671  37.425  27.047  1.00  0.00    -0.237 OA
ATOM     94  O   UNL A   1      46.673  38.518  28.002  1.00  0.00    -0.237 OA
ATOM     95  O   UNL A   1      46.911  36.884  26.174  1.00  0.00    -0.744 OA
ENDBRANCH  88  92
ENDBRANCH  62  85
ENDBRANCH  36  37
ENDBRANCH  29  31
ENDBRANCH  28  29
ENDBRANCH  27  28
ENDBRANCH  26  27
ENDBRANCH  25  26
ENDBRANCH  24  25
ENDBRANCH   1  24
TORSDOF 24
ENDMDL
MODEL 3
REMARK VINA RESULT:      -8.6      6.447     10.838
REMARK SMILES Cc1nn(C)c(OCC(C)(C)[NH+](C)C)c1C(=O)OCCOCCOCCOC(=O)c1ccc(-c2c3nc(c(-c4cc(S(=O)(=O)[O-])ccc4F)c4ccc([nH]4)c(-c4cc(S(=O)(=O)[O-])ccc4F)c4nc(c(-c5cc(S(=O)(=O)[O-])ccc5F)c5ccc2[nH]5)C=C4)C=C3)cc1
REMARK SMILES IDX 22 1 21 2 20 3 19 4 18 5 16 6 17 7 15 8 1 9 2 10 3 11 4 12
REMARK SMILES IDX 6 13 5 14 7 15 8 16 9 17 10 18 11 19 12 20 13 21 14 22 23 24
REMARK SMILES IDX 24 25 25 26 26 27 27 28 28 29 29 30 30 31 31 32 92 33 32 34
REMARK SMILES IDX 91 35 33 36 34 37 35 38 85 39 36 40 90 41 84 42 86 43 37 44
REMARK SMILES IDX 89 45 83 46 82 47 38 49 70 50 50 51 69 52 51 53 54 54 68 55
REMARK SMILES IDX 87 56 52 57 53 58 67 60 88 61 55 62 39 63 40 64 48 65 41 66
REMARK SMILES IDX 47 67 49 68 46 69 42 70 43 71 44 72 45 73 71 74 72 75 80 76
REMARK SMILES IDX 73 77 79 78 81 79 78 80 74 81 75 82 76 83 77 84 56 85 57 86
REMARK SMILES IDX 65 87 58 88 64 89 66 90 63 91 59 92 60 93 61 94 62 95
REMARK H PARENT 12 23 86 48 54 59
REMARK Flexibility Score: inf
ROOT
ATOM      1  C   UNL A   1      31.508  28.941  23.904  1.00  0.00     0.188 C 
ENDROOT
BRANCH   1   2
ATOM      2  O   UNL A   1      32.397  29.111  22.812  1.00  0.00    -0.376 OA
BRANCH   2   3
ATOM      3  C   UNL A   1      33.606  28.383  22.815  1.00  0.00     0.202 C 
BRANCH   3   4
ATOM      4  C   UNL A   1      33.576  26.937  23.373  1.00  0.00     0.261 C 
BRANCH   4   5
ATOM      5  O   UNL A   1      34.446  25.922  22.819  1.00  0.00    -0.459 OA
BRANCH   5   6
ATOM      6  C   UNL A   1      33.948  24.661  22.919  1.00  0.00     0.345 C 
ATOM      7  O   UNL A   1      33.201  24.244  22.064  1.00  0.00    -0.246 OA
BRANCH   6   8
ATOM      8  C   UNL A   1      34.433  23.831  24.006  1.00  0.00     0.144 A 
ATOM      9  C   UNL A   1      36.666  22.765  23.077  1.00  0.00     0.070 C 
ATOM     10  C   UNL A   1      35.575  22.975  24.059  1.00  0.00     0.078 A 
ATOM     11  N   UNL A   1      35.655  22.314  25.219  1.00  0.00    -0.174 NA
ATOM     12  N   UNL A   1      34.591  22.743  25.913  1.00  0.00    -0.236 N 
ATOM     13  C   UNL A   1      33.880  23.743  25.288  1.00  0.00     0.227 A 
ATOM     14  C   UNL A   1      34.324  22.165  27.211  1.00  0.00     0.178 C 
BRANCH  13  15
ATOM     15  O   UNL A   1      32.936  24.351  26.016  1.00  0.00    -0.471 OA
BRANCH  15  16
ATOM     16  C   UNL A   1      31.566  23.963  26.006  1.00  0.00     0.299 C 
BRANCH  16  17
ATOM     17  C   UNL A   1      30.478  25.107  25.752  1.00  0.00     0.126 C 
ATOM     18  C   UNL A   1      29.077  24.887  26.395  1.00  0.00     0.082 C 
ATOM     19  C   UNL A   1      31.116  26.369  26.402  1.00  0.00     0.082 C 
BRANCH  17  20
ATOM     20  N   UNL A   1      30.308  25.357  24.284  1.00  0.00    -0.333 N 
ATOM     21  C   UNL A   1      30.313  24.122  23.490  1.00  0.00     0.333 C 
ATOM     22  C   UNL A   1      29.133  26.155  23.924  1.00  0.00     0.333 C 
ATOM     23  H   UNL A   1      31.130  25.913  24.052  1.00  0.00     0.348 HD
ENDBRANCH  17  20
ENDBRANCH  16  17
ENDBRANCH  15  16
ENDBRANCH  13  15
ENDBRANCH   6   8
ENDBRANCH   5   6
ENDBRANCH   4   5
ENDBRANCH   3   4
ENDBRANCH   2   3
ENDBRANCH   1   2
BRANCH   1  24
ATOM     24  C   UNL A   1      31.761  29.947  25.043  1.00  0.00     0.188 C 
BRANCH  24  25
ATOM     25  O   UNL A   1      32.124  29.449  26.324  1.00  0.00    -0.376 OA
BRANCH  25  26
ATOM     26  C   UNL A   1      33.261  30.016  26.955  1.00  0.00     0.202 C 
BRANCH  26  27
ATOM     27  C   UNL A   1      33.473  31.545  26.918  1.00  0.00     0.261 C 
BRANCH  27  28
ATOM     28  O   UNL A   1      32.747  32.348  27.877  1.00  0.00    -0.460 OA
BRANCH  28  29
ATOM     29  C   UNL A   1      33.256  33.579  28.159  1.00  0.00     0.338 C 
ATOM     30  O   UNL A   1      32.780  34.644  27.803  1.00  0.00    -0.246 OA
BRANCH  29  31
ATOM     31  C   UNL A   1      34.387  33.493  29.130  1.00  0.00     0.060 A 
ATOM     32  C   UNL A   1      35.650  33.992  28.765  1.00  0.00     0.016 A 
ATOM     33  C   UNL A   1      34.248  32.821  30.344  1.00  0.00     0.016 A 
ATOM     34  C   UNL A   1      36.774  33.787  29.579  1.00  0.00     0.010 A 
ATOM     35  C   UNL A   1      35.383  32.588  31.144  1.00  0.00     0.010 A 
ATOM     36  C   UNL A   1      36.662  33.032  30.750  1.00  0.00    -0.014 A 
BRANCH  36  37
ATOM     37  C   UNL A   1      37.882  32.518  31.445  1.00  0.00     0.031 A 
ATOM     38  C   UNL A   1      38.637  31.370  30.814  1.00  0.00     0.074 A 
ATOM     39  C   UNL A   1      38.332  33.042  32.602  1.00  0.00     0.049 A 
ATOM     40  N   UNL A   1      39.635  30.665  31.284  1.00  0.00    -0.248 NA
ATOM     41  C   UNL A   1      38.195  30.961  29.472  1.00  0.00     0.031 C 
ATOM     42  C   UNL A   1      37.760  34.198  33.288  1.00  0.00     0.029 A 
ATOM     43  N   UNL A   1      39.372  32.652  33.417  1.00  0.00    -0.354 N 
ATOM     44  C   UNL A   1      39.925  29.716  30.308  1.00  0.00     0.074 A 
ATOM     45  C   UNL A   1      38.980  29.922  29.231  1.00  0.00     0.031 C 
ATOM     46  C   UNL A   1      38.440  34.410  34.429  1.00  0.00     0.029 A 
ATOM     47  C   UNL A   1      39.465  33.377  34.585  1.00  0.00     0.049 A 
ATOM     48  H   UNL A   1      39.992  31.924  33.186  1.00  0.00     0.167 HD
ATOM     49  C   UNL A   1      40.889  28.760  30.307  1.00  0.00     0.034 A 
ATOM     50  C   UNL A   1      40.253  33.204  35.670  1.00  0.00     0.034 A 
ATOM     51  C   UNL A   1      41.829  28.557  31.383  1.00  0.00     0.049 A 
ATOM     52  C   UNL A   1      41.248  32.060  35.693  1.00  0.00     0.074 A 
ATOM     53  C   UNL A   1      42.853  27.630  31.465  1.00  0.00     0.029 A 
ATOM     54  N   UNL A   1      41.855  29.279  32.569  1.00  0.00    -0.354 N 
ATOM     55  N   UNL A   1      41.508  31.166  34.765  1.00  0.00    -0.248 NA
ATOM     56  C   UNL A   1      42.059  31.906  36.911  1.00  0.00     0.031 C 
ATOM     57  C   UNL A   1      43.437  27.729  32.731  1.00  0.00     0.029 A 
ATOM     58  C   UNL A   1      42.848  28.788  33.402  1.00  0.00     0.049 A 
ATOM     59  H   UNL A   1      41.256  30.030  32.786  1.00  0.00     0.167 HD
ATOM     60  C   UNL A   1      42.541  30.379  35.274  1.00  0.00     0.074 A 
ATOM     61  C   UNL A   1      42.864  30.907  36.580  1.00  0.00     0.031 C 
ATOM     62  C   UNL A   1      43.172  29.317  34.707  1.00  0.00     0.034 A 
BRANCH  49  63
ATOM     63  C   UNL A   1      40.940  27.815  29.129  1.00  0.00     0.023 A 
ATOM     64  C   UNL A   1      41.866  27.973  28.084  1.00  0.00     0.031 A 
ATOM     65  C   UNL A   1      40.047  26.730  29.058  1.00  0.00     0.131 A 
ATOM     66  C   UNL A   1      41.840  27.096  26.988  1.00  0.00     0.055 A 
ATOM     67  C   UNL A   1      40.079  25.814  28.005  1.00  0.00     0.041 A 
ATOM     68  F   UNL A   1      39.123  26.540  30.014  1.00  0.00    -0.206 F 
ATOM     69  C   UNL A   1      40.973  26.001  26.955  1.00  0.00     0.022 A 
BRANCH  66  70
ATOM     70  S   UNL A   1      42.867  27.481  25.544  1.00  0.00     0.124 S 
ATOM     71  O   UNL A   1      42.556  26.363  24.654  1.00  0.00    -0.237 OA
ATOM     72  O   UNL A   1      42.359  28.784  25.133  1.00  0.00    -0.237 OA
ATOM     73  O   UNL A   1      44.227  27.481  26.079  1.00  0.00    -0.744 OA
ENDBRANCH  66  70
ENDBRANCH  49  63
BRANCH  50  74
ATOM     74  C   UNL A   1      40.116  34.089  36.869  1.00  0.00     0.023 A 
ATOM     75  C   UNL A   1      41.044  35.111  37.130  1.00  0.00     0.031 A 
ATOM     76  C   UNL A   1      39.111  33.859  37.826  1.00  0.00     0.131 A 
ATOM     77  C   UNL A   1      40.989  35.819  38.342  1.00  0.00     0.055 A 
ATOM     78  C   UNL A   1      39.016  34.614  38.997  1.00  0.00     0.041 A 
ATOM     79  F   UNL A   1      38.205  32.884  37.642  1.00  0.00    -0.206 F 
ATOM     80  C   UNL A   1      39.970  35.589  39.270  1.00  0.00     0.022 A 
BRANCH  77  81
ATOM     81  S   UNL A   1      42.345  36.953  38.750  1.00  0.00     0.124 S 
ATOM     82  O   UNL A   1      43.180  36.119  39.605  1.00  0.00    -0.237 OA
ATOM     83  O   UNL A   1      42.887  37.265  37.432  1.00  0.00    -0.237 OA
ATOM     84  O   UNL A   1      41.671  38.062  39.423  1.00  0.00    -0.744 OA
ENDBRANCH  77  81
ENDBRANCH  50  74
BRANCH  62  85
ATOM     85  C   UNL A   1      44.326  28.697  35.464  1.00  0.00     0.023 A 
ATOM     86  C   UNL A   1      44.137  27.686  36.424  1.00  0.00     0.031 A 
ATOM     87  C   UNL A   1      45.643  29.132  35.220  1.00  0.00     0.131 A 
ATOM     88  C   UNL A   1      45.236  27.186  37.140  1.00  0.00     0.055 A 
ATOM     89  C   UNL A   1      46.739  28.581  35.885  1.00  0.00     0.041 A 
ATOM     90  F   UNL A   1      45.887  30.099  34.320  1.00  0.00    -0.206 F 
ATOM     91  C   UNL A   1      46.538  27.613  36.863  1.00  0.00     0.022 A 
BRANCH  88  92
ATOM     92  S   UNL A   1      44.936  26.045  38.519  1.00  0.00     0.124 S 
ATOM     93  O   UNL A   1      46.287  25.604  38.848  1.00  0.00    -0.237 OA
ATOM     94  O   UNL A   1      44.290  26.908  39.502  1.00  0.00    -0.237 OA
ATOM     95  O   UNL A   1      44.074  25.019  37.935  1.00  0.00    -0.744 OA
ENDBRANCH  88  92
ENDBRANCH  62  85
ENDBRANCH  36  37
ENDBRANCH  29  31
ENDBRANCH  28  29
ENDBRANCH  27  28
ENDBRANCH  26  27
ENDBRANCH  25  26
ENDBRANCH  24  25
ENDBRANCH   1  24
TORSDOF 24
ENDMDL
