MODEL 1
REMARK VINA RESULT:      -9.7      0.000      0.000
REMARK SMILES O=C(C[C@@H](NS(=O)(=O)c1ccc2c(c1)OCCO2)c1ccccc1)OCCOCCOCCOC(=O)c1ccc(-c2c3nc(c(-c4cc(S(=O)(=O)[O-])ccc4F)c4ccc([nH]4)c(-c4cc(S(=O)(=O)[O-])ccc4F)c4nc(c(-c5cc(S(=O)(=O)[O-])ccc5F)c5ccc2[nH]5)C=C4)C=C3)cc1
REMARK SMILES IDX 29 1 28 2 27 3 26 4 25 5 2 6 1 7 3 8 4 9 5 10 6 12 7 13 8 14
REMARK SMILES IDX 9 15 10 16 14 17 11 18 13 19 12 20 15 21 18 22 16 23 17 24
REMARK SMILES IDX 19 25 20 26 24 27 21 28 23 29 22 30 30 31 31 32 32 33 33 34
REMARK SMILES IDX 34 35 35 36 36 37 37 38 38 39 99 40 39 41 98 42 40 43 41 44
REMARK SMILES IDX 42 45 92 46 43 47 97 48 91 49 93 50 44 51 96 52 90 53 89 54
REMARK SMILES IDX 45 56 77 57 57 58 76 59 58 60 61 61 75 62 94 63 59 64 60 65
REMARK SMILES IDX 74 67 95 68 62 69 46 70 47 71 55 72 48 73 54 74 56 75 53 76
REMARK SMILES IDX 49 77 50 78 51 79 52 80 78 81 79 82 87 83 80 84 86 85 88 86
REMARK SMILES IDX 85 87 81 88 82 89 83 90 84 91 63 92 64 93 72 94 65 95 71 96
REMARK SMILES IDX 73 97 70 98 66 99 67 100 68 101 69 102
REMARK H PARENT 5 11 93 55 61 66
REMARK Flexibility Score: inf
ROOT
ATOM      1  C   UNL A   1      40.839  20.345  27.075  1.00  0.00     0.188 C 
ENDROOT
BRANCH   1   2
ATOM      2  O   UNL A   1      40.030  20.747  25.991  1.00  0.00    -0.376 OA
BRANCH   2   3
ATOM      3  C   UNL A   1      39.404  22.016  26.056  1.00  0.00     0.202 C 
BRANCH   3   4
ATOM      4  C   UNL A   1      37.909  22.073  25.749  1.00  0.00     0.261 C 
BRANCH   4   5
ATOM      5  O   UNL A   1      37.311  23.258  25.112  1.00  0.00    -0.463 OA
BRANCH   5   6
ATOM      6  C   UNL A   1      36.080  23.480  24.591  1.00  0.00     0.307 C 
ATOM      7  O   UNL A   1      35.623  22.720  23.743  1.00  0.00    -0.252 OA
BRANCH   6   8
ATOM      8  C   UNL A   1      35.254  24.609  25.151  1.00  0.00     0.147 C 
BRANCH   8   9
ATOM      9  C   UNL A   1      33.839  24.750  24.572  1.00  0.00     0.111 C 
BRANCH   9  10
ATOM     10  N   UNL A   1      32.842  24.355  25.599  1.00  0.00    -0.203 NA
ATOM     11  H   UNL A   1      32.408  25.220  25.922  1.00  0.00     0.142 HD
BRANCH  10  12
ATOM     12  S   UNL A   1      31.586  23.297  25.270  1.00  0.00     0.241 S 
ATOM     13  O   UNL A   1      30.768  23.255  26.465  1.00  0.00    -0.207 OA
ATOM     14  O   UNL A   1      31.036  23.747  24.012  1.00  0.00    -0.207 OA
BRANCH  12  15
ATOM     15  C   UNL A   1      32.370  21.752  25.015  1.00  0.00     0.086 A 
ATOM     16  C   UNL A   1      33.191  21.211  26.010  1.00  0.00     0.026 A 
ATOM     17  C   UNL A   1      32.097  21.059  23.838  1.00  0.00     0.072 A 
ATOM     18  C   UNL A   1      33.699  19.922  25.842  1.00  0.00     0.052 A 
ATOM     19  C   UNL A   1      32.583  19.770  23.694  1.00  0.00     0.162 A 
ATOM     20  C   UNL A   1      33.388  19.201  24.688  1.00  0.00     0.161 A 
ATOM     21  O   UNL A   1      32.198  19.109  22.558  1.00  0.00    -0.486 OA
ATOM     22  O   UNL A   1      33.875  17.922  24.610  1.00  0.00    -0.486 OA
ATOM     23  C   UNL A   1      32.332  17.696  22.726  1.00  0.00     0.271 C 
ATOM     24  C   UNL A   1      33.697  17.363  23.302  1.00  0.00     0.271 C 
ENDBRANCH  12  15
ENDBRANCH  10  12
ENDBRANCH   9  10
BRANCH   9  25
ATOM     25  C   UNL A   1      33.721  26.203  24.117  1.00  0.00    -0.029 A 
ATOM     26  C   UNL A   1      33.776  27.281  25.024  1.00  0.00     0.005 A 
ATOM     27  C   UNL A   1      33.616  26.501  22.754  1.00  0.00     0.005 A 
ATOM     28  C   UNL A   1      33.666  28.604  24.593  1.00  0.00     0.000 A 
ATOM     29  C   UNL A   1      33.503  27.825  22.324  1.00  0.00     0.000 A 
ATOM     30  C   UNL A   1      33.511  28.873  23.242  1.00  0.00     0.000 A 
ENDBRANCH   9  25
ENDBRANCH   8   9
ENDBRANCH   6   8
ENDBRANCH   5   6
ENDBRANCH   4   5
ENDBRANCH   3   4
ENDBRANCH   2   3
ENDBRANCH   1   2
BRANCH   1  31
ATOM     31  C   UNL A   1      42.233  19.835  26.697  1.00  0.00     0.188 C 
BRANCH  31  32
ATOM     32  O   UNL A   1      42.737  20.125  25.406  1.00  0.00    -0.376 OA
BRANCH  32  33
ATOM     33  C   UNL A   1      43.687  21.177  25.269  1.00  0.00     0.202 C 
BRANCH  33  34
ATOM     34  C   UNL A   1      43.218  22.634  25.074  1.00  0.00     0.261 C 
BRANCH  34  35
ATOM     35  O   UNL A   1      43.696  23.609  26.027  1.00  0.00    -0.460 OA
BRANCH  35  36
ATOM     36  C   UNL A   1      44.439  24.628  25.519  1.00  0.00     0.338 C 
ATOM     37  O   UNL A   1      45.185  24.575  24.557  1.00  0.00    -0.246 OA
BRANCH  36  38
ATOM     38  C   UNL A   1      44.131  25.894  26.224  1.00  0.00     0.060 A 
ATOM     39  C   UNL A   1      43.631  26.988  25.502  1.00  0.00     0.016 A 
ATOM     40  C   UNL A   1      44.429  26.035  27.579  1.00  0.00     0.016 A 
ATOM     41  C   UNL A   1      43.412  28.218  26.138  1.00  0.00     0.010 A 
ATOM     42  C   UNL A   1      44.236  27.274  28.205  1.00  0.00     0.010 A 
ATOM     43  C   UNL A   1      43.736  28.380  27.490  1.00  0.00    -0.014 A 
BRANCH  43  44
ATOM     44  C   UNL A   1      43.659  29.713  28.152  1.00  0.00     0.031 A 
ATOM     45  C   UNL A   1      44.878  30.598  28.171  1.00  0.00     0.074 A 
ATOM     46  C   UNL A   1      42.533  30.122  28.771  1.00  0.00     0.049 A 
ATOM     47  N   UNL A   1      45.085  31.711  28.825  1.00  0.00    -0.248 NA
ATOM     48  C   UNL A   1      46.015  30.166  27.343  1.00  0.00     0.031 C 
ATOM     49  C   UNL A   1      41.264  29.397  28.777  1.00  0.00     0.029 A 
ATOM     50  N   UNL A   1      42.284  31.237  29.538  1.00  0.00    -0.354 N 
ATOM     51  C   UNL A   1      46.382  32.104  28.512  1.00  0.00     0.074 A 
ATOM     52  C   UNL A   1      46.915  31.105  27.610  1.00  0.00     0.031 C 
ATOM     53  C   UNL A   1      40.382  30.072  29.535  1.00  0.00     0.029 A 
ATOM     54  C   UNL A   1      41.038  31.237  30.125  1.00  0.00     0.049 A 
ATOM     55  H   UNL A   1      42.935  31.967  29.657  1.00  0.00     0.167 HD
ATOM     56  C   UNL A   1      47.065  33.192  28.946  1.00  0.00     0.034 A 
ATOM     57  C   UNL A   1      40.503  32.041  31.070  1.00  0.00     0.034 A 
ATOM     58  C   UNL A   1      46.523  34.184  29.842  1.00  0.00     0.049 A 
ATOM     59  C   UNL A   1      41.326  33.187  31.616  1.00  0.00     0.074 A 
ATOM     60  C   UNL A   1      47.121  35.351  30.290  1.00  0.00     0.029 A 
ATOM     61  N   UNL A   1      45.277  34.121  30.448  1.00  0.00    -0.354 N 
ATOM     62  N   UNL A   1      42.539  33.562  31.285  1.00  0.00    -0.248 NA
ATOM     63  C   UNL A   1      40.710  34.014  32.664  1.00  0.00     0.031 C 
ATOM     64  C   UNL A   1      46.281  35.938  31.240  1.00  0.00     0.029 A 
ATOM     65  C   UNL A   1      45.115  35.194  31.312  1.00  0.00     0.049 A 
ATOM     66  H   UNL A   1      44.606  33.419  30.287  1.00  0.00     0.167 HD
ATOM     67  C   UNL A   1      42.814  34.684  32.064  1.00  0.00     0.074 A 
ATOM     68  C   UNL A   1      41.637  34.938  32.864  1.00  0.00     0.031 C 
ATOM     69  C   UNL A   1      43.942  35.437  32.116  1.00  0.00     0.034 A 
BRANCH  56  70
ATOM     70  C   UNL A   1      48.504  33.346  28.520  1.00  0.00     0.023 A 
ATOM     71  C   UNL A   1      48.867  33.984  27.323  1.00  0.00     0.031 A 
ATOM     72  C   UNL A   1      49.532  32.889  29.365  1.00  0.00     0.131 A 
ATOM     73  C   UNL A   1      50.225  34.119  26.990  1.00  0.00     0.055 A 
ATOM     74  C   UNL A   1      50.879  33.085  29.061  1.00  0.00     0.041 A 
ATOM     75  F   UNL A   1      49.240  32.252  30.511  1.00  0.00    -0.206 F 
ATOM     76  C   UNL A   1      51.231  33.699  27.863  1.00  0.00     0.022 A 
BRANCH  73  77
ATOM     77  S   UNL A   1      50.661  34.771  25.354  1.00  0.00     0.124 S 
ATOM     78  O   UNL A   1      51.811  35.614  25.669  1.00  0.00    -0.237 OA
ATOM     79  O   UNL A   1      50.946  33.558  24.597  1.00  0.00    -0.237 OA
ATOM     80  O   UNL A   1      49.460  35.495  24.944  1.00  0.00    -0.744 OA
ENDBRANCH  73  77
ENDBRANCH  56  70
BRANCH  57  81
ATOM     81  C   UNL A   1      39.157  31.755  31.655  1.00  0.00     0.023 A 
ATOM     82  C   UNL A   1      37.994  32.349  31.141  1.00  0.00     0.031 A 
ATOM     83  C   UNL A   1      39.034  30.980  32.824  1.00  0.00     0.131 A 
ATOM     84  C   UNL A   1      36.776  32.213  31.829  1.00  0.00     0.055 A 
ATOM     85  C   UNL A   1      37.806  30.786  33.460  1.00  0.00     0.041 A 
ATOM     86  F   UNL A   1      40.114  30.408  33.377  1.00  0.00    -0.206 F 
ATOM     87  C   UNL A   1      36.669  31.418  32.972  1.00  0.00     0.022 A 
BRANCH  84  88
ATOM     88  S   UNL A   1      35.362  33.223  31.299  1.00  0.00     0.124 S 
ATOM     89  O   UNL A   1      35.625  34.479  31.990  1.00  0.00    -0.237 OA
ATOM     90  O   UNL A   1      35.530  33.237  29.850  1.00  0.00    -0.237 OA
ATOM     91  O   UNL A   1      34.209  32.469  31.785  1.00  0.00    -0.744 OA
ENDBRANCH  84  88
ENDBRANCH  57  81
BRANCH  69  92
ATOM     92  C   UNL A   1      43.943  36.630  33.042  1.00  0.00     0.023 A 
ATOM     93  C   UNL A   1      43.553  37.907  32.603  1.00  0.00     0.031 A 
ATOM     94  C   UNL A   1      44.334  36.484  34.385  1.00  0.00     0.131 A 
ATOM     95  C   UNL A   1      43.605  38.997  33.487  1.00  0.00     0.055 A 
ATOM     96  C   UNL A   1      44.321  37.558  35.277  1.00  0.00     0.041 A 
ATOM     97  F   UNL A   1      44.723  35.290  34.858  1.00  0.00    -0.206 F 
ATOM     98  C   UNL A   1      43.964  38.826  34.826  1.00  0.00     0.022 A 
BRANCH  95  99
ATOM     99  S   UNL A   1      43.272  40.659  32.842  1.00  0.00     0.124 S 
ATOM    100  O   UNL A   1      42.925  40.382  31.453  1.00  0.00    -0.237 OA
ATOM    101  O   UNL A   1      42.177  41.113  33.694  1.00  0.00    -0.237 OA
ATOM    102  O   UNL A   1      44.538  41.363  33.037  1.00  0.00    -0.744 OA
ENDBRANCH  95  99
ENDBRANCH  69  92
ENDBRANCH  43  44
ENDBRANCH  36  38
ENDBRANCH  35  36
ENDBRANCH  34  35
ENDBRANCH  33  34
ENDBRANCH  32  33
ENDBRANCH  31  32
ENDBRANCH   1  31
TORSDOF 25
ENDMDL
MODEL 2
REMARK VINA RESULT:      -9.6      5.199      8.399
REMARK SMILES O=C(C[C@@H](NS(=O)(=O)c1ccc2c(c1)OCCO2)c1ccccc1)OCCOCCOCCOC(=O)c1ccc(-c2c3nc(c(-c4cc(S(=O)(=O)[O-])ccc4F)c4ccc([nH]4)c(-c4cc(S(=O)(=O)[O-])ccc4F)c4nc(c(-c5cc(S(=O)(=O)[O-])ccc5F)c5ccc2[nH]5)C=C4)C=C3)cc1
REMARK SMILES IDX 29 1 28 2 27 3 26 4 25 5 2 6 1 7 3 8 4 9 5 10 6 12 7 13 8 14
REMARK SMILES IDX 9 15 10 16 14 17 11 18 13 19 12 20 15 21 18 22 16 23 17 24
REMARK SMILES IDX 19 25 20 26 24 27 21 28 23 29 22 30 30 31 31 32 32 33 33 34
REMARK SMILES IDX 34 35 35 36 36 37 37 38 38 39 99 40 39 41 98 42 40 43 41 44
REMARK SMILES IDX 42 45 92 46 43 47 97 48 91 49 93 50 44 51 96 52 90 53 89 54
REMARK SMILES IDX 45 56 77 57 57 58 76 59 58 60 61 61 75 62 94 63 59 64 60 65
REMARK SMILES IDX 74 67 95 68 62 69 46 70 47 71 55 72 48 73 54 74 56 75 53 76
REMARK SMILES IDX 49 77 50 78 51 79 52 80 78 81 79 82 87 83 80 84 86 85 88 86
REMARK SMILES IDX 85 87 81 88 82 89 83 90 84 91 63 92 64 93 72 94 65 95 71 96
REMARK SMILES IDX 73 97 70 98 66 99 67 100 68 101 69 102
REMARK H PARENT 5 11 93 55 61 66
REMARK Flexibility Score: inf
ROOT
ATOM      1  C   UNL A   1      42.068  23.860  27.191  1.00  0.00     0.188 C 
ENDROOT
BRANCH   1   2
ATOM      2  O   UNL A   1      41.361  25.080  27.164  1.00  0.00    -0.376 OA
BRANCH   2   3
ATOM      3  C   UNL A   1      40.100  25.141  27.807  1.00  0.00     0.202 C 
BRANCH   3   4
ATOM      4  C   UNL A   1      39.842  26.334  28.724  1.00  0.00     0.261 C 
BRANCH   4   5
ATOM      5  O   UNL A   1      40.351  27.674  28.385  1.00  0.00    -0.463 OA
BRANCH   5   6
ATOM      6  C   UNL A   1      39.888  28.630  27.543  1.00  0.00     0.307 C 
ATOM      7  O   UNL A   1      40.499  28.890  26.511  1.00  0.00    -0.252 OA
BRANCH   6   8
ATOM      8  C   UNL A   1      38.565  29.282  27.851  1.00  0.00     0.147 C 
BRANCH   8   9
ATOM      9  C   UNL A   1      38.611  30.441  28.857  1.00  0.00     0.111 C 
BRANCH   9  10
ATOM     10  N   UNL A   1      37.372  31.250  28.737  1.00  0.00    -0.203 NA
ATOM     11  H   UNL A   1      36.651  30.744  29.251  1.00  0.00     0.142 HD
BRANCH  10  12
ATOM     12  S   UNL A   1      37.285  32.841  29.256  1.00  0.00     0.241 S 
ATOM     13  O   UNL A   1      38.530  33.465  28.858  1.00  0.00    -0.207 OA
ATOM     14  O   UNL A   1      36.020  33.329  28.758  1.00  0.00    -0.207 OA
BRANCH  12  15
ATOM     15  C   UNL A   1      37.191  32.728  31.001  1.00  0.00     0.086 A 
ATOM     16  C   UNL A   1      35.966  32.457  31.620  1.00  0.00     0.026 A 
ATOM     17  C   UNL A   1      38.369  32.843  31.735  1.00  0.00     0.072 A 
ATOM     18  C   UNL A   1      35.937  32.240  32.997  1.00  0.00     0.052 A 
ATOM     19  C   UNL A   1      38.333  32.599  33.098  1.00  0.00     0.162 A 
ATOM     20  C   UNL A   1      37.121  32.304  33.734  1.00  0.00     0.161 A 
ATOM     21  O   UNL A   1      39.540  32.634  33.744  1.00  0.00    -0.486 OA
ATOM     22  O   UNL A   1      37.030  32.029  35.073  1.00  0.00    -0.486 OA
ATOM     23  C   UNL A   1      39.472  31.920  34.980  1.00  0.00     0.271 C 
ATOM     24  C   UNL A   1      38.244  32.348  35.766  1.00  0.00     0.271 C 
ENDBRANCH  12  15
ENDBRANCH  10  12
ENDBRANCH   9  10
BRANCH   9  25
ATOM     25  C   UNL A   1      38.801  29.793  30.227  1.00  0.00    -0.029 A 
ATOM     26  C   UNL A   1      39.990  29.940  30.969  1.00  0.00     0.005 A 
ATOM     27  C   UNL A   1      37.750  29.076  30.811  1.00  0.00     0.005 A 
ATOM     28  C   UNL A   1      40.149  29.342  32.220  1.00  0.00     0.000 A 
ATOM     29  C   UNL A   1      37.911  28.475  32.061  1.00  0.00     0.000 A 
ATOM     30  C   UNL A   1      39.113  28.593  32.757  1.00  0.00     0.000 A 
ENDBRANCH   9  25
ENDBRANCH   8   9
ENDBRANCH   6   8
ENDBRANCH   5   6
ENDBRANCH   4   5
ENDBRANCH   3   4
ENDBRANCH   2   3
ENDBRANCH   1   2
BRANCH   1  31
ATOM     31  C   UNL A   1      41.752  22.894  26.046  1.00  0.00     0.188 C 
BRANCH  31  32
ATOM     32  O   UNL A   1      42.772  22.585  25.113  1.00  0.00    -0.376 OA
BRANCH  32  33
ATOM     33  C   UNL A   1      44.063  22.245  25.609  1.00  0.00     0.202 C 
BRANCH  33  34
ATOM     34  C   UNL A   1      45.283  23.132  25.288  1.00  0.00     0.261 C 
BRANCH  34  35
ATOM     35  O   UNL A   1      45.019  24.410  24.669  1.00  0.00    -0.460 OA
BRANCH  35  36
ATOM     36  C   UNL A   1      45.972  25.366  24.838  1.00  0.00     0.338 C 
ATOM     37  O   UNL A   1      47.008  25.480  24.206  1.00  0.00    -0.246 OA
BRANCH  36  38
ATOM     38  C   UNL A   1      45.531  26.366  25.837  1.00  0.00     0.060 A 
ATOM     39  C   UNL A   1      46.459  26.900  26.743  1.00  0.00     0.016 A 
ATOM     40  C   UNL A   1      44.182  26.703  25.946  1.00  0.00     0.016 A 
ATOM     41  C   UNL A   1      46.043  27.785  27.748  1.00  0.00     0.010 A 
ATOM     42  C   UNL A   1      43.765  27.566  26.969  1.00  0.00     0.010 A 
ATOM     43  C   UNL A   1      44.688  28.107  27.885  1.00  0.00    -0.014 A 
BRANCH  43  44
ATOM     44  C   UNL A   1      44.197  28.920  29.033  1.00  0.00     0.031 A 
ATOM     45  C   UNL A   1      44.045  30.411  28.869  1.00  0.00     0.074 A 
ATOM     46  C   UNL A   1      43.929  28.355  30.227  1.00  0.00     0.049 A 
ATOM     47  N   UNL A   1      43.796  31.324  29.772  1.00  0.00    -0.248 NA
ATOM     48  C   UNL A   1      44.196  30.939  27.504  1.00  0.00     0.031 C 
ATOM     49  C   UNL A   1      43.972  26.921  30.509  1.00  0.00     0.029 A 
ATOM     50  N   UNL A   1      43.591  28.922  31.435  1.00  0.00    -0.354 N 
ATOM     51  C   UNL A   1      43.786  32.539  29.094  1.00  0.00     0.074 A 
ATOM     52  C   UNL A   1      44.057  32.244  27.703  1.00  0.00     0.031 C 
ATOM     53  C   UNL A   1      43.701  26.727  31.811  1.00  0.00     0.029 A 
ATOM     54  C   UNL A   1      43.535  28.018  32.473  1.00  0.00     0.049 A 
ATOM     55  H   UNL A   1      43.408  29.883  31.547  1.00  0.00     0.167 HD
ATOM     56  C   UNL A   1      43.578  33.783  29.591  1.00  0.00     0.034 A 
ATOM     57  C   UNL A   1      43.421  28.206  33.807  1.00  0.00     0.034 A 
ATOM     58  C   UNL A   1      43.304  34.065  30.980  1.00  0.00     0.049 A 
ATOM     59  C   UNL A   1      43.298  29.614  34.345  1.00  0.00     0.074 A 
ATOM     60  C   UNL A   1      43.024  35.289  31.565  1.00  0.00     0.029 A 
ATOM     61  N   UNL A   1      43.302  33.129  32.003  1.00  0.00    -0.354 N 
ATOM     62  N   UNL A   1      43.258  30.749  33.688  1.00  0.00    -0.248 NA
ATOM     63  C   UNL A   1      43.208  29.766  35.805  1.00  0.00     0.031 C 
ATOM     64  C   UNL A   1      42.951  35.108  32.948  1.00  0.00     0.029 A 
ATOM     65  C   UNL A   1      43.087  33.757  33.220  1.00  0.00     0.049 A 
ATOM     66  H   UNL A   1      43.432  32.161  31.882  1.00  0.00     0.167 HD
ATOM     67  C   UNL A   1      43.109  31.742  34.654  1.00  0.00     0.074 A 
ATOM     68  C   UNL A   1      43.044  31.074  35.935  1.00  0.00     0.031 C 
ATOM     69  C   UNL A   1      43.034  33.087  34.497  1.00  0.00     0.034 A 
BRANCH  56  70
ATOM     70  C   UNL A   1      43.704  34.956  28.651  1.00  0.00     0.023 A 
ATOM     71  C   UNL A   1      44.950  35.453  28.235  1.00  0.00     0.031 A 
ATOM     72  C   UNL A   1      42.544  35.551  28.122  1.00  0.00     0.131 A 
ATOM     73  C   UNL A   1      45.005  36.534  27.340  1.00  0.00     0.055 A 
ATOM     74  C   UNL A   1      42.606  36.580  27.182  1.00  0.00     0.041 A 
ATOM     75  F   UNL A   1      41.327  35.129  28.503  1.00  0.00    -0.206 F 
ATOM     76  C   UNL A   1      43.843  37.080  26.790  1.00  0.00     0.022 A 
BRANCH  73  77
ATOM     77  S   UNL A   1      46.617  37.278  26.970  1.00  0.00     0.124 S 
ATOM     78  O   UNL A   1      46.232  38.622  26.548  1.00  0.00    -0.237 OA
ATOM     79  O   UNL A   1      47.309  37.183  28.249  1.00  0.00    -0.237 OA
ATOM     80  O   UNL A   1      47.150  36.429  25.907  1.00  0.00    -0.744 OA
ENDBRANCH  73  77
ENDBRANCH  56  70
BRANCH  57  81
ATOM     81  C   UNL A   1      43.520  27.057  34.759  1.00  0.00     0.023 A 
ATOM     82  C   UNL A   1      44.760  26.608  35.238  1.00  0.00     0.031 A 
ATOM     83  C   UNL A   1      42.377  26.310  35.100  1.00  0.00     0.131 A 
ATOM     84  C   UNL A   1      44.835  25.412  35.973  1.00  0.00     0.055 A 
ATOM     85  C   UNL A   1      42.450  25.164  35.896  1.00  0.00     0.041 A 
ATOM     86  F   UNL A   1      41.167  26.674  34.651  1.00  0.00    -0.206 F 
ATOM     87  C   UNL A   1      43.687  24.699  36.324  1.00  0.00     0.022 A 
BRANCH  84  88
ATOM     88  S   UNL A   1      46.473  24.713  36.328  1.00  0.00     0.124 S 
ATOM     89  O   UNL A   1      46.920  24.324  34.996  1.00  0.00    -0.237 OA
ATOM     90  O   UNL A   1      47.160  25.850  36.932  1.00  0.00    -0.237 OA
ATOM     91  O   UNL A   1      46.177  23.608  37.238  1.00  0.00    -0.744 OA
ENDBRANCH  84  88
ENDBRANCH  57  81
BRANCH  69  92
ATOM     92  C   UNL A   1      42.837  33.925  35.737  1.00  0.00     0.023 A 
ATOM     93  C   UNL A   1      41.578  34.446  36.086  1.00  0.00     0.031 A 
ATOM     94  C   UNL A   1      43.923  34.201  36.587  1.00  0.00     0.131 A 
ATOM     95  C   UNL A   1      41.446  35.252  37.227  1.00  0.00     0.055 A 
ATOM     96  C   UNL A   1      43.773  34.949  37.757  1.00  0.00     0.041 A 
ATOM     97  F   UNL A   1      45.150  33.737  36.301  1.00  0.00    -0.206 F 
ATOM     98  C   UNL A   1      42.530  35.487  38.077  1.00  0.00     0.022 A 
BRANCH  95  99
ATOM     99  S   UNL A   1      39.852  36.057  37.547  1.00  0.00     0.124 S 
ATOM    100  O   UNL A   1      39.387  36.354  36.197  1.00  0.00    -0.237 OA
ATOM    101  O   UNL A   1      39.115  35.019  38.261  1.00  0.00    -0.237 OA
ATOM    102  O   UNL A   1      40.212  37.223  38.351  1.00  0.00    -0.744 OA
ENDBRANCH  95  99
ENDBRANCH  69  92
ENDBRANCH  43  44
ENDBRANCH  36  38
ENDBRANCH  35  36
ENDBRANCH  34  35
ENDBRANCH  33  34
ENDBRANCH  32  33
ENDBRANCH  31  32
ENDBRANCH   1  31
TORSDOF 25
ENDMDL
MODEL 3
REMARK VINA RESULT:      -9.5      1.360      3.700
REMARK SMILES O=C(C[C@@H](NS(=O)(=O)c1ccc2c(c1)OCCO2)c1ccccc1)OCCOCCOCCOC(=O)c1ccc(-c2c3nc(c(-c4cc(S(=O)(=O)[O-])ccc4F)c4ccc([nH]4)c(-c4cc(S(=O)(=O)[O-])ccc4F)c4nc(c(-c5cc(S(=O)(=O)[O-])ccc5F)c5ccc2[nH]5)C=C4)C=C3)cc1
REMARK SMILES IDX 29 1 28 2 27 3 26 4 25 5 2 6 1 7 3 8 4 9 5 10 6 12 7 13 8 14
REMARK SMILES IDX 9 15 10 16 14 17 11 18 13 19 12 20 15 21 18 22 16 23 17 24
REMARK SMILES IDX 19 25 20 26 24 27 21 28 23 29 22 30 30 31 31 32 32 33 33 34
REMARK SMILES IDX 34 35 35 36 36 37 37 38 38 39 99 40 39 41 98 42 40 43 41 44
REMARK SMILES IDX 42 45 92 46 43 47 97 48 91 49 93 50 44 51 96 52 90 53 89 54
REMARK SMILES IDX 45 56 77 57 57 58 76 59 58 60 61 61 75 62 94 63 59 64 60 65
REMARK SMILES IDX 74 67 95 68 62 69 46 70 47 71 55 72 48 73 54 74 56 75 53 76
REMARK SMILES IDX 49 77 50 78 51 79 52 80 78 81 79 82 87 83 80 84 86 85 88 86
REMARK SMILES IDX 85 87 81 88 82 89 83 90 84 91 63 92 64 93 72 94 65 95 71 96
REMARK SMILES IDX 73 97 70 98 66 99 67 100 68 101 69 102
REMARK H PARENT 5 11 93 55 61 66
REMARK Flexibility Score: inf
ROOT
ATOM      1  C   UNL A   1      40.900  20.236  27.032  1.00  0.00     0.188 C 
ENDROOT
BRANCH   1   2
ATOM      2  O   UNL A   1      40.202  20.788  25.937  1.00  0.00    -0.376 OA
BRANCH   2   3
ATOM      3  C   UNL A   1      39.264  21.820  26.189  1.00  0.00     0.202 C 
BRANCH   3   4
ATOM      4  C   UNL A   1      37.998  21.834  25.336  1.00  0.00     0.261 C 
BRANCH   4   5
ATOM      5  O   UNL A   1      37.509  23.083  24.727  1.00  0.00    -0.463 OA
BRANCH   5   6
ATOM      6  C   UNL A   1      36.341  23.394  24.117  1.00  0.00     0.307 C 
ATOM      7  O   UNL A   1      36.143  23.052  22.955  1.00  0.00    -0.252 OA
BRANCH   6   8
ATOM      8  C   UNL A   1      35.263  24.068  24.925  1.00  0.00     0.147 C 
BRANCH   8   9
ATOM      9  C   UNL A   1      33.891  24.179  24.245  1.00  0.00     0.111 C 
BRANCH   9  10
ATOM     10  N   UNL A   1      34.051  24.796  22.903  1.00  0.00    -0.203 NA
ATOM     11  H   UNL A   1      34.181  24.024  22.249  1.00  0.00     0.142 HD
BRANCH  10  12
ATOM     12  S   UNL A   1      32.884  25.789  22.227  1.00  0.00     0.241 S 
ATOM     13  O   UNL A   1      33.470  26.340  21.023  1.00  0.00    -0.207 OA
ATOM     14  O   UNL A   1      31.690  24.978  22.167  1.00  0.00    -0.207 OA
BRANCH  12  15
ATOM     15  C   UNL A   1      32.641  27.051  23.417  1.00  0.00     0.086 A 
ATOM     16  C   UNL A   1      31.377  27.631  23.574  1.00  0.00     0.026 A 
ATOM     17  C   UNL A   1      33.711  27.402  24.236  1.00  0.00     0.072 A 
ATOM     18  C   UNL A   1      31.173  28.538  24.614  1.00  0.00     0.052 A 
ATOM     19  C   UNL A   1      33.490  28.283  25.283  1.00  0.00     0.162 A 
ATOM     20  C   UNL A   1      32.227  28.857  25.472  1.00  0.00     0.161 A 
ATOM     21  O   UNL A   1      34.558  28.511  26.108  1.00  0.00    -0.486 OA
ATOM     22  O   UNL A   1      31.945  29.713  26.504  1.00  0.00    -0.486 OA
ATOM     23  C   UNL A   1      34.121  29.013  27.373  1.00  0.00     0.271 C 
ATOM     24  C   UNL A   1      33.135  30.151  27.173  1.00  0.00     0.271 C 
ENDBRANCH  12  15
ENDBRANCH  10  12
ENDBRANCH   9  10
BRANCH   9  25
ATOM     25  C   UNL A   1      33.329  22.759  24.213  1.00  0.00    -0.029 A 
ATOM     26  C   UNL A   1      32.836  22.172  23.029  1.00  0.00     0.005 A 
ATOM     27  C   UNL A   1      33.350  21.975  25.372  1.00  0.00     0.005 A 
ATOM     28  C   UNL A   1      32.325  20.874  23.016  1.00  0.00     0.000 A 
ATOM     29  C   UNL A   1      32.835  20.676  25.359  1.00  0.00     0.000 A 
ATOM     30  C   UNL A   1      32.308  20.133  24.188  1.00  0.00     0.000 A 
ENDBRANCH   9  25
ENDBRANCH   8   9
ENDBRANCH   6   8
ENDBRANCH   5   6
ENDBRANCH   4   5
ENDBRANCH   3   4
ENDBRANCH   2   3
ENDBRANCH   1   2
BRANCH   1  31
ATOM     31  C   UNL A   1      42.286  19.672  26.708  1.00  0.00     0.188 C 
BRANCH  31  32
ATOM     32  O   UNL A   1      42.855  19.950  25.441  1.00  0.00    -0.376 OA
BRANCH  32  33
ATOM     33  C   UNL A   1      43.802  21.008  25.340  1.00  0.00     0.202 C 
BRANCH  33  34
ATOM     34  C   UNL A   1      43.333  22.458  25.103  1.00  0.00     0.261 C 
BRANCH  34  35
ATOM     35  O   UNL A   1      43.802  23.459  26.034  1.00  0.00    -0.460 OA
BRANCH  35  36
ATOM     36  C   UNL A   1      44.496  24.497  25.498  1.00  0.00     0.338 C 
ATOM     37  O   UNL A   1      45.217  24.461  24.515  1.00  0.00    -0.246 OA
BRANCH  36  38
ATOM     38  C   UNL A   1      44.167  25.759  26.201  1.00  0.00     0.060 A 
ATOM     39  C   UNL A   1      43.632  26.837  25.481  1.00  0.00     0.016 A 
ATOM     40  C   UNL A   1      44.479  25.912  27.552  1.00  0.00     0.016 A 
ATOM     41  C   UNL A   1      43.392  28.065  26.114  1.00  0.00     0.010 A 
ATOM     42  C   UNL A   1      44.263  27.149  28.175  1.00  0.00     0.010 A 
ATOM     43  C   UNL A   1      43.728  28.240  27.461  1.00  0.00    -0.014 A 
BRANCH  43  44
ATOM     44  C   UNL A   1      43.627  29.573  28.119  1.00  0.00     0.031 A 
ATOM     45  C   UNL A   1      44.836  30.472  28.152  1.00  0.00     0.074 A 
ATOM     46  C   UNL A   1      42.489  29.971  28.722  1.00  0.00     0.049 A 
ATOM     47  N   UNL A   1      45.022  31.590  28.806  1.00  0.00    -0.248 NA
ATOM     48  C   UNL A   1      45.989  30.052  27.340  1.00  0.00     0.031 C 
ATOM     49  C   UNL A   1      41.228  29.232  28.713  1.00  0.00     0.029 A 
ATOM     50  N   UNL A   1      42.217  31.086  29.483  1.00  0.00    -0.354 N 
ATOM     51  C   UNL A   1      46.319  31.996  28.509  1.00  0.00     0.074 A 
ATOM     52  C   UNL A   1      46.874  31.001  27.616  1.00  0.00     0.031 C 
ATOM     53  C   UNL A   1      40.329  29.899  29.458  1.00  0.00     0.029 A 
ATOM     54  C   UNL A   1      40.964  31.072  30.054  1.00  0.00     0.049 A 
ATOM     55  H   UNL A   1      42.858  31.822  29.608  1.00  0.00     0.167 HD
ATOM     56  C   UNL A   1      46.983  33.092  28.949  1.00  0.00     0.034 A 
ATOM     57  C   UNL A   1      40.407  31.873  30.989  1.00  0.00     0.034 A 
ATOM     58  C   UNL A   1      46.418  34.081  29.836  1.00  0.00     0.049 A 
ATOM     59  C   UNL A   1      41.210  33.029  31.543  1.00  0.00     0.074 A 
ATOM     60  C   UNL A   1      46.997  35.255  30.289  1.00  0.00     0.029 A 
ATOM     61  N   UNL A   1      45.165  34.005  30.425  1.00  0.00    -0.354 N 
ATOM     62  N   UNL A   1      42.423  33.418  31.227  1.00  0.00    -0.248 NA
ATOM     63  C   UNL A   1      40.571  33.852  32.581  1.00  0.00     0.031 C 
ATOM     64  C   UNL A   1      46.138  35.836  31.225  1.00  0.00     0.029 A 
ATOM     65  C   UNL A   1      44.979  35.078  31.284  1.00  0.00     0.049 A 
ATOM     66  H   UNL A   1      44.504  33.296  30.257  1.00  0.00     0.167 HD
ATOM     67  C   UNL A   1      42.676  34.544  32.007  1.00  0.00     0.074 A 
ATOM     68  C   UNL A   1      41.485  34.787  32.791  1.00  0.00     0.031 C 
ATOM     69  C   UNL A   1      43.794  35.310  32.072  1.00  0.00     0.034 A 
BRANCH  56  70
ATOM     70  C   UNL A   1      48.426  33.262  28.542  1.00  0.00     0.023 A 
ATOM     71  C   UNL A   1      48.810  34.082  27.469  1.00  0.00     0.031 A 
ATOM     72  C   UNL A   1      49.438  32.626  29.285  1.00  0.00     0.131 A 
ATOM     73  C   UNL A   1      50.172  34.220  27.150  1.00  0.00     0.055 A 
ATOM     74  C   UNL A   1      50.791  32.820  29.005  1.00  0.00     0.041 A 
ATOM     75  F   UNL A   1      49.124  31.813  30.307  1.00  0.00    -0.206 F 
ATOM     76  C   UNL A   1      51.163  33.617  27.928  1.00  0.00     0.022 A 
BRANCH  73  77
ATOM     77  S   UNL A   1      50.628  35.127  25.647  1.00  0.00     0.124 S 
ATOM     78  O   UNL A   1      49.510  34.811  24.761  1.00  0.00    -0.237 OA
ATOM     79  O   UNL A   1      50.700  36.504  26.119  1.00  0.00    -0.237 OA
ATOM     80  O   UNL A   1      51.905  34.531  25.262  1.00  0.00    -0.744 OA
ENDBRANCH  73  77
ENDBRANCH  56  70
BRANCH  57  81
ATOM     81  C   UNL A   1      39.057  31.573  31.557  1.00  0.00     0.023 A 
ATOM     82  C   UNL A   1      37.884  32.031  30.938  1.00  0.00     0.031 A 
ATOM     83  C   UNL A   1      38.931  30.932  32.804  1.00  0.00     0.131 A 
ATOM     84  C   UNL A   1      36.648  31.900  31.595  1.00  0.00     0.055 A 
ATOM     85  C   UNL A   1      37.690  30.736  33.416  1.00  0.00     0.041 A 
ATOM     86  F   UNL A   1      40.018  30.494  33.457  1.00  0.00    -0.206 F 
ATOM     87  C   UNL A   1      36.540  31.236  32.818  1.00  0.00     0.022 A 
BRANCH  84  88
ATOM     88  S   UNL A   1      35.202  32.753  30.902  1.00  0.00     0.124 S 
ATOM     89  O   UNL A   1      34.283  32.735  32.033  1.00  0.00    -0.237 OA
ATOM     90  O   UNL A   1      35.762  34.052  30.547  1.00  0.00    -0.237 OA
ATOM     91  O   UNL A   1      34.823  31.908  29.771  1.00  0.00    -0.744 OA
ENDBRANCH  84  88
ENDBRANCH  57  81
BRANCH  69  92
ATOM     92  C   UNL A   1      43.769  36.505  32.995  1.00  0.00     0.023 A 
ATOM     93  C   UNL A   1      43.474  37.797  32.525  1.00  0.00     0.031 A 
ATOM     94  C   UNL A   1      44.038  36.347  34.366  1.00  0.00     0.131 A 
ATOM     95  C   UNL A   1      43.499  38.886  33.410  1.00  0.00     0.055 A 
ATOM     96  C   UNL A   1      43.998  37.424  35.254  1.00  0.00     0.041 A 
ATOM     97  F   UNL A   1      44.334  35.139  34.870  1.00  0.00    -0.206 F 
ATOM     98  C   UNL A   1      43.736  38.705  34.775  1.00  0.00     0.022 A 
BRANCH  95  99
ATOM     99  S   UNL A   1      43.295  40.559  32.740  1.00  0.00     0.124 S 
ATOM    100  O   UNL A   1      43.113  40.295  31.317  1.00  0.00    -0.237 OA
ATOM    101  O   UNL A   1      42.117  41.042  33.454  1.00  0.00    -0.237 OA
ATOM    102  O   UNL A   1      44.547  41.225  33.092  1.00  0.00    -0.744 OA
ENDBRANCH  95  99
ENDBRANCH  69  92
ENDBRANCH  43  44
ENDBRANCH  36  38
ENDBRANCH  35  36
ENDBRANCH  34  35
ENDBRANCH  33  34
ENDBRANCH  32  33
ENDBRANCH  31  32
ENDBRANCH   1  31
TORSDOF 25
ENDMDL
