MODEL 1
REMARK VINA RESULT:     -10.0      0.000      0.000
REMARK SMILES CC(C)N1C(=O)C[C@@H]([N@@H+]2CC[C@H](C(=O)OCCOCCOCCOC(=O)c3ccc(-c4c5nc(c(-c6cc(S(=O)(=O)[O-])ccc6F)c6ccc([nH]6)c(-c6cc(S(=O)(=O)[O-])ccc6F)c6nc(c(-c7cc(S(=O)(=O)[O-])ccc7F)c7ccc4[nH]7)C=C6)C=C5)cc3)[C@@H]2C)C1=O
REMARK SMILES IDX 20 1 19 2 18 3 17 4 16 5 15 6 13 7 14 8 12 9 9 10 10 11
REMARK SMILES IDX 90 12 11 14 91 15 8 16 4 17 5 18 92 19 6 20 7 21 93 22 2 23
REMARK SMILES IDX 1 24 3 25 21 26 22 27 23 28 24 29 25 30 26 31 27 32 28 33
REMARK SMILES IDX 89 34 29 35 88 36 30 37 31 38 32 39 82 40 33 41 87 42 81 43
REMARK SMILES IDX 83 44 34 45 86 46 80 47 79 48 35 50 67 51 47 52 66 53 48 54
REMARK SMILES IDX 51 55 65 56 84 57 49 58 50 59 64 61 85 62 52 63 36 64 37 65
REMARK SMILES IDX 45 66 38 67 44 68 46 69 43 70 39 71 40 72 41 73 42 74 68 75
REMARK SMILES IDX 69 76 77 77 70 78 76 79 78 80 75 81 71 82 72 83 73 84 74 85
REMARK SMILES IDX 53 86 54 87 62 88 55 89 61 90 63 91 60 92 56 93 57 94 58 95
REMARK SMILES IDX 59 96
REMARK H PARENT 9 13 83 49 51 60
REMARK Flexibility Score: inf
ROOT
ATOM      1  C   UNL A   1      41.041  20.987  27.645  1.00  0.00     0.188 C 
ENDROOT
BRANCH   1   2
ATOM      2  C   UNL A   1      40.616  21.703  26.346  1.00  0.00     0.188 C 
BRANCH   2   3
ATOM      3  O   UNL A   1      39.297  22.214  26.219  1.00  0.00    -0.376 OA
BRANCH   3   4
ATOM      4  C   UNL A   1      38.374  21.541  25.382  1.00  0.00     0.202 C 
BRANCH   4   5
ATOM      5  C   UNL A   1      36.888  21.922  25.454  1.00  0.00     0.261 C 
BRANCH   5   6
ATOM      6  O   UNL A   1      36.127  21.794  24.235  1.00  0.00    -0.463 OA
BRANCH   6   7
ATOM      7  C   UNL A   1      34.813  22.131  24.302  1.00  0.00     0.315 C 
ATOM      8  O   UNL A   1      33.997  21.560  25.018  1.00  0.00    -0.252 OA
BRANCH   7   9
ATOM      9  C   UNL A   1      34.415  23.303  23.411  1.00  0.00     0.162 C 
ATOM     10  N   UNL A   1      32.667  24.954  23.545  1.00  0.00    -0.321 N 
ATOM     11  C   UNL A   1      32.181  23.931  22.635  1.00  0.00     0.264 C 
ATOM     12  C   UNL A   1      34.002  24.634  24.055  1.00  0.00     0.196 C 
ATOM     13  H   UNL A   1      32.841  25.796  22.994  1.00  0.00     0.349 HD
ATOM     14  C   UNL A   1      33.346  22.989  22.370  1.00  0.00     0.083 C 
ATOM     15  C   UNL A   1      34.264  24.790  25.550  1.00  0.00     0.076 C 
BRANCH  10  16
ATOM     16  C   UNL A   1      31.687  25.651  24.381  1.00  0.00     0.284 C 
ATOM     17  N   UNL A   1      30.503  27.618  23.808  1.00  0.00    -0.275 N 
ATOM     18  C   UNL A   1      29.565  26.630  23.919  1.00  0.00     0.236 C 
ATOM     19  C   UNL A   1      31.741  27.166  24.193  1.00  0.00     0.288 C 
ATOM     20  O   UNL A   1      28.348  26.762  23.887  1.00  0.00    -0.274 OA
ATOM     21  C   UNL A   1      30.229  25.309  24.131  1.00  0.00     0.176 C 
ATOM     22  O   UNL A   1      32.738  27.839  24.421  1.00  0.00    -0.267 OA
BRANCH  17  23
ATOM     23  C   UNL A   1      30.118  29.017  23.542  1.00  0.00     0.087 C 
ATOM     24  C   UNL A   1      30.691  30.055  24.510  1.00  0.00     0.031 C 
ATOM     25  C   UNL A   1      30.496  29.436  22.112  1.00  0.00     0.031 C 
ENDBRANCH  17  23
ENDBRANCH  10  16
ENDBRANCH   7   9
ENDBRANCH   6   7
ENDBRANCH   5   6
ENDBRANCH   4   5
ENDBRANCH   3   4
ENDBRANCH   2   3
ENDBRANCH   1   2
BRANCH   1  26
ATOM     26  O   UNL A   1      41.825  19.825  27.448  1.00  0.00    -0.376 OA
BRANCH  26  27
ATOM     27  C   UNL A   1      41.685  19.176  26.195  1.00  0.00     0.202 C 
BRANCH  27  28
ATOM     28  C   UNL A   1      42.910  18.408  25.674  1.00  0.00     0.261 C 
BRANCH  28  29
ATOM     29  O   UNL A   1      44.169  19.104  25.706  1.00  0.00    -0.460 OA
BRANCH  29  30
ATOM     30  C   UNL A   1      44.416  19.981  24.708  1.00  0.00     0.338 C 
ATOM     31  O   UNL A   1      44.583  19.706  23.529  1.00  0.00    -0.246 OA
BRANCH  30  32
ATOM     32  C   UNL A   1      44.244  21.356  25.233  1.00  0.00     0.060 A 
ATOM     33  C   UNL A   1      43.902  22.384  24.342  1.00  0.00     0.016 A 
ATOM     34  C   UNL A   1      44.420  21.638  26.591  1.00  0.00     0.016 A 
ATOM     35  C   UNL A   1      43.784  23.700  24.798  1.00  0.00     0.010 A 
ATOM     36  C   UNL A   1      44.320  22.960  27.042  1.00  0.00     0.010 A 
ATOM     37  C   UNL A   1      44.042  24.007  26.141  1.00  0.00    -0.014 A 
BRANCH  37  38
ATOM     38  C   UNL A   1      44.241  25.424  26.554  1.00  0.00     0.031 A 
ATOM     39  C   UNL A   1      45.627  26.009  26.429  1.00  0.00     0.074 A 
ATOM     40  C   UNL A   1      43.227  26.190  27.000  1.00  0.00     0.049 A 
ATOM     41  N   UNL A   1      46.067  27.193  26.770  1.00  0.00    -0.248 NA
ATOM     42  C   UNL A   1      46.656  25.135  25.842  1.00  0.00     0.031 C 
ATOM     43  C   UNL A   1      41.834  25.763  27.122  1.00  0.00     0.029 A 
ATOM     44  N   UNL A   1      43.215  27.492  27.444  1.00  0.00    -0.354 N 
ATOM     45  C   UNL A   1      47.423  27.200  26.455  1.00  0.00     0.074 A 
ATOM     46  C   UNL A   1      47.738  25.895  25.919  1.00  0.00     0.031 C 
ATOM     47  C   UNL A   1      41.108  26.778  27.621  1.00  0.00     0.029 A 
ATOM     48  C   UNL A   1      41.985  27.916  27.896  1.00  0.00     0.049 A 
ATOM     49  H   UNL A   1      44.013  28.068  27.439  1.00  0.00     0.167 HD
ATOM     50  C   UNL A   1      48.322  28.203  26.600  1.00  0.00     0.034 A 
ATOM     51  C   UNL A   1      41.619  29.073  28.488  1.00  0.00     0.034 A 
ATOM     52  C   UNL A   1      47.999  29.502  27.132  1.00  0.00     0.049 A 
ATOM     53  C   UNL A   1      42.662  30.154  28.701  1.00  0.00     0.074 A 
ATOM     54  C   UNL A   1      48.833  30.595  27.295  1.00  0.00     0.029 A 
ATOM     55  N   UNL A   1      46.749  29.885  27.601  1.00  0.00    -0.354 N 
ATOM     56  N   UNL A   1      43.937  30.151  28.379  1.00  0.00    -0.248 NA
ATOM     57  C   UNL A   1      42.213  31.398  29.340  1.00  0.00     0.031 C 
ATOM     58  C   UNL A   1      48.113  31.605  27.939  1.00  0.00     0.029 A 
ATOM     59  C   UNL A   1      46.801  31.184  28.083  1.00  0.00     0.049 A 
ATOM     60  H   UNL A   1      45.944  29.317  27.592  1.00  0.00     0.167 HD
ATOM     61  C   UNL A   1      44.421  31.411  28.731  1.00  0.00     0.074 A 
ATOM     62  C   UNL A   1      43.301  32.149  29.274  1.00  0.00     0.031 C 
ATOM     63  C   UNL A   1      45.675  31.917  28.611  1.00  0.00     0.034 A 
BRANCH  50  64
ATOM     64  C   UNL A   1      49.758  27.922  26.232  1.00  0.00     0.023 A 
ATOM     65  C   UNL A   1      50.217  27.975  24.905  1.00  0.00     0.031 A 
ATOM     66  C   UNL A   1      50.691  27.616  27.240  1.00  0.00     0.131 A 
ATOM     67  C   UNL A   1      51.561  27.688  24.618  1.00  0.00     0.055 A 
ATOM     68  C   UNL A   1      52.040  27.403  26.957  1.00  0.00     0.041 A 
ATOM     69  F   UNL A   1      50.304  27.523  28.522  1.00  0.00    -0.206 F 
ATOM     70  C   UNL A   1      52.481  27.432  25.638  1.00  0.00     0.022 A 
BRANCH  67  71
ATOM     71  S   UNL A   1      52.072  27.551  22.884  1.00  0.00     0.124 S 
ATOM     72  O   UNL A   1      50.816  27.186  22.233  1.00  0.00    -0.237 OA
ATOM     73  O   UNL A   1      52.575  28.889  22.595  1.00  0.00    -0.237 OA
ATOM     74  O   UNL A   1      53.084  26.497  22.906  1.00  0.00    -0.744 OA
ENDBRANCH  67  71
ENDBRANCH  50  64
BRANCH  51  75
ATOM     75  C   UNL A   1      40.222  29.281  28.987  1.00  0.00     0.023 A 
ATOM     76  C   UNL A   1      39.916  29.213  30.357  1.00  0.00     0.031 A 
ATOM     77  C   UNL A   1      39.152  29.430  28.086  1.00  0.00     0.131 A 
ATOM     78  C   UNL A   1      38.576  29.209  30.778  1.00  0.00     0.055 A 
ATOM     79  C   UNL A   1      37.825  29.505  28.517  1.00  0.00     0.041 A 
ATOM     80  F   UNL A   1      39.379  29.491  26.764  1.00  0.00    -0.206 F 
ATOM     81  C   UNL A   1      37.529  29.371  29.868  1.00  0.00     0.022 A 
BRANCH  78  82
ATOM     82  S   UNL A   1      38.213  28.834  32.517  1.00  0.00     0.124 S 
ATOM     83  O   UNL A   1      38.434  27.393  32.560  1.00  0.00    -0.237 OA
ATOM     84  O   UNL A   1      39.196  29.656  33.215  1.00  0.00    -0.237 OA
ATOM     85  O   UNL A   1      36.823  29.259  32.673  1.00  0.00    -0.744 OA
ENDBRANCH  78  82
ENDBRANCH  51  75
BRANCH  63  86
ATOM     86  C   UNL A   1      45.884  33.368  28.990  1.00  0.00     0.023 A 
ATOM     87  C   UNL A   1      45.754  34.414  28.060  1.00  0.00     0.031 A 
ATOM     88  C   UNL A   1      46.235  33.702  30.311  1.00  0.00     0.131 A 
ATOM     89  C   UNL A   1      46.045  35.732  28.445  1.00  0.00     0.055 A 
ATOM     90  C   UNL A   1      46.449  35.023  30.706  1.00  0.00     0.041 A 
ATOM     91  F   UNL A   1      46.376  32.747  31.244  1.00  0.00    -0.206 F 
ATOM     92  C   UNL A   1      46.372  36.045  29.766  1.00  0.00     0.022 A 
BRANCH  89  93
ATOM     93  S   UNL A   1      46.112  37.019  27.168  1.00  0.00     0.124 S 
ATOM     94  O   UNL A   1      44.739  37.511  27.160  1.00  0.00    -0.237 OA
ATOM     95  O   UNL A   1      47.115  37.935  27.701  1.00  0.00    -0.237 OA
ATOM     96  O   UNL A   1      46.517  36.290  25.967  1.00  0.00    -0.744 OA
ENDBRANCH  89  93
ENDBRANCH  63  86
ENDBRANCH  37  38
ENDBRANCH  30  32
ENDBRANCH  29  30
ENDBRANCH  28  29
ENDBRANCH  27  28
ENDBRANCH  26  27
ENDBRANCH   1  26
TORSDOF 22
ENDMDL
MODEL 2
REMARK VINA RESULT:      -9.8      2.708      3.378
REMARK SMILES CC(C)N1C(=O)C[C@@H]([N@@H+]2CC[C@H](C(=O)OCCOCCOCCOC(=O)c3ccc(-c4c5nc(c(-c6cc(S(=O)(=O)[O-])ccc6F)c6ccc([nH]6)c(-c6cc(S(=O)(=O)[O-])ccc6F)c6nc(c(-c7cc(S(=O)(=O)[O-])ccc7F)c7ccc4[nH]7)C=C6)C=C5)cc3)[C@@H]2C)C1=O
REMARK SMILES IDX 20 1 19 2 18 3 17 4 16 5 15 6 13 7 14 8 12 9 9 10 10 11
REMARK SMILES IDX 90 12 11 14 91 15 8 16 4 17 5 18 92 19 6 20 7 21 93 22 2 23
REMARK SMILES IDX 1 24 3 25 21 26 22 27 23 28 24 29 25 30 26 31 27 32 28 33
REMARK SMILES IDX 89 34 29 35 88 36 30 37 31 38 32 39 82 40 33 41 87 42 81 43
REMARK SMILES IDX 83 44 34 45 86 46 80 47 79 48 35 50 67 51 47 52 66 53 48 54
REMARK SMILES IDX 51 55 65 56 84 57 49 58 50 59 64 61 85 62 52 63 36 64 37 65
REMARK SMILES IDX 45 66 38 67 44 68 46 69 43 70 39 71 40 72 41 73 42 74 68 75
REMARK SMILES IDX 69 76 77 77 70 78 76 79 78 80 75 81 71 82 72 83 73 84 74 85
REMARK SMILES IDX 53 86 54 87 62 88 55 89 61 90 63 91 60 92 56 93 57 94 58 95
REMARK SMILES IDX 59 96
REMARK H PARENT 9 13 83 49 51 60
REMARK Flexibility Score: inf
ROOT
ATOM      1  C   UNL A   1      40.717  21.470  27.365  1.00  0.00     0.188 C 
ENDROOT
BRANCH   1   2
ATOM      2  C   UNL A   1      39.820  21.388  26.113  1.00  0.00     0.188 C 
BRANCH   2   3
ATOM      3  O   UNL A   1      38.533  21.992  26.123  1.00  0.00    -0.376 OA
BRANCH   3   4
ATOM      4  C   UNL A   1      37.694  21.846  24.992  1.00  0.00     0.202 C 
BRANCH   4   5
ATOM      5  C   UNL A   1      36.436  20.974  25.105  1.00  0.00     0.261 C 
BRANCH   5   6
ATOM      6  O   UNL A   1      35.227  21.504  24.523  1.00  0.00    -0.463 OA
BRANCH   6   7
ATOM      7  C   UNL A   1      34.070  20.869  24.847  1.00  0.00     0.315 C 
ATOM      8  O   UNL A   1      33.941  19.650  24.864  1.00  0.00    -0.252 OA
BRANCH   7   9
ATOM      9  C   UNL A   1      32.917  21.801  25.204  1.00  0.00     0.162 C 
ATOM     10  N   UNL A   1      32.050  23.809  24.197  1.00  0.00    -0.321 N 
ATOM     11  C   UNL A   1      32.910  24.247  25.283  1.00  0.00     0.264 C 
ATOM     12  C   UNL A   1      32.017  22.350  24.089  1.00  0.00     0.196 C 
ATOM     13  H   UNL A   1      31.089  24.030  24.459  1.00  0.00     0.349 HD
ATOM     14  C   UNL A   1      33.299  23.001  26.065  1.00  0.00     0.083 C 
ATOM     15  C   UNL A   1      32.168  21.721  22.706  1.00  0.00     0.076 C 
BRANCH  10  16
ATOM     16  C   UNL A   1      31.966  24.657  23.005  1.00  0.00     0.284 C 
ATOM     17  N   UNL A   1      31.952  27.023  22.967  1.00  0.00    -0.275 N 
ATOM     18  C   UNL A   1      33.107  26.641  22.342  1.00  0.00     0.236 C 
ATOM     19  C   UNL A   1      31.169  25.935  23.261  1.00  0.00     0.288 C 
ATOM     20  O   UNL A   1      33.894  27.363  21.744  1.00  0.00    -0.274 OA
ATOM     21  C   UNL A   1      33.285  25.162  22.447  1.00  0.00     0.176 C 
ATOM     22  O   UNL A   1      29.997  25.939  23.613  1.00  0.00    -0.267 OA
BRANCH  17  23
ATOM     23  C   UNL A   1      31.561  28.442  23.056  1.00  0.00     0.087 C 
ATOM     24  C   UNL A   1      30.272  28.819  22.322  1.00  0.00     0.031 C 
ATOM     25  C   UNL A   1      31.426  28.891  24.520  1.00  0.00     0.031 C 
ENDBRANCH  17  23
ENDBRANCH  10  16
ENDBRANCH   7   9
ENDBRANCH   6   7
ENDBRANCH   5   6
ENDBRANCH   4   5
ENDBRANCH   3   4
ENDBRANCH   2   3
ENDBRANCH   1   2
BRANCH   1  26
ATOM     26  O   UNL A   1      41.714  20.469  27.442  1.00  0.00    -0.376 OA
BRANCH  26  27
ATOM     27  C   UNL A   1      41.752  19.535  26.375  1.00  0.00     0.202 C 
BRANCH  27  28
ATOM     28  C   UNL A   1      43.034  19.506  25.527  1.00  0.00     0.261 C 
BRANCH  28  29
ATOM     29  O   UNL A   1      44.057  20.458  25.872  1.00  0.00    -0.460 OA
BRANCH  29  30
ATOM     30  C   UNL A   1      44.258  21.485  25.017  1.00  0.00     0.338 C 
ATOM     31  O   UNL A   1      44.510  21.394  23.825  1.00  0.00    -0.246 OA
BRANCH  30  32
ATOM     32  C   UNL A   1      43.916  22.749  25.709  1.00  0.00     0.060 A 
ATOM     33  C   UNL A   1      43.432  23.827  24.952  1.00  0.00     0.016 A 
ATOM     34  C   UNL A   1      44.072  22.881  27.091  1.00  0.00     0.016 A 
ATOM     35  C   UNL A   1      43.151  25.050  25.568  1.00  0.00     0.010 A 
ATOM     36  C   UNL A   1      43.808  24.114  27.704  1.00  0.00     0.010 A 
ATOM     37  C   UNL A   1      43.385  25.218  26.940  1.00  0.00    -0.014 A 
BRANCH  37  38
ATOM     38  C   UNL A   1      43.405  26.588  27.527  1.00  0.00     0.031 A 
ATOM     39  C   UNL A   1      44.742  27.270  27.686  1.00  0.00     0.074 A 
ATOM     40  C   UNL A   1      42.276  27.230  27.884  1.00  0.00     0.049 A 
ATOM     41  N   UNL A   1      45.028  28.431  28.216  1.00  0.00    -0.248 NA
ATOM     42  C   UNL A   1      45.915  26.537  27.181  1.00  0.00     0.031 C 
ATOM     43  C   UNL A   1      40.920  26.704  27.738  1.00  0.00     0.029 A 
ATOM     44  N   UNL A   1      42.093  28.468  28.456  1.00  0.00    -0.354 N 
ATOM     45  C   UNL A   1      46.411  28.561  28.123  1.00  0.00     0.074 A 
ATOM     46  C   UNL A   1      46.908  27.350  27.509  1.00  0.00     0.031 C 
ATOM     47  C   UNL A   1      40.047  27.606  28.219  1.00  0.00     0.029 A 
ATOM     48  C   UNL A   1      40.778  28.757  28.749  1.00  0.00     0.049 A 
ATOM     49  H   UNL A   1      42.833  29.090  28.639  1.00  0.00     0.167 HD
ATOM     50  C   UNL A   1      47.194  29.595  28.514  1.00  0.00     0.034 A 
ATOM     51  C   UNL A   1      40.235  29.812  29.395  1.00  0.00     0.034 A 
ATOM     52  C   UNL A   1      46.690  30.800  29.123  1.00  0.00     0.049 A 
ATOM     53  C   UNL A   1      41.143  30.924  29.883  1.00  0.00     0.074 A 
ATOM     54  C   UNL A   1      47.400  31.917  29.530  1.00  0.00     0.029 A 
ATOM     55  N   UNL A   1      45.358  31.045  29.424  1.00  0.00    -0.354 N 
ATOM     56  N   UNL A   1      42.448  31.039  29.770  1.00  0.00    -0.248 NA
ATOM     57  C   UNL A   1      40.504  32.054  30.571  1.00  0.00     0.031 C 
ATOM     58  C   UNL A   1      46.511  32.797  30.155  1.00  0.00     0.029 A 
ATOM     59  C   UNL A   1      45.231  32.279  30.044  1.00  0.00     0.049 A 
ATOM     60  H   UNL A   1      44.612  30.432  29.227  1.00  0.00     0.167 HD
ATOM     61  C   UNL A   1      42.770  32.278  30.325  1.00  0.00     0.074 A 
ATOM     62  C   UNL A   1      41.525  32.875  30.758  1.00  0.00     0.031 C 
ATOM     63  C   UNL A   1      43.983  32.873  30.460  1.00  0.00     0.034 A 
BRANCH  50  64
ATOM     64  C   UNL A   1      48.687  29.450  28.351  1.00  0.00     0.023 A 
ATOM     65  C   UNL A   1      49.346  29.772  27.153  1.00  0.00     0.031 A 
ATOM     66  C   UNL A   1      49.468  29.000  29.432  1.00  0.00     0.131 A 
ATOM     67  C   UNL A   1      50.736  29.602  27.052  1.00  0.00     0.055 A 
ATOM     68  C   UNL A   1      50.857  28.903  29.349  1.00  0.00     0.041 A 
ATOM     69  F   UNL A   1      48.890  28.652  30.592  1.00  0.00    -0.206 F 
ATOM     70  C   UNL A   1      51.499  29.199  28.151  1.00  0.00     0.022 A 
BRANCH  67  71
ATOM     71  S   UNL A   1      51.525  29.816  25.433  1.00  0.00     0.124 S 
ATOM     72  O   UNL A   1      51.293  31.236  25.177  1.00  0.00    -0.237 OA
ATOM     73  O   UNL A   1      52.907  29.435  25.701  1.00  0.00    -0.237 OA
ATOM     74  O   UNL A   1      50.783  28.904  24.566  1.00  0.00    -0.744 OA
ENDBRANCH  67  71
ENDBRANCH  50  64
BRANCH  51  75
ATOM     75  C   UNL A   1      38.767  29.871  29.684  1.00  0.00     0.023 A 
ATOM     76  C   UNL A   1      37.900  30.663  28.911  1.00  0.00     0.031 A 
ATOM     77  C   UNL A   1      38.229  29.229  30.814  1.00  0.00     0.131 A 
ATOM     78  C   UNL A   1      36.571  30.859  29.324  1.00  0.00     0.055 A 
ATOM     79  C   UNL A   1      36.887  29.365  31.177  1.00  0.00     0.041 A 
ATOM     80  F   UNL A   1      39.009  28.467  31.599  1.00  0.00    -0.206 F 
ATOM     81  C   UNL A   1      36.055  30.202  30.443  1.00  0.00     0.022 A 
BRANCH  78  82
ATOM     82  S   UNL A   1      35.570  32.107  28.466  1.00  0.00     0.124 S 
ATOM     83  O   UNL A   1      36.582  33.086  28.086  1.00  0.00    -0.237 OA
ATOM     84  O   UNL A   1      34.987  31.331  27.378  1.00  0.00    -0.237 OA
ATOM     85  O   UNL A   1      34.627  32.549  29.492  1.00  0.00    -0.744 OA
ENDBRANCH  78  82
ENDBRANCH  51  75
BRANCH  63  86
ATOM     86  C   UNL A   1      44.014  34.279  31.018  1.00  0.00     0.023 A 
ATOM     87  C   UNL A   1      44.061  34.539  32.399  1.00  0.00     0.031 A 
ATOM     88  C   UNL A   1      43.981  35.381  30.143  1.00  0.00     0.131 A 
ATOM     89  C   UNL A   1      43.999  35.862  32.864  1.00  0.00     0.055 A 
ATOM     90  C   UNL A   1      43.996  36.696  30.609  1.00  0.00     0.041 A 
ATOM     91  F   UNL A   1      43.933  35.197  28.814  1.00  0.00    -0.206 F 
ATOM     92  C   UNL A   1      43.987  36.942  31.978  1.00  0.00     0.022 A 
BRANCH  89  93
ATOM     93  S   UNL A   1      43.809  36.153  34.645  1.00  0.00     0.124 S 
ATOM     94  O   UNL A   1      42.935  35.054  35.040  1.00  0.00    -0.237 OA
ATOM     95  O   UNL A   1      45.185  36.075  35.122  1.00  0.00    -0.237 OA
ATOM     96  O   UNL A   1      43.204  37.482  34.713  1.00  0.00    -0.744 OA
ENDBRANCH  89  93
ENDBRANCH  63  86
ENDBRANCH  37  38
ENDBRANCH  30  32
ENDBRANCH  29  30
ENDBRANCH  28  29
ENDBRANCH  27  28
ENDBRANCH  26  27
ENDBRANCH   1  26
TORSDOF 22
ENDMDL
MODEL 3
REMARK VINA RESULT:      -9.8      6.098     12.321
REMARK SMILES CC(C)N1C(=O)C[C@@H]([N@@H+]2CC[C@H](C(=O)OCCOCCOCCOC(=O)c3ccc(-c4c5nc(c(-c6cc(S(=O)(=O)[O-])ccc6F)c6ccc([nH]6)c(-c6cc(S(=O)(=O)[O-])ccc6F)c6nc(c(-c7cc(S(=O)(=O)[O-])ccc7F)c7ccc4[nH]7)C=C6)C=C5)cc3)[C@@H]2C)C1=O
REMARK SMILES IDX 20 1 19 2 18 3 17 4 16 5 15 6 13 7 14 8 12 9 9 10 10 11
REMARK SMILES IDX 90 12 11 14 91 15 8 16 4 17 5 18 92 19 6 20 7 21 93 22 2 23
REMARK SMILES IDX 1 24 3 25 21 26 22 27 23 28 24 29 25 30 26 31 27 32 28 33
REMARK SMILES IDX 89 34 29 35 88 36 30 37 31 38 32 39 82 40 33 41 87 42 81 43
REMARK SMILES IDX 83 44 34 45 86 46 80 47 79 48 35 50 67 51 47 52 66 53 48 54
REMARK SMILES IDX 51 55 65 56 84 57 49 58 50 59 64 61 85 62 52 63 36 64 37 65
REMARK SMILES IDX 45 66 38 67 44 68 46 69 43 70 39 71 40 72 41 73 42 74 68 75
REMARK SMILES IDX 69 76 77 77 70 78 76 79 78 80 75 81 71 82 72 83 73 84 74 85
REMARK SMILES IDX 53 86 54 87 62 88 55 89 61 90 63 91 60 92 56 93 57 94 58 95
REMARK SMILES IDX 59 96
REMARK H PARENT 9 13 83 49 51 60
REMARK Flexibility Score: inf
ROOT
ATOM      1  C   UNL A   1      33.203  34.018  28.011  1.00  0.00     0.188 C 
ENDROOT
BRANCH   1   2
ATOM      2  C   UNL A   1      34.291  33.191  28.726  1.00  0.00     0.188 C 
BRANCH   2   3
ATOM      3  O   UNL A   1      34.244  31.772  28.683  1.00  0.00    -0.376 OA
BRANCH   3   4
ATOM      4  C   UNL A   1      34.009  31.126  27.445  1.00  0.00     0.202 C 
BRANCH   4   5
ATOM      5  C   UNL A   1      32.655  30.442  27.207  1.00  0.00     0.261 C 
BRANCH   5   6
ATOM      6  O   UNL A   1      32.233  30.304  25.835  1.00  0.00    -0.463 OA
BRANCH   6   7
ATOM      7  C   UNL A   1      31.723  29.096  25.476  1.00  0.00     0.315 C 
ATOM      8  O   UNL A   1      30.985  28.926  24.511  1.00  0.00    -0.252 OA
BRANCH   7   9
ATOM      9  C   UNL A   1      32.148  27.940  26.373  1.00  0.00     0.162 C 
ATOM     10  N   UNL A   1      32.916  25.702  25.922  1.00  0.00    -0.321 N 
ATOM     11  C   UNL A   1      31.500  25.585  26.226  1.00  0.00     0.264 C 
ATOM     12  C   UNL A   1      33.368  27.093  25.985  1.00  0.00     0.196 C 
ATOM     13  H   UNL A   1      33.430  25.271  26.691  1.00  0.00     0.349 HD
ATOM     14  C   UNL A   1      31.041  26.949  26.719  1.00  0.00     0.083 C 
ATOM     15  C   UNL A   1      34.245  27.622  24.853  1.00  0.00     0.076 C 
BRANCH  10  16
ATOM     16  C   UNL A   1      33.490  24.765  24.954  1.00  0.00     0.284 C 
ATOM     17  N   UNL A   1      33.405  22.402  25.073  1.00  0.00    -0.275 N 
ATOM     18  C   UNL A   1      32.680  22.753  23.967  1.00  0.00     0.236 C 
ATOM     19  C   UNL A   1      34.022  23.498  25.624  1.00  0.00     0.288 C 
ATOM     20  O   UNL A   1      32.214  21.999  23.122  1.00  0.00    -0.274 OA
ATOM     21  C   UNL A   1      32.544  24.238  23.889  1.00  0.00     0.176 C 
ATOM     22  O   UNL A   1      34.905  23.503  26.471  1.00  0.00    -0.267 OA
BRANCH  17  23
ATOM     23  C   UNL A   1      33.644  20.989  25.417  1.00  0.00     0.087 C 
ATOM     24  C   UNL A   1      32.558  20.007  24.970  1.00  0.00     0.031 C 
ATOM     25  C   UNL A   1      34.991  20.500  24.859  1.00  0.00     0.031 C 
ENDBRANCH  17  23
ENDBRANCH  10  16
ENDBRANCH   7   9
ENDBRANCH   6   7
ENDBRANCH   5   6
ENDBRANCH   4   5
ENDBRANCH   3   4
ENDBRANCH   2   3
ENDBRANCH   1   2
BRANCH   1  26
ATOM     26  O   UNL A   1      32.555  34.972  28.832  1.00  0.00    -0.376 OA
BRANCH  26  27
ATOM     27  C   UNL A   1      33.303  36.131  29.162  1.00  0.00     0.202 C 
BRANCH  27  28
ATOM     28  C   UNL A   1      32.903  36.868  30.450  1.00  0.00     0.261 C 
BRANCH  28  29
ATOM     29  O   UNL A   1      33.607  36.498  31.649  1.00  0.00    -0.460 OA
BRANCH  29  30
ATOM     30  C   UNL A   1      33.286  35.314  32.215  1.00  0.00     0.338 C 
ATOM     31  O   UNL A   1      32.164  34.944  32.528  1.00  0.00    -0.246 OA
BRANCH  30  32
ATOM     32  C   UNL A   1      34.484  34.443  32.203  1.00  0.00     0.060 A 
ATOM     33  C   UNL A   1      34.351  33.102  32.593  1.00  0.00     0.016 A 
ATOM     34  C   UNL A   1      35.732  34.937  31.817  1.00  0.00     0.016 A 
ATOM     35  C   UNL A   1      35.473  32.268  32.643  1.00  0.00     0.010 A 
ATOM     36  C   UNL A   1      36.858  34.106  31.886  1.00  0.00     0.010 A 
ATOM     37  C   UNL A   1      36.743  32.778  32.339  1.00  0.00    -0.014 A 
BRANCH  37  38
ATOM     38  C   UNL A   1      37.961  32.002  32.706  1.00  0.00     0.031 A 
ATOM     39  C   UNL A   1      38.611  32.293  34.037  1.00  0.00     0.074 A 
ATOM     40  C   UNL A   1      38.468  31.044  31.906  1.00  0.00     0.049 A 
ATOM     41  N   UNL A   1      39.702  31.796  34.559  1.00  0.00    -0.248 NA
ATOM     42  C   UNL A   1      37.937  33.285  34.892  1.00  0.00     0.031 C 
ATOM     43  C   UNL A   1      37.908  30.632  30.620  1.00  0.00     0.029 A 
ATOM     44  N   UNL A   1      39.580  30.248  32.055  1.00  0.00    -0.354 N 
ATOM     45  C   UNL A   1      39.855  32.424  35.791  1.00  0.00     0.074 A 
ATOM     46  C   UNL A   1      38.757  33.356  35.928  1.00  0.00     0.031 C 
ATOM     47  C   UNL A   1      38.687  29.670  30.093  1.00  0.00     0.029 A 
ATOM     48  C   UNL A   1      39.825  29.425  30.979  1.00  0.00     0.049 A 
ATOM     49  H   UNL A   1      40.149  30.265  32.859  1.00  0.00     0.167 HD
ATOM     50  C   UNL A   1      40.820  32.240  36.724  1.00  0.00     0.034 A 
ATOM     51  C   UNL A   1      40.860  28.596  30.726  1.00  0.00     0.034 A 
ATOM     52  C   UNL A   1      41.909  31.307  36.581  1.00  0.00     0.049 A 
ATOM     53  C   UNL A   1      41.964  28.460  31.758  1.00  0.00     0.074 A 
ATOM     54  C   UNL A   1      42.923  31.027  37.480  1.00  0.00     0.029 A 
ATOM     55  N   UNL A   1      42.135  30.509  35.467  1.00  0.00    -0.354 N 
ATOM     56  N   UNL A   1      42.082  29.048  32.928  1.00  0.00    -0.248 NA
ATOM     57  C   UNL A   1      43.063  27.538  31.442  1.00  0.00     0.031 C 
ATOM     58  C   UNL A   1      43.809  30.129  36.877  1.00  0.00     0.029 A 
ATOM     59  C   UNL A   1      43.292  29.766  35.644  1.00  0.00     0.049 A 
ATOM     60  H   UNL A   1      41.560  30.477  34.669  1.00  0.00     0.167 HD
ATOM     61  C   UNL A   1      43.240  28.523  33.502  1.00  0.00     0.074 A 
ATOM     62  C   UNL A   1      43.774  27.565  32.559  1.00  0.00     0.031 C 
ATOM     63  C   UNL A   1      43.809  28.802  34.703  1.00  0.00     0.034 A 
BRANCH  50  64
ATOM     64  C   UNL A   1      40.782  33.105  37.960  1.00  0.00     0.023 A 
ATOM     65  C   UNL A   1      40.035  32.755  39.097  1.00  0.00     0.031 A 
ATOM     66  C   UNL A   1      41.531  34.296  38.003  1.00  0.00     0.131 A 
ATOM     67  C   UNL A   1      40.023  33.606  40.214  1.00  0.00     0.055 A 
ATOM     68  C   UNL A   1      41.572  35.100  39.142  1.00  0.00     0.041 A 
ATOM     69  F   UNL A   1      42.240  34.694  36.936  1.00  0.00    -0.206 F 
ATOM     70  C   UNL A   1      40.810  34.760  40.255  1.00  0.00     0.022 A 
BRANCH  67  71
ATOM     71  S   UNL A   1      38.884  33.240  41.576  1.00  0.00     0.124 S 
ATOM     72  O   UNL A   1      37.593  33.578  40.981  1.00  0.00    -0.237 OA
ATOM     73  O   UNL A   1      39.123  31.822  41.818  1.00  0.00    -0.237 OA
ATOM     74  O   UNL A   1      39.324  34.137  42.643  1.00  0.00    -0.744 OA
ENDBRANCH  67  71
ENDBRANCH  50  64
BRANCH  51  75
ATOM     75  C   UNL A   1      40.963  27.857  29.428  1.00  0.00     0.023 A 
ATOM     76  C   UNL A   1      41.909  28.217  28.453  1.00  0.00     0.031 A 
ATOM     77  C   UNL A   1      40.033  26.856  29.094  1.00  0.00     0.131 A 
ATOM     78  C   UNL A   1      41.851  27.645  27.171  1.00  0.00     0.055 A 
ATOM     79  C   UNL A   1      40.029  26.234  27.843  1.00  0.00     0.041 A 
ATOM     80  F   UNL A   1      39.097  26.475  29.979  1.00  0.00    -0.206 F 
ATOM     81  C   UNL A   1      40.927  26.644  26.865  1.00  0.00     0.022 A 
BRANCH  78  82
ATOM     82  S   UNL A   1      42.900  28.339  25.862  1.00  0.00     0.124 S 
ATOM     83  O   UNL A   1      44.194  27.742  26.174  1.00  0.00    -0.237 OA
ATOM     84  O   UNL A   1      42.242  27.849  24.656  1.00  0.00    -0.237 OA
ATOM     85  O   UNL A   1      42.808  29.781  26.080  1.00  0.00    -0.744 OA
ENDBRANCH  78  82
ENDBRANCH  51  75
BRANCH  63  86
ATOM     86  C   UNL A   1      45.024  27.993  35.105  1.00  0.00     0.023 A 
ATOM     87  C   UNL A   1      44.920  26.724  35.700  1.00  0.00     0.031 A 
ATOM     88  C   UNL A   1      46.314  28.519  34.900  1.00  0.00     0.131 A 
ATOM     89  C   UNL A   1      46.077  26.058  36.134  1.00  0.00     0.055 A 
ATOM     90  C   UNL A   1      47.464  27.818  35.264  1.00  0.00     0.041 A 
ATOM     91  F   UNL A   1      46.479  29.728  34.339  1.00  0.00    -0.206 F 
ATOM     92  C   UNL A   1      47.348  26.587  35.902  1.00  0.00     0.022 A 
BRANCH  89  93
ATOM     93  S   UNL A   1      45.894  24.544  37.117  1.00  0.00     0.124 S 
ATOM     94  O   UNL A   1      44.780  24.885  37.995  1.00  0.00    -0.237 OA
ATOM     95  O   UNL A   1      45.616  23.540  36.096  1.00  0.00    -0.237 OA
ATOM     96  O   UNL A   1      47.189  24.409  37.782  1.00  0.00    -0.744 OA
ENDBRANCH  89  93
ENDBRANCH  63  86
ENDBRANCH  37  38
ENDBRANCH  30  32
ENDBRANCH  29  30
ENDBRANCH  28  29
ENDBRANCH  27  28
ENDBRANCH  26  27
ENDBRANCH   1  26
TORSDOF 22
ENDMDL
