MODEL 1
REMARK VINA RESULT:      -9.6      0.000      0.000
REMARK SMILES CO[C@@H]1C[C@H](C(=O)OCCOCCOCCOC(=O)c2ccc(-c3c4nc(c(-c5cc(S(=O)(=O)[O-])ccc5F)c5ccc([nH]5)c(-c5cc(S(=O)(=O)[O-])ccc5F)c5nc(c(-c6cc(S(=O)(=O)[O-])ccc6F)c6ccc3[nH]6)C=C5)C=C4)cc2)N(C(=O)c2ccn(C)c(=O)c2)C1
REMARK SMILES IDX 13 1 12 2 11 3 10 4 9 5 8 6 6 7 7 8 5 9 3 10 4 11 94 12
REMARK SMILES IDX 83 13 2 14 1 15 84 16 85 17 86 18 87 19 93 20 88 21 91 22
REMARK SMILES IDX 89 23 92 24 90 25 14 26 15 27 16 28 17 29 18 30 19 31 20 32
REMARK SMILES IDX 21 33 82 34 22 35 81 36 23 37 24 38 25 39 75 40 26 41 80 42
REMARK SMILES IDX 74 43 76 44 27 45 79 46 73 47 72 48 28 50 60 51 40 52 59 53
REMARK SMILES IDX 41 54 44 55 58 56 77 57 42 58 43 59 57 61 78 62 45 63 29 64
REMARK SMILES IDX 30 65 38 66 31 67 37 68 39 69 36 70 32 71 33 72 34 73 35 74
REMARK SMILES IDX 61 75 62 76 70 77 63 78 69 79 71 80 68 81 64 82 65 83 66 84
REMARK SMILES IDX 67 85 46 86 47 87 55 88 48 89 54 90 56 91 53 92 49 93 50 94
REMARK SMILES IDX 51 95 52 96
REMARK H PARENT 76 49 44 60
REMARK Flexibility Score: inf
ROOT
ATOM      1  C   UNL A   1      34.796  31.058  28.034  1.00  0.00     0.188 C 
ENDROOT
BRANCH   1   2
ATOM      2  C   UNL A   1      33.833  30.181  27.225  1.00  0.00     0.188 C 
BRANCH   2   3
ATOM      3  O   UNL A   1      34.369  28.974  26.691  1.00  0.00    -0.376 OA
BRANCH   3   4
ATOM      4  C   UNL A   1      33.436  27.982  26.261  1.00  0.00     0.202 C 
BRANCH   4   5
ATOM      5  C   UNL A   1      34.025  26.695  25.667  1.00  0.00     0.261 C 
BRANCH   5   6
ATOM      6  O   UNL A   1      33.300  25.510  26.045  1.00  0.00    -0.462 OA
BRANCH   6   7
ATOM      7  C   UNL A   1      33.550  24.409  25.286  1.00  0.00     0.329 C 
ATOM      8  O   UNL A   1      34.240  24.417  24.270  1.00  0.00    -0.250 OA
BRANCH   7   9
ATOM      9  C   UNL A   1      32.979  23.108  25.889  1.00  0.00     0.198 C 
ATOM     10  C   UNL A   1      30.744  23.607  26.669  1.00  0.00     0.140 C 
ATOM     11  C   UNL A   1      32.143  23.197  27.156  1.00  0.00     0.071 C 
ATOM     12  C   UNL A   1      30.714  23.198  25.181  1.00  0.00     0.152 C 
ATOM     13  N   UNL A   1      32.014  22.599  24.925  1.00  0.00    -0.322 N 
BRANCH  10  14
ATOM     14  O   UNL A   1      30.571  25.017  26.830  1.00  0.00    -0.380 OA
ATOM     15  C   UNL A   1      29.894  25.604  25.719  1.00  0.00     0.195 C 
ENDBRANCH  10  14
BRANCH  13  16
ATOM     16  C   UNL A   1      32.279  21.833  23.814  1.00  0.00     0.254 C 
ATOM     17  O   UNL A   1      32.320  22.296  22.677  1.00  0.00    -0.269 OA
BRANCH  16  18
ATOM     18  C   UNL A   1      32.449  20.369  24.038  1.00  0.00     0.046 A 
ATOM     19  C   UNL A   1      32.653  19.813  25.353  1.00  0.00     0.032 A 
ATOM     20  C   UNL A   1      32.448  19.580  22.954  1.00  0.00     0.085 A 
ATOM     21  C   UNL A   1      32.842  18.494  25.492  1.00  0.00     0.089 A 
ATOM     22  C   UNL A   1      32.612  18.112  23.101  1.00  0.00     0.251 A 
ATOM     23  N   UNL A   1      32.829  17.647  24.395  1.00  0.00    -0.319 N 
ATOM     24  O   UNL A   1      32.538  17.421  22.091  1.00  0.00    -0.269 OA
ATOM     25  C   UNL A   1      33.069  16.222  24.610  1.00  0.00     0.153 C 
ENDBRANCH  16  18
ENDBRANCH  13  16
ENDBRANCH   7   9
ENDBRANCH   6   7
ENDBRANCH   5   6
ENDBRANCH   4   5
ENDBRANCH   3   4
ENDBRANCH   2   3
ENDBRANCH   1   2
BRANCH   1  26
ATOM     26  O   UNL A   1      34.785  32.437  27.684  1.00  0.00    -0.376 OA
BRANCH  26  27
ATOM     27  C   UNL A   1      33.506  33.063  27.564  1.00  0.00     0.202 C 
BRANCH  27  28
ATOM     28  C   UNL A   1      33.323  34.386  28.329  1.00  0.00     0.261 C 
BRANCH  28  29
ATOM     29  O   UNL A   1      32.728  34.252  29.636  1.00  0.00    -0.460 OA
BRANCH  29  30
ATOM     30  C   UNL A   1      33.233  35.000  30.646  1.00  0.00     0.338 C 
ATOM     31  O   UNL A   1      32.647  35.875  31.262  1.00  0.00    -0.246 OA
BRANCH  30  32
ATOM     32  C   UNL A   1      34.513  34.373  31.072  1.00  0.00     0.060 A 
ATOM     33  C   UNL A   1      34.466  33.125  31.712  1.00  0.00     0.016 A 
ATOM     34  C   UNL A   1      35.748  34.942  30.744  1.00  0.00     0.016 A 
ATOM     35  C   UNL A   1      35.649  32.451  32.030  1.00  0.00     0.010 A 
ATOM     36  C   UNL A   1      36.930  34.274  31.074  1.00  0.00     0.010 A 
ATOM     37  C   UNL A   1      36.888  33.032  31.733  1.00  0.00    -0.014 A 
BRANCH  37  38
ATOM     38  C   UNL A   1      38.149  32.448  32.257  1.00  0.00     0.031 A 
ATOM     39  C   UNL A   1      38.783  31.326  31.484  1.00  0.00     0.074 A 
ATOM     40  C   UNL A   1      38.707  32.878  33.403  1.00  0.00     0.049 A 
ATOM     41  N   UNL A   1      39.805  30.572  31.795  1.00  0.00    -0.248 NA
ATOM     42  C   UNL A   1      38.171  31.009  30.184  1.00  0.00     0.031 C 
ATOM     43  C   UNL A   1      38.225  33.992  34.217  1.00  0.00     0.029 A 
ATOM     44  N   UNL A   1      39.802  32.410  34.090  1.00  0.00    -0.354 N 
ATOM     45  C   UNL A   1      39.961  29.691  30.732  1.00  0.00     0.074 A 
ATOM     46  C   UNL A   1      38.903  29.980  29.787  1.00  0.00     0.031 C 
ATOM     47  C   UNL A   1      39.009  34.109  35.303  1.00  0.00     0.029 A 
ATOM     48  C   UNL A   1      40.020  33.050  35.287  1.00  0.00     0.049 A 
ATOM     49  H   UNL A   1      40.375  31.683  33.756  1.00  0.00     0.167 HD
ATOM     50  C   UNL A   1      40.902  28.732  30.556  1.00  0.00     0.034 A 
ATOM     51  C   UNL A   1      40.905  32.788  36.271  1.00  0.00     0.034 A 
ATOM     52  C   UNL A   1      41.937  28.437  31.513  1.00  0.00     0.049 A 
ATOM     53  C   UNL A   1      41.863  31.627  36.115  1.00  0.00     0.074 A 
ATOM     54  C   UNL A   1      42.949  27.497  31.426  1.00  0.00     0.029 A 
ATOM     55  N   UNL A   1      42.084  29.062  32.744  1.00  0.00    -0.354 N 
ATOM     56  N   UNL A   1      42.005  30.800  35.104  1.00  0.00    -0.248 NA
ATOM     57  C   UNL A   1      42.775  31.358  37.237  1.00  0.00     0.031 C 
ATOM     58  C   UNL A   1      43.656  27.498  32.633  1.00  0.00     0.029 A 
ATOM     59  C   UNL A   1      43.138  28.494  33.445  1.00  0.00     0.049 A 
ATOM     60  H   UNL A   1      41.522  29.801  33.072  1.00  0.00     0.167 HD
ATOM     61  C   UNL A   1      43.039  29.935  35.460  1.00  0.00     0.074 A 
ATOM     62  C   UNL A   1      43.490  30.345  36.772  1.00  0.00     0.031 C 
ATOM     63  C   UNL A   1      43.571  28.899  34.762  1.00  0.00     0.034 A 
BRANCH  50  64
ATOM     64  C   UNL A   1      40.808  27.898  29.304  1.00  0.00     0.023 A 
ATOM     65  C   UNL A   1      41.709  28.060  28.237  1.00  0.00     0.031 A 
ATOM     66  C   UNL A   1      39.779  26.950  29.161  1.00  0.00     0.131 A 
ATOM     67  C   UNL A   1      41.522  27.339  27.049  1.00  0.00     0.055 A 
ATOM     68  C   UNL A   1      39.647  26.178  28.006  1.00  0.00     0.041 A 
ATOM     69  F   UNL A   1      38.873  26.772  30.136  1.00  0.00    -0.206 F 
ATOM     70  C   UNL A   1      40.512  26.381  26.936  1.00  0.00     0.022 A 
BRANCH  67  71
ATOM     71  S   UNL A   1      42.524  27.779  25.603  1.00  0.00     0.124 S 
ATOM     72  O   UNL A   1      43.799  28.131  26.222  1.00  0.00    -0.237 OA
ATOM     73  O   UNL A   1      42.511  26.547  24.823  1.00  0.00    -0.237 OA
ATOM     74  O   UNL A   1      41.798  28.901  25.011  1.00  0.00    -0.744 OA
ENDBRANCH  67  71
ENDBRANCH  50  64
BRANCH  51  75
ATOM     75  C   UNL A   1      40.897  33.585  37.534  1.00  0.00     0.023 A 
ATOM     76  C   UNL A   1      41.847  34.593  37.763  1.00  0.00     0.031 A 
ATOM     77  C   UNL A   1      39.982  33.297  38.561  1.00  0.00     0.131 A 
ATOM     78  C   UNL A   1      41.889  35.245  39.007  1.00  0.00     0.055 A 
ATOM     79  C   UNL A   1      39.994  33.983  39.777  1.00  0.00     0.041 A 
ATOM     80  F   UNL A   1      39.057  32.337  38.398  1.00  0.00    -0.206 F 
ATOM     81  C   UNL A   1      40.961  34.956  40.009  1.00  0.00     0.022 A 
BRANCH  78  82
ATOM     82  S   UNL A   1      43.227  36.426  39.325  1.00  0.00     0.124 S 
ATOM     83  O   UNL A   1      44.324  35.847  38.558  1.00  0.00    -0.237 OA
ATOM     84  O   UNL A   1      42.661  37.666  38.805  1.00  0.00    -0.237 OA
ATOM     85  O   UNL A   1      43.386  36.377  40.777  1.00  0.00    -0.744 OA
ENDBRANCH  78  82
ENDBRANCH  51  75
BRANCH  63  86
ATOM     86  C   UNL A   1      44.726  28.156  35.388  1.00  0.00     0.023 A 
ATOM     87  C   UNL A   1      44.533  26.988  36.145  1.00  0.00     0.031 A 
ATOM     88  C   UNL A   1      46.043  28.615  35.204  1.00  0.00     0.131 A 
ATOM     89  C   UNL A   1      45.636  26.338  36.721  1.00  0.00     0.055 A 
ATOM     90  C   UNL A   1      47.141  27.934  35.733  1.00  0.00     0.041 A 
ATOM     91  F   UNL A   1      46.287  29.726  34.490  1.00  0.00    -0.206 F 
ATOM     92  C   UNL A   1      46.940  26.793  36.505  1.00  0.00     0.022 A 
BRANCH  89  93
ATOM     93  S   UNL A   1      45.344  24.917  37.811  1.00  0.00     0.124 S 
ATOM     94  O   UNL A   1      45.990  23.833  37.077  1.00  0.00    -0.237 OA
ATOM     95  O   UNL A   1      45.998  25.329  39.047  1.00  0.00    -0.237 OA
ATOM     96  O   UNL A   1      43.885  24.832  37.882  1.00  0.00    -0.744 OA
ENDBRANCH  89  93
ENDBRANCH  63  86
ENDBRANCH  37  38
ENDBRANCH  30  32
ENDBRANCH  29  30
ENDBRANCH  28  29
ENDBRANCH  27  28
ENDBRANCH  26  27
ENDBRANCH   1  26
TORSDOF 23
ENDMDL
MODEL 2
REMARK VINA RESULT:      -9.4      6.041     13.574
REMARK SMILES CO[C@@H]1C[C@H](C(=O)OCCOCCOCCOC(=O)c2ccc(-c3c4nc(c(-c5cc(S(=O)(=O)[O-])ccc5F)c5ccc([nH]5)c(-c5cc(S(=O)(=O)[O-])ccc5F)c5nc(c(-c6cc(S(=O)(=O)[O-])ccc6F)c6ccc3[nH]6)C=C5)C=C4)cc2)N(C(=O)c2ccn(C)c(=O)c2)C1
REMARK SMILES IDX 13 1 12 2 11 3 10 4 9 5 8 6 6 7 7 8 5 9 3 10 4 11 94 12
REMARK SMILES IDX 83 13 2 14 1 15 84 16 85 17 86 18 87 19 93 20 88 21 91 22
REMARK SMILES IDX 89 23 92 24 90 25 14 26 15 27 16 28 17 29 18 30 19 31 20 32
REMARK SMILES IDX 21 33 82 34 22 35 81 36 23 37 24 38 25 39 75 40 26 41 80 42
REMARK SMILES IDX 74 43 76 44 27 45 79 46 73 47 72 48 28 50 60 51 40 52 59 53
REMARK SMILES IDX 41 54 44 55 58 56 77 57 42 58 43 59 57 61 78 62 45 63 29 64
REMARK SMILES IDX 30 65 38 66 31 67 37 68 39 69 36 70 32 71 33 72 34 73 35 74
REMARK SMILES IDX 61 75 62 76 70 77 63 78 69 79 71 80 68 81 64 82 65 83 66 84
REMARK SMILES IDX 67 85 46 86 47 87 55 88 48 89 54 90 56 91 53 92 49 93 50 94
REMARK SMILES IDX 51 95 52 96
REMARK H PARENT 76 49 44 60
REMARK Flexibility Score: inf
ROOT
ATOM      1  C   UNL A   1      46.385  24.037  38.385  1.00  0.00     0.188 C 
ENDROOT
BRANCH   1   2
ATOM      2  C   UNL A   1      46.422  22.647  37.739  1.00  0.00     0.188 C 
BRANCH   2   3
ATOM      3  O   UNL A   1      46.468  21.535  38.627  1.00  0.00    -0.376 OA
BRANCH   3   4
ATOM      4  C   UNL A   1      47.679  20.778  38.660  1.00  0.00     0.202 C 
BRANCH   4   5
ATOM      5  C   UNL A   1      47.582  19.306  38.234  1.00  0.00     0.261 C 
BRANCH   5   6
ATOM      6  O   UNL A   1      47.251  18.419  39.319  1.00  0.00    -0.462 OA
BRANCH   6   7
ATOM      7  C   UNL A   1      46.030  17.827  39.234  1.00  0.00     0.329 C 
ATOM      8  O   UNL A   1      45.223  18.042  38.331  1.00  0.00    -0.250 OA
BRANCH   7   9
ATOM      9  C   UNL A   1      45.791  16.758  40.321  1.00  0.00     0.198 C 
ATOM     10  C   UNL A   1      46.074  17.847  42.462  1.00  0.00     0.140 C 
ATOM     11  C   UNL A   1      46.678  16.763  41.556  1.00  0.00     0.071 C 
ATOM     12  C   UNL A   1      44.619  17.999  41.972  1.00  0.00     0.152 C 
ATOM     13  N   UNL A   1      44.480  17.039  40.890  1.00  0.00    -0.322 N 
BRANCH  10  14
ATOM     14  O   UNL A   1      46.809  19.064  42.314  1.00  0.00    -0.380 OA
ATOM     15  C   UNL A   1      48.214  18.864  42.468  1.00  0.00     0.195 C 
ENDBRANCH  10  14
BRANCH  13  16
ATOM     16  C   UNL A   1      43.260  16.644  40.393  1.00  0.00     0.254 C 
ATOM     17  O   UNL A   1      42.657  17.267  39.523  1.00  0.00    -0.269 OA
BRANCH  16  18
ATOM     18  C   UNL A   1      42.646  15.436  41.017  1.00  0.00     0.046 A 
ATOM     19  C   UNL A   1      42.503  15.299  42.445  1.00  0.00     0.032 A 
ATOM     20  C   UNL A   1      42.266  14.449  40.193  1.00  0.00     0.085 A 
ATOM     21  C   UNL A   1      41.982  14.174  42.954  1.00  0.00     0.089 A 
ATOM     22  C   UNL A   1      41.647  13.217  40.743  1.00  0.00     0.251 A 
ATOM     23  N   UNL A   1      41.561  13.141  42.131  1.00  0.00    -0.319 N 
ATOM     24  O   UNL A   1      41.252  12.368  39.950  1.00  0.00    -0.269 OA
ATOM     25  C   UNL A   1      41.028  11.929  42.747  1.00  0.00     0.153 C 
ENDBRANCH  16  18
ENDBRANCH  13  16
ENDBRANCH   7   9
ENDBRANCH   6   7
ENDBRANCH   5   6
ENDBRANCH   4   5
ENDBRANCH   3   4
ENDBRANCH   2   3
ENDBRANCH   1   2
BRANCH   1  26
ATOM     26  O   UNL A   1      47.541  24.375  39.142  1.00  0.00    -0.376 OA
BRANCH  26  27
ATOM     27  C   UNL A   1      48.746  24.612  38.411  1.00  0.00     0.202 C 
BRANCH  27  28
ATOM     28  C   UNL A   1      48.577  25.013  36.934  1.00  0.00     0.261 C 
BRANCH  28  29
ATOM     29  O   UNL A   1      48.414  26.427  36.706  1.00  0.00    -0.460 OA
BRANCH  29  30
ATOM     30  C   UNL A   1      48.651  26.903  35.461  1.00  0.00     0.338 C 
ATOM     31  O   UNL A   1      49.689  26.791  34.829  1.00  0.00    -0.246 OA
BRANCH  30  32
ATOM     32  C   UNL A   1      47.346  27.321  34.883  1.00  0.00     0.060 A 
ATOM     33  C   UNL A   1      46.212  26.543  35.162  1.00  0.00     0.016 A 
ATOM     34  C   UNL A   1      47.212  28.521  34.177  1.00  0.00     0.016 A 
ATOM     35  C   UNL A   1      44.948  26.959  34.730  1.00  0.00     0.010 A 
ATOM     36  C   UNL A   1      45.950  28.929  33.736  1.00  0.00     0.010 A 
ATOM     37  C   UNL A   1      44.814  28.144  33.995  1.00  0.00    -0.014 A 
BRANCH  37  38
ATOM     38  C   UNL A   1      43.528  28.490  33.338  1.00  0.00     0.031 A 
ATOM     39  C   UNL A   1      43.302  28.015  31.930  1.00  0.00     0.074 A 
ATOM     40  C   UNL A   1      42.592  29.232  33.958  1.00  0.00     0.049 A 
ATOM     41  N   UNL A   1      42.328  28.289  31.103  1.00  0.00    -0.248 NA
ATOM     42  C   UNL A   1      44.325  27.109  31.382  1.00  0.00     0.031 C 
ATOM     43  C   UNL A   1      42.662  29.708  35.338  1.00  0.00     0.029 A 
ATOM     44  N   UNL A   1      41.398  29.729  33.492  1.00  0.00    -0.354 N 
ATOM     45  C   UNL A   1      42.617  27.593  29.936  1.00  0.00     0.074 A 
ATOM     46  C   UNL A   1      43.878  26.915  30.151  1.00  0.00     0.031 C 
ATOM     47  C   UNL A   1      41.568  30.445  35.601  1.00  0.00     0.029 A 
ATOM     48  C   UNL A   1      40.742  30.532  34.395  1.00  0.00     0.049 A 
ATOM     49  H   UNL A   1      41.046  29.529  32.595  1.00  0.00     0.167 HD
ATOM     50  C   UNL A   1      41.896  27.520  28.792  1.00  0.00     0.034 A 
ATOM     51  C   UNL A   1      39.628  31.280  34.253  1.00  0.00     0.034 A 
ATOM     52  C   UNL A   1      40.653  28.216  28.578  1.00  0.00     0.049 A 
ATOM     53  C   UNL A   1      38.908  31.291  32.922  1.00  0.00     0.074 A 
ATOM     54  C   UNL A   1      39.835  28.198  27.463  1.00  0.00     0.029 A 
ATOM     55  N   UNL A   1      40.056  29.074  29.492  1.00  0.00    -0.354 N 
ATOM     56  N   UNL A   1      39.188  30.626  31.823  1.00  0.00    -0.248 NA
ATOM     57  C   UNL A   1      37.727  32.158  32.808  1.00  0.00     0.031 C 
ATOM     58  C   UNL A   1      38.789  29.103  27.669  1.00  0.00     0.029 A 
ATOM     59  C   UNL A   1      38.907  29.628  28.946  1.00  0.00     0.049 A 
ATOM     60  H   UNL A   1      40.397  29.262  30.397  1.00  0.00     0.167 HD
ATOM     61  C   UNL A   1      38.201  30.976  30.903  1.00  0.00     0.074 A 
ATOM     62  C   UNL A   1      37.315  31.902  31.576  1.00  0.00     0.031 C 
ATOM     63  C   UNL A   1      38.039  30.565  29.619  1.00  0.00     0.034 A 
BRANCH  50  64
ATOM     64  C   UNL A   1      42.474  26.701  27.665  1.00  0.00     0.023 A 
ATOM     65  C   UNL A   1      42.310  25.306  27.604  1.00  0.00     0.031 A 
ATOM     66  C   UNL A   1      43.231  27.322  26.656  1.00  0.00     0.131 A 
ATOM     67  C   UNL A   1      42.953  24.571  26.598  1.00  0.00     0.055 A 
ATOM     68  C   UNL A   1      43.802  26.593  25.612  1.00  0.00     0.041 A 
ATOM     69  F   UNL A   1      43.444  28.647  26.678  1.00  0.00    -0.206 F 
ATOM     70  C   UNL A   1      43.678  25.207  25.587  1.00  0.00     0.022 A 
BRANCH  67  71
ATOM     71  S   UNL A   1      42.954  22.761  26.715  1.00  0.00     0.124 S 
ATOM     72  O   UNL A   1      42.489  22.552  28.084  1.00  0.00    -0.237 OA
ATOM     73  O   UNL A   1      42.027  22.376  25.659  1.00  0.00    -0.237 OA
ATOM     74  O   UNL A   1      44.352  22.404  26.481  1.00  0.00    -0.744 OA
ENDBRANCH  67  71
ENDBRANCH  50  64
BRANCH  51  75
ATOM     75  C   UNL A   1      39.147  32.148  35.369  1.00  0.00     0.023 A 
ATOM     76  C   UNL A   1      39.597  33.470  35.507  1.00  0.00     0.031 A 
ATOM     77  C   UNL A   1      38.286  31.638  36.356  1.00  0.00     0.131 A 
ATOM     78  C   UNL A   1      39.219  34.223  36.631  1.00  0.00     0.055 A 
ATOM     79  C   UNL A   1      37.872  32.407  37.446  1.00  0.00     0.041 A 
ATOM     80  F   UNL A   1      37.832  30.378  36.278  1.00  0.00    -0.206 F 
ATOM     81  C   UNL A   1      38.350  33.705  37.594  1.00  0.00     0.022 A 
BRANCH  78  82
ATOM     82  S   UNL A   1      39.946  35.869  36.860  1.00  0.00     0.124 S 
ATOM     83  O   UNL A   1      39.204  36.365  38.012  1.00  0.00    -0.237 OA
ATOM     84  O   UNL A   1      41.350  35.546  37.088  1.00  0.00    -0.237 OA
ATOM     85  O   UNL A   1      39.662  36.545  35.595  1.00  0.00    -0.744 OA
ENDBRANCH  78  82
ENDBRANCH  51  75
BRANCH  63  86
ATOM     86  C   UNL A   1      36.837  31.086  28.867  1.00  0.00     0.023 A 
ATOM     87  C   UNL A   1      35.848  30.224  28.363  1.00  0.00     0.031 A 
ATOM     88  C   UNL A   1      36.672  32.469  28.672  1.00  0.00     0.131 A 
ATOM     89  C   UNL A   1      34.755  30.752  27.658  1.00  0.00     0.055 A 
ATOM     90  C   UNL A   1      35.555  32.992  28.017  1.00  0.00     0.041 A 
ATOM     91  F   UNL A   1      37.586  33.338  29.132  1.00  0.00    -0.206 F 
ATOM     92  C   UNL A   1      34.593  32.131  27.497  1.00  0.00     0.022 A 
BRANCH  89  93
ATOM     93  S   UNL A   1      33.571  29.608  26.896  1.00  0.00     0.124 S 
ATOM     94  O   UNL A   1      34.418  28.866  25.968  1.00  0.00    -0.237 OA
ATOM     95  O   UNL A   1      33.074  28.858  28.044  1.00  0.00    -0.237 OA
ATOM     96  O   UNL A   1      32.592  30.494  26.267  1.00  0.00    -0.744 OA
ENDBRANCH  89  93
ENDBRANCH  63  86
ENDBRANCH  37  38
ENDBRANCH  30  32
ENDBRANCH  29  30
ENDBRANCH  28  29
ENDBRANCH  27  28
ENDBRANCH  26  27
ENDBRANCH   1  26
TORSDOF 23
ENDMDL
MODEL 3
REMARK VINA RESULT:      -9.4      2.532      7.918
REMARK SMILES CO[C@@H]1C[C@H](C(=O)OCCOCCOCCOC(=O)c2ccc(-c3c4nc(c(-c5cc(S(=O)(=O)[O-])ccc5F)c5ccc([nH]5)c(-c5cc(S(=O)(=O)[O-])ccc5F)c5nc(c(-c6cc(S(=O)(=O)[O-])ccc6F)c6ccc3[nH]6)C=C5)C=C4)cc2)N(C(=O)c2ccn(C)c(=O)c2)C1
REMARK SMILES IDX 13 1 12 2 11 3 10 4 9 5 8 6 6 7 7 8 5 9 3 10 4 11 94 12
REMARK SMILES IDX 83 13 2 14 1 15 84 16 85 17 86 18 87 19 93 20 88 21 91 22
REMARK SMILES IDX 89 23 92 24 90 25 14 26 15 27 16 28 17 29 18 30 19 31 20 32
REMARK SMILES IDX 21 33 82 34 22 35 81 36 23 37 24 38 25 39 75 40 26 41 80 42
REMARK SMILES IDX 74 43 76 44 27 45 79 46 73 47 72 48 28 50 60 51 40 52 59 53
REMARK SMILES IDX 41 54 44 55 58 56 77 57 42 58 43 59 57 61 78 62 45 63 29 64
REMARK SMILES IDX 30 65 38 66 31 67 37 68 39 69 36 70 32 71 33 72 34 73 35 74
REMARK SMILES IDX 61 75 62 76 70 77 63 78 69 79 71 80 68 81 64 82 65 83 66 84
REMARK SMILES IDX 67 85 46 86 47 87 55 88 48 89 54 90 56 91 53 92 49 93 50 94
REMARK SMILES IDX 51 95 52 96
REMARK H PARENT 76 49 44 60
REMARK Flexibility Score: inf
ROOT
ATOM      1  C   UNL A   1      35.126  32.585  28.154  1.00  0.00     0.188 C 
ENDROOT
BRANCH   1   2
ATOM      2  C   UNL A   1      35.188  31.055  28.234  1.00  0.00     0.188 C 
BRANCH   2   3
ATOM      3  O   UNL A   1      34.732  30.340  27.090  1.00  0.00    -0.376 OA
BRANCH   3   4
ATOM      4  C   UNL A   1      34.412  28.960  27.269  1.00  0.00     0.202 C 
BRANCH   4   5
ATOM      5  C   UNL A   1      32.937  28.569  27.108  1.00  0.00     0.261 C 
BRANCH   5   6
ATOM      6  O   UNL A   1      32.748  27.357  26.352  1.00  0.00    -0.462 OA
BRANCH   6   7
ATOM      7  C   UNL A   1      32.470  27.532  25.033  1.00  0.00     0.329 C 
ATOM      8  O   UNL A   1      32.928  28.445  24.349  1.00  0.00    -0.250 OA
BRANCH   7   9
ATOM      9  C   UNL A   1      31.611  26.399  24.433  1.00  0.00     0.198 C 
ATOM     10  C   UNL A   1      29.876  27.446  23.113  1.00  0.00     0.140 C 
ATOM     11  C   UNL A   1      30.103  26.585  24.365  1.00  0.00     0.071 C 
ATOM     12  C   UNL A   1      31.146  27.241  22.261  1.00  0.00     0.152 C 
ATOM     13  N   UNL A   1      31.969  26.317  23.024  1.00  0.00    -0.322 N 
BRANCH  10  14
ATOM     14  O   UNL A   1      29.712  28.815  23.493  1.00  0.00    -0.380 OA
ATOM     15  C   UNL A   1      28.710  29.470  22.717  1.00  0.00     0.195 C 
ENDBRANCH  10  14
BRANCH  13  16
ATOM     16  C   UNL A   1      33.037  25.642  22.478  1.00  0.00     0.254 C 
ATOM     17  O   UNL A   1      33.653  26.046  21.496  1.00  0.00    -0.269 OA
BRANCH  16  18
ATOM     18  C   UNL A   1      33.383  24.330  23.098  1.00  0.00     0.046 A 
ATOM     19  C   UNL A   1      32.631  23.131  22.826  1.00  0.00     0.032 A 
ATOM     20  C   UNL A   1      34.408  24.315  23.963  1.00  0.00     0.085 A 
ATOM     21  C   UNL A   1      32.961  21.987  23.442  1.00  0.00     0.089 A 
ATOM     22  C   UNL A   1      34.809  23.044  24.618  1.00  0.00     0.251 A 
ATOM     23  N   UNL A   1      34.025  21.931  24.328  1.00  0.00    -0.319 N 
ATOM     24  O   UNL A   1      35.793  23.061  25.350  1.00  0.00    -0.269 OA
ATOM     25  C   UNL A   1      34.317  20.662  24.990  1.00  0.00     0.153 C 
ENDBRANCH  16  18
ENDBRANCH  13  16
ENDBRANCH   7   9
ENDBRANCH   6   7
ENDBRANCH   5   6
ENDBRANCH   4   5
ENDBRANCH   3   4
ENDBRANCH   2   3
ENDBRANCH   1   2
BRANCH   1  26
ATOM     26  O   UNL A   1      34.157  33.097  27.247  1.00  0.00    -0.376 OA
BRANCH  26  27
ATOM     27  C   UNL A   1      33.023  33.755  27.816  1.00  0.00     0.202 C 
BRANCH  27  28
ATOM     28  C   UNL A   1      33.325  34.872  28.831  1.00  0.00     0.261 C 
BRANCH  28  29
ATOM     29  O   UNL A   1      32.980  34.560  30.196  1.00  0.00    -0.460 OA
BRANCH  29  30
ATOM     30  C   UNL A   1      33.725  35.111  31.184  1.00  0.00     0.338 C 
ATOM     31  O   UNL A   1      33.385  36.019  31.925  1.00  0.00    -0.246 OA
BRANCH  30  32
ATOM     32  C   UNL A   1      34.903  34.231  31.405  1.00  0.00     0.060 A 
ATOM     33  C   UNL A   1      34.690  32.954  31.947  1.00  0.00     0.016 A 
ATOM     34  C   UNL A   1      36.182  34.602  30.977  1.00  0.00     0.016 A 
ATOM     35  C   UNL A   1      35.754  32.054  32.069  1.00  0.00     0.010 A 
ATOM     36  C   UNL A   1      37.246  33.706  31.111  1.00  0.00     0.010 A 
ATOM     37  C   UNL A   1      37.042  32.434  31.672  1.00  0.00    -0.014 A 
BRANCH  37  38
ATOM     38  C   UNL A   1      38.219  31.588  31.995  1.00  0.00     0.031 A 
ATOM     39  C   UNL A   1      38.961  31.866  33.272  1.00  0.00     0.074 A 
ATOM     40  C   UNL A   1      38.642  30.614  31.168  1.00  0.00     0.049 A 
ATOM     41  N   UNL A   1      40.082  31.358  33.714  1.00  0.00    -0.248 NA
ATOM     42  C   UNL A   1      38.354  32.863  34.169  1.00  0.00     0.031 C 
ATOM     43  C   UNL A   1      37.982  30.207  29.929  1.00  0.00     0.029 A 
ATOM     44  N   UNL A   1      39.746  29.800  31.243  1.00  0.00    -0.354 N 
ATOM     45  C   UNL A   1      40.316  31.971  34.938  1.00  0.00     0.074 A 
ATOM     46  C   UNL A   1      39.241  32.916  35.150  1.00  0.00     0.031 C 
ATOM     47  C   UNL A   1      38.705  29.231  29.351  1.00  0.00     0.029 A 
ATOM     48  C   UNL A   1      39.903  28.978  30.153  1.00  0.00     0.049 A 
ATOM     49  H   UNL A   1      40.367  29.806  32.007  1.00  0.00     0.167 HD
ATOM     50  C   UNL A   1      41.332  31.761  35.810  1.00  0.00     0.034 A 
ATOM     51  C   UNL A   1      40.914  28.147  29.821  1.00  0.00     0.034 A 
ATOM     52  C   UNL A   1      42.411  30.834  35.581  1.00  0.00     0.049 A 
ATOM     53  C   UNL A   1      42.106  28.026  30.746  1.00  0.00     0.074 A 
ATOM     54  C   UNL A   1      43.480  30.535  36.406  1.00  0.00     0.029 A 
ATOM     55  N   UNL A   1      42.570  30.069  34.434  1.00  0.00    -0.354 N 
ATOM     56  N   UNL A   1      42.319  28.608  31.905  1.00  0.00    -0.248 NA
ATOM     57  C   UNL A   1      43.199  27.142  30.314  1.00  0.00     0.031 C 
ATOM     58  C   UNL A   1      44.326  29.652  35.727  1.00  0.00     0.029 A 
ATOM     59  C   UNL A   1      43.746  29.336  34.510  1.00  0.00     0.049 A 
ATOM     60  H   UNL A   1      41.941  30.049  33.676  1.00  0.00     0.167 HD
ATOM     61  C   UNL A   1      43.553  28.137  32.348  1.00  0.00     0.074 A 
ATOM     62  C   UNL A   1      44.035  27.218  31.339  1.00  0.00     0.031 C 
ATOM     63  C   UNL A   1      44.227  28.434  33.490  1.00  0.00     0.034 A 
BRANCH  50  64
ATOM     64  C   UNL A   1      41.347  32.600  37.064  1.00  0.00     0.023 A 
ATOM     65  C   UNL A   1      40.552  32.280  38.178  1.00  0.00     0.031 A 
ATOM     66  C   UNL A   1      42.142  33.758  37.130  1.00  0.00     0.131 A 
ATOM     67  C   UNL A   1      40.515  33.144  39.281  1.00  0.00     0.055 A 
ATOM     68  C   UNL A   1      42.162  34.571  38.264  1.00  0.00     0.041 A 
ATOM     69  F   UNL A   1      42.901  34.127  36.086  1.00  0.00    -0.206 F 
ATOM     70  C   UNL A   1      41.334  34.274  39.342  1.00  0.00     0.022 A 
BRANCH  67  71
ATOM     71  S   UNL A   1      39.273  32.851  40.570  1.00  0.00     0.124 S 
ATOM     72  O   UNL A   1      38.341  31.959  39.885  1.00  0.00    -0.237 OA
ATOM     73  O   UNL A   1      40.062  32.253  41.639  1.00  0.00    -0.237 OA
ATOM     74  O   UNL A   1      38.750  34.187  40.851  1.00  0.00    -0.744 OA
ENDBRANCH  67  71
ENDBRANCH  50  64
BRANCH  51  75
ATOM     75  C   UNL A   1      40.897  27.408  28.524  1.00  0.00     0.023 A 
ATOM     76  C   UNL A   1      40.614  26.034  28.474  1.00  0.00     0.031 A 
ATOM     77  C   UNL A   1      41.239  28.054  27.323  1.00  0.00     0.131 A 
ATOM     78  C   UNL A   1      40.720  25.342  27.256  1.00  0.00     0.055 A 
ATOM     79  C   UNL A   1      41.294  27.373  26.106  1.00  0.00     0.041 A 
ATOM     80  F   UNL A   1      41.527  29.365  27.315  1.00  0.00    -0.206 F 
ATOM     81  C   UNL A   1      41.045  26.004  26.070  1.00  0.00     0.022 A 
BRANCH  78  82
ATOM     82  S   UNL A   1      40.504  23.542  27.257  1.00  0.00     0.124 S 
ATOM     83  O   UNL A   1      41.053  23.176  28.558  1.00  0.00    -0.237 OA
ATOM     84  O   UNL A   1      39.058  23.415  27.111  1.00  0.00    -0.237 OA
ATOM     85  O   UNL A   1      41.286  23.104  26.103  1.00  0.00    -0.744 OA
ENDBRANCH  78  82
ENDBRANCH  51  75
BRANCH  63  86
ATOM     86  C   UNL A   1      45.541  27.730  33.727  1.00  0.00     0.023 A 
ATOM     87  C   UNL A   1      45.604  26.456  34.314  1.00  0.00     0.031 A 
ATOM     88  C   UNL A   1      46.748  28.339  33.336  1.00  0.00     0.131 A 
ATOM     89  C   UNL A   1      46.850  25.845  34.528  1.00  0.00     0.055 A 
ATOM     90  C   UNL A   1      47.980  27.703  33.501  1.00  0.00     0.041 A 
ATOM     91  F   UNL A   1      46.748  29.556  32.769  1.00  0.00    -0.206 F 
ATOM     92  C   UNL A   1      48.036  26.453  34.109  1.00  0.00     0.022 A 
BRANCH  89  93
ATOM     93  S   UNL A   1      46.908  24.265  35.419  1.00  0.00     0.124 S 
ATOM     94  O   UNL A   1      47.312  23.338  34.366  1.00  0.00    -0.237 OA
ATOM     95  O   UNL A   1      47.902  24.525  36.455  1.00  0.00    -0.237 OA
ATOM     96  O   UNL A   1      45.540  24.093  35.905  1.00  0.00    -0.744 OA
ENDBRANCH  89  93
ENDBRANCH  63  86
ENDBRANCH  37  38
ENDBRANCH  30  32
ENDBRANCH  29  30
ENDBRANCH  28  29
ENDBRANCH  27  28
ENDBRANCH  26  27
ENDBRANCH   1  26
TORSDOF 23
ENDMDL
