MODEL 1
REMARK VINA RESULT:     -10.7      0.000      0.000
REMARK SMILES Cc1cc(C)c2c(c1)C=C(C(=O)OCCOCCOCCOC(=O)c1ccc(-c3c4nc(c(-c5cc(S(=O)(=O)[O-])ccc5F)c5ccc([nH]5)c(-c5cc(S(=O)(=O)[O-])ccc5F)c5nc(c(-c6cc(S(=O)(=O)[O-])ccc6F)c6ccc3[nH]6)C=C5)C=C4)cc1)[C@@H](C(F)(F)F)O2
REMARK SMILES IDX 18 1 17 2 16 3 15 4 14 5 13 6 11 7 12 8 10 9 1 10 2 11 3 12
REMARK SMILES IDX 8 13 4 14 7 15 5 16 6 17 9 18 93 19 88 20 89 21 90 22 91 23
REMARK SMILES IDX 92 24 19 25 20 26 21 27 22 28 23 29 24 30 25 31 26 32 87 33
REMARK SMILES IDX 27 34 86 35 28 36 29 37 30 38 80 39 31 40 85 41 79 42 81 43
REMARK SMILES IDX 32 44 84 45 78 46 77 47 33 49 65 50 45 51 64 52 46 53 49 54
REMARK SMILES IDX 63 55 82 56 47 57 48 58 62 60 83 61 50 62 34 63 35 64 43 65
REMARK SMILES IDX 36 66 42 67 44 68 41 69 37 70 38 71 39 72 40 73 66 74 67 75
REMARK SMILES IDX 75 76 68 77 74 78 76 79 73 80 69 81 70 82 71 83 72 84 51 85
REMARK SMILES IDX 52 86 60 87 53 88 59 89 61 90 58 91 54 92 55 93 56 94 57 95
REMARK H PARENT 81 48 49 59
REMARK Flexibility Score: inf
ROOT
ATOM      1  C   UNL A   1      34.283  21.909  24.970  1.00  0.00     0.188 C 
ENDROOT
BRANCH   1   2
ATOM      2  C   UNL A   1      33.374  21.045  24.068  1.00  0.00     0.188 C 
BRANCH   2   3
ATOM      3  O   UNL A   1      32.147  21.545  23.578  1.00  0.00    -0.376 OA
BRANCH   3   4
ATOM      4  C   UNL A   1      32.083  22.699  22.760  1.00  0.00     0.202 C 
BRANCH   4   5
ATOM      5  C   UNL A   1      31.742  24.092  23.300  1.00  0.00     0.261 C 
BRANCH   5   6
ATOM      6  O   UNL A   1      32.850  24.984  23.441  1.00  0.00    -0.460 OA
BRANCH   6   7
ATOM      7  C   UNL A   1      32.768  26.114  22.698  1.00  0.00     0.338 C 
ATOM      8  O   UNL A   1      32.625  26.182  21.488  1.00  0.00    -0.246 OA
BRANCH   7   9
ATOM      9  C   UNL A   1      32.777  27.290  23.586  1.00  0.00     0.087 C 
ATOM     10  C   UNL A   1      35.692  29.580  28.502  1.00  0.00     0.044 C 
ATOM     11  C   UNL A   1      34.683  29.545  27.390  1.00  0.00    -0.050 A 
ATOM     12  C   UNL A   1      33.635  30.472  27.353  1.00  0.00     0.010 A 
ATOM     13  C   UNL A   1      34.730  28.531  26.427  1.00  0.00     0.015 A 
ATOM     14  C   UNL A   1      32.656  30.416  26.349  1.00  0.00    -0.008 A 
ATOM     15  C   UNL A   1      33.753  28.455  25.428  1.00  0.00     0.018 A 
ATOM     16  C   UNL A   1      31.531  31.412  26.342  1.00  0.00     0.048 C 
ATOM     17  C   UNL A   1      32.733  29.410  25.374  1.00  0.00     0.130 A 
ATOM     18  C   UNL A   1      33.764  27.349  24.487  1.00  0.00     0.027 C 
ATOM     19  O   UNL A   1      31.766  29.419  24.405  1.00  0.00    -0.475 OA
ATOM     20  C   UNL A   1      31.700  28.328  23.451  1.00  0.00     0.316 C 
BRANCH  20  21
ATOM     21  C   UNL A   1      30.289  27.725  23.514  1.00  0.00     0.430 C 
ATOM     22  F   UNL A   1      29.966  27.107  22.350  1.00  0.00    -0.167 F 
ATOM     23  F   UNL A   1      30.184  26.782  24.483  1.00  0.00    -0.167 F 
ATOM     24  F   UNL A   1      29.339  28.655  23.753  1.00  0.00    -0.167 F 
ENDBRANCH  20  21
ENDBRANCH   7   9
ENDBRANCH   6   7
ENDBRANCH   5   6
ENDBRANCH   4   5
ENDBRANCH   3   4
ENDBRANCH   2   3
ENDBRANCH   1   2
BRANCH   1  25
ATOM     25  O   UNL A   1      35.380  21.328  25.652  1.00  0.00    -0.376 OA
BRANCH  25  26
ATOM     26  C   UNL A   1      36.212  20.416  24.949  1.00  0.00     0.202 C 
BRANCH  26  27
ATOM     27  C   UNL A   1      37.731  20.612  24.961  1.00  0.00     0.261 C 
BRANCH  27  28
ATOM     28  O   UNL A   1      38.183  21.443  26.042  1.00  0.00    -0.460 OA
BRANCH  28  29
ATOM     29  C   UNL A   1      39.499  21.321  26.351  1.00  0.00     0.338 C 
ATOM     30  O   UNL A   1      40.237  20.392  26.074  1.00  0.00    -0.246 OA
BRANCH  29  31
ATOM     31  C   UNL A   1      39.981  22.595  26.919  1.00  0.00     0.060 A 
ATOM     32  C   UNL A   1      39.408  23.783  26.450  1.00  0.00     0.016 A 
ATOM     33  C   UNL A   1      40.997  22.623  27.875  1.00  0.00     0.016 A 
ATOM     34  C   UNL A   1      39.863  25.011  26.928  1.00  0.00     0.010 A 
ATOM     35  C   UNL A   1      41.475  23.857  28.330  1.00  0.00     0.010 A 
ATOM     36  C   UNL A   1      40.926  25.055  27.840  1.00  0.00    -0.014 A 
BRANCH  36  37
ATOM     37  C   UNL A   1      41.582  26.357  28.112  1.00  0.00     0.031 A 
ATOM     38  C   UNL A   1      42.997  26.550  27.642  1.00  0.00     0.074 A 
ATOM     39  C   UNL A   1      40.915  27.369  28.697  1.00  0.00     0.049 A 
ATOM     40  N   UNL A   1      43.759  27.610  27.720  1.00  0.00    -0.248 NA
ATOM     41  C   UNL A   1      43.634  25.395  26.986  1.00  0.00     0.031 C 
ATOM     42  C   UNL A   1      39.524  27.320  29.145  1.00  0.00     0.029 A 
ATOM     43  N   UNL A   1      41.321  28.644  29.001  1.00  0.00    -0.354 N 
ATOM     44  C   UNL A   1      44.952  27.260  27.100  1.00  0.00     0.074 A 
ATOM     45  C   UNL A   1      44.833  25.877  26.694  1.00  0.00     0.031 C 
ATOM     46  C   UNL A   1      39.190  28.517  29.660  1.00  0.00     0.029 A 
ATOM     47  C   UNL A   1      40.348  29.409  29.601  1.00  0.00     0.049 A 
ATOM     48  H   UNL A   1      42.226  28.982  28.807  1.00  0.00     0.167 HD
ATOM     49  C   UNL A   1      46.043  28.028  26.871  1.00  0.00     0.034 A 
ATOM     50  C   UNL A   1      40.394  30.678  30.058  1.00  0.00     0.034 A 
ATOM     51  C   UNL A   1      46.168  29.395  27.296  1.00  0.00     0.049 A 
ATOM     52  C   UNL A   1      41.672  31.469  29.917  1.00  0.00     0.074 A 
ATOM     53  C   UNL A   1      47.235  30.258  27.115  1.00  0.00     0.029 A 
ATOM     54  N   UNL A   1      45.201  30.097  28.000  1.00  0.00    -0.354 N 
ATOM     55  N   UNL A   1      42.795  31.123  29.331  1.00  0.00    -0.248 NA
ATOM     56  C   UNL A   1      41.694  32.818  30.505  1.00  0.00     0.031 C 
ATOM     57  C   UNL A   1      46.938  31.460  27.762  1.00  0.00     0.029 A 
ATOM     58  C   UNL A   1      45.661  31.368  28.294  1.00  0.00     0.049 A 
ATOM     59  H   UNL A   1      44.318  29.742  28.253  1.00  0.00     0.167 HD
ATOM     60  C   UNL A   1      43.646  32.217  29.464  1.00  0.00     0.074 A 
ATOM     61  C   UNL A   1      42.911  33.236  30.181  1.00  0.00     0.031 C 
ATOM     62  C   UNL A   1      44.921  32.366  29.024  1.00  0.00     0.034 A 
BRANCH  49  63
ATOM     63  C   UNL A   1      47.196  27.392  26.146  1.00  0.00     0.023 A 
ATOM     64  C   UNL A   1      48.197  26.696  26.845  1.00  0.00     0.031 A 
ATOM     65  C   UNL A   1      47.291  27.472  24.747  1.00  0.00     0.131 A 
ATOM     66  C   UNL A   1      49.275  26.139  26.144  1.00  0.00     0.055 A 
ATOM     67  C   UNL A   1      48.335  26.865  24.050  1.00  0.00     0.041 A 
ATOM     68  F   UNL A   1      46.371  28.143  24.038  1.00  0.00    -0.206 F 
ATOM     69  C   UNL A   1      49.339  26.199  24.749  1.00  0.00     0.022 A 
BRANCH  66  70
ATOM     70  S   UNL A   1      50.632  25.394  27.087  1.00  0.00     0.124 S 
ATOM     71  O   UNL A   1      49.954  24.281  27.746  1.00  0.00    -0.237 OA
ATOM     72  O   UNL A   1      51.585  25.034  26.044  1.00  0.00    -0.237 OA
ATOM     73  O   UNL A   1      51.060  26.471  27.978  1.00  0.00    -0.744 OA
ENDBRANCH  66  70
ENDBRANCH  49  63
BRANCH  50  74
ATOM     74  C   UNL A   1      39.205  31.283  30.723  1.00  0.00     0.023 A 
ATOM     75  C   UNL A   1      38.151  31.822  29.968  1.00  0.00     0.031 A 
ATOM     76  C   UNL A   1      39.129  31.370  32.124  1.00  0.00     0.131 A 
ATOM     77  C   UNL A   1      37.076  32.449  30.618  1.00  0.00     0.055 A 
ATOM     78  C   UNL A   1      38.039  31.959  32.766  1.00  0.00     0.041 A 
ATOM     79  F   UNL A   1      40.114  30.872  32.889  1.00  0.00    -0.206 F 
ATOM     80  C   UNL A   1      37.008  32.511  32.012  1.00  0.00     0.022 A 
BRANCH  77  81
ATOM     81  S   UNL A   1      35.783  33.225  29.612  1.00  0.00     0.124 S 
ATOM     82  O   UNL A   1      36.317  33.060  28.265  1.00  0.00    -0.237 OA
ATOM     83  O   UNL A   1      34.613  32.417  29.942  1.00  0.00    -0.237 OA
ATOM     84  O   UNL A   1      35.746  34.600  30.105  1.00  0.00    -0.744 OA
ENDBRANCH  77  81
ENDBRANCH  50  74
BRANCH  62  85
ATOM     85  C   UNL A   1      45.610  33.677  29.290  1.00  0.00     0.023 A 
ATOM     86  C   UNL A   1      45.467  34.766  28.416  1.00  0.00     0.031 A 
ATOM     87  C   UNL A   1      46.338  33.865  30.478  1.00  0.00     0.131 A 
ATOM     88  C   UNL A   1      46.053  35.998  28.739  1.00  0.00     0.055 A 
ATOM     89  C   UNL A   1      46.885  35.103  30.814  1.00  0.00     0.041 A 
ATOM     90  F   UNL A   1      46.493  32.854  31.349  1.00  0.00    -0.206 F 
ATOM     91  C   UNL A   1      46.745  36.179  29.941  1.00  0.00     0.022 A 
BRANCH  88  92
ATOM     92  S   UNL A   1      45.895  37.376  27.570  1.00  0.00     0.124 S 
ATOM     93  O   UNL A   1      44.486  37.295  27.197  1.00  0.00    -0.237 OA
ATOM     94  O   UNL A   1      46.273  38.528  28.381  1.00  0.00    -0.237 OA
ATOM     95  O   UNL A   1      46.839  37.033  26.507  1.00  0.00    -0.744 OA
ENDBRANCH  88  92
ENDBRANCH  62  85
ENDBRANCH  36  37
ENDBRANCH  29  31
ENDBRANCH  28  29
ENDBRANCH  27  28
ENDBRANCH  26  27
ENDBRANCH  25  26
ENDBRANCH   1  25
TORSDOF 21
ENDMDL
MODEL 2
REMARK VINA RESULT:     -10.6      4.570     10.337
REMARK SMILES Cc1cc(C)c2c(c1)C=C(C(=O)OCCOCCOCCOC(=O)c1ccc(-c3c4nc(c(-c5cc(S(=O)(=O)[O-])ccc5F)c5ccc([nH]5)c(-c5cc(S(=O)(=O)[O-])ccc5F)c5nc(c(-c6cc(S(=O)(=O)[O-])ccc6F)c6ccc3[nH]6)C=C5)C=C4)cc1)[C@@H](C(F)(F)F)O2
REMARK SMILES IDX 18 1 17 2 16 3 15 4 14 5 13 6 11 7 12 8 10 9 1 10 2 11 3 12
REMARK SMILES IDX 8 13 4 14 7 15 5 16 6 17 9 18 93 19 88 20 89 21 90 22 91 23
REMARK SMILES IDX 92 24 19 25 20 26 21 27 22 28 23 29 24 30 25 31 26 32 87 33
REMARK SMILES IDX 27 34 86 35 28 36 29 37 30 38 80 39 31 40 85 41 79 42 81 43
REMARK SMILES IDX 32 44 84 45 78 46 77 47 33 49 65 50 45 51 64 52 46 53 49 54
REMARK SMILES IDX 63 55 82 56 47 57 48 58 62 60 83 61 50 62 34 63 35 64 43 65
REMARK SMILES IDX 36 66 42 67 44 68 41 69 37 70 38 71 39 72 40 73 66 74 67 75
REMARK SMILES IDX 75 76 68 77 74 78 76 79 73 80 69 81 70 82 71 83 72 84 51 85
REMARK SMILES IDX 52 86 60 87 53 88 59 89 61 90 58 91 54 92 55 93 56 94 57 95
REMARK H PARENT 81 48 49 59
REMARK Flexibility Score: inf
ROOT
ATOM      1  C   UNL A   1      29.884  29.270  23.767  1.00  0.00     0.188 C 
ENDROOT
BRANCH   1   2
ATOM      2  C   UNL A   1      30.297  28.845  22.341  1.00  0.00     0.188 C 
BRANCH   2   3
ATOM      3  O   UNL A   1      30.510  27.486  22.018  1.00  0.00    -0.376 OA
BRANCH   3   4
ATOM      4  C   UNL A   1      31.726  26.827  22.321  1.00  0.00     0.202 C 
BRANCH   4   5
ATOM      5  C   UNL A   1      31.901  25.905  23.532  1.00  0.00     0.261 C 
BRANCH   5   6
ATOM      6  O   UNL A   1      32.113  24.524  23.226  1.00  0.00    -0.460 OA
BRANCH   6   7
ATOM      7  C   UNL A   1      31.833  23.669  24.239  1.00  0.00     0.338 C 
ATOM      8  O   UNL A   1      30.862  23.706  24.977  1.00  0.00    -0.246 OA
BRANCH   7   9
ATOM      9  C   UNL A   1      32.843  22.597  24.271  1.00  0.00     0.087 C 
ATOM     10  C   UNL A   1      33.340  16.459  24.271  1.00  0.00     0.044 C 
ATOM     11  C   UNL A   1      33.822  17.881  24.306  1.00  0.00    -0.050 A 
ATOM     12  C   UNL A   1      35.157  18.171  24.610  1.00  0.00     0.010 A 
ATOM     13  C   UNL A   1      32.921  18.936  24.123  1.00  0.00     0.015 A 
ATOM     14  C   UNL A   1      35.607  19.498  24.700  1.00  0.00    -0.008 A 
ATOM     15  C   UNL A   1      33.352  20.264  24.222  1.00  0.00     0.018 A 
ATOM     16  C   UNL A   1      37.041  19.781  25.045  1.00  0.00     0.048 C 
ATOM     17  C   UNL A   1      34.696  20.544  24.484  1.00  0.00     0.130 A 
ATOM     18  C   UNL A   1      32.391  21.347  24.114  1.00  0.00     0.027 C 
ATOM     19  O   UNL A   1      35.196  21.816  24.559  1.00  0.00    -0.475 OA
ATOM     20  C   UNL A   1      34.288  22.945  24.490  1.00  0.00     0.316 C 
BRANCH  20  21
ATOM     21  C   UNL A   1      34.503  23.807  25.742  1.00  0.00     0.430 C 
ATOM     22  F   UNL A   1      35.528  23.334  26.495  1.00  0.00    -0.167 F 
ATOM     23  F   UNL A   1      34.825  25.086  25.428  1.00  0.00    -0.167 F 
ATOM     24  F   UNL A   1      33.408  23.852  26.533  1.00  0.00    -0.167 F 
ENDBRANCH  20  21
ENDBRANCH   7   9
ENDBRANCH   6   7
ENDBRANCH   5   6
ENDBRANCH   4   5
ENDBRANCH   3   4
ENDBRANCH   2   3
ENDBRANCH   1   2
BRANCH   1  25
ATOM     25  O   UNL A   1      30.491  30.388  24.388  1.00  0.00    -0.376 OA
BRANCH  25  26
ATOM     26  C   UNL A   1      31.395  30.163  25.462  1.00  0.00     0.202 C 
BRANCH  26  27
ATOM     27  C   UNL A   1      31.634  31.267  26.495  1.00  0.00     0.261 C 
BRANCH  27  28
ATOM     28  O   UNL A   1      32.751  31.001  27.357  1.00  0.00    -0.460 OA
BRANCH  28  29
ATOM     29  C   UNL A   1      33.537  32.073  27.632  1.00  0.00     0.338 C 
ATOM     30  O   UNL A   1      33.188  33.238  27.718  1.00  0.00    -0.246 OA
BRANCH  29  31
ATOM     31  C   UNL A   1      34.880  31.600  28.018  1.00  0.00     0.060 A 
ATOM     32  C   UNL A   1      35.055  30.230  28.248  1.00  0.00     0.016 A 
ATOM     33  C   UNL A   1      35.942  32.492  28.179  1.00  0.00     0.016 A 
ATOM     34  C   UNL A   1      36.297  29.747  28.656  1.00  0.00     0.010 A 
ATOM     35  C   UNL A   1      37.180  32.009  28.620  1.00  0.00     0.010 A 
ATOM     36  C   UNL A   1      37.354  30.639  28.882  1.00  0.00    -0.014 A 
BRANCH  36  37
ATOM     37  C   UNL A   1      38.565  30.149  29.586  1.00  0.00     0.031 A 
ATOM     38  C   UNL A   1      38.836  30.663  30.972  1.00  0.00     0.074 A 
ATOM     39  C   UNL A   1      39.365  29.216  29.037  1.00  0.00     0.049 A 
ATOM     40  N   UNL A   1      39.797  30.348  31.800  1.00  0.00    -0.248 NA
ATOM     41  C   UNL A   1      37.888  31.661  31.499  1.00  0.00     0.031 C 
ATOM     42  C   UNL A   1      39.173  28.602  27.725  1.00  0.00     0.029 A 
ATOM     43  N   UNL A   1      40.495  28.613  29.529  1.00  0.00    -0.354 N 
ATOM     44  C   UNL A   1      39.556  31.084  32.953  1.00  0.00     0.074 A 
ATOM     45  C   UNL A   1      38.386  31.898  32.704  1.00  0.00     0.031 C 
ATOM     46  C   UNL A   1      40.150  27.700  27.519  1.00  0.00     0.029 A 
ATOM     47  C   UNL A   1      41.050  27.691  28.673  1.00  0.00     0.049 A 
ATOM     48  H   UNL A   1      40.875  28.821  30.414  1.00  0.00     0.167 HD
ATOM     49  C   UNL A   1      40.235  31.069  34.125  1.00  0.00     0.034 A 
ATOM     50  C   UNL A   1      42.161  26.937  28.804  1.00  0.00     0.034 A 
ATOM     51  C   UNL A   1      41.410  30.276  34.362  1.00  0.00     0.049 A 
ATOM     52  C   UNL A   1      42.983  27.043  30.066  1.00  0.00     0.074 A 
ATOM     53  C   UNL A   1      42.172  30.194  35.514  1.00  0.00     0.029 A 
ATOM     54  N   UNL A   1      42.003  29.440  33.428  1.00  0.00    -0.354 N 
ATOM     55  N   UNL A   1      42.743  27.747  31.149  1.00  0.00    -0.248 NA
ATOM     56  C   UNL A   1      44.228  26.261  30.124  1.00  0.00     0.031 C 
ATOM     57  C   UNL A   1      43.260  29.355  35.257  1.00  0.00     0.029 A 
ATOM     58  C   UNL A   1      43.143  28.868  33.965  1.00  0.00     0.049 A 
ATOM     59  H   UNL A   1      41.664  29.279  32.518  1.00  0.00     0.167 HD
ATOM     60  C   UNL A   1      43.796  27.477  32.019  1.00  0.00     0.074 A 
ATOM     61  C   UNL A   1      44.671  26.544  31.342  1.00  0.00     0.031 C 
ATOM     62  C   UNL A   1      44.013  27.953  33.271  1.00  0.00     0.034 A 
BRANCH  49  63
ATOM     63  C   UNL A   1      39.731  31.957  35.228  1.00  0.00     0.023 A 
ATOM     64  C   UNL A   1      40.221  33.264  35.387  1.00  0.00     0.031 A 
ATOM     65  C   UNL A   1      38.747  31.499  36.119  1.00  0.00     0.131 A 
ATOM     66  C   UNL A   1      39.752  34.058  36.443  1.00  0.00     0.055 A 
ATOM     67  C   UNL A   1      38.242  32.314  37.132  1.00  0.00     0.041 A 
ATOM     68  F   UNL A   1      38.263  30.251  36.019  1.00  0.00    -0.206 F 
ATOM     69  C   UNL A   1      38.750  33.600  37.302  1.00  0.00     0.022 A 
BRANCH  66  70
ATOM     70  S   UNL A   1      40.523  35.674  36.721  1.00  0.00     0.124 S 
ATOM     71  O   UNL A   1      41.870  35.451  36.201  1.00  0.00    -0.237 OA
ATOM     72  O   UNL A   1      39.677  36.570  35.941  1.00  0.00    -0.237 OA
ATOM     73  O   UNL A   1      40.443  35.846  38.170  1.00  0.00    -0.744 OA
ENDBRANCH  66  70
ENDBRANCH  49  63
BRANCH  50  74
ATOM     74  C   UNL A   1      42.591  26.030  27.702  1.00  0.00     0.023 A 
ATOM     75  C   UNL A   1      42.058  24.737  27.580  1.00  0.00     0.031 A 
ATOM     76  C   UNL A   1      43.575  26.430  26.781  1.00  0.00     0.131 A 
ATOM     77  C   UNL A   1      42.532  23.878  26.575  1.00  0.00     0.055 A 
ATOM     78  C   UNL A   1      44.014  25.587  25.760  1.00  0.00     0.041 A 
ATOM     79  F   UNL A   1      44.118  27.656  26.859  1.00  0.00    -0.206 F 
ATOM     80  C   UNL A   1      43.498  24.299  25.658  1.00  0.00     0.022 A 
BRANCH  77  81
ATOM     81  S   UNL A   1      41.897  22.181  26.509  1.00  0.00     0.124 S 
ATOM     82  O   UNL A   1      40.473  22.407  26.284  1.00  0.00    -0.237 OA
ATOM     83  O   UNL A   1      42.643  21.619  25.388  1.00  0.00    -0.237 OA
ATOM     84  O   UNL A   1      42.243  21.637  27.820  1.00  0.00    -0.744 OA
ENDBRANCH  77  81
ENDBRANCH  50  74
BRANCH  62  85
ATOM     85  C   UNL A   1      45.236  27.474  34.004  1.00  0.00     0.023 A 
ATOM     86  C   UNL A   1      45.194  26.337  34.826  1.00  0.00     0.031 A 
ATOM     87  C   UNL A   1      46.475  28.108  33.803  1.00  0.00     0.131 A 
ATOM     88  C   UNL A   1      46.373  25.869  35.426  1.00  0.00     0.055 A 
ATOM     89  C   UNL A   1      47.650  27.616  34.370  1.00  0.00     0.041 A 
ATOM     90  F   UNL A   1      46.566  29.193  33.017  1.00  0.00    -0.206 F 
ATOM     91  C   UNL A   1      47.603  26.490  35.189  1.00  0.00     0.022 A 
BRANCH  88  92
ATOM     92  S   UNL A   1      46.283  24.426  36.522  1.00  0.00     0.124 S 
ATOM     93  O   UNL A   1      45.266  23.612  35.866  1.00  0.00    -0.237 OA
ATOM     94  O   UNL A   1      47.645  23.905  36.474  1.00  0.00    -0.237 OA
ATOM     95  O   UNL A   1      45.886  24.998  37.808  1.00  0.00    -0.744 OA
ENDBRANCH  88  92
ENDBRANCH  62  85
ENDBRANCH  36  37
ENDBRANCH  29  31
ENDBRANCH  28  29
ENDBRANCH  27  28
ENDBRANCH  26  27
ENDBRANCH  25  26
ENDBRANCH   1  25
TORSDOF 21
ENDMDL
MODEL 3
REMARK VINA RESULT:     -10.6      5.025      8.274
REMARK SMILES Cc1cc(C)c2c(c1)C=C(C(=O)OCCOCCOCCOC(=O)c1ccc(-c3c4nc(c(-c5cc(S(=O)(=O)[O-])ccc5F)c5ccc([nH]5)c(-c5cc(S(=O)(=O)[O-])ccc5F)c5nc(c(-c6cc(S(=O)(=O)[O-])ccc6F)c6ccc3[nH]6)C=C5)C=C4)cc1)[C@@H](C(F)(F)F)O2
REMARK SMILES IDX 18 1 17 2 16 3 15 4 14 5 13 6 11 7 12 8 10 9 1 10 2 11 3 12
REMARK SMILES IDX 8 13 4 14 7 15 5 16 6 17 9 18 93 19 88 20 89 21 90 22 91 23
REMARK SMILES IDX 92 24 19 25 20 26 21 27 22 28 23 29 24 30 25 31 26 32 87 33
REMARK SMILES IDX 27 34 86 35 28 36 29 37 30 38 80 39 31 40 85 41 79 42 81 43
REMARK SMILES IDX 32 44 84 45 78 46 77 47 33 49 65 50 45 51 64 52 46 53 49 54
REMARK SMILES IDX 63 55 82 56 47 57 48 58 62 60 83 61 50 62 34 63 35 64 43 65
REMARK SMILES IDX 36 66 42 67 44 68 41 69 37 70 38 71 39 72 40 73 66 74 67 75
REMARK SMILES IDX 75 76 68 77 74 78 76 79 73 80 69 81 70 82 71 83 72 84 51 85
REMARK SMILES IDX 52 86 60 87 53 88 59 89 61 90 58 91 54 92 55 93 56 94 57 95
REMARK H PARENT 81 48 49 59
REMARK Flexibility Score: inf
ROOT
ATOM      1  C   UNL A   1      29.855  28.560  23.987  1.00  0.00     0.188 C 
ENDROOT
BRANCH   1   2
ATOM      2  C   UNL A   1      29.680  27.998  22.560  1.00  0.00     0.188 C 
BRANCH   2   3
ATOM      3  O   UNL A   1      30.650  27.143  21.990  1.00  0.00    -0.376 OA
BRANCH   3   4
ATOM      4  C   UNL A   1      31.883  26.876  22.634  1.00  0.00     0.202 C 
BRANCH   4   5
ATOM      5  C   UNL A   1      32.007  25.978  23.869  1.00  0.00     0.261 C 
BRANCH   5   6
ATOM      6  O   UNL A   1      32.565  24.683  23.631  1.00  0.00    -0.460 OA
BRANCH   6   7
ATOM      7  C   UNL A   1      32.163  23.724  24.500  1.00  0.00     0.338 C 
ATOM      8  O   UNL A   1      31.136  23.723  25.161  1.00  0.00    -0.246 OA
BRANCH   7   9
ATOM      9  C   UNL A   1      33.114  22.599  24.468  1.00  0.00     0.087 C 
ATOM     10  C   UNL A   1      33.281  16.445  24.346  1.00  0.00     0.044 C 
ATOM     11  C   UNL A   1      33.839  17.839  24.382  1.00  0.00    -0.050 A 
ATOM     12  C   UNL A   1      35.200  18.052  24.627  1.00  0.00     0.010 A 
ATOM     13  C   UNL A   1      32.989  18.943  24.257  1.00  0.00     0.015 A 
ATOM     14  C   UNL A   1      35.724  19.352  24.716  1.00  0.00    -0.008 A 
ATOM     15  C   UNL A   1      33.494  20.245  24.357  1.00  0.00     0.018 A 
ATOM     16  C   UNL A   1      37.186  19.553  24.999  1.00  0.00     0.048 C 
ATOM     17  C   UNL A   1      34.862  20.448  24.561  1.00  0.00     0.130 A 
ATOM     18  C   UNL A   1      32.589  21.379  24.312  1.00  0.00     0.027 C 
ATOM     19  O   UNL A   1      35.432  21.691  24.632  1.00  0.00    -0.475 OA
ATOM     20  C   UNL A   1      34.584  22.867  24.624  1.00  0.00     0.316 C 
BRANCH  20  21
ATOM     21  C   UNL A   1      34.902  23.694  25.879  1.00  0.00     0.430 C 
ATOM     22  F   UNL A   1      34.842  25.024  25.619  1.00  0.00    -0.167 F 
ATOM     23  F   UNL A   1      34.012  23.464  26.875  1.00  0.00    -0.167 F 
ATOM     24  F   UNL A   1      36.133  23.434  26.370  1.00  0.00    -0.167 F 
ENDBRANCH  20  21
ENDBRANCH   7   9
ENDBRANCH   6   7
ENDBRANCH   5   6
ENDBRANCH   4   5
ENDBRANCH   3   4
ENDBRANCH   2   3
ENDBRANCH   1   2
BRANCH   1  25
ATOM     25  O   UNL A   1      30.498  29.804  24.196  1.00  0.00    -0.376 OA
BRANCH  25  26
ATOM     26  C   UNL A   1      31.688  29.834  24.973  1.00  0.00     0.202 C 
BRANCH  26  27
ATOM     27  C   UNL A   1      31.781  30.771  26.180  1.00  0.00     0.261 C 
BRANCH  27  28
ATOM     28  O   UNL A   1      32.908  30.492  27.025  1.00  0.00    -0.460 OA
BRANCH  28  29
ATOM     29  C   UNL A   1      33.593  31.584  27.452  1.00  0.00     0.338 C 
ATOM     30  O   UNL A   1      33.170  32.721  27.560  1.00  0.00    -0.246 OA
BRANCH  29  31
ATOM     31  C   UNL A   1      34.906  31.156  27.973  1.00  0.00     0.060 A 
ATOM     32  C   UNL A   1      35.069  29.810  28.324  1.00  0.00     0.016 A 
ATOM     33  C   UNL A   1      35.950  32.067  28.139  1.00  0.00     0.016 A 
ATOM     34  C   UNL A   1      36.279  29.373  28.859  1.00  0.00     0.010 A 
ATOM     35  C   UNL A   1      37.153  31.633  28.706  1.00  0.00     0.010 A 
ATOM     36  C   UNL A   1      37.313  30.290  29.089  1.00  0.00    -0.014 A 
BRANCH  36  37
ATOM     37  C   UNL A   1      38.471  29.869  29.917  1.00  0.00     0.031 A 
ATOM     38  C   UNL A   1      39.440  28.881  29.329  1.00  0.00     0.074 A 
ATOM     39  C   UNL A   1      38.696  30.404  31.131  1.00  0.00     0.049 A 
ATOM     40  N   UNL A   1      40.545  28.403  29.838  1.00  0.00    -0.248 NA
ATOM     41  C   UNL A   1      39.125  28.373  27.983  1.00  0.00     0.031 C 
ATOM     42  C   UNL A   1      37.859  31.411  31.780  1.00  0.00     0.029 A 
ATOM     43  N   UNL A   1      39.711  30.182  32.026  1.00  0.00    -0.354 N 
ATOM     44  C   UNL A   1      41.071  27.560  28.865  1.00  0.00     0.074 A 
ATOM     45  C   UNL A   1      40.142  27.556  27.757  1.00  0.00     0.031 C 
ATOM     46  C   UNL A   1      38.400  31.726  32.971  1.00  0.00     0.029 A 
ATOM     47  C   UNL A   1      39.608  30.926  33.178  1.00  0.00     0.049 A 
ATOM     48  H   UNL A   1      40.446  29.548  31.861  1.00  0.00     0.167 HD
ATOM     49  C   UNL A   1      42.235  26.870  28.884  1.00  0.00     0.034 A 
ATOM     50  C   UNL A   1      40.394  30.950  34.275  1.00  0.00     0.034 A 
ATOM     51  C   UNL A   1      43.146  26.858  29.997  1.00  0.00     0.049 A 
ATOM     52  C   UNL A   1      41.613  30.061  34.330  1.00  0.00     0.074 A 
ATOM     53  C   UNL A   1      44.349  26.187  30.115  1.00  0.00     0.029 A 
ATOM     54  N   UNL A   1      42.947  27.539  31.189  1.00  0.00    -0.354 N 
ATOM     55  N   UNL A   1      42.097  29.267  33.403  1.00  0.00    -0.248 NA
ATOM     56  C   UNL A   1      42.389  30.064  35.581  1.00  0.00     0.031 C 
ATOM     57  C   UNL A   1      44.849  26.412  31.401  1.00  0.00     0.029 A 
ATOM     58  C   UNL A   1      43.987  27.272  32.062  1.00  0.00     0.049 A 
ATOM     59  H   UNL A   1      42.180  28.124  31.384  1.00  0.00     0.167 HD
ATOM     60  C   UNL A   1      43.241  28.693  33.953  1.00  0.00     0.074 A 
ATOM     61  C   UNL A   1      43.380  29.232  35.288  1.00  0.00     0.031 C 
ATOM     62  C   UNL A   1      44.103  27.805  33.396  1.00  0.00     0.034 A 
BRANCH  49  63
ATOM     63  C   UNL A   1      42.572  26.050  27.671  1.00  0.00     0.023 A 
ATOM     64  C   UNL A   1      42.124  24.724  27.544  1.00  0.00     0.031 A 
ATOM     65  C   UNL A   1      43.337  26.599  26.629  1.00  0.00     0.131 A 
ATOM     66  C   UNL A   1      42.480  23.975  26.414  1.00  0.00     0.055 A 
ATOM     67  C   UNL A   1      43.638  25.868  25.480  1.00  0.00     0.041 A 
ATOM     68  F   UNL A   1      43.804  27.854  26.714  1.00  0.00    -0.206 F 
ATOM     69  C   UNL A   1      43.214  24.545  25.370  1.00  0.00     0.022 A 
BRANCH  66  70
ATOM     70  S   UNL A   1      42.028  22.221  26.357  1.00  0.00     0.124 S 
ATOM     71  O   UNL A   1      42.610  21.809  25.082  1.00  0.00    -0.237 OA
ATOM     72  O   UNL A   1      42.669  21.688  27.554  1.00  0.00    -0.237 OA
ATOM     73  O   UNL A   1      40.567  22.243  26.390  1.00  0.00    -0.744 OA
ENDBRANCH  66  70
ENDBRANCH  49  63
BRANCH  50  74
ATOM     74  C   UNL A   1      40.047  31.821  35.433  1.00  0.00     0.023 A 
ATOM     75  C   UNL A   1      39.077  31.426  36.368  1.00  0.00     0.031 A 
ATOM     76  C   UNL A   1      40.650  33.080  35.596  1.00  0.00     0.131 A 
ATOM     77  C   UNL A   1      38.717  32.296  37.411  1.00  0.00     0.055 A 
ATOM     78  C   UNL A   1      40.317  33.925  36.656  1.00  0.00     0.041 A 
ATOM     79  F   UNL A   1      41.580  33.504  34.725  1.00  0.00    -0.206 F 
ATOM     80  C   UNL A   1      39.339  33.537  37.567  1.00  0.00     0.022 A 
BRANCH  77  81
ATOM     81  S   UNL A   1      37.389  31.799  38.541  1.00  0.00     0.124 S 
ATOM     82  O   UNL A   1      36.350  32.772  38.221  1.00  0.00    -0.237 OA
ATOM     83  O   UNL A   1      37.132  30.424  38.125  1.00  0.00    -0.237 OA
ATOM     84  O   UNL A   1      37.994  31.944  39.863  1.00  0.00    -0.744 OA
ENDBRANCH  77  81
ENDBRANCH  50  74
BRANCH  62  85
ATOM     85  C   UNL A   1      45.283  27.360  34.216  1.00  0.00     0.023 A 
ATOM     86  C   UNL A   1      45.235  26.185  34.983  1.00  0.00     0.031 A 
ATOM     87  C   UNL A   1      46.496  28.069  34.154  1.00  0.00     0.131 A 
ATOM     88  C   UNL A   1      46.381  25.755  35.667  1.00  0.00     0.055 A 
ATOM     89  C   UNL A   1      47.643  27.615  34.804  1.00  0.00     0.041 A 
ATOM     90  F   UNL A   1      46.591  29.193  33.425  1.00  0.00    -0.206 F 
ATOM     91  C   UNL A   1      47.589  26.452  35.567  1.00  0.00     0.022 A 
BRANCH  88  92
ATOM     92  S   UNL A   1      46.280  24.260  36.690  1.00  0.00     0.124 S 
ATOM     93  O   UNL A   1      46.962  24.683  37.909  1.00  0.00    -0.237 OA
ATOM     94  O   UNL A   1      44.840  24.050  36.805  1.00  0.00    -0.237 OA
ATOM     95  O   UNL A   1      46.989  23.255  35.899  1.00  0.00    -0.744 OA
ENDBRANCH  88  92
ENDBRANCH  62  85
ENDBRANCH  36  37
ENDBRANCH  29  31
ENDBRANCH  28  29
ENDBRANCH  27  28
ENDBRANCH  26  27
ENDBRANCH  25  26
ENDBRANCH   1  25
TORSDOF 21
ENDMDL
