MODEL 1
REMARK VINA RESULT:      -9.4      0.000      0.000
REMARK SMILES CCC(CC)(NC(=O)N[C@@H](C)[C@@H]1CCCO1)C(=O)OCCOCCOCCOC(=O)c1ccc(-c2c3nc(c(-c4cc(S(=O)(=O)[O-])ccc4F)c4ccc([nH]4)c(-c4cc(S(=O)(=O)[O-])ccc4F)c4nc(c(-c5cc(S(=O)(=O)[O-])ccc5F)c5ccc2[nH]5)C=C4)C=C3)cc1
REMARK SMILES IDX 23 1 22 2 21 3 20 4 19 5 17 6 18 7 3 8 2 9 1 10 4 11 5 12
REMARK SMILES IDX 6 13 7 14 8 16 9 17 10 19 11 20 12 21 13 22 16 23 14 24
REMARK SMILES IDX 15 25 24 26 25 27 26 28 27 29 28 30 29 31 30 32 31 33 32 34
REMARK SMILES IDX 93 35 33 36 92 37 34 38 35 39 36 40 86 41 37 42 91 43 85 44
REMARK SMILES IDX 87 45 38 46 90 47 84 48 83 49 39 51 71 52 51 53 70 54 52 55
REMARK SMILES IDX 55 56 69 57 88 58 53 59 54 60 68 62 89 63 56 64 40 65 41 66
REMARK SMILES IDX 49 67 42 68 48 69 50 70 47 71 43 72 44 73 45 74 46 75 72 76
REMARK SMILES IDX 73 77 81 78 74 79 80 80 82 81 79 82 75 83 76 84 77 85 78 86
REMARK SMILES IDX 57 87 58 88 66 89 59 90 65 91 67 92 64 93 60 94 61 95 62 96
REMARK SMILES IDX 63 97
REMARK H PARENT 6 15 9 18 87 50 55 61
REMARK Flexibility Score: inf
ROOT
ATOM      1  C   UNL A   1      34.506  31.948  28.029  1.00  0.00     0.188 C 
ENDROOT
BRANCH   1   2
ATOM      2  O   UNL A   1      34.004  30.840  27.202  1.00  0.00    -0.376 OA
BRANCH   2   3
ATOM      3  C   UNL A   1      32.547  30.588  27.125  1.00  0.00     0.202 C 
BRANCH   3   4
ATOM      4  C   UNL A   1      31.754  29.033  27.362  1.00  0.00     0.261 C 
BRANCH   4   5
ATOM      5  O   UNL A   1      31.856  27.862  26.333  1.00  0.00    -0.461 OA
BRANCH   5   6
ATOM      6  C   UNL A   1      32.934  27.137  25.815  1.00  0.00     0.331 C 
ATOM      7  O   UNL A   1      34.088  27.441  26.114  1.00  0.00    -0.249 OA
BRANCH   6   8
ATOM      8  C   UNL A   1      32.559  25.765  24.712  1.00  0.00     0.139 C 
BRANCH   8   9
ATOM      9  C   UNL A   1      31.013  25.476  24.553  1.00  0.00     0.037 C 
ATOM     10  C   UNL A   1      30.143  25.229  25.771  1.00  0.00     0.007 C 
ENDBRANCH   8   9
BRANCH   8  11
ATOM     11  C   UNL A   1      33.242  24.580  25.485  1.00  0.00     0.037 C 
ATOM     12  C   UNL A   1      34.573  24.052  24.921  1.00  0.00     0.007 C 
ENDBRANCH   8  11
BRANCH   8  13
ATOM     13  N   UNL A   1      33.055  25.477  23.221  1.00  0.00    -0.322 N 
ATOM     14  C   UNL A   1      32.909  25.871  21.942  1.00  0.00     0.316 C 
ATOM     15  H   UNL A   1      33.706  24.739  23.247  1.00  0.00     0.166 HD
ATOM     16  O   UNL A   1      33.267  25.097  21.034  1.00  0.00    -0.249 OA
ATOM     17  N   UNL A   1      32.513  27.106  21.621  1.00  0.00    -0.333 N 
ATOM     18  H   UNL A   1      32.230  27.319  20.703  1.00  0.00     0.165 HD
BRANCH  17  19
ATOM     19  C   UNL A   1      32.509  28.104  22.624  1.00  0.00     0.109 C 
ATOM     20  C   UNL A   1      34.054  28.574  22.788  1.00  0.00     0.034 C 
BRANCH  19  21
ATOM     21  C   UNL A   1      31.000  28.665  23.089  1.00  0.00     0.140 C 
ATOM     22  C   UNL A   1      29.950  28.999  22.040  1.00  0.00     0.036 C 
ATOM     23  O   UNL A   1      30.844  29.765  24.008  1.00  0.00    -0.376 OA
ATOM     24  C   UNL A   1      28.806  29.452  22.925  1.00  0.00     0.031 C 
ATOM     25  C   UNL A   1      29.537  30.334  23.888  1.00  0.00     0.160 C 
ENDBRANCH  19  21
ENDBRANCH  17  19
ENDBRANCH   8  13
ENDBRANCH   6   8
ENDBRANCH   5   6
ENDBRANCH   4   5
ENDBRANCH   3   4
ENDBRANCH   2   3
ENDBRANCH   1   2
BRANCH   1  26
ATOM     26  C   UNL A   1      36.015  32.031  28.448  1.00  0.00     0.188 C 
BRANCH  26  27
ATOM     27  O   UNL A   1      36.721  30.824  28.671  1.00  0.00    -0.376 OA
BRANCH  27  28
ATOM     28  C   UNL A   1      36.652  30.291  29.985  1.00  0.00     0.202 C 
BRANCH  28  29
ATOM     29  C   UNL A   1      36.317  31.227  31.163  1.00  0.00     0.261 C 
BRANCH  29  30
ATOM     30  O   UNL A   1      36.488  30.686  32.496  1.00  0.00    -0.460 OA
BRANCH  30  31
ATOM     31  C   UNL A   1      37.608  31.072  33.146  1.00  0.00     0.338 C 
ATOM     32  O   UNL A   1      37.690  32.035  33.942  1.00  0.00    -0.246 OA
BRANCH  31  33
ATOM     33  C   UNL A   1      38.796  30.256  32.825  1.00  0.00     0.060 A 
ATOM     34  C   UNL A   1      38.686  28.859  32.754  1.00  0.00     0.016 A 
ATOM     35  C   UNL A   1      40.066  30.843  32.759  1.00  0.00     0.016 A 
ATOM     36  C   UNL A   1      39.832  28.050  32.616  1.00  0.00     0.010 A 
ATOM     37  C   UNL A   1      41.208  30.031  32.628  1.00  0.00     0.010 A 
ATOM     38  C   UNL A   1      41.110  28.625  32.574  1.00  0.00    -0.014 A 
BRANCH  38  39
ATOM     39  C   UNL A   1      42.370  27.813  32.624  1.00  0.00     0.031 A 
ATOM     40  C   UNL A   1      43.032  27.582  33.952  1.00  0.00     0.074 A 
ATOM     41  C   UNL A   1      42.990  27.364  31.513  1.00  0.00     0.049 A 
ATOM     42  N   UNL A   1      44.234  27.139  34.210  1.00  0.00    -0.248 NA
ATOM     43  C   UNL A   1      42.225  27.886  35.141  1.00  0.00     0.031 C 
ATOM     44  C   UNL A   1      42.423  27.400  30.178  1.00  0.00     0.029 A 
ATOM     45  N   UNL A   1      44.245  26.831  31.318  1.00  0.00    -0.354 N 
ATOM     46  C   UNL A   1      44.340  27.125  35.595  1.00  0.00     0.074 A 
ATOM     47  C   UNL A   1      43.080  27.616  36.118  1.00  0.00     0.031 C 
ATOM     48  C   UNL A   1      43.350  27.022  29.281  1.00  0.00     0.029 A 
ATOM     49  C   UNL A   1      44.593  26.715  29.987  1.00  0.00     0.049 A 
ATOM     50  H   UNL A   1      44.838  26.559  32.056  1.00  0.00     0.167 HD
ATOM     51  C   UNL A   1      45.392  26.741  36.358  1.00  0.00     0.034 A 
ATOM     52  C   UNL A   1      45.779  26.439  29.401  1.00  0.00     0.034 A 
ATOM     53  C   UNL A   1      46.641  26.250  35.837  1.00  0.00     0.049 A 
ATOM     54  C   UNL A   1      46.982  26.150  30.273  1.00  0.00     0.074 A 
ATOM     55  C   UNL A   1      47.739  25.782  36.539  1.00  0.00     0.029 A 
ATOM     56  N   UNL A   1      46.976  26.186  34.492  1.00  0.00    -0.354 N 
ATOM     57  N   UNL A   1      47.058  26.110  31.583  1.00  0.00    -0.248 NA
ATOM     58  C   UNL A   1      48.254  25.863  29.592  1.00  0.00     0.031 C 
ATOM     59  C   UNL A   1      48.764  25.515  35.626  1.00  0.00     0.029 A 
ATOM     60  C   UNL A   1      48.282  25.741  34.348  1.00  0.00     0.049 A 
ATOM     61  H   UNL A   1      46.375  26.422  33.749  1.00  0.00     0.167 HD
ATOM     62  C   UNL A   1      48.374  25.756  31.876  1.00  0.00     0.074 A 
ATOM     63  C   UNL A   1      49.055  25.587  30.612  1.00  0.00     0.031 C 
ATOM     64  C   UNL A   1      48.962  25.578  33.086  1.00  0.00     0.034 A 
BRANCH  51  65
ATOM     65  C   UNL A   1      45.257  26.897  37.849  1.00  0.00     0.023 A 
ATOM     66  C   UNL A   1      45.601  28.089  38.506  1.00  0.00     0.031 A 
ATOM     67  C   UNL A   1      44.767  25.829  38.621  1.00  0.00     0.131 A 
ATOM     68  C   UNL A   1      45.494  28.169  39.902  1.00  0.00     0.055 A 
ATOM     69  C   UNL A   1      44.601  25.937  40.001  1.00  0.00     0.041 A 
ATOM     70  F   UNL A   1      44.445  24.661  38.043  1.00  0.00    -0.206 F 
ATOM     71  C   UNL A   1      44.974  27.110  40.651  1.00  0.00     0.022 A 
BRANCH  68  72
ATOM     72  S   UNL A   1      46.135  29.644  40.738  1.00  0.00     0.124 S 
ATOM     73  O   UNL A   1      45.111  30.636  40.414  1.00  0.00    -0.237 OA
ATOM     74  O   UNL A   1      46.193  29.218  42.131  1.00  0.00    -0.237 OA
ATOM     75  O   UNL A   1      47.431  29.864  40.098  1.00  0.00    -0.744 OA
ENDBRANCH  68  72
ENDBRANCH  51  65
BRANCH  52  76
ATOM     76  C   UNL A   1      45.945  26.499  27.915  1.00  0.00     0.023 A 
ATOM     77  C   UNL A   1      45.779  25.358  27.114  1.00  0.00     0.031 A 
ATOM     78  C   UNL A   1      46.401  27.676  27.291  1.00  0.00     0.131 A 
ATOM     79  C   UNL A   1      46.133  25.396  25.754  1.00  0.00     0.055 A 
ATOM     80  C   UNL A   1      46.696  27.725  25.927  1.00  0.00     0.041 A 
ATOM     81  F   UNL A   1      46.587  28.796  28.007  1.00  0.00    -0.206 F 
ATOM     82  C   UNL A   1      46.580  26.575  25.153  1.00  0.00     0.022 A 
BRANCH  79  83
ATOM     83  S   UNL A   1      46.127  23.846  24.809  1.00  0.00     0.124 S 
ATOM     84  O   UNL A   1      46.401  22.863  25.852  1.00  0.00    -0.237 OA
ATOM     85  O   UNL A   1      44.776  23.836  24.257  1.00  0.00    -0.237 OA
ATOM     86  O   UNL A   1      47.197  24.037  23.833  1.00  0.00    -0.744 OA
ENDBRANCH  79  83
ENDBRANCH  52  76
BRANCH  64  87
ATOM     87  C   UNL A   1      50.403  25.130  33.102  1.00  0.00     0.023 A 
ATOM     88  C   UNL A   1      50.757  23.770  33.132  1.00  0.00     0.031 A 
ATOM     89  C   UNL A   1      51.439  26.082  33.071  1.00  0.00     0.131 A 
ATOM     90  C   UNL A   1      52.111  23.400  33.169  1.00  0.00     0.055 A 
ATOM     91  C   UNL A   1      52.783  25.707  33.053  1.00  0.00     0.041 A 
ATOM     92  F   UNL A   1      51.159  27.395  33.045  1.00  0.00    -0.206 F 
ATOM     93  C   UNL A   1      53.125  24.360  33.111  1.00  0.00     0.022 A 
BRANCH  90  94
ATOM     94  S   UNL A   1      52.534  21.646  33.351  1.00  0.00     0.124 S 
ATOM     95  O   UNL A   1      51.811  21.283  34.566  1.00  0.00    -0.237 OA
ATOM     96  O   UNL A   1      52.026  21.069  32.110  1.00  0.00    -0.237 OA
ATOM     97  O   UNL A   1      53.991  21.654  33.476  1.00  0.00    -0.744 OA
ENDBRANCH  90  94
ENDBRANCH  64  87
ENDBRANCH  38  39
ENDBRANCH  31  33
ENDBRANCH  30  31
ENDBRANCH  29  30
ENDBRANCH  28  29
ENDBRANCH  27  28
ENDBRANCH  26  27
ENDBRANCH   1  26
TORSDOF 25
ENDMDL
MODEL 2
REMARK VINA RESULT:      -8.1      8.812     15.448
REMARK SMILES CCC(CC)(NC(=O)N[C@@H](C)[C@@H]1CCCO1)C(=O)OCCOCCOCCOC(=O)c1ccc(-c2c3nc(c(-c4cc(S(=O)(=O)[O-])ccc4F)c4ccc([nH]4)c(-c4cc(S(=O)(=O)[O-])ccc4F)c4nc(c(-c5cc(S(=O)(=O)[O-])ccc5F)c5ccc2[nH]5)C=C4)C=C3)cc1
REMARK SMILES IDX 23 1 22 2 21 3 20 4 19 5 17 6 18 7 3 8 2 9 1 10 4 11 5 12
REMARK SMILES IDX 6 13 7 14 8 16 9 17 10 19 11 20 12 21 13 22 16 23 14 24
REMARK SMILES IDX 15 25 24 26 25 27 26 28 27 29 28 30 29 31 30 32 31 33 32 34
REMARK SMILES IDX 93 35 33 36 92 37 34 38 35 39 36 40 86 41 37 42 91 43 85 44
REMARK SMILES IDX 87 45 38 46 90 47 84 48 83 49 39 51 71 52 51 53 70 54 52 55
REMARK SMILES IDX 55 56 69 57 88 58 53 59 54 60 68 62 89 63 56 64 40 65 41 66
REMARK SMILES IDX 49 67 42 68 48 69 50 70 47 71 43 72 44 73 45 74 46 75 72 76
REMARK SMILES IDX 73 77 81 78 74 79 80 80 82 81 79 82 75 83 76 84 77 85 78 86
REMARK SMILES IDX 57 87 58 88 66 89 59 90 65 91 67 92 64 93 60 94 61 95 62 96
REMARK SMILES IDX 63 97
REMARK H PARENT 6 15 9 18 87 50 55 61
REMARK Flexibility Score: inf
ROOT
ATOM      1  C   UNL A   1      50.618  39.124  28.306  1.00  0.00     0.188 C 
ENDROOT
BRANCH   1   2
ATOM      2  O   UNL A   1      49.740  40.214  28.757  1.00  0.00    -0.376 OA
BRANCH   2   3
ATOM      3  C   UNL A   1      49.373  40.311  30.188  1.00  0.00     0.202 C 
BRANCH   3   4
ATOM      4  C   UNL A   1      48.014  39.502  30.963  1.00  0.00     0.261 C 
BRANCH   4   5
ATOM      5  O   UNL A   1      46.540  40.004  30.834  1.00  0.00    -0.461 OA
BRANCH   5   6
ATOM      6  C   UNL A   1      45.929  40.980  30.039  1.00  0.00     0.331 C 
ATOM      7  O   UNL A   1      45.976  40.900  28.812  1.00  0.00    -0.249 OA
BRANCH   6   8
ATOM      8  C   UNL A   1      45.089  42.331  30.881  1.00  0.00     0.139 C 
BRANCH   8   9
ATOM      9  C   UNL A   1      44.454  43.398  29.903  1.00  0.00     0.037 C 
ATOM     10  C   UNL A   1      45.334  44.380  29.152  1.00  0.00     0.007 C 
ENDBRANCH   8   9
BRANCH   8  11
ATOM     11  C   UNL A   1      46.292  42.976  31.659  1.00  0.00     0.037 C 
ATOM     12  C   UNL A   1      45.948  43.852  32.876  1.00  0.00     0.007 C 
ENDBRANCH   8  11
BRANCH   8  13
ATOM     13  N   UNL A   1      43.975  42.297  32.025  1.00  0.00    -0.322 N 
ATOM     14  C   UNL A   1      42.678  42.021  32.258  1.00  0.00     0.316 C 
ATOM     15  H   UNL A   1      44.388  42.585  32.871  1.00  0.00     0.166 HD
ATOM     16  O   UNL A   1      42.144  42.481  33.284  1.00  0.00    -0.249 OA
ATOM     17  N   UNL A   1      41.985  41.171  31.494  1.00  0.00    -0.333 N 
ATOM     18  H   UNL A   1      41.004  41.125  31.557  1.00  0.00     0.165 HD
BRANCH  17  19
ATOM     19  C   UNL A   1      42.687  40.337  30.592  1.00  0.00     0.109 C 
ATOM     20  C   UNL A   1      43.519  39.291  31.513  1.00  0.00     0.034 C 
BRANCH  19  21
ATOM     21  C   UNL A   1      42.251  40.474  28.980  1.00  0.00     0.140 C 
ATOM     22  C   UNL A   1      41.836  39.241  28.191  1.00  0.00     0.036 C 
ATOM     23  O   UNL A   1      43.081  41.159  28.020  1.00  0.00    -0.376 OA
ATOM     24  C   UNL A   1      41.554  39.859  26.836  1.00  0.00     0.031 C 
ATOM     25  C   UNL A   1      42.744  40.755  26.690  1.00  0.00     0.160 C 
ENDBRANCH  19  21
ENDBRANCH  17  19
ENDBRANCH   8  13
ENDBRANCH   6   8
ENDBRANCH   5   6
ENDBRANCH   4   5
ENDBRANCH   3   4
ENDBRANCH   2   3
ENDBRANCH   1   2
BRANCH   1  26
ATOM     26  C   UNL A   1      50.244  38.238  27.066  1.00  0.00     0.188 C 
BRANCH  26  27
ATOM     27  O   UNL A   1      49.246  37.246  27.221  1.00  0.00    -0.376 OA
BRANCH  27  28
ATOM     28  C   UNL A   1      47.901  37.696  27.158  1.00  0.00     0.202 C 
BRANCH  28  29
ATOM     29  C   UNL A   1      46.920  37.010  26.187  1.00  0.00     0.261 C 
BRANCH  29  30
ATOM     30  O   UNL A   1      45.541  36.902  26.619  1.00  0.00    -0.460 OA
BRANCH  30  31
ATOM     31  C   UNL A   1      45.003  35.664  26.557  1.00  0.00     0.338 C 
ATOM     32  O   UNL A   1      45.184  34.840  25.632  1.00  0.00    -0.246 OA
BRANCH  31  33
ATOM     33  C   UNL A   1      44.124  35.336  27.697  1.00  0.00     0.060 A 
ATOM     34  C   UNL A   1      43.809  36.325  28.643  1.00  0.00     0.016 A 
ATOM     35  C   UNL A   1      43.739  34.013  27.943  1.00  0.00     0.016 A 
ATOM     36  C   UNL A   1      43.114  35.999  29.824  1.00  0.00     0.010 A 
ATOM     37  C   UNL A   1      43.051  33.690  29.127  1.00  0.00     0.010 A 
ATOM     38  C   UNL A   1      42.746  34.672  30.092  1.00  0.00    -0.014 A 
BRANCH  38  39
ATOM     39  C   UNL A   1      42.182  34.235  31.411  1.00  0.00     0.031 A 
ATOM     40  C   UNL A   1      40.692  34.250  31.603  1.00  0.00     0.074 A 
ATOM     41  C   UNL A   1      42.958  33.921  32.468  1.00  0.00     0.049 A 
ATOM     42  N   UNL A   1      39.999  34.161  32.707  1.00  0.00    -0.248 NA
ATOM     43  C   UNL A   1      39.882  34.376  30.383  1.00  0.00     0.031 C 
ATOM     44  C   UNL A   1      44.398  33.743  32.411  1.00  0.00     0.029 A 
ATOM     45  N   UNL A   1      42.662  33.739  33.801  1.00  0.00    -0.354 N 
ATOM     46  C   UNL A   1      38.667  34.237  32.323  1.00  0.00     0.074 A 
ATOM     47  C   UNL A   1      38.653  34.392  30.882  1.00  0.00     0.031 C 
ATOM     48  C   UNL A   1      44.885  33.590  33.654  1.00  0.00     0.029 A 
ATOM     49  C   UNL A   1      43.780  33.662  34.608  1.00  0.00     0.049 A 
ATOM     50  H   UNL A   1      41.742  33.671  34.145  1.00  0.00     0.167 HD
ATOM     51  C   UNL A   1      37.559  34.186  33.102  1.00  0.00     0.034 A 
ATOM     52  C   UNL A   1      43.905  33.692  35.953  1.00  0.00     0.034 A 
ATOM     53  C   UNL A   1      37.575  34.028  34.533  1.00  0.00     0.049 A 
ATOM     54  C   UNL A   1      42.658  33.778  36.807  1.00  0.00     0.074 A 
ATOM     55  C   UNL A   1      36.497  33.906  35.395  1.00  0.00     0.029 A 
ATOM     56  N   UNL A   1      38.716  33.998  35.321  1.00  0.00    -0.354 N 
ATOM     57  N   UNL A   1      41.403  33.818  36.429  1.00  0.00    -0.248 NA
ATOM     58  C   UNL A   1      42.844  33.816  38.267  1.00  0.00     0.031 C 
ATOM     59  C   UNL A   1      36.983  33.886  36.706  1.00  0.00     0.029 A 
ATOM     60  C   UNL A   1      38.367  33.917  36.661  1.00  0.00     0.049 A 
ATOM     61  H   UNL A   1      39.639  34.029  34.979  1.00  0.00     0.167 HD
ATOM     62  C   UNL A   1      40.652  33.846  37.603  1.00  0.00     0.074 A 
ATOM     63  C   UNL A   1      41.592  33.813  38.703  1.00  0.00     0.031 C 
ATOM     64  C   UNL A   1      39.305  33.888  37.757  1.00  0.00     0.034 A 
BRANCH  51  65
ATOM     65  C   UNL A   1      36.229  34.366  32.422  1.00  0.00     0.023 A 
ATOM     66  C   UNL A   1      35.494  35.557  32.529  1.00  0.00     0.031 A 
ATOM     67  C   UNL A   1      35.694  33.321  31.647  1.00  0.00     0.131 A 
ATOM     68  C   UNL A   1      34.241  35.659  31.907  1.00  0.00     0.055 A 
ATOM     69  C   UNL A   1      34.477  33.453  30.978  1.00  0.00     0.041 A 
ATOM     70  F   UNL A   1      36.347  32.154  31.533  1.00  0.00    -0.206 F 
ATOM     71  C   UNL A   1      33.739  34.624  31.114  1.00  0.00     0.022 A 
BRANCH  68  72
ATOM     72  S   UNL A   1      33.229  37.129  32.230  1.00  0.00     0.124 S 
ATOM     73  O   UNL A   1      34.121  37.921  33.075  1.00  0.00    -0.237 OA
ATOM     74  O   UNL A   1      32.991  37.649  30.890  1.00  0.00    -0.237 OA
ATOM     75  O   UNL A   1      32.053  36.591  32.910  1.00  0.00    -0.744 OA
ENDBRANCH  68  72
ENDBRANCH  51  65
BRANCH  52  76
ATOM     76  C   UNL A   1      45.250  33.729  36.608  1.00  0.00     0.023 A 
ATOM     77  C   UNL A   1      45.929  32.548  36.952  1.00  0.00     0.031 A 
ATOM     78  C   UNL A   1      45.817  34.951  37.015  1.00  0.00     0.131 A 
ATOM     79  C   UNL A   1      47.090  32.610  37.740  1.00  0.00     0.055 A 
ATOM     80  C   UNL A   1      47.004  35.010  37.749  1.00  0.00     0.041 A 
ATOM     81  F   UNL A   1      45.209  36.112  36.723  1.00  0.00    -0.206 F 
ATOM     82  C   UNL A   1      47.639  33.834  38.132  1.00  0.00     0.022 A 
BRANCH  79  83
ATOM     83  S   UNL A   1      47.805  31.060  38.360  1.00  0.00     0.124 S 
ATOM     84  O   UNL A   1      48.770  31.551  39.338  1.00  0.00    -0.237 OA
ATOM     85  O   UNL A   1      46.631  30.384  38.901  1.00  0.00    -0.237 OA
ATOM     86  O   UNL A   1      48.381  30.448  37.165  1.00  0.00    -0.744 OA
ENDBRANCH  79  83
ENDBRANCH  52  76
BRANCH  64  87
ATOM     87  C   UNL A   1      38.761  33.848  39.164  1.00  0.00     0.023 A 
ATOM     88  C   UNL A   1      38.213  32.676  39.715  1.00  0.00     0.031 A 
ATOM     89  C   UNL A   1      38.806  34.999  39.972  1.00  0.00     0.131 A 
ATOM     90  C   UNL A   1      37.699  32.690  41.021  1.00  0.00     0.055 A 
ATOM     91  C   UNL A   1      38.342  34.993  41.288  1.00  0.00     0.041 A 
ATOM     92  F   UNL A   1      39.315  36.147  39.496  1.00  0.00    -0.206 F 
ATOM     93  C   UNL A   1      37.777  33.837  41.816  1.00  0.00     0.022 A 
BRANCH  90  94
ATOM     94  S   UNL A   1      36.871  31.206  41.652  1.00  0.00     0.124 S 
ATOM     95  O   UNL A   1      37.839  30.161  41.336  1.00  0.00    -0.237 OA
ATOM     96  O   UNL A   1      36.709  31.515  43.070  1.00  0.00    -0.237 OA
ATOM     97  O   UNL A   1      35.627  31.151  40.886  1.00  0.00    -0.744 OA
ENDBRANCH  90  94
ENDBRANCH  64  87
ENDBRANCH  38  39
ENDBRANCH  31  33
ENDBRANCH  30  31
ENDBRANCH  29  30
ENDBRANCH  28  29
ENDBRANCH  27  28
ENDBRANCH  26  27
ENDBRANCH   1  26
TORSDOF 25
ENDMDL
MODEL 3
REMARK VINA RESULT:      -8.0      4.551      7.499
REMARK SMILES CCC(CC)(NC(=O)N[C@@H](C)[C@@H]1CCCO1)C(=O)OCCOCCOCCOC(=O)c1ccc(-c2c3nc(c(-c4cc(S(=O)(=O)[O-])ccc4F)c4ccc([nH]4)c(-c4cc(S(=O)(=O)[O-])ccc4F)c4nc(c(-c5cc(S(=O)(=O)[O-])ccc5F)c5ccc2[nH]5)C=C4)C=C3)cc1
REMARK SMILES IDX 23 1 22 2 21 3 20 4 19 5 17 6 18 7 3 8 2 9 1 10 4 11 5 12
REMARK SMILES IDX 6 13 7 14 8 16 9 17 10 19 11 20 12 21 13 22 16 23 14 24
REMARK SMILES IDX 15 25 24 26 25 27 26 28 27 29 28 30 29 31 30 32 31 33 32 34
REMARK SMILES IDX 93 35 33 36 92 37 34 38 35 39 36 40 86 41 37 42 91 43 85 44
REMARK SMILES IDX 87 45 38 46 90 47 84 48 83 49 39 51 71 52 51 53 70 54 52 55
REMARK SMILES IDX 55 56 69 57 88 58 53 59 54 60 68 62 89 63 56 64 40 65 41 66
REMARK SMILES IDX 49 67 42 68 48 69 50 70 47 71 43 72 44 73 45 74 46 75 72 76
REMARK SMILES IDX 73 77 81 78 74 79 80 80 82 81 79 82 75 83 76 84 77 85 78 86
REMARK SMILES IDX 57 87 58 88 66 89 59 90 65 91 67 92 64 93 60 94 61 95 62 96
REMARK SMILES IDX 63 97
REMARK H PARENT 6 15 9 18 87 50 55 61
REMARK Flexibility Score: inf
ROOT
ATOM      1  C   UNL A   1      33.233  30.884  27.006  1.00  0.00     0.188 C 
ENDROOT
BRANCH   1   2
ATOM      2  O   UNL A   1      33.428  29.640  26.247  1.00  0.00    -0.376 OA
BRANCH   2   3
ATOM      3  C   UNL A   1      32.336  28.644  26.181  1.00  0.00     0.202 C 
BRANCH   3   4
ATOM      4  C   UNL A   1      32.358  27.037  26.904  1.00  0.00     0.261 C 
BRANCH   4   5
ATOM      5  O   UNL A   1      32.662  25.742  26.086  1.00  0.00    -0.461 OA
BRANCH   5   6
ATOM      6  C   UNL A   1      33.722  25.363  25.255  1.00  0.00     0.331 C 
ATOM      7  O   UNL A   1      34.267  26.193  24.528  1.00  0.00    -0.249 OA
BRANCH   6   8
ATOM      8  C   UNL A   1      34.239  23.640  25.300  1.00  0.00     0.139 C 
BRANCH   8   9
ATOM      9  C   UNL A   1      34.762  23.166  26.715  1.00  0.00     0.037 C 
ATOM     10  C   UNL A   1      33.827  22.486  27.698  1.00  0.00     0.007 C 
ENDBRANCH   8   9
BRANCH   8  11
ATOM     11  C   UNL A   1      35.432  23.671  24.279  1.00  0.00     0.037 C 
ATOM     12  C   UNL A   1      36.284  22.395  24.160  1.00  0.00     0.007 C 
ENDBRANCH   8  11
BRANCH   8  13
ATOM     13  N   UNL A   1      33.472  22.322  24.827  1.00  0.00    -0.322 N 
ATOM     14  C   UNL A   1      32.345  21.886  24.231  1.00  0.00     0.316 C 
ATOM     15  H   UNL A   1      34.025  21.540  25.055  1.00  0.00     0.166 HD
ATOM     16  O   UNL A   1      32.013  20.696  24.382  1.00  0.00    -0.249 OA
ATOM     17  N   UNL A   1      31.648  22.652  23.387  1.00  0.00    -0.333 N 
ATOM     18  H   UNL A   1      30.738  22.395  23.112  1.00  0.00     0.165 HD
BRANCH  17  19
ATOM     19  C   UNL A   1      32.239  23.838  22.894  1.00  0.00     0.109 C 
ATOM     20  C   UNL A   1      33.366  23.362  21.827  1.00  0.00     0.034 C 
BRANCH  19  21
ATOM     21  C   UNL A   1      31.461  25.265  23.301  1.00  0.00     0.140 C 
ATOM     22  C   UNL A   1      30.007  25.245  23.747  1.00  0.00     0.036 C 
ATOM     23  O   UNL A   1      31.475  26.418  22.434  1.00  0.00    -0.376 OA
ATOM     24  C   UNL A   1      29.767  26.723  23.987  1.00  0.00     0.031 C 
ATOM     25  C   UNL A   1      30.404  27.305  22.765  1.00  0.00     0.160 C 
ENDBRANCH  19  21
ENDBRANCH  17  19
ENDBRANCH   8  13
ENDBRANCH   6   8
ENDBRANCH   5   6
ENDBRANCH   4   5
ENDBRANCH   3   4
ENDBRANCH   2   3
ENDBRANCH   1   2
BRANCH   1  26
ATOM     26  C   UNL A   1      34.338  31.427  27.978  1.00  0.00     0.188 C 
BRANCH  26  27
ATOM     27  O   UNL A   1      35.065  32.580  27.595  1.00  0.00    -0.376 OA
BRANCH  27  28
ATOM     28  C   UNL A   1      34.749  33.778  28.287  1.00  0.00     0.202 C 
BRANCH  28  29
ATOM     29  C   UNL A   1      35.314  34.006  29.703  1.00  0.00     0.261 C 
BRANCH  29  30
ATOM     30  O   UNL A   1      36.618  33.441  29.984  1.00  0.00    -0.460 OA
BRANCH  30  31
ATOM     31  C   UNL A   1      36.627  32.373  30.813  1.00  0.00     0.338 C 
ATOM     32  O   UNL A   1      35.627  31.901  31.399  1.00  0.00    -0.246 OA
BRANCH  31  33
ATOM     33  C   UNL A   1      37.966  31.782  31.011  1.00  0.00     0.060 A 
ATOM     34  C   UNL A   1      38.790  32.249  32.047  1.00  0.00     0.016 A 
ATOM     35  C   UNL A   1      38.492  30.882  30.076  1.00  0.00     0.016 A 
ATOM     36  C   UNL A   1      40.129  31.823  32.153  1.00  0.00     0.010 A 
ATOM     37  C   UNL A   1      39.832  30.464  30.181  1.00  0.00     0.010 A 
ATOM     38  C   UNL A   1      40.674  30.942  31.207  1.00  0.00    -0.014 A 
BRANCH  38  39
ATOM     39  C   UNL A   1      42.134  30.606  31.154  1.00  0.00     0.031 A 
ATOM     40  C   UNL A   1      43.041  31.444  30.299  1.00  0.00     0.074 A 
ATOM     41  C   UNL A   1      42.655  29.522  31.766  1.00  0.00     0.049 A 
ATOM     42  N   UNL A   1      44.262  31.200  29.903  1.00  0.00    -0.248 NA
ATOM     43  C   UNL A   1      42.494  32.727  29.837  1.00  0.00     0.031 C 
ATOM     44  C   UNL A   1      41.942  28.689  32.718  1.00  0.00     0.029 A 
ATOM     45  N   UNL A   1      43.880  28.905  31.649  1.00  0.00    -0.354 N 
ATOM     46  C   UNL A   1      44.632  32.292  29.128  1.00  0.00     0.074 A 
ATOM     47  C   UNL A   1      43.495  33.192  29.102  1.00  0.00     0.031 C 
ATOM     48  C   UNL A   1      42.685  27.610  33.020  1.00  0.00     0.029 A 
ATOM     49  C   UNL A   1      43.939  27.674  32.273  1.00  0.00     0.049 A 
ATOM     50  H   UNL A   1      44.642  29.303  31.168  1.00  0.00     0.167 HD
ATOM     51  C   UNL A   1      45.807  32.520  28.495  1.00  0.00     0.034 A 
ATOM     52  C   UNL A   1      44.869  26.695  32.215  1.00  0.00     0.034 A 
ATOM     53  C   UNL A   1      46.936  31.625  28.524  1.00  0.00     0.049 A 
ATOM     54  C   UNL A   1      46.116  26.911  31.385  1.00  0.00     0.074 A 
ATOM     55  C   UNL A   1      48.188  31.805  27.960  1.00  0.00     0.029 A 
ATOM     56  N   UNL A   1      46.948  30.374  29.124  1.00  0.00    -0.354 N 
ATOM     57  N   UNL A   1      46.465  27.963  30.682  1.00  0.00    -0.248 NA
ATOM     58  C   UNL A   1      47.097  25.815  31.346  1.00  0.00     0.031 C 
ATOM     59  C   UNL A   1      48.927  30.632  28.147  1.00  0.00     0.029 A 
ATOM     60  C   UNL A   1      48.165  29.749  28.895  1.00  0.00     0.049 A 
ATOM     61  H   UNL A   1      46.203  29.987  29.638  1.00  0.00     0.167 HD
ATOM     62  C   UNL A   1      47.720  27.667  30.153  1.00  0.00     0.074 A 
ATOM     63  C   UNL A   1      48.071  26.344  30.619  1.00  0.00     0.031 C 
ATOM     64  C   UNL A   1      48.513  28.427  29.357  1.00  0.00     0.034 A 
BRANCH  51  65
ATOM     65  C   UNL A   1      45.911  33.765  27.657  1.00  0.00     0.023 A 
ATOM     66  C   UNL A   1      46.367  34.982  28.188  1.00  0.00     0.031 A 
ATOM     67  C   UNL A   1      45.552  33.725  26.298  1.00  0.00     0.131 A 
ATOM     68  C   UNL A   1      46.409  36.124  27.374  1.00  0.00     0.055 A 
ATOM     69  C   UNL A   1      45.658  34.847  25.478  1.00  0.00     0.041 A 
ATOM     70  F   UNL A   1      45.089  32.590  25.749  1.00  0.00    -0.206 F 
ATOM     71  C   UNL A   1      46.079  36.058  26.017  1.00  0.00     0.022 A 
BRANCH  68  72
ATOM     72  S   UNL A   1      46.806  37.720  28.136  1.00  0.00     0.124 S 
ATOM     73  O   UNL A   1      48.248  37.596  28.345  1.00  0.00    -0.237 OA
ATOM     74  O   UNL A   1      46.389  38.671  27.114  1.00  0.00    -0.237 OA
ATOM     75  O   UNL A   1      46.004  37.723  29.358  1.00  0.00    -0.744 OA
ENDBRANCH  68  72
ENDBRANCH  51  65
BRANCH  52  76
ATOM     76  C   UNL A   1      44.649  25.374  32.883  1.00  0.00     0.023 A 
ATOM     77  C   UNL A   1      44.952  25.181  34.240  1.00  0.00     0.031 A 
ATOM     78  C   UNL A   1      44.252  24.250  32.135  1.00  0.00     0.131 A 
ATOM     79  C   UNL A   1      44.925  23.888  34.790  1.00  0.00     0.055 A 
ATOM     80  C   UNL A   1      44.169  22.975  32.700  1.00  0.00     0.041 A 
ATOM     81  F   UNL A   1      43.957  24.371  30.831  1.00  0.00    -0.206 F 
ATOM     82  C   UNL A   1      44.525  22.785  34.031  1.00  0.00     0.022 A 
BRANCH  79  83
ATOM     83  S   UNL A   1      45.548  23.646  36.478  1.00  0.00     0.124 S 
ATOM     84  O   UNL A   1      46.920  24.125  36.358  1.00  0.00    -0.237 OA
ATOM     85  O   UNL A   1      44.640  24.483  37.255  1.00  0.00    -0.237 OA
ATOM     86  O   UNL A   1      45.404  22.207  36.691  1.00  0.00    -0.744 OA
ENDBRANCH  79  83
ENDBRANCH  52  76
BRANCH  64  87
ATOM     87  C   UNL A   1      49.864  27.869  28.980  1.00  0.00     0.023 A 
ATOM     88  C   UNL A   1      50.104  27.295  27.719  1.00  0.00     0.031 A 
ATOM     89  C   UNL A   1      50.932  27.928  29.894  1.00  0.00     0.131 A 
ATOM     90  C   UNL A   1      51.370  26.769  27.419  1.00  0.00     0.055 A 
ATOM     91  C   UNL A   1      52.203  27.451  29.571  1.00  0.00     0.041 A 
ATOM     92  F   UNL A   1      50.758  28.462  31.114  1.00  0.00    -0.206 F 
ATOM     93  C   UNL A   1      52.426  26.860  28.332  1.00  0.00     0.022 A 
BRANCH  90  94
ATOM     94  S   UNL A   1      51.610  25.909  25.841  1.00  0.00     0.124 S 
ATOM     95  O   UNL A   1      50.251  25.861  25.312  1.00  0.00    -0.237 OA
ATOM     96  O   UNL A   1      52.537  26.792  25.139  1.00  0.00    -0.237 OA
ATOM     97  O   UNL A   1      52.168  24.616  26.234  1.00  0.00    -0.744 OA
ENDBRANCH  90  94
ENDBRANCH  64  87
ENDBRANCH  38  39
ENDBRANCH  31  33
ENDBRANCH  30  31
ENDBRANCH  29  30
ENDBRANCH  28  29
ENDBRANCH  27  28
ENDBRANCH  26  27
ENDBRANCH   1  26
TORSDOF 25
ENDMDL
