MODEL 1
REMARK VINA RESULT:     -10.1      0.000      0.000
REMARK SMILES O=C(OCCOCCOCCOC(=O)C1(C/C=C/c2ccccc2)CCCCC1)c1ccc(-c2c3nc(c(-c4cc(S(=O)(=O)[O-])ccc4F)c4ccc([nH]4)c(-c4cc(S(=O)(=O)[O-])ccc4F)c4nc(c(-c5cc(S(=O)(=O)[O-])ccc5F)c5ccc2[nH]5)C=C4)C=C3)cc1
REMARK SMILES IDX 7 1 6 2 5 3 4 4 3 5 2 6 1 7 30 8 31 9 92 10 32 11 91 12
REMARK SMILES IDX 33 13 34 14 35 15 85 16 36 17 90 18 84 19 86 20 37 21 89 22
REMARK SMILES IDX 83 23 82 24 38 26 70 27 50 28 69 29 51 30 54 31 68 32 87 33
REMARK SMILES IDX 52 34 53 35 67 37 88 38 55 39 39 40 40 41 48 42 41 43 47 44
REMARK SMILES IDX 49 45 46 46 42 47 43 48 44 49 45 50 71 51 72 52 80 53 73 54
REMARK SMILES IDX 79 55 81 56 78 57 74 58 75 59 76 60 77 61 56 62 57 63 65 64
REMARK SMILES IDX 58 65 64 66 66 67 63 68 59 69 60 70 61 71 62 72 8 73 9 74
REMARK SMILES IDX 10 75 11 76 12 77 13 78 14 79 15 80 25 81 29 82 26 83 28 84
REMARK SMILES IDX 27 85 16 86 17 87 18 88 19 89 20 90 24 91 21 92 23 93 22 94
REMARK H PARENT 86 25 54 36
REMARK Flexibility Score: inf
ROOT
ATOM      1  C   UNL A   1      30.948  26.686  26.403  1.00  0.00     0.188 C 
ENDROOT
BRANCH   1   2
ATOM      2  O   UNL A   1      31.391  27.833  27.134  1.00  0.00    -0.376 OA
BRANCH   2   3
ATOM      3  C   UNL A   1      32.786  28.115  26.972  1.00  0.00     0.202 C 
BRANCH   3   4
ATOM      4  C   UNL A   1      33.121  29.516  26.423  1.00  0.00     0.261 C 
BRANCH   4   5
ATOM      5  O   UNL A   1      33.293  30.512  27.447  1.00  0.00    -0.460 OA
BRANCH   5   6
ATOM      6  C   UNL A   1      34.433  31.139  27.841  1.00  0.00     0.338 C 
ATOM      7  O   UNL A   1      34.444  32.370  27.835  1.00  0.00    -0.246 OA
BRANCH   6   8
ATOM      8  C   UNL A   1      35.688  30.428  28.251  1.00  0.00     0.060 A 
ATOM      9  C   UNL A   1      35.845  29.698  29.427  1.00  0.00     0.016 A 
ATOM     10  C   UNL A   1      36.782  30.469  27.369  1.00  0.00     0.016 A 
ATOM     11  C   UNL A   1      37.047  29.112  29.779  1.00  0.00     0.010 A 
ATOM     12  C   UNL A   1      37.989  29.826  27.686  1.00  0.00     0.010 A 
ATOM     13  C   UNL A   1      38.128  29.163  28.914  1.00  0.00    -0.014 A 
BRANCH  13  14
ATOM     14  C   UNL A   1      39.417  28.643  29.411  1.00  0.00     0.031 A 
ATOM     15  C   UNL A   1      40.056  29.355  30.560  1.00  0.00     0.074 A 
ATOM     16  C   UNL A   1      39.901  27.460  28.984  1.00  0.00     0.049 A 
ATOM     17  N   UNL A   1      41.171  29.080  31.175  1.00  0.00    -0.248 NA
ATOM     18  C   UNL A   1      39.298  30.475  31.145  1.00  0.00     0.031 C 
ATOM     19  C   UNL A   1      39.210  26.542  28.084  1.00  0.00     0.029 A 
ATOM     20  N   UNL A   1      41.082  26.817  29.238  1.00  0.00    -0.354 N 
ATOM     21  C   UNL A   1      41.218  29.947  32.256  1.00  0.00     0.074 A 
ATOM     22  C   UNL A   1      40.065  30.814  32.168  1.00  0.00     0.031 C 
ATOM     23  C   UNL A   1      40.021  25.530  27.747  1.00  0.00     0.029 A 
ATOM     24  C   UNL A   1      41.288  25.729  28.418  1.00  0.00     0.049 A 
ATOM     25  H   UNL A   1      41.717  27.103  29.933  1.00  0.00     0.167 HD
ATOM     26  C   UNL A   1      42.127  29.973  33.256  1.00  0.00     0.034 A 
ATOM     27  C   UNL A   1      42.397  24.999  28.207  1.00  0.00     0.034 A 
ATOM     28  C   UNL A   1      43.282  29.114  33.281  1.00  0.00     0.049 A 
ATOM     29  C   UNL A   1      43.546  25.249  29.135  1.00  0.00     0.074 A 
ATOM     30  C   UNL A   1      44.327  29.097  34.183  1.00  0.00     0.029 A 
ATOM     31  N   UNL A   1      43.550  28.126  32.338  1.00  0.00    -0.354 N 
ATOM     32  N   UNL A   1      43.619  26.110  30.125  1.00  0.00    -0.248 NA
ATOM     33  C   UNL A   1      44.722  24.393  28.978  1.00  0.00     0.031 C 
ATOM     34  C   UNL A   1      45.262  28.153  33.743  1.00  0.00     0.029 A 
ATOM     35  C   UNL A   1      44.765  27.522  32.613  1.00  0.00     0.049 A 
ATOM     36  H   UNL A   1      42.960  27.890  31.586  1.00  0.00     0.167 HD
ATOM     37  C   UNL A   1      44.824  25.852  30.757  1.00  0.00     0.074 A 
ATOM     38  C   UNL A   1      45.442  24.757  30.028  1.00  0.00     0.031 C 
ATOM     39  C   UNL A   1      45.361  26.446  31.854  1.00  0.00     0.034 A 
BRANCH  26  40
ATOM     40  C   UNL A   1      41.919  31.002  34.334  1.00  0.00     0.023 A 
ATOM     41  C   UNL A   1      42.410  32.315  34.206  1.00  0.00     0.031 A 
ATOM     42  C   UNL A   1      41.288  30.645  35.537  1.00  0.00     0.131 A 
ATOM     43  C   UNL A   1      42.315  33.204  35.289  1.00  0.00     0.055 A 
ATOM     44  C   UNL A   1      41.133  31.556  36.582  1.00  0.00     0.041 A 
ATOM     45  F   UNL A   1      40.838  29.395  35.726  1.00  0.00    -0.206 F 
ATOM     46  C   UNL A   1      41.657  32.840  36.466  1.00  0.00     0.022 A 
BRANCH  43  47
ATOM     47  S   UNL A   1      43.181  34.796  35.188  1.00  0.00     0.124 S 
ATOM     48  O   UNL A   1      44.568  34.392  35.409  1.00  0.00    -0.237 OA
ATOM     49  O   UNL A   1      42.856  35.251  33.843  1.00  0.00    -0.237 OA
ATOM     50  O   UNL A   1      42.587  35.577  36.272  1.00  0.00    -0.744 OA
ENDBRANCH  43  47
ENDBRANCH  26  40
BRANCH  27  51
ATOM     51  C   UNL A   1      42.484  24.030  27.079  1.00  0.00     0.023 A 
ATOM     52  C   UNL A   1      41.951  22.737  27.170  1.00  0.00     0.031 A 
ATOM     53  C   UNL A   1      43.193  24.369  25.910  1.00  0.00     0.131 A 
ATOM     54  C   UNL A   1      42.193  21.809  26.142  1.00  0.00     0.055 A 
ATOM     55  C   UNL A   1      43.385  23.459  24.868  1.00  0.00     0.041 A 
ATOM     56  F   UNL A   1      43.731  25.592  25.772  1.00  0.00    -0.206 F 
ATOM     57  C   UNL A   1      42.900  22.163  24.990  1.00  0.00     0.022 A 
BRANCH  54  58
ATOM     58  S   UNL A   1      41.677  20.089  26.396  1.00  0.00     0.124 S 
ATOM     59  O   UNL A   1      42.468  19.387  25.395  1.00  0.00    -0.237 OA
ATOM     60  O   UNL A   1      42.055  19.866  27.788  1.00  0.00    -0.237 OA
ATOM     61  O   UNL A   1      40.235  20.126  26.142  1.00  0.00    -0.744 OA
ENDBRANCH  54  58
ENDBRANCH  27  51
BRANCH  39  62
ATOM     62  C   UNL A   1      46.662  25.872  32.339  1.00  0.00     0.023 A 
ATOM     63  C   UNL A   1      46.696  24.889  33.340  1.00  0.00     0.031 A 
ATOM     64  C   UNL A   1      47.881  26.359  31.836  1.00  0.00     0.131 A 
ATOM     65  C   UNL A   1      47.926  24.490  33.875  1.00  0.00     0.055 A 
ATOM     66  C   UNL A   1      49.103  25.891  32.311  1.00  0.00     0.041 A 
ATOM     67  F   UNL A   1      47.899  27.306  30.884  1.00  0.00    -0.206 F 
ATOM     68  C   UNL A   1      49.131  24.966  33.351  1.00  0.00     0.022 A 
BRANCH  65  69
ATOM     69  S   UNL A   1      47.916  23.452  35.358  1.00  0.00     0.124 S 
ATOM     70  O   UNL A   1      48.316  22.157  34.819  1.00  0.00    -0.237 OA
ATOM     71  O   UNL A   1      48.894  24.118  36.212  1.00  0.00    -0.237 OA
ATOM     72  O   UNL A   1      46.532  23.533  35.821  1.00  0.00    -0.744 OA
ENDBRANCH  65  69
ENDBRANCH  39  62
ENDBRANCH  13  14
ENDBRANCH   6   8
ENDBRANCH   5   6
ENDBRANCH   4   5
ENDBRANCH   3   4
ENDBRANCH   2   3
ENDBRANCH   1   2
BRANCH   1  73
ATOM     73  C   UNL A   1      31.886  25.482  26.507  1.00  0.00     0.188 C 
BRANCH  73  74
ATOM     74  O   UNL A   1      31.434  24.361  27.261  1.00  0.00    -0.376 OA
BRANCH  74  75
ATOM     75  C   UNL A   1      30.843  23.288  26.539  1.00  0.00     0.202 C 
BRANCH  75  76
ATOM     76  C   UNL A   1      31.621  22.646  25.375  1.00  0.00     0.261 C 
BRANCH  76  77
ATOM     77  O   UNL A   1      32.842  21.969  25.725  1.00  0.00    -0.463 OA
BRANCH  77  78
ATOM     78  C   UNL A   1      33.675  21.730  24.675  1.00  0.00     0.312 C 
ATOM     79  O   UNL A   1      33.417  20.914  23.795  1.00  0.00    -0.252 OA
BRANCH  78  80
ATOM     80  C   UNL A   1      35.011  22.514  24.713  1.00  0.00     0.071 C 
ATOM     81  C   UNL A   1      35.264  23.310  26.009  1.00  0.00     0.019 C 
ATOM     82  C   UNL A   1      36.083  21.401  24.619  1.00  0.00     0.019 C 
ATOM     83  C   UNL A   1      36.703  23.846  26.112  1.00  0.00     0.001 C 
ATOM     84  C   UNL A   1      37.512  21.918  24.621  1.00  0.00     0.001 C 
ATOM     85  C   UNL A   1      37.798  22.824  25.808  1.00  0.00     0.000 C 
BRANCH  80  86
ATOM     86  C   UNL A   1      35.082  23.555  23.553  1.00  0.00     0.046 C 
BRANCH  86  87
ATOM     87  C   UNL A   1      34.240  24.775  23.731  1.00  0.00    -0.025 C 
ATOM     88  C   UNL A   1      33.228  25.062  22.900  1.00  0.00     0.004 C 
BRANCH  88  89
ATOM     89  C   UNL A   1      32.589  26.375  22.870  1.00  0.00    -0.026 A 
ATOM     90  C   UNL A   1      31.209  26.475  22.684  1.00  0.00     0.008 A 
ATOM     91  C   UNL A   1      33.365  27.542  22.898  1.00  0.00     0.008 A 
ATOM     92  C   UNL A   1      30.614  27.730  22.543  1.00  0.00     0.001 A 
ATOM     93  C   UNL A   1      32.772  28.792  22.753  1.00  0.00     0.001 A 
ATOM     94  C   UNL A   1      31.395  28.886  22.574  1.00  0.00     0.000 A 
ENDBRANCH  88  89
ENDBRANCH  86  87
ENDBRANCH  80  86
ENDBRANCH  78  80
ENDBRANCH  77  78
ENDBRANCH  76  77
ENDBRANCH  75  76
ENDBRANCH  74  75
ENDBRANCH  73  74
ENDBRANCH   1  73
TORSDOF 23
ENDMDL
MODEL 2
REMARK VINA RESULT:      -9.9      1.757      7.603
REMARK SMILES O=C(OCCOCCOCCOC(=O)C1(C/C=C/c2ccccc2)CCCCC1)c1ccc(-c2c3nc(c(-c4cc(S(=O)(=O)[O-])ccc4F)c4ccc([nH]4)c(-c4cc(S(=O)(=O)[O-])ccc4F)c4nc(c(-c5cc(S(=O)(=O)[O-])ccc5F)c5ccc2[nH]5)C=C4)C=C3)cc1
REMARK SMILES IDX 7 1 6 2 5 3 4 4 3 5 2 6 1 7 30 8 31 9 92 10 32 11 91 12
REMARK SMILES IDX 33 13 34 14 35 15 85 16 36 17 90 18 84 19 86 20 37 21 89 22
REMARK SMILES IDX 83 23 82 24 38 26 70 27 50 28 69 29 51 30 54 31 68 32 87 33
REMARK SMILES IDX 52 34 53 35 67 37 88 38 55 39 39 40 40 41 48 42 41 43 47 44
REMARK SMILES IDX 49 45 46 46 42 47 43 48 44 49 45 50 71 51 72 52 80 53 73 54
REMARK SMILES IDX 79 55 81 56 78 57 74 58 75 59 76 60 77 61 56 62 57 63 65 64
REMARK SMILES IDX 58 65 64 66 66 67 63 68 59 69 60 70 61 71 62 72 8 73 9 74
REMARK SMILES IDX 10 75 11 76 12 77 13 78 14 79 15 80 25 81 29 82 26 83 28 84
REMARK SMILES IDX 27 85 16 86 17 87 18 88 19 89 20 90 24 91 21 92 23 93 22 94
REMARK H PARENT 86 25 54 36
REMARK Flexibility Score: inf
ROOT
ATOM      1  C   UNL A   1      31.224  26.859  26.333  1.00  0.00     0.188 C 
ENDROOT
BRANCH   1   2
ATOM      2  O   UNL A   1      31.796  27.811  27.234  1.00  0.00    -0.376 OA
BRANCH   2   3
ATOM      3  C   UNL A   1      33.073  28.305  26.814  1.00  0.00     0.202 C 
BRANCH   3   4
ATOM      4  C   UNL A   1      33.080  29.745  26.264  1.00  0.00     0.261 C 
BRANCH   4   5
ATOM      5  O   UNL A   1      33.147  30.754  27.288  1.00  0.00    -0.460 OA
BRANCH   5   6
ATOM      6  C   UNL A   1      34.225  31.465  27.712  1.00  0.00     0.338 C 
ATOM      7  O   UNL A   1      34.183  32.692  27.608  1.00  0.00    -0.246 OA
BRANCH   6   8
ATOM      8  C   UNL A   1      35.475  30.852  28.268  1.00  0.00     0.060 A 
ATOM      9  C   UNL A   1      35.516  29.737  29.102  1.00  0.00     0.016 A 
ATOM     10  C   UNL A   1      36.706  31.420  27.894  1.00  0.00     0.016 A 
ATOM     11  C   UNL A   1      36.698  29.251  29.630  1.00  0.00     0.010 A 
ATOM     12  C   UNL A   1      37.917  30.898  28.374  1.00  0.00     0.010 A 
ATOM     13  C   UNL A   1      37.909  29.819  29.270  1.00  0.00    -0.014 A 
BRANCH  13  14
ATOM     14  C   UNL A   1      39.115  29.347  29.978  1.00  0.00     0.031 A 
ATOM     15  C   UNL A   1      39.870  28.205  29.377  1.00  0.00     0.074 A 
ATOM     16  C   UNL A   1      39.631  30.042  31.011  1.00  0.00     0.049 A 
ATOM     17  N   UNL A   1      40.958  27.629  29.804  1.00  0.00    -0.248 NA
ATOM     18  C   UNL A   1      39.380  27.699  28.084  1.00  0.00     0.031 C 
ATOM     19  C   UNL A   1      39.142  31.331  31.489  1.00  0.00     0.029 A 
ATOM     20  N   UNL A   1      40.676  29.773  31.854  1.00  0.00    -0.354 N 
ATOM     21  C   UNL A   1      41.320  26.740  28.804  1.00  0.00     0.074 A 
ATOM     22  C   UNL A   1      40.293  26.789  27.787  1.00  0.00     0.031 C 
ATOM     23  C   UNL A   1      39.781  31.678  32.614  1.00  0.00     0.029 A 
ATOM     24  C   UNL A   1      40.733  30.633  32.930  1.00  0.00     0.049 A 
ATOM     25  H   UNL A   1      41.318  29.042  31.707  1.00  0.00     0.167 HD
ATOM     26  C   UNL A   1      42.441  25.990  28.730  1.00  0.00     0.034 A 
ATOM     27  C   UNL A   1      41.450  30.558  34.064  1.00  0.00     0.034 A 
ATOM     28  C   UNL A   1      43.419  25.944  29.786  1.00  0.00     0.049 A 
ATOM     29  C   UNL A   1      42.510  29.501  34.113  1.00  0.00     0.074 A 
ATOM     30  C   UNL A   1      44.552  25.161  29.883  1.00  0.00     0.029 A 
ATOM     31  N   UNL A   1      43.361  26.710  30.947  1.00  0.00    -0.354 N 
ATOM     32  N   UNL A   1      42.819  28.616  33.192  1.00  0.00    -0.248 NA
ATOM     33  C   UNL A   1      43.362  29.473  35.302  1.00  0.00     0.031 C 
ATOM     34  C   UNL A   1      45.135  25.397  31.133  1.00  0.00     0.029 A 
ATOM     35  C   UNL A   1      44.416  26.388  31.784  1.00  0.00     0.049 A 
ATOM     36  H   UNL A   1      42.671  27.385  31.143  1.00  0.00     0.167 HD
ATOM     37  C   UNL A   1      43.951  27.969  33.660  1.00  0.00     0.074 A 
ATOM     38  C   UNL A   1      44.261  28.567  34.948  1.00  0.00     0.031 C 
ATOM     39  C   UNL A   1      44.683  26.990  33.071  1.00  0.00     0.034 A 
BRANCH  26  40
ATOM     40  C   UNL A   1      42.603  25.130  27.505  1.00  0.00     0.023 A 
ATOM     41  C   UNL A   1      42.092  23.821  27.449  1.00  0.00     0.031 A 
ATOM     42  C   UNL A   1      43.342  25.601  26.408  1.00  0.00     0.131 A 
ATOM     43  C   UNL A   1      42.382  23.005  26.343  1.00  0.00     0.055 A 
ATOM     44  C   UNL A   1      43.565  24.810  25.281  1.00  0.00     0.041 A 
ATOM     45  F   UNL A   1      43.886  26.827  26.427  1.00  0.00    -0.206 F 
ATOM     46  C   UNL A   1      43.094  23.500  25.248  1.00  0.00     0.022 A 
BRANCH  43  47
ATOM     47  S   UNL A   1      41.931  21.248  26.413  1.00  0.00     0.124 S 
ATOM     48  O   UNL A   1      40.500  21.299  26.124  1.00  0.00    -0.237 OA
ATOM     49  O   UNL A   1      42.771  20.662  25.377  1.00  0.00    -0.237 OA
ATOM     50  O   UNL A   1      42.270  20.863  27.783  1.00  0.00    -0.744 OA
ENDBRANCH  43  47
ENDBRANCH  26  40
BRANCH  27  51
ATOM     51  C   UNL A   1      41.167  31.453  35.221  1.00  0.00     0.023 A 
ATOM     52  C   UNL A   1      39.979  31.358  35.957  1.00  0.00     0.031 A 
ATOM     53  C   UNL A   1      42.062  32.490  35.547  1.00  0.00     0.131 A 
ATOM     54  C   UNL A   1      39.686  32.322  36.938  1.00  0.00     0.055 A 
ATOM     55  C   UNL A   1      41.791  33.414  36.559  1.00  0.00     0.041 A 
ATOM     56  F   UNL A   1      43.213  32.633  34.870  1.00  0.00    -0.206 F 
ATOM     57  C   UNL A   1      40.587  33.344  37.248  1.00  0.00     0.022 A 
BRANCH  54  58
ATOM     58  S   UNL A   1      38.047  32.292  37.713  1.00  0.00     0.124 S 
ATOM     59  O   UNL A   1      37.406  31.186  37.015  1.00  0.00    -0.237 OA
ATOM     60  O   UNL A   1      38.382  32.061  39.115  1.00  0.00    -0.237 OA
ATOM     61  O   UNL A   1      37.505  33.619  37.413  1.00  0.00    -0.744 OA
ENDBRANCH  54  58
ENDBRANCH  27  51
BRANCH  39  62
ATOM     62  C   UNL A   1      45.914  26.554  33.814  1.00  0.00     0.023 A 
ATOM     63  C   UNL A   1      45.875  25.486  34.724  1.00  0.00     0.031 A 
ATOM     64  C   UNL A   1      47.122  27.253  33.653  1.00  0.00     0.131 A 
ATOM     65  C   UNL A   1      46.997  25.206  35.510  1.00  0.00     0.055 A 
ATOM     66  C   UNL A   1      48.263  26.910  34.375  1.00  0.00     0.041 A 
ATOM     67  F   UNL A   1      47.207  28.287  32.801  1.00  0.00    -0.206 F 
ATOM     68  C   UNL A   1      48.199  25.895  35.325  1.00  0.00     0.022 A 
BRANCH  65  69
ATOM     69  S   UNL A   1      46.814  24.028  36.873  1.00  0.00     0.124 S 
ATOM     70  O   UNL A   1      45.544  24.444  37.459  1.00  0.00    -0.237 OA
ATOM     71  O   UNL A   1      46.806  22.746  36.178  1.00  0.00    -0.237 OA
ATOM     72  O   UNL A   1      47.993  24.278  37.700  1.00  0.00    -0.744 OA
ENDBRANCH  65  69
ENDBRANCH  39  62
ENDBRANCH  13  14
ENDBRANCH   6   8
ENDBRANCH   5   6
ENDBRANCH   4   5
ENDBRANCH   3   4
ENDBRANCH   2   3
ENDBRANCH   1   2
BRANCH   1  73
ATOM     73  C   UNL A   1      31.785  25.444  26.485  1.00  0.00     0.188 C 
BRANCH  73  74
ATOM     74  O   UNL A   1      31.023  24.514  27.249  1.00  0.00    -0.376 OA
BRANCH  74  75
ATOM     75  C   UNL A   1      30.605  23.323  26.596  1.00  0.00     0.202 C 
BRANCH  75  76
ATOM     76  C   UNL A   1      31.405  22.810  25.384  1.00  0.00     0.261 C 
BRANCH  76  77
ATOM     77  O   UNL A   1      32.531  21.963  25.678  1.00  0.00    -0.463 OA
BRANCH  77  78
ATOM     78  C   UNL A   1      33.280  21.624  24.594  1.00  0.00     0.312 C 
ATOM     79  O   UNL A   1      32.902  20.814  23.752  1.00  0.00    -0.252 OA
BRANCH  78  80
ATOM     80  C   UNL A   1      34.681  22.283  24.540  1.00  0.00     0.071 C 
ATOM     81  C   UNL A   1      34.941  23.354  25.619  1.00  0.00     0.019 C 
ATOM     82  C   UNL A   1      35.645  21.099  24.803  1.00  0.00     0.019 C 
ATOM     83  C   UNL A   1      36.417  23.782  25.697  1.00  0.00     0.001 C 
ATOM     84  C   UNL A   1      37.114  21.484  24.787  1.00  0.00     0.001 C 
ATOM     85  C   UNL A   1      37.422  22.633  25.735  1.00  0.00     0.000 C 
BRANCH  80  86
ATOM     86  C   UNL A   1      34.915  22.992  23.171  1.00  0.00     0.046 C 
BRANCH  86  87
ATOM     87  C   UNL A   1      33.892  24.011  22.792  1.00  0.00    -0.025 C 
ATOM     88  C   UNL A   1      34.038  25.308  23.103  1.00  0.00     0.004 C 
BRANCH  88  89
ATOM     89  C   UNL A   1      32.936  26.262  23.012  1.00  0.00    -0.026 A 
ATOM     90  C   UNL A   1      31.633  25.806  22.809  1.00  0.00     0.008 A 
ATOM     91  C   UNL A   1      33.191  27.640  22.999  1.00  0.00     0.008 A 
ATOM     92  C   UNL A   1      30.597  26.721  22.610  1.00  0.00     0.001 A 
ATOM     93  C   UNL A   1      32.160  28.552  22.797  1.00  0.00     0.001 A 
ATOM     94  C   UNL A   1      30.861  28.090  22.600  1.00  0.00     0.000 A 
ENDBRANCH  88  89
ENDBRANCH  86  87
ENDBRANCH  80  86
ENDBRANCH  78  80
ENDBRANCH  77  78
ENDBRANCH  76  77
ENDBRANCH  75  76
ENDBRANCH  74  75
ENDBRANCH  73  74
ENDBRANCH   1  73
TORSDOF 23
ENDMDL
MODEL 3
REMARK VINA RESULT:      -9.8      1.326      7.799
REMARK SMILES O=C(OCCOCCOCCOC(=O)C1(C/C=C/c2ccccc2)CCCCC1)c1ccc(-c2c3nc(c(-c4cc(S(=O)(=O)[O-])ccc4F)c4ccc([nH]4)c(-c4cc(S(=O)(=O)[O-])ccc4F)c4nc(c(-c5cc(S(=O)(=O)[O-])ccc5F)c5ccc2[nH]5)C=C4)C=C3)cc1
REMARK SMILES IDX 7 1 6 2 5 3 4 4 3 5 2 6 1 7 30 8 31 9 92 10 32 11 91 12
REMARK SMILES IDX 33 13 34 14 35 15 85 16 36 17 90 18 84 19 86 20 37 21 89 22
REMARK SMILES IDX 83 23 82 24 38 26 70 27 50 28 69 29 51 30 54 31 68 32 87 33
REMARK SMILES IDX 52 34 53 35 67 37 88 38 55 39 39 40 40 41 48 42 41 43 47 44
REMARK SMILES IDX 49 45 46 46 42 47 43 48 44 49 45 50 71 51 72 52 80 53 73 54
REMARK SMILES IDX 79 55 81 56 78 57 74 58 75 59 76 60 77 61 56 62 57 63 65 64
REMARK SMILES IDX 58 65 64 66 66 67 63 68 59 69 60 70 61 71 62 72 8 73 9 74
REMARK SMILES IDX 10 75 11 76 12 77 13 78 14 79 15 80 25 81 29 82 26 83 28 84
REMARK SMILES IDX 27 85 16 86 17 87 18 88 19 89 20 90 24 91 21 92 23 93 22 94
REMARK H PARENT 86 25 54 36
REMARK Flexibility Score: inf
ROOT
ATOM      1  C   UNL A   1      31.455  26.459  26.482  1.00  0.00     0.188 C 
ENDROOT
BRANCH   1   2
ATOM      2  O   UNL A   1      32.680  27.151  26.225  1.00  0.00    -0.376 OA
BRANCH   2   3
ATOM      3  C   UNL A   1      32.623  28.551  26.523  1.00  0.00     0.202 C 
BRANCH   3   4
ATOM      4  C   UNL A   1      33.940  29.327  26.325  1.00  0.00     0.261 C 
BRANCH   4   5
ATOM      5  O   UNL A   1      33.949  30.621  26.955  1.00  0.00    -0.460 OA
BRANCH   5   6
ATOM      6  C   UNL A   1      34.915  31.184  27.728  1.00  0.00     0.338 C 
ATOM      7  O   UNL A   1      34.813  32.382  27.996  1.00  0.00    -0.246 OA
BRANCH   6   8
ATOM      8  C   UNL A   1      36.114  30.449  28.248  1.00  0.00     0.060 A 
ATOM      9  C   UNL A   1      36.134  29.670  29.403  1.00  0.00     0.016 A 
ATOM     10  C   UNL A   1      37.302  30.518  27.499  1.00  0.00     0.016 A 
ATOM     11  C   UNL A   1      37.287  29.061  29.865  1.00  0.00     0.010 A 
ATOM     12  C   UNL A   1      38.463  29.855  27.925  1.00  0.00     0.010 A 
ATOM     13  C   UNL A   1      38.459  29.141  29.132  1.00  0.00    -0.014 A 
BRANCH  13  14
ATOM     14  C   UNL A   1      39.682  28.593  29.750  1.00  0.00     0.031 A 
ATOM     15  C   UNL A   1      40.268  27.354  29.152  1.00  0.00     0.074 A 
ATOM     16  C   UNL A   1      40.360  29.288  30.686  1.00  0.00     0.049 A 
ATOM     17  N   UNL A   1      41.336  26.699  29.509  1.00  0.00    -0.248 NA
ATOM     18  C   UNL A   1      39.607  26.830  27.944  1.00  0.00     0.031 C 
ATOM     19  C   UNL A   1      40.039  30.641  31.128  1.00  0.00     0.029 A 
ATOM     20  N   UNL A   1      41.454  28.964  31.441  1.00  0.00    -0.354 N 
ATOM     21  C   UNL A   1      41.514  25.728  28.534  1.00  0.00     0.074 A 
ATOM     22  C   UNL A   1      40.399  25.823  27.619  1.00  0.00     0.031 C 
ATOM     23  C   UNL A   1      40.816  30.983  32.164  1.00  0.00     0.029 A 
ATOM     24  C   UNL A   1      41.696  29.870  32.452  1.00  0.00     0.049 A 
ATOM     25  H   UNL A   1      42.010  28.168  31.279  1.00  0.00     0.167 HD
ATOM     26  C   UNL A   1      42.550  24.871  28.402  1.00  0.00     0.034 A 
ATOM     27  C   UNL A   1      42.513  29.785  33.515  1.00  0.00     0.034 A 
ATOM     28  C   UNL A   1      43.620  24.787  29.361  1.00  0.00     0.049 A 
ATOM     29  C   UNL A   1      43.473  28.635  33.529  1.00  0.00     0.074 A 
ATOM     30  C   UNL A   1      44.681  23.905  29.398  1.00  0.00     0.029 A 
ATOM     31  N   UNL A   1      43.748  25.615  30.474  1.00  0.00    -0.354 N 
ATOM     32  N   UNL A   1      43.607  27.678  32.639  1.00  0.00    -0.248 NA
ATOM     33  C   UNL A   1      44.433  28.587  34.632  1.00  0.00     0.031 C 
ATOM     34  C   UNL A   1      45.406  24.149  30.571  1.00  0.00     0.029 A 
ATOM     35  C   UNL A   1      44.847  25.237  31.226  1.00  0.00     0.049 A 
ATOM     36  H   UNL A   1      43.145  26.362  30.692  1.00  0.00     0.167 HD
ATOM     37  C   UNL A   1      44.717  26.951  33.037  1.00  0.00     0.074 A 
ATOM     38  C   UNL A   1      45.206  27.583  34.251  1.00  0.00     0.031 C 
ATOM     39  C   UNL A   1      45.295  25.877  32.441  1.00  0.00     0.034 A 
BRANCH  26  40
ATOM     40  C   UNL A   1      42.511  23.938  27.221  1.00  0.00     0.023 A 
ATOM     41  C   UNL A   1      41.939  22.656  27.313  1.00  0.00     0.031 A 
ATOM     42  C   UNL A   1      43.120  24.307  26.011  1.00  0.00     0.131 A 
ATOM     43  C   UNL A   1      42.043  21.766  26.232  1.00  0.00     0.055 A 
ATOM     44  C   UNL A   1      43.157  23.444  24.916  1.00  0.00     0.041 A 
ATOM     45  F   UNL A   1      43.716  25.503  25.884  1.00  0.00    -0.206 F 
ATOM     46  C   UNL A   1      42.627  22.161  25.025  1.00  0.00     0.022 A 
BRANCH  43  47
ATOM     47  S   UNL A   1      41.528  20.041  26.468  1.00  0.00     0.124 S 
ATOM     48  O   UNL A   1      42.142  19.389  25.313  1.00  0.00    -0.237 OA
ATOM     49  O   UNL A   1      42.102  19.713  27.766  1.00  0.00    -0.237 OA
ATOM     50  O   UNL A   1      40.068  20.113  26.430  1.00  0.00    -0.744 OA
ENDBRANCH  43  47
ENDBRANCH  26  40
BRANCH  27  51
ATOM     51  C   UNL A   1      42.428  30.762  34.637  1.00  0.00     0.023 A 
ATOM     52  C   UNL A   1      43.201  31.931  34.662  1.00  0.00     0.031 A 
ATOM     53  C   UNL A   1      41.622  30.483  35.757  1.00  0.00     0.131 A 
ATOM     54  C   UNL A   1      43.203  32.742  35.810  1.00  0.00     0.055 A 
ATOM     55  C   UNL A   1      41.587  31.320  36.874  1.00  0.00     0.041 A 
ATOM     56  F   UNL A   1      40.866  29.373  35.791  1.00  0.00    -0.206 F 
ATOM     57  C   UNL A   1      42.397  32.448  36.913  1.00  0.00     0.022 A 
BRANCH  54  58
ATOM     58  S   UNL A   1      44.379  34.120  35.888  1.00  0.00     0.124 S 
ATOM     59  O   UNL A   1      45.371  33.615  36.827  1.00  0.00    -0.237 OA
ATOM     60  O   UNL A   1      44.805  34.229  34.497  1.00  0.00    -0.237 OA
ATOM     61  O   UNL A   1      43.565  35.235  36.378  1.00  0.00    -0.744 OA
ENDBRANCH  54  58
ENDBRANCH  27  51
BRANCH  39  62
ATOM     62  C   UNL A   1      46.550  25.364  33.091  1.00  0.00     0.023 A 
ATOM     63  C   UNL A   1      47.818  25.730  32.615  1.00  0.00     0.031 A 
ATOM     64  C   UNL A   1      46.472  24.453  34.158  1.00  0.00     0.131 A 
ATOM     65  C   UNL A   1      48.958  25.115  33.143  1.00  0.00     0.055 A 
ATOM     66  C   UNL A   1      47.616  23.913  34.739  1.00  0.00     0.041 A 
ATOM     67  F   UNL A   1      45.281  24.066  34.643  1.00  0.00    -0.206 F 
ATOM     68  C   UNL A   1      48.868  24.228  34.218  1.00  0.00     0.022 A 
BRANCH  65  69
ATOM     69  S   UNL A   1      50.541  25.387  32.306  1.00  0.00     0.124 S 
ATOM     70  O   UNL A   1      50.706  24.139  31.568  1.00  0.00    -0.237 OA
ATOM     71  O   UNL A   1      50.268  26.573  31.500  1.00  0.00    -0.237 OA
ATOM     72  O   UNL A   1      51.479  25.587  33.408  1.00  0.00    -0.744 OA
ENDBRANCH  65  69
ENDBRANCH  39  62
ENDBRANCH  13  14
ENDBRANCH   6   8
ENDBRANCH   5   6
ENDBRANCH   4   5
ENDBRANCH   3   4
ENDBRANCH   2   3
ENDBRANCH   1   2
BRANCH   1  73
ATOM     73  C   UNL A   1      31.565  24.937  26.372  1.00  0.00     0.188 C 
BRANCH  73  74
ATOM     74  O   UNL A   1      30.372  24.179  26.548  1.00  0.00    -0.376 OA
BRANCH  74  75
ATOM     75  C   UNL A   1      30.506  22.766  26.631  1.00  0.00     0.202 C 
BRANCH  75  76
ATOM     76  C   UNL A   1      31.379  22.031  25.595  1.00  0.00     0.261 C 
BRANCH  76  77
ATOM     77  O   UNL A   1      32.760  21.837  25.952  1.00  0.00    -0.463 OA
BRANCH  77  78
ATOM     78  C   UNL A   1      33.564  21.478  24.914  1.00  0.00     0.312 C 
ATOM     79  O   UNL A   1      33.289  20.558  24.148  1.00  0.00    -0.252 OA
BRANCH  78  80
ATOM     80  C   UNL A   1      34.893  22.269  24.817  1.00  0.00     0.071 C 
ATOM     81  C   UNL A   1      35.224  23.143  26.044  1.00  0.00     0.019 C 
ATOM     82  C   UNL A   1      35.967  21.157  24.720  1.00  0.00     0.019 C 
ATOM     83  C   UNL A   1      36.661  23.691  26.020  1.00  0.00     0.001 C 
ATOM     84  C   UNL A   1      37.387  21.681  24.596  1.00  0.00     0.001 C 
ATOM     85  C   UNL A   1      37.742  22.658  25.706  1.00  0.00     0.000 C 
BRANCH  80  86
ATOM     86  C   UNL A   1      34.879  23.238  23.595  1.00  0.00     0.046 C 
BRANCH  86  87
ATOM     87  C   UNL A   1      33.888  24.353  23.670  1.00  0.00    -0.025 C 
ATOM     88  C   UNL A   1      33.646  25.154  22.622  1.00  0.00     0.004 C 
BRANCH  88  89
ATOM     89  C   UNL A   1      32.918  26.413  22.753  1.00  0.00    -0.026 A 
ATOM     90  C   UNL A   1      31.522  26.417  22.738  1.00  0.00     0.008 A 
ATOM     91  C   UNL A   1      33.608  27.633  22.764  1.00  0.00     0.008 A 
ATOM     92  C   UNL A   1      30.828  27.628  22.749  1.00  0.00     0.001 A 
ATOM     93  C   UNL A   1      32.916  28.841  22.771  1.00  0.00     0.001 A 
ATOM     94  C   UNL A   1      31.524  28.837  22.762  1.00  0.00     0.000 A 
ENDBRANCH  88  89
ENDBRANCH  86  87
ENDBRANCH  80  86
ENDBRANCH  78  80
ENDBRANCH  77  78
ENDBRANCH  76  77
ENDBRANCH  75  76
ENDBRANCH  74  75
ENDBRANCH  73  74
ENDBRANCH   1  73
TORSDOF 23
ENDMDL
