MODEL 1
REMARK VINA RESULT:     -10.7      0.000      0.000
REMARK SMILES CC(=O)Nc1cc(NC(C)=O)cc(C(=O)Nc2ccc(Br)cc2C(=O)OCCOCCOCCOC(=O)c2ccc(-c3c4nc(c(-c5cc(S(=O)(=O)[O-])ccc5F)c5ccc([nH]5)c(-c5cc(S(=O)(=O)[O-])ccc5F)c5nc(c(-c6cc(S(=O)(=O)[O-])ccc6F)c6ccc3[nH]6)C=C5)C=C4)cc2)c1
REMARK SMILES IDX 30 1 29 2 28 3 27 4 26 5 24 6 25 7 23 8 17 9 18 10 19 11
REMARK SMILES IDX 22 12 20 13 21 14 16 15 14 16 15 17 13 19 5 20 6 21 101 22
REMARK SMILES IDX 7 23 12 24 4 25 1 26 2 27 3 28 8 30 9 31 10 33 11 34 31 35
REMARK SMILES IDX 32 36 33 37 34 38 35 39 36 40 37 41 38 42 39 43 100 44 40 45
REMARK SMILES IDX 99 46 41 47 42 48 43 49 93 50 44 51 98 52 92 53 94 54 45 55
REMARK SMILES IDX 97 56 91 57 90 58 46 60 78 61 58 62 77 63 59 64 62 65 76 66
REMARK SMILES IDX 95 67 60 68 61 69 75 71 96 72 63 73 47 74 48 75 56 76 49 77
REMARK SMILES IDX 55 78 57 79 54 80 50 81 51 82 52 83 53 84 79 85 80 86 88 87
REMARK SMILES IDX 81 88 87 89 89 90 86 91 82 92 83 93 84 94 85 95 64 96 65 97
REMARK SMILES IDX 73 98 66 99 72 100 74 101 71 102 67 103 68 104 69 105 70 106
REMARK H PARENT 16 18 4 29 8 32 94 59 62 70
REMARK Flexibility Score: inf
ROOT
ATOM      1  C   UNL A   1      33.495  31.655  27.852  1.00  0.00     0.188 C 
ENDROOT
BRANCH   1   2
ATOM      2  O   UNL A   1      33.993  30.734  26.913  1.00  0.00    -0.376 OA
BRANCH   2   3
ATOM      3  C   UNL A   1      34.195  29.383  27.268  1.00  0.00     0.202 C 
BRANCH   3   4
ATOM      4  C   UNL A   1      34.041  28.179  26.331  1.00  0.00     0.261 C 
BRANCH   4   5
ATOM      5  O   UNL A   1      33.174  27.104  26.700  1.00  0.00    -0.460 OA
BRANCH   5   6
ATOM      6  C   UNL A   1      31.889  27.476  26.944  1.00  0.00     0.340 C 
ATOM      7  O   UNL A   1      31.504  28.057  27.947  1.00  0.00    -0.246 OA
BRANCH   6   8
ATOM      8  C   UNL A   1      31.010  27.245  25.770  1.00  0.00     0.084 A 
ATOM      9  C   UNL A   1      30.220  26.102  25.540  1.00  0.00     0.056 A 
ATOM     10  C   UNL A   1      29.605  25.969  24.279  1.00  0.00     0.028 A 
ATOM     11  C   UNL A   1      29.677  26.985  23.319  1.00  0.00     0.018 A 
ATOM     12  C   UNL A   1      31.074  28.269  24.798  1.00  0.00     0.033 A 
ATOM     13  C   UNL A   1      30.398  28.139  23.591  1.00  0.00     0.018 A 
ATOM     14  Br  UNL A   1      30.457  29.537  22.324  1.00  0.00    -0.051 Br
BRANCH   9  15
ATOM     15  N   UNL A   1      29.913  25.058  26.448  1.00  0.00    -0.321 N 
ATOM     16  C   UNL A   1      30.333  23.747  26.565  1.00  0.00     0.255 C 
ATOM     17  O   UNL A   1      29.750  22.993  27.345  1.00  0.00    -0.269 OA
ATOM     18  H   UNL A   1      29.265  25.323  27.140  1.00  0.00     0.170 HD
BRANCH  16  19
ATOM     19  C   UNL A   1      31.502  23.220  25.814  1.00  0.00     0.044 A 
ATOM     20  C   UNL A   1      32.934  23.416  23.897  1.00  0.00     0.044 A 
ATOM     21  C   UNL A   1      33.156  22.027  23.956  1.00  0.00     0.052 A 
ATOM     22  C   UNL A   1      32.204  24.024  24.910  1.00  0.00     0.040 A 
ATOM     23  C   UNL A   1      32.599  21.235  24.965  1.00  0.00     0.044 A 
ATOM     24  C   UNL A   1      31.766  21.845  25.904  1.00  0.00     0.040 A 
BRANCH  20  25
ATOM     25  N   UNL A   1      33.217  24.030  22.659  1.00  0.00    -0.326 N 
ATOM     26  C   UNL A   1      33.770  26.399  23.218  1.00  0.00     0.114 C 
ATOM     27  C   UNL A   1      33.336  25.329  22.262  1.00  0.00     0.221 C 
ATOM     28  O   UNL A   1      33.100  25.612  21.088  1.00  0.00    -0.275 OA
ATOM     29  H   UNL A   1      33.357  23.386  21.927  1.00  0.00     0.169 HD
ENDBRANCH  20  25
BRANCH  23  30
ATOM     30  N   UNL A   1      32.729  19.828  25.025  1.00  0.00    -0.326 N 
ATOM     31  C   UNL A   1      32.546  18.932  23.986  1.00  0.00     0.221 C 
ATOM     32  H   UNL A   1      32.974  19.445  25.898  1.00  0.00     0.169 HD
ATOM     33  C   UNL A   1      32.794  17.497  24.379  1.00  0.00     0.114 C 
ATOM     34  O   UNL A   1      32.227  19.199  22.834  1.00  0.00    -0.275 OA
ENDBRANCH  23  30
ENDBRANCH  16  19
ENDBRANCH   9  15
ENDBRANCH   6   8
ENDBRANCH   5   6
ENDBRANCH   4   5
ENDBRANCH   3   4
ENDBRANCH   2   3
ENDBRANCH   1   2
BRANCH   1  35
ATOM     35  C   UNL A   1      34.512  32.149  28.907  1.00  0.00     0.188 C 
BRANCH  35  36
ATOM     36  O   UNL A   1      34.072  32.877  30.039  1.00  0.00    -0.376 OA
BRANCH  36  37
ATOM     37  C   UNL A   1      34.868  32.838  31.211  1.00  0.00     0.202 C 
BRANCH  37  38
ATOM     38  C   UNL A   1      36.149  31.978  31.278  1.00  0.00     0.261 C 
BRANCH  38  39
ATOM     39  O   UNL A   1      36.431  31.323  32.530  1.00  0.00    -0.460 OA
BRANCH  39  40
ATOM     40  C   UNL A   1      37.217  30.213  32.470  1.00  0.00     0.338 C 
ATOM     41  O   UNL A   1      36.875  29.071  32.731  1.00  0.00    -0.246 OA
BRANCH  40  42
ATOM     42  C   UNL A   1      38.502  30.545  31.799  1.00  0.00     0.060 A 
ATOM     43  C   UNL A   1      39.522  31.157  32.547  1.00  0.00     0.016 A 
ATOM     44  C   UNL A   1      38.717  30.243  30.453  1.00  0.00     0.016 A 
ATOM     45  C   UNL A   1      40.753  31.467  31.959  1.00  0.00     0.010 A 
ATOM     46  C   UNL A   1      39.936  30.595  29.855  1.00  0.00     0.010 A 
ATOM     47  C   UNL A   1      40.955  31.225  30.596  1.00  0.00    -0.014 A 
BRANCH  47  48
ATOM     48  C   UNL A   1      42.133  31.806  29.896  1.00  0.00     0.031 A 
ATOM     49  C   UNL A   1      43.238  30.872  29.475  1.00  0.00     0.074 A 
ATOM     50  C   UNL A   1      42.237  33.123  29.636  1.00  0.00     0.049 A 
ATOM     51  N   UNL A   1      44.414  31.142  28.972  1.00  0.00    -0.248 NA
ATOM     52  C   UNL A   1      42.973  29.435  29.653  1.00  0.00     0.031 C 
ATOM     53  C   UNL A   1      41.212  34.125  29.918  1.00  0.00     0.029 A 
ATOM     54  N   UNL A   1      43.271  33.846  29.087  1.00  0.00    -0.354 N 
ATOM     55  C   UNL A   1      45.038  29.912  28.786  1.00  0.00     0.074 A 
ATOM     56  C   UNL A   1      44.116  28.898  29.254  1.00  0.00     0.031 C 
ATOM     57  C   UNL A   1      41.678  35.336  29.562  1.00  0.00     0.029 A 
ATOM     58  C   UNL A   1      43.052  35.206  29.077  1.00  0.00     0.049 A 
ATOM     59  H   UNL A   1      44.091  33.430  28.735  1.00  0.00     0.167 HD
ATOM     60  C   UNL A   1      46.265  29.652  28.272  1.00  0.00     0.034 A 
ATOM     61  C   UNL A   1      43.878  36.225  28.754  1.00  0.00     0.034 A 
ATOM     62  C   UNL A   1      47.180  30.670  27.819  1.00  0.00     0.049 A 
ATOM     63  C   UNL A   1      45.290  35.917  28.297  1.00  0.00     0.074 A 
ATOM     64  C   UNL A   1      48.439  30.511  27.266  1.00  0.00     0.029 A 
ATOM     65  N   UNL A   1      46.946  32.038  27.881  1.00  0.00    -0.354 N 
ATOM     66  N   UNL A   1      45.870  34.751  28.125  1.00  0.00    -0.248 NA
ATOM     67  C   UNL A   1      46.158  37.065  27.992  1.00  0.00     0.031 C 
ATOM     68  C   UNL A   1      48.999  31.778  27.077  1.00  0.00     0.029 A 
ATOM     69  C   UNL A   1      48.056  32.732  27.422  1.00  0.00     0.049 A 
ATOM     70  H   UNL A   1      46.115  32.454  28.204  1.00  0.00     0.167 HD
ATOM     71  C   UNL A   1      47.156  35.029  27.661  1.00  0.00     0.074 A 
ATOM     72  C   UNL A   1      47.262  36.468  27.565  1.00  0.00     0.031 C 
ATOM     73  C   UNL A   1      48.158  34.170  27.338  1.00  0.00     0.034 A 
BRANCH  60  74
ATOM     74  C   UNL A   1      46.713  28.211  28.233  1.00  0.00     0.023 A 
ATOM     75  C   UNL A   1      46.401  27.363  27.157  1.00  0.00     0.031 A 
ATOM     76  C   UNL A   1      47.458  27.676  29.299  1.00  0.00     0.131 A 
ATOM     77  C   UNL A   1      46.779  26.012  27.199  1.00  0.00     0.055 A 
ATOM     78  C   UNL A   1      47.901  26.352  29.298  1.00  0.00     0.041 A 
ATOM     79  F   UNL A   1      47.764  28.432  30.366  1.00  0.00    -0.206 F 
ATOM     80  C   UNL A   1      47.550  25.508  28.249  1.00  0.00     0.022 A 
BRANCH  77  81
ATOM     81  S   UNL A   1      46.136  24.890  25.928  1.00  0.00     0.124 S 
ATOM     82  O   UNL A   1      47.036  23.747  26.058  1.00  0.00    -0.237 OA
ATOM     83  O   UNL A   1      44.761  24.674  26.364  1.00  0.00    -0.237 OA
ATOM     84  O   UNL A   1      46.284  25.652  24.689  1.00  0.00    -0.744 OA
ENDBRANCH  77  81
ENDBRANCH  60  74
BRANCH  61  85
ATOM     85  C   UNL A   1      43.440  37.647  28.917  1.00  0.00     0.023 A 
ATOM     86  C   UNL A   1      43.829  38.409  30.032  1.00  0.00     0.031 A 
ATOM     87  C   UNL A   1      42.546  38.234  28.002  1.00  0.00     0.131 A 
ATOM     88  C   UNL A   1      43.284  39.689  30.231  1.00  0.00     0.055 A 
ATOM     89  C   UNL A   1      42.060  39.532  28.170  1.00  0.00     0.041 A 
ATOM     90  F   UNL A   1      42.121  37.546  26.929  1.00  0.00    -0.206 F 
ATOM     91  C   UNL A   1      42.416  40.262  29.298  1.00  0.00     0.022 A 
BRANCH  88  92
ATOM     92  S   UNL A   1      43.625  40.549  31.794  1.00  0.00     0.124 S 
ATOM     93  O   UNL A   1      45.070  40.387  31.912  1.00  0.00    -0.237 OA
ATOM     94  O   UNL A   1      43.153  41.899  31.511  1.00  0.00    -0.237 OA
ATOM     95  O   UNL A   1      42.832  39.806  32.772  1.00  0.00    -0.744 OA
ENDBRANCH  88  92
ENDBRANCH  61  85
BRANCH  73  96
ATOM     96  C   UNL A   1      49.441  34.765  26.804  1.00  0.00     0.023 A 
ATOM     97  C   UNL A   1      50.563  34.976  27.627  1.00  0.00     0.031 A 
ATOM     98  C   UNL A   1      49.546  35.118  25.445  1.00  0.00     0.131 A 
ATOM     99  C   UNL A   1      51.719  35.571  27.096  1.00  0.00     0.055 A 
ATOM    100  C   UNL A   1      50.720  35.649  24.909  1.00  0.00     0.041 A 
ATOM    101  F   UNL A   1      48.508  34.941  24.612  1.00  0.00    -0.206 F 
ATOM    102  C   UNL A   1      51.811  35.889  25.738  1.00  0.00     0.022 A 
BRANCH  99 103
ATOM    103  S   UNL A   1      53.075  36.005  28.220  1.00  0.00     0.124 S 
ATOM    104  O   UNL A   1      54.235  35.927  27.340  1.00  0.00    -0.237 OA
ATOM    105  O   UNL A   1      52.698  37.345  28.662  1.00  0.00    -0.237 OA
ATOM    106  O   UNL A   1      53.009  34.973  29.253  1.00  0.00    -0.744 OA
ENDBRANCH  99 103
ENDBRANCH  73  96
ENDBRANCH  47  48
ENDBRANCH  40  42
ENDBRANCH  39  40
ENDBRANCH  38  39
ENDBRANCH  37  38
ENDBRANCH  36  37
ENDBRANCH  35  36
ENDBRANCH   1  35
TORSDOF 24
ENDMDL
MODEL 2
REMARK VINA RESULT:     -10.6      1.787      2.525
REMARK SMILES CC(=O)Nc1cc(NC(C)=O)cc(C(=O)Nc2ccc(Br)cc2C(=O)OCCOCCOCCOC(=O)c2ccc(-c3c4nc(c(-c5cc(S(=O)(=O)[O-])ccc5F)c5ccc([nH]5)c(-c5cc(S(=O)(=O)[O-])ccc5F)c5nc(c(-c6cc(S(=O)(=O)[O-])ccc6F)c6ccc3[nH]6)C=C5)C=C4)cc2)c1
REMARK SMILES IDX 30 1 29 2 28 3 27 4 26 5 24 6 25 7 23 8 17 9 18 10 19 11
REMARK SMILES IDX 22 12 20 13 21 14 16 15 14 16 15 17 13 19 5 20 6 21 101 22
REMARK SMILES IDX 7 23 12 24 4 25 1 26 2 27 3 28 8 30 9 31 10 33 11 34 31 35
REMARK SMILES IDX 32 36 33 37 34 38 35 39 36 40 37 41 38 42 39 43 100 44 40 45
REMARK SMILES IDX 99 46 41 47 42 48 43 49 93 50 44 51 98 52 92 53 94 54 45 55
REMARK SMILES IDX 97 56 91 57 90 58 46 60 78 61 58 62 77 63 59 64 62 65 76 66
REMARK SMILES IDX 95 67 60 68 61 69 75 71 96 72 63 73 47 74 48 75 56 76 49 77
REMARK SMILES IDX 55 78 57 79 54 80 50 81 51 82 52 83 53 84 79 85 80 86 88 87
REMARK SMILES IDX 81 88 87 89 89 90 86 91 82 92 83 93 84 94 85 95 64 96 65 97
REMARK SMILES IDX 73 98 66 99 72 100 74 101 71 102 67 103 68 104 69 105 70 106
REMARK H PARENT 16 18 4 29 8 32 94 59 62 70
REMARK Flexibility Score: inf
ROOT
ATOM      1  C   UNL A   1      34.649  32.698  28.555  1.00  0.00     0.188 C 
ENDROOT
BRANCH   1   2
ATOM      2  O   UNL A   1      35.082  31.726  27.635  1.00  0.00    -0.376 OA
BRANCH   2   3
ATOM      3  C   UNL A   1      34.404  30.494  27.519  1.00  0.00     0.202 C 
BRANCH   3   4
ATOM      4  C   UNL A   1      33.183  30.224  26.633  1.00  0.00     0.261 C 
BRANCH   4   5
ATOM      5  O   UNL A   1      33.162  29.068  25.791  1.00  0.00    -0.460 OA
BRANCH   5   6
ATOM      6  C   UNL A   1      32.428  28.032  26.276  1.00  0.00     0.340 C 
ATOM      7  O   UNL A   1      32.564  27.530  27.381  1.00  0.00    -0.246 OA
BRANCH   6   8
ATOM      8  C   UNL A   1      31.308  27.671  25.370  1.00  0.00     0.084 A 
ATOM      9  C   UNL A   1      30.563  26.475  25.411  1.00  0.00     0.056 A 
ATOM     10  C   UNL A   1      29.673  26.217  24.351  1.00  0.00     0.028 A 
ATOM     11  C   UNL A   1      29.445  27.160  23.341  1.00  0.00     0.018 A 
ATOM     12  C   UNL A   1      31.069  28.619  24.350  1.00  0.00     0.033 A 
ATOM     13  C   UNL A   1      30.132  28.365  23.356  1.00  0.00     0.018 A 
ATOM     14  Br  UNL A   1      29.792  29.663  22.029  1.00  0.00    -0.051 Br
BRANCH   9  15
ATOM     15  N   UNL A   1      30.554  25.490  26.430  1.00  0.00    -0.321 N 
ATOM     16  C   UNL A   1      30.945  24.166  26.474  1.00  0.00     0.255 C 
ATOM     17  O   UNL A   1      30.642  23.478  27.450  1.00  0.00    -0.269 OA
ATOM     18  H   UNL A   1      30.193  25.818  27.285  1.00  0.00     0.170 HD
BRANCH  16  19
ATOM     19  C   UNL A   1      31.764  23.546  25.401  1.00  0.00     0.044 A 
ATOM     20  C   UNL A   1      32.570  23.666  23.142  1.00  0.00     0.044 A 
ATOM     21  C   UNL A   1      32.635  22.260  23.120  1.00  0.00     0.052 A 
ATOM     22  C   UNL A   1      32.254  24.306  24.334  1.00  0.00     0.040 A 
ATOM     23  C   UNL A   1      32.316  21.491  24.245  1.00  0.00     0.044 A 
ATOM     24  C   UNL A   1      31.879  22.148  25.396  1.00  0.00     0.040 A 
BRANCH  20  25
ATOM     25  N   UNL A   1      32.540  24.298  21.882  1.00  0.00    -0.326 N 
ATOM     26  C   UNL A   1      33.394  26.607  22.290  1.00  0.00     0.114 C 
ATOM     27  C   UNL A   1      32.636  25.598  21.482  1.00  0.00     0.221 C 
ATOM     28  O   UNL A   1      32.103  25.932  20.424  1.00  0.00    -0.275 OA
ATOM     29  H   UNL A   1      32.424  23.669  21.132  1.00  0.00     0.169 HD
ENDBRANCH  20  25
BRANCH  23  30
ATOM     30  N   UNL A   1      32.290  20.077  24.251  1.00  0.00    -0.326 N 
ATOM     31  C   UNL A   1      33.359  19.227  24.476  1.00  0.00     0.221 C 
ATOM     32  H   UNL A   1      31.419  19.652  24.077  1.00  0.00     0.169 HD
ATOM     33  C   UNL A   1      32.983  17.767  24.445  1.00  0.00     0.114 C 
ATOM     34  O   UNL A   1      34.520  19.550  24.694  1.00  0.00    -0.275 OA
ENDBRANCH  23  30
ENDBRANCH  16  19
ENDBRANCH   9  15
ENDBRANCH   6   8
ENDBRANCH   5   6
ENDBRANCH   4   5
ENDBRANCH   3   4
ENDBRANCH   2   3
ENDBRANCH   1   2
BRANCH   1  35
ATOM     35  C   UNL A   1      34.823  32.331  30.047  1.00  0.00     0.188 C 
BRANCH  35  36
ATOM     36  O   UNL A   1      35.941  31.572  30.472  1.00  0.00    -0.376 OA
BRANCH  36  37
ATOM     37  C   UNL A   1      36.246  31.548  31.856  1.00  0.00     0.202 C 
BRANCH  37  38
ATOM     38  C   UNL A   1      37.687  31.769  32.360  1.00  0.00     0.261 C 
BRANCH  38  39
ATOM     39  O   UNL A   1      38.005  33.076  32.877  1.00  0.00    -0.460 OA
BRANCH  39  40
ATOM     40  C   UNL A   1      37.922  34.113  31.999  1.00  0.00     0.338 C 
ATOM     41  O   UNL A   1      37.049  34.967  31.970  1.00  0.00    -0.246 OA
BRANCH  40  42
ATOM     42  C   UNL A   1      39.184  34.212  31.220  1.00  0.00     0.060 A 
ATOM     43  C   UNL A   1      40.411  34.060  31.889  1.00  0.00     0.016 A 
ATOM     44  C   UNL A   1      39.171  34.432  29.842  1.00  0.00     0.016 A 
ATOM     45  C   UNL A   1      41.620  34.125  31.189  1.00  0.00     0.010 A 
ATOM     46  C   UNL A   1      40.386  34.541  29.150  1.00  0.00     0.010 A 
ATOM     47  C   UNL A   1      41.618  34.408  29.819  1.00  0.00    -0.014 A 
BRANCH  47  48
ATOM     48  C   UNL A   1      42.885  34.766  29.123  1.00  0.00     0.031 A 
ATOM     49  C   UNL A   1      43.806  33.647  28.710  1.00  0.00     0.074 A 
ATOM     50  C   UNL A   1      43.225  36.042  28.862  1.00  0.00     0.049 A 
ATOM     51  N   UNL A   1      45.014  33.700  28.212  1.00  0.00    -0.248 NA
ATOM     52  C   UNL A   1      43.287  32.282  28.890  1.00  0.00     0.031 C 
ATOM     53  C   UNL A   1      42.394  37.213  29.136  1.00  0.00     0.029 A 
ATOM     54  N   UNL A   1      44.373  36.567  28.316  1.00  0.00    -0.354 N 
ATOM     55  C   UNL A   1      45.408  32.378  28.032  1.00  0.00     0.074 A 
ATOM     56  C   UNL A   1      44.317  31.548  28.498  1.00  0.00     0.031 C 
ATOM     57  C   UNL A   1      43.072  38.319  28.780  1.00  0.00     0.029 A 
ATOM     58  C   UNL A   1      44.402  37.943  28.301  1.00  0.00     0.049 A 
ATOM     59  H   UNL A   1      45.107  36.009  27.969  1.00  0.00     0.167 HD
ATOM     60  C   UNL A   1      46.571  31.901  27.525  1.00  0.00     0.034 A 
ATOM     61  C   UNL A   1      45.399  38.797  27.981  1.00  0.00     0.034 A 
ATOM     62  C   UNL A   1      47.656  32.737  27.074  1.00  0.00     0.049 A 
ATOM     63  C   UNL A   1      46.735  38.240  27.531  1.00  0.00     0.074 A 
ATOM     64  C   UNL A   1      48.868  32.353  26.528  1.00  0.00     0.029 A 
ATOM     65  N   UNL A   1      47.670  34.125  27.132  1.00  0.00    -0.354 N 
ATOM     66  N   UNL A   1      47.097  36.988  27.365  1.00  0.00    -0.248 NA
ATOM     67  C   UNL A   1      47.796  39.212  27.228  1.00  0.00     0.031 C 
ATOM     68  C   UNL A   1      49.647  33.499  26.339  1.00  0.00     0.029 A 
ATOM     69  C   UNL A   1      48.889  34.607  26.677  1.00  0.00     0.049 A 
ATOM     70  H   UNL A   1      46.925  34.684  27.450  1.00  0.00     0.167 HD
ATOM     71  C   UNL A   1      48.414  37.029  26.906  1.00  0.00     0.074 A 
ATOM     72  C   UNL A   1      48.777  38.426  26.808  1.00  0.00     0.031 C 
ATOM     73  C   UNL A   1      49.247  36.004  26.590  1.00  0.00     0.034 A 
BRANCH  60  74
ATOM     74  C   UNL A   1      46.754  30.403  27.491  1.00  0.00     0.023 A 
ATOM     75  C   UNL A   1      46.461  29.642  26.346  1.00  0.00     0.031 A 
ATOM     76  C   UNL A   1      47.219  29.725  28.632  1.00  0.00     0.131 A 
ATOM     77  C   UNL A   1      46.580  28.245  26.386  1.00  0.00     0.055 A 
ATOM     78  C   UNL A   1      47.411  28.342  28.640  1.00  0.00     0.041 A 
ATOM     79  F   UNL A   1      47.489  30.395  29.763  1.00  0.00    -0.206 F 
ATOM     80  C   UNL A   1      47.079  27.592  27.516  1.00  0.00     0.022 A 
BRANCH  77  81
ATOM     81  S   UNL A   1      45.947  27.278  24.988  1.00  0.00     0.124 S 
ATOM     82  O   UNL A   1      44.507  27.318  25.228  1.00  0.00    -0.237 OA
ATOM     83  O   UNL A   1      46.425  28.037  23.838  1.00  0.00    -0.237 OA
ATOM     84  O   UNL A   1      46.566  25.966  25.169  1.00  0.00    -0.744 OA
ENDBRANCH  77  81
ENDBRANCH  60  74
BRANCH  61  85
ATOM     85  C   UNL A   1      45.222  40.275  28.138  1.00  0.00     0.023 A 
ATOM     86  C   UNL A   1      45.269  40.887  29.403  1.00  0.00     0.031 A 
ATOM     87  C   UNL A   1      44.909  41.084  27.031  1.00  0.00     0.131 A 
ATOM     88  C   UNL A   1      44.954  42.250  29.534  1.00  0.00     0.055 A 
ATOM     89  C   UNL A   1      44.662  42.452  27.159  1.00  0.00     0.041 A 
ATOM     90  F   UNL A   1      44.826  40.551  25.800  1.00  0.00    -0.206 F 
ATOM     91  C   UNL A   1      44.668  43.040  28.419  1.00  0.00     0.022 A 
BRANCH  88  92
ATOM     92  S   UNL A   1      44.797  42.951  31.202  1.00  0.00     0.124 S 
ATOM     93  O   UNL A   1      43.461  42.508  31.585  1.00  0.00    -0.237 OA
ATOM     94  O   UNL A   1      45.907  42.320  31.907  1.00  0.00    -0.237 OA
ATOM     95  O   UNL A   1      44.938  44.389  30.982  1.00  0.00    -0.744 OA
ENDBRANCH  88  92
ENDBRANCH  61  85
BRANCH  73  96
ATOM     96  C   UNL A   1      50.619  36.357  26.062  1.00  0.00     0.023 A 
ATOM     97  C   UNL A   1      51.747  36.420  26.900  1.00  0.00     0.031 A 
ATOM     98  C   UNL A   1      50.801  36.627  24.692  1.00  0.00     0.131 A 
ATOM     99  C   UNL A   1      52.992  36.794  26.371  1.00  0.00     0.055 A 
ATOM    100  C   UNL A   1      52.054  36.935  24.161  1.00  0.00     0.041 A 
ATOM    101  F   UNL A   1      49.762  36.584  23.843  1.00  0.00    -0.206 F 
ATOM    102  C   UNL A   1      53.157  37.032  25.004  1.00  0.00     0.022 A 
BRANCH  99 103
ATOM    103  S   UNL A   1      54.384  37.051  27.507  1.00  0.00     0.124 S 
ATOM    104  O   UNL A   1      55.258  37.917  26.725  1.00  0.00    -0.237 OA
ATOM    105  O   UNL A   1      53.737  37.672  28.660  1.00  0.00    -0.237 OA
ATOM    106  O   UNL A   1      54.893  35.701  27.739  1.00  0.00    -0.744 OA
ENDBRANCH  99 103
ENDBRANCH  73  96
ENDBRANCH  47  48
ENDBRANCH  40  42
ENDBRANCH  39  40
ENDBRANCH  38  39
ENDBRANCH  37  38
ENDBRANCH  36  37
ENDBRANCH  35  36
ENDBRANCH   1  35
TORSDOF 24
ENDMDL
MODEL 3
REMARK VINA RESULT:     -10.4      5.779      9.877
REMARK SMILES CC(=O)Nc1cc(NC(C)=O)cc(C(=O)Nc2ccc(Br)cc2C(=O)OCCOCCOCCOC(=O)c2ccc(-c3c4nc(c(-c5cc(S(=O)(=O)[O-])ccc5F)c5ccc([nH]5)c(-c5cc(S(=O)(=O)[O-])ccc5F)c5nc(c(-c6cc(S(=O)(=O)[O-])ccc6F)c6ccc3[nH]6)C=C5)C=C4)cc2)c1
REMARK SMILES IDX 30 1 29 2 28 3 27 4 26 5 24 6 25 7 23 8 17 9 18 10 19 11
REMARK SMILES IDX 22 12 20 13 21 14 16 15 14 16 15 17 13 19 5 20 6 21 101 22
REMARK SMILES IDX 7 23 12 24 4 25 1 26 2 27 3 28 8 30 9 31 10 33 11 34 31 35
REMARK SMILES IDX 32 36 33 37 34 38 35 39 36 40 37 41 38 42 39 43 100 44 40 45
REMARK SMILES IDX 99 46 41 47 42 48 43 49 93 50 44 51 98 52 92 53 94 54 45 55
REMARK SMILES IDX 97 56 91 57 90 58 46 60 78 61 58 62 77 63 59 64 62 65 76 66
REMARK SMILES IDX 95 67 60 68 61 69 75 71 96 72 63 73 47 74 48 75 56 76 49 77
REMARK SMILES IDX 55 78 57 79 54 80 50 81 51 82 52 83 53 84 79 85 80 86 88 87
REMARK SMILES IDX 81 88 87 89 89 90 86 91 82 92 83 93 84 94 85 95 64 96 65 97
REMARK SMILES IDX 73 98 66 99 72 100 74 101 71 102 67 103 68 104 69 105 70 106
REMARK H PARENT 16 18 4 29 8 32 94 59 62 70
REMARK Flexibility Score: inf
ROOT
ATOM      1  C   UNL A   1      32.690  31.076  27.054  1.00  0.00     0.188 C 
ENDROOT
BRANCH   1   2
ATOM      2  O   UNL A   1      33.609  30.434  26.204  1.00  0.00    -0.376 OA
BRANCH   2   3
ATOM      3  C   UNL A   1      34.122  29.161  26.529  1.00  0.00     0.202 C 
BRANCH   3   4
ATOM      4  C   UNL A   1      34.022  27.905  25.656  1.00  0.00     0.261 C 
BRANCH   4   5
ATOM      5  O   UNL A   1      33.179  26.825  26.065  1.00  0.00    -0.460 OA
BRANCH   5   6
ATOM      6  C   UNL A   1      31.986  27.211  26.590  1.00  0.00     0.340 C 
ATOM      7  O   UNL A   1      31.832  27.716  27.692  1.00  0.00    -0.246 OA
BRANCH   6   8
ATOM      8  C   UNL A   1      30.882  27.105  25.603  1.00  0.00     0.084 A 
ATOM      9  C   UNL A   1      30.017  26.005  25.444  1.00  0.00     0.056 A 
ATOM     10  C   UNL A   1      29.159  25.997  24.327  1.00  0.00     0.028 A 
ATOM     11  C   UNL A   1      29.079  27.092  23.457  1.00  0.00     0.018 A 
ATOM     12  C   UNL A   1      30.793  28.209  24.724  1.00  0.00     0.033 A 
ATOM     13  C   UNL A   1      29.886  28.201  23.672  1.00  0.00     0.018 A 
ATOM     14  Br  UNL A   1      29.748  29.703  22.536  1.00  0.00    -0.051 Br
BRANCH   9  15
ATOM     15  N   UNL A   1      29.854  24.893  26.307  1.00  0.00    -0.321 N 
ATOM     16  C   UNL A   1      30.318  23.591  26.278  1.00  0.00     0.255 C 
ATOM     17  O   UNL A   1      29.859  22.768  27.070  1.00  0.00    -0.269 OA
ATOM     18  H   UNL A   1      29.294  25.089  27.093  1.00  0.00     0.170 HD
BRANCH  16  19
ATOM     19  C   UNL A   1      31.394  23.155  25.349  1.00  0.00     0.044 A 
ATOM     20  C   UNL A   1      32.492  23.458  23.236  1.00  0.00     0.044 A 
ATOM     21  C   UNL A   1      32.827  22.091  23.246  1.00  0.00     0.052 A 
ATOM     22  C   UNL A   1      31.883  24.010  24.356  1.00  0.00     0.040 A 
ATOM     23  C   UNL A   1      32.496  21.261  24.322  1.00  0.00     0.044 A 
ATOM     24  C   UNL A   1      31.774  21.806  25.384  1.00  0.00     0.040 A 
BRANCH  20  25
ATOM     25  N   UNL A   1      32.530  24.089  21.975  1.00  0.00    -0.326 N 
ATOM     26  C   UNL A   1      33.166  26.456  22.451  1.00  0.00     0.114 C 
ATOM     27  C   UNL A   1      32.565  25.394  21.580  1.00  0.00     0.221 C 
ATOM     28  O   UNL A   1      32.108  25.689  20.476  1.00  0.00    -0.275 OA
ATOM     29  H   UNL A   1      32.533  23.456  21.221  1.00  0.00     0.169 HD
ENDBRANCH  20  25
BRANCH  23  30
ATOM     30  N   UNL A   1      32.742  19.868  24.347  1.00  0.00    -0.326 N 
ATOM     31  C   UNL A   1      33.933  19.238  24.667  1.00  0.00     0.221 C 
ATOM     32  H   UNL A   1      31.985  19.283  24.111  1.00  0.00     0.169 HD
ATOM     33  C   UNL A   1      33.847  17.734  24.628  1.00  0.00     0.114 C 
ATOM     34  O   UNL A   1      34.989  19.779  24.971  1.00  0.00    -0.275 OA
ENDBRANCH  23  30
ENDBRANCH  16  19
ENDBRANCH   9  15
ENDBRANCH   6   8
ENDBRANCH   5   6
ENDBRANCH   4   5
ENDBRANCH   3   4
ENDBRANCH   2   3
ENDBRANCH   1   2
BRANCH   1  35
ATOM     35  C   UNL A   1      33.198  32.371  27.730  1.00  0.00     0.188 C 
BRANCH  35  36
ATOM     36  O   UNL A   1      32.402  33.543  27.720  1.00  0.00    -0.376 OA
BRANCH  36  37
ATOM     37  C   UNL A   1      32.927  34.713  28.322  1.00  0.00     0.202 C 
BRANCH  37  38
ATOM     38  C   UNL A   1      33.423  34.705  29.784  1.00  0.00     0.261 C 
BRANCH  38  39
ATOM     39  O   UNL A   1      32.771  35.606  30.700  1.00  0.00    -0.460 OA
BRANCH  39  40
ATOM     40  C   UNL A   1      32.801  35.260  32.016  1.00  0.00     0.338 C 
ATOM     41  O   UNL A   1      31.852  35.258  32.784  1.00  0.00    -0.246 OA
BRANCH  40  42
ATOM     42  C   UNL A   1      34.113  34.641  32.342  1.00  0.00     0.060 A 
ATOM     43  C   UNL A   1      34.158  33.274  32.669  1.00  0.00     0.016 A 
ATOM     44  C   UNL A   1      35.294  35.383  32.309  1.00  0.00     0.016 A 
ATOM     45  C   UNL A   1      35.374  32.649  32.961  1.00  0.00     0.010 A 
ATOM     46  C   UNL A   1      36.507  34.764  32.645  1.00  0.00     0.010 A 
ATOM     47  C   UNL A   1      36.555  33.399  32.992  1.00  0.00    -0.014 A 
BRANCH  47  48
ATOM     48  C   UNL A   1      37.797  32.824  33.576  1.00  0.00     0.031 A 
ATOM     49  C   UNL A   1      38.069  33.063  35.039  1.00  0.00     0.074 A 
ATOM     50  C   UNL A   1      38.672  32.110  32.843  1.00  0.00     0.049 A 
ATOM     51  N   UNL A   1      39.131  32.783  35.749  1.00  0.00    -0.248 NA
ATOM     52  C   UNL A   1      36.989  33.713  35.799  1.00  0.00     0.031 C 
ATOM     53  C   UNL A   1      38.497  31.738  31.441  1.00  0.00     0.029 A 
ATOM     54  N   UNL A   1      39.897  31.581  33.179  1.00  0.00    -0.354 N 
ATOM     55  C   UNL A   1      38.855  33.235  37.036  1.00  0.00     0.074 A 
ATOM     56  C   UNL A   1      37.536  33.829  37.000  1.00  0.00     0.031 C 
ATOM     57  C   UNL A   1      39.586  31.063  31.030  1.00  0.00     0.029 A 
ATOM     58  C   UNL A   1      40.559  30.999  32.121  1.00  0.00     0.049 A 
ATOM     59  H   UNL A   1      40.267  31.617  34.091  1.00  0.00     0.167 HD
ATOM     60  C   UNL A   1      39.632  33.161  38.144  1.00  0.00     0.034 A 
ATOM     61  C   UNL A   1      41.816  30.511  32.033  1.00  0.00     0.034 A 
ATOM     62  C   UNL A   1      40.950  32.577  38.167  1.00  0.00     0.049 A 
ATOM     63  C   UNL A   1      42.711  30.548  33.256  1.00  0.00     0.074 A 
ATOM     64  C   UNL A   1      41.811  32.437  39.242  1.00  0.00     0.029 A 
ATOM     65  N   UNL A   1      41.609  32.052  37.062  1.00  0.00    -0.354 N 
ATOM     66  N   UNL A   1      42.442  30.978  34.468  1.00  0.00    -0.248 NA
ATOM     67  C   UNL A   1      44.080  30.036  33.097  1.00  0.00     0.031 C 
ATOM     68  C   UNL A   1      43.018  31.910  38.772  1.00  0.00     0.029 A 
ATOM     69  C   UNL A   1      42.881  31.633  37.423  1.00  0.00     0.049 A 
ATOM     70  H   UNL A   1      41.229  31.988  36.157  1.00  0.00     0.167 HD
ATOM     71  C   UNL A   1      43.596  30.755  35.218  1.00  0.00     0.074 A 
ATOM     72  C   UNL A   1      44.558  30.140  34.328  1.00  0.00     0.031 C 
ATOM     73  C   UNL A   1      43.839  31.029  36.526  1.00  0.00     0.034 A 
BRANCH  60  74
ATOM     74  C   UNL A   1      39.098  33.783  39.412  1.00  0.00     0.023 A 
ATOM     75  C   UNL A   1      38.204  33.104  40.257  1.00  0.00     0.031 A 
ATOM     76  C   UNL A   1      39.484  35.087  39.772  1.00  0.00     0.131 A 
ATOM     77  C   UNL A   1      37.681  33.751  41.386  1.00  0.00     0.055 A 
ATOM     78  C   UNL A   1      39.022  35.696  40.940  1.00  0.00     0.041 A 
ATOM     79  F   UNL A   1      40.314  35.795  38.990  1.00  0.00    -0.206 F 
ATOM     80  C   UNL A   1      38.104  35.032  41.749  1.00  0.00     0.022 A 
BRANCH  77  81
ATOM     81  S   UNL A   1      36.337  32.949  42.303  1.00  0.00     0.124 S 
ATOM     82  O   UNL A   1      36.270  31.644  41.651  1.00  0.00    -0.237 OA
ATOM     83  O   UNL A   1      36.843  32.954  43.672  1.00  0.00    -0.237 OA
ATOM     84  O   UNL A   1      35.188  33.819  42.061  1.00  0.00    -0.744 OA
ENDBRANCH  77  81
ENDBRANCH  60  74
BRANCH  61  85
ATOM     85  C   UNL A   1      42.353  30.007  30.730  1.00  0.00     0.023 A 
ATOM     86  C   UNL A   1      42.246  28.653  30.370  1.00  0.00     0.031 A 
ATOM     87  C   UNL A   1      43.065  30.860  29.868  1.00  0.00     0.131 A 
ATOM     88  C   UNL A   1      42.887  28.183  29.211  1.00  0.00     0.055 A 
ATOM     89  C   UNL A   1      43.644  30.401  28.683  1.00  0.00     0.041 A 
ATOM     90  F   UNL A   1      43.220  32.160  30.171  1.00  0.00    -0.206 F 
ATOM     91  C   UNL A   1      43.570  29.052  28.357  1.00  0.00     0.022 A 
BRANCH  88  92
ATOM     92  S   UNL A   1      42.926  26.395  28.900  1.00  0.00     0.124 S 
ATOM     93  O   UNL A   1      43.648  26.329  27.634  1.00  0.00    -0.237 OA
ATOM     94  O   UNL A   1      43.639  25.895  30.070  1.00  0.00    -0.237 OA
ATOM     95  O   UNL A   1      41.513  26.030  28.831  1.00  0.00    -0.744 OA
ENDBRANCH  88  92
ENDBRANCH  61  85
BRANCH  73  96
ATOM     96  C   UNL A   1      45.183  30.621  37.087  1.00  0.00     0.023 A 
ATOM     97  C   UNL A   1      45.389  29.368  37.692  1.00  0.00     0.031 A 
ATOM     98  C   UNL A   1      46.278  31.502  37.007  1.00  0.00     0.131 A 
ATOM     99  C   UNL A   1      46.643  29.051  38.236  1.00  0.00     0.055 A 
ATOM    100  C   UNL A   1      47.540  31.156  37.493  1.00  0.00     0.041 A 
ATOM    101  F   UNL A   1      46.143  32.712  36.442  1.00  0.00    -0.206 F 
ATOM    102  C   UNL A   1      47.725  29.929  38.123  1.00  0.00     0.022 A 
BRANCH  99 103
ATOM    103  S   UNL A   1      46.825  27.510  39.176  1.00  0.00     0.124 S 
ATOM    104  O   UNL A   1      48.229  27.559  39.571  1.00  0.00    -0.237 OA
ATOM    105  O   UNL A   1      45.854  27.683  40.252  1.00  0.00    -0.237 OA
ATOM    106  O   UNL A   1      46.490  26.472  38.203  1.00  0.00    -0.744 OA
ENDBRANCH  99 103
ENDBRANCH  73  96
ENDBRANCH  47  48
ENDBRANCH  40  42
ENDBRANCH  39  40
ENDBRANCH  38  39
ENDBRANCH  37  38
ENDBRANCH  36  37
ENDBRANCH  35  36
ENDBRANCH   1  35
TORSDOF 24
ENDMDL
