MODEL 1
REMARK VINA RESULT:     -10.8      0.000      0.000
REMARK SMILES COc1ccc(C2=NN=C[C@@H]2C(=O)OCCOCCOCCOC(=O)c2ccc(-c3c4nc(c(-c5cc(S(=O)(=O)[O-])ccc5F)c5ccc([nH]5)c(-c5cc(S(=O)(=O)[O-])ccc5F)c5nc(c(-c6cc(S(=O)(=O)[O-])ccc6F)c6ccc3[nH]6)C=C5)C=C4)cc2)cc1OC
REMARK SMILES IDX 19 1 18 2 17 3 16 4 15 5 14 6 12 7 13 8 11 9 7 10 8 11 9 12
REMARK SMILES IDX 10 13 6 14 3 15 4 16 90 17 5 18 89 19 2 20 1 21 91 22 92 23
REMARK SMILES IDX 20 24 21 25 22 26 23 27 24 28 25 29 26 30 27 31 88 32 28 33
REMARK SMILES IDX 87 34 29 35 30 36 31 37 81 38 32 39 86 40 80 41 82 42 33 43
REMARK SMILES IDX 85 44 79 45 78 46 34 48 66 49 46 50 65 51 47 52 50 53 64 54
REMARK SMILES IDX 83 55 48 56 49 57 63 59 84 60 51 61 35 62 36 63 44 64 37 65
REMARK SMILES IDX 43 66 45 67 42 68 38 69 39 70 40 71 41 72 67 73 68 74 76 75
REMARK SMILES IDX 69 76 75 77 77 78 74 79 70 80 71 81 72 82 73 83 52 84 53 85
REMARK SMILES IDX 61 86 54 87 60 88 62 89 59 90 55 91 56 92 57 93 58 94
REMARK H PARENT 82 47 50 58
REMARK Flexibility Score: inf
ROOT
ATOM      1  C   UNL A   1      33.848  30.995  27.691  1.00  0.00     0.188 C 
ENDROOT
BRANCH   1   2
ATOM      2  C   UNL A   1      33.085  30.508  26.446  1.00  0.00     0.188 C 
BRANCH   2   3
ATOM      3  O   UNL A   1      31.930  29.685  26.553  1.00  0.00    -0.376 OA
BRANCH   3   4
ATOM      4  C   UNL A   1      32.039  28.390  27.120  1.00  0.00     0.202 C 
BRANCH   4   5
ATOM      5  C   UNL A   1      32.700  27.291  26.273  1.00  0.00     0.261 C 
BRANCH   5   6
ATOM      6  O   UNL A   1      31.896  26.743  25.204  1.00  0.00    -0.462 OA
BRANCH   6   7
ATOM      7  C   UNL A   1      32.035  25.418  24.956  1.00  0.00     0.320 C 
ATOM      8  O   UNL A   1      32.078  24.555  25.829  1.00  0.00    -0.251 OA
BRANCH   7   9
ATOM      9  C   UNL A   1      32.165  25.046  23.510  1.00  0.00     0.194 C 
ATOM     10  C   UNL A   1      33.225  24.101  23.033  1.00  0.00     0.090 C 
ATOM     11  N   UNL A   1      34.034  24.650  22.174  1.00  0.00    -0.154 NA
ATOM     12  N   UNL A   1      33.643  26.002  21.978  1.00  0.00    -0.162 NA
ATOM     13  C   UNL A   1      32.610  26.228  22.718  1.00  0.00     0.130 C 
BRANCH  10  14
ATOM     14  C   UNL A   1      33.346  22.699  23.476  1.00  0.00     0.003 A 
ATOM     15  C   UNL A   1      33.540  20.121  24.538  1.00  0.00     0.160 A 
ATOM     16  C   UNL A   1      32.457  20.473  23.720  1.00  0.00     0.051 A 
ATOM     17  C   UNL A   1      34.568  21.038  24.771  1.00  0.00     0.161 A 
ATOM     18  C   UNL A   1      32.345  21.768  23.207  1.00  0.00     0.014 A 
ATOM     19  C   UNL A   1      34.481  22.314  24.202  1.00  0.00     0.060 A 
BRANCH  15  20
ATOM     20  O   UNL A   1      33.616  18.849  25.038  1.00  0.00    -0.493 OA
ATOM     21  C   UNL A   1      32.448  18.091  24.719  1.00  0.00     0.278 C 
ENDBRANCH  15  20
BRANCH  17  22
ATOM     22  O   UNL A   1      35.698  20.825  25.514  1.00  0.00    -0.493 OA
ATOM     23  C   UNL A   1      36.849  21.586  25.164  1.00  0.00     0.278 C 
ENDBRANCH  17  22
ENDBRANCH  10  14
ENDBRANCH   7   9
ENDBRANCH   6   7
ENDBRANCH   5   6
ENDBRANCH   4   5
ENDBRANCH   3   4
ENDBRANCH   2   3
ENDBRANCH   1   2
BRANCH   1  24
ATOM     24  O   UNL A   1      34.386  32.303  27.587  1.00  0.00    -0.376 OA
BRANCH  24  25
ATOM     25  C   UNL A   1      33.751  33.309  28.363  1.00  0.00     0.202 C 
BRANCH  25  26
ATOM     26  C   UNL A   1      34.529  33.588  29.639  1.00  0.00     0.261 C 
BRANCH  26  27
ATOM     27  O   UNL A   1      35.789  32.936  29.637  1.00  0.00    -0.460 OA
BRANCH  27  28
ATOM     28  C   UNL A   1      35.924  31.904  30.499  1.00  0.00     0.338 C 
ATOM     29  O   UNL A   1      35.436  31.798  31.608  1.00  0.00    -0.246 OA
BRANCH  28  30
ATOM     30  C   UNL A   1      36.804  30.918  29.869  1.00  0.00     0.060 A 
ATOM     31  C   UNL A   1      36.640  29.586  30.252  1.00  0.00     0.016 A 
ATOM     32  C   UNL A   1      37.934  31.371  29.175  1.00  0.00     0.016 A 
ATOM     33  C   UNL A   1      37.736  28.760  30.184  1.00  0.00     0.010 A 
ATOM     34  C   UNL A   1      39.037  30.568  29.159  1.00  0.00     0.010 A 
ATOM     35  C   UNL A   1      38.942  29.308  29.745  1.00  0.00    -0.014 A 
BRANCH  35  36
ATOM     36  C   UNL A   1      40.156  28.563  29.962  1.00  0.00     0.031 A 
ATOM     37  C   UNL A   1      40.535  28.412  31.371  1.00  0.00     0.074 A 
ATOM     38  C   UNL A   1      40.766  27.922  28.948  1.00  0.00     0.049 A 
ATOM     39  N   UNL A   1      41.555  28.924  31.970  1.00  0.00    -0.248 NA
ATOM     40  C   UNL A   1      39.578  27.744  32.268  1.00  0.00     0.031 C 
ATOM     41  C   UNL A   1      40.262  27.740  27.583  1.00  0.00     0.029 A 
ATOM     42  N   UNL A   1      41.903  27.179  28.969  1.00  0.00    -0.354 N 
ATOM     43  C   UNL A   1      41.501  28.418  33.260  1.00  0.00     0.074 A 
ATOM     44  C   UNL A   1      40.162  27.938  33.447  1.00  0.00     0.031 C 
ATOM     45  C   UNL A   1      40.974  26.764  26.982  1.00  0.00     0.029 A 
ATOM     46  C   UNL A   1      42.039  26.336  27.875  1.00  0.00     0.049 A 
ATOM     47  H   UNL A   1      42.568  27.234  29.692  1.00  0.00     0.167 HD
ATOM     48  C   UNL A   1      42.640  28.153  33.951  1.00  0.00     0.034 A 
ATOM     49  C   UNL A   1      42.902  25.295  27.761  1.00  0.00     0.034 A 
ATOM     50  C   UNL A   1      43.770  28.864  33.385  1.00  0.00     0.049 A 
ATOM     51  C   UNL A   1      43.996  25.515  28.743  1.00  0.00     0.074 A 
ATOM     52  C   UNL A   1      44.011  30.191  33.076  1.00  0.00     0.029 A 
ATOM     53  N   UNL A   1      44.726  28.148  32.697  1.00  0.00    -0.354 N 
ATOM     54  N   UNL A   1      44.854  26.495  28.666  1.00  0.00    -0.248 NA
ATOM     55  C   UNL A   1      43.882  24.904  30.060  1.00  0.00     0.031 C 
ATOM     56  C   UNL A   1      44.771  30.165  31.871  1.00  0.00     0.029 A 
ATOM     57  C   UNL A   1      45.010  28.830  31.539  1.00  0.00     0.049 A 
ATOM     58  H   UNL A   1      45.133  27.299  32.985  1.00  0.00     0.167 HD
ATOM     59  C   UNL A   1      45.060  26.901  29.976  1.00  0.00     0.074 A 
ATOM     60  C   UNL A   1      44.540  25.810  30.792  1.00  0.00     0.031 C 
ATOM     61  C   UNL A   1      45.361  28.200  30.278  1.00  0.00     0.034 A 
BRANCH  48  62
ATOM     62  C   UNL A   1      42.794  26.970  34.884  1.00  0.00     0.023 A 
ATOM     63  C   UNL A   1      43.597  25.912  34.426  1.00  0.00     0.031 A 
ATOM     64  C   UNL A   1      42.011  26.690  36.031  1.00  0.00     0.131 A 
ATOM     65  C   UNL A   1      43.511  24.637  35.008  1.00  0.00     0.055 A 
ATOM     66  C   UNL A   1      41.994  25.441  36.657  1.00  0.00     0.041 A 
ATOM     67  F   UNL A   1      41.150  27.561  36.566  1.00  0.00    -0.206 F 
ATOM     68  C   UNL A   1      42.717  24.393  36.123  1.00  0.00     0.022 A 
BRANCH  65  69
ATOM     69  S   UNL A   1      44.299  23.261  34.141  1.00  0.00     0.124 S 
ATOM     70  O   UNL A   1      43.298  22.948  33.126  1.00  0.00    -0.237 OA
ATOM     71  O   UNL A   1      45.531  23.879  33.664  1.00  0.00    -0.237 OA
ATOM     72  O   UNL A   1      44.466  22.255  35.186  1.00  0.00    -0.744 OA
ENDBRANCH  65  69
ENDBRANCH  48  62
BRANCH  49  73
ATOM     73  C   UNL A   1      42.668  24.015  27.043  1.00  0.00     0.023 A 
ATOM     74  C   UNL A   1      43.624  23.464  26.169  1.00  0.00     0.031 A 
ATOM     75  C   UNL A   1      41.565  23.193  27.375  1.00  0.00     0.131 A 
ATOM     76  C   UNL A   1      43.450  22.159  25.657  1.00  0.00     0.055 A 
ATOM     77  C   UNL A   1      41.384  21.914  26.845  1.00  0.00     0.041 A 
ATOM     78  F   UNL A   1      40.664  23.568  28.296  1.00  0.00    -0.206 F 
ATOM     79  C   UNL A   1      42.332  21.387  25.987  1.00  0.00     0.022 A 
BRANCH  76  80
ATOM     80  S   UNL A   1      44.755  21.395  24.646  1.00  0.00     0.124 S 
ATOM     81  O   UNL A   1      44.294  20.016  24.536  1.00  0.00    -0.237 OA
ATOM     82  O   UNL A   1      44.715  22.194  23.426  1.00  0.00    -0.237 OA
ATOM     83  O   UNL A   1      45.962  21.579  25.455  1.00  0.00    -0.744 OA
ENDBRANCH  76  80
ENDBRANCH  49  73
BRANCH  61  84
ATOM     84  C   UNL A   1      45.855  29.109  29.170  1.00  0.00     0.023 A 
ATOM     85  C   UNL A   1      45.042  29.996  28.431  1.00  0.00     0.031 A 
ATOM     86  C   UNL A   1      47.242  29.152  28.935  1.00  0.00     0.131 A 
ATOM     87  C   UNL A   1      45.622  30.869  27.491  1.00  0.00     0.055 A 
ATOM     88  C   UNL A   1      47.815  30.031  28.017  1.00  0.00     0.041 A 
ATOM     89  F   UNL A   1      48.075  28.354  29.625  1.00  0.00    -0.206 F 
ATOM     90  C   UNL A   1      47.005  30.889  27.285  1.00  0.00     0.022 A 
BRANCH  87  91
ATOM     91  S   UNL A   1      44.581  31.988  26.501  1.00  0.00     0.124 S 
ATOM     92  O   UNL A   1      43.469  31.142  26.081  1.00  0.00    -0.237 OA
ATOM     93  O   UNL A   1      44.258  33.043  27.457  1.00  0.00    -0.237 OA
ATOM     94  O   UNL A   1      45.471  32.405  25.414  1.00  0.00    -0.744 OA
ENDBRANCH  87  91
ENDBRANCH  61  84
ENDBRANCH  35  36
ENDBRANCH  28  30
ENDBRANCH  27  28
ENDBRANCH  26  27
ENDBRANCH  25  26
ENDBRANCH  24  25
ENDBRANCH   1  24
TORSDOF 23
ENDMDL
MODEL 2
REMARK VINA RESULT:     -10.8      3.265      7.649
REMARK SMILES COc1ccc(C2=NN=C[C@@H]2C(=O)OCCOCCOCCOC(=O)c2ccc(-c3c4nc(c(-c5cc(S(=O)(=O)[O-])ccc5F)c5ccc([nH]5)c(-c5cc(S(=O)(=O)[O-])ccc5F)c5nc(c(-c6cc(S(=O)(=O)[O-])ccc6F)c6ccc3[nH]6)C=C5)C=C4)cc2)cc1OC
REMARK SMILES IDX 19 1 18 2 17 3 16 4 15 5 14 6 12 7 13 8 11 9 7 10 8 11 9 12
REMARK SMILES IDX 10 13 6 14 3 15 4 16 90 17 5 18 89 19 2 20 1 21 91 22 92 23
REMARK SMILES IDX 20 24 21 25 22 26 23 27 24 28 25 29 26 30 27 31 88 32 28 33
REMARK SMILES IDX 87 34 29 35 30 36 31 37 81 38 32 39 86 40 80 41 82 42 33 43
REMARK SMILES IDX 85 44 79 45 78 46 34 48 66 49 46 50 65 51 47 52 50 53 64 54
REMARK SMILES IDX 83 55 48 56 49 57 63 59 84 60 51 61 35 62 36 63 44 64 37 65
REMARK SMILES IDX 43 66 45 67 42 68 38 69 39 70 40 71 41 72 67 73 68 74 76 75
REMARK SMILES IDX 69 76 75 77 77 78 74 79 70 80 71 81 72 82 73 83 52 84 53 85
REMARK SMILES IDX 61 86 54 87 60 88 62 89 59 90 55 91 56 92 57 93 58 94
REMARK H PARENT 82 47 50 58
REMARK Flexibility Score: inf
ROOT
ATOM      1  C   UNL A   1      36.453  23.724  24.556  1.00  0.00     0.188 C 
ENDROOT
BRANCH   1   2
ATOM      2  C   UNL A   1      35.239  23.331  23.695  1.00  0.00     0.188 C 
BRANCH   2   3
ATOM      3  O   UNL A   1      34.691  24.221  22.729  1.00  0.00    -0.376 OA
BRANCH   3   4
ATOM      4  C   UNL A   1      33.327  24.107  22.362  1.00  0.00     0.202 C 
BRANCH   4   5
ATOM      5  C   UNL A   1      32.698  25.267  21.572  1.00  0.00     0.261 C 
BRANCH   5   6
ATOM      6  O   UNL A   1      32.368  26.449  22.335  1.00  0.00    -0.462 OA
BRANCH   6   7
ATOM      7  C   UNL A   1      33.381  27.313  22.586  1.00  0.00     0.320 C 
ATOM      8  O   UNL A   1      34.087  27.818  21.717  1.00  0.00    -0.251 OA
BRANCH   7   9
ATOM      9  C   UNL A   1      33.624  27.613  24.035  1.00  0.00     0.194 C 
ATOM     10  C   UNL A   1      32.561  27.409  25.070  1.00  0.00     0.090 C 
ATOM     11  N   UNL A   1      32.243  28.511  25.684  1.00  0.00    -0.154 NA
ATOM     12  N   UNL A   1      33.018  29.573  25.146  1.00  0.00    -0.162 NA
ATOM     13  C   UNL A   1      33.784  29.083  24.230  1.00  0.00     0.130 C 
BRANCH  10  14
ATOM     14  C   UNL A   1      31.940  26.105  25.374  1.00  0.00     0.003 A 
ATOM     15  C   UNL A   1      30.828  23.670  26.176  1.00  0.00     0.160 A 
ATOM     16  C   UNL A   1      30.005  24.718  25.741  1.00  0.00     0.051 A 
ATOM     17  C   UNL A   1      32.217  23.812  26.145  1.00  0.00     0.161 A 
ATOM     18  C   UNL A   1      30.556  25.945  25.362  1.00  0.00     0.014 A 
ATOM     19  C   UNL A   1      32.766  25.023  25.703  1.00  0.00     0.060 A 
BRANCH  15  20
ATOM     20  O   UNL A   1      30.258  22.485  26.555  1.00  0.00    -0.493 OA
ATOM     21  C   UNL A   1      29.199  22.688  27.492  1.00  0.00     0.278 C 
ENDBRANCH  15  20
BRANCH  17  22
ATOM     22  O   UNL A   1      33.142  22.868  26.503  1.00  0.00    -0.493 OA
ATOM     23  C   UNL A   1      33.136  22.449  27.863  1.00  0.00     0.278 C 
ENDBRANCH  17  22
ENDBRANCH  10  14
ENDBRANCH   7   9
ENDBRANCH   6   7
ENDBRANCH   5   6
ENDBRANCH   4   5
ENDBRANCH   3   4
ENDBRANCH   2   3
ENDBRANCH   1   2
BRANCH   1  24
ATOM     24  O   UNL A   1      37.082  22.645  25.227  1.00  0.00    -0.376 OA
BRANCH  24  25
ATOM     25  C   UNL A   1      36.699  21.339  24.819  1.00  0.00     0.202 C 
BRANCH  25  26
ATOM     26  C   UNL A   1      37.860  20.366  24.940  1.00  0.00     0.261 C 
BRANCH  26  27
ATOM     27  O   UNL A   1      38.890  20.880  25.768  1.00  0.00    -0.460 OA
BRANCH  27  28
ATOM     28  C   UNL A   1      40.008  20.126  25.863  1.00  0.00     0.338 C 
ATOM     29  O   UNL A   1      40.157  18.977  25.495  1.00  0.00    -0.246 OA
BRANCH  28  30
ATOM     30  C   UNL A   1      41.030  20.936  26.527  1.00  0.00     0.060 A 
ATOM     31  C   UNL A   1      41.021  20.949  27.923  1.00  0.00     0.016 A 
ATOM     32  C   UNL A   1      41.746  21.873  25.769  1.00  0.00     0.016 A 
ATOM     33  C   UNL A   1      41.503  22.068  28.557  1.00  0.00     0.010 A 
ATOM     34  C   UNL A   1      42.174  23.008  26.394  1.00  0.00     0.010 A 
ATOM     35  C   UNL A   1      41.964  23.122  27.766  1.00  0.00    -0.014 A 
BRANCH  35  36
ATOM     36  C   UNL A   1      42.174  24.405  28.384  1.00  0.00     0.031 A 
ATOM     37  C   UNL A   1      41.144  25.405  28.078  1.00  0.00     0.074 A 
ATOM     38  C   UNL A   1      43.142  24.583  29.301  1.00  0.00     0.049 A 
ATOM     39  N   UNL A   1      41.278  26.484  27.387  1.00  0.00    -0.248 NA
ATOM     40  C   UNL A   1      39.755  25.090  28.447  1.00  0.00     0.031 C 
ATOM     41  C   UNL A   1      43.985  23.550  29.911  1.00  0.00     0.029 A 
ATOM     42  N   UNL A   1      43.479  25.710  29.980  1.00  0.00    -0.354 N 
ATOM     43  C   UNL A   1      40.043  27.111  27.463  1.00  0.00     0.074 A 
ATOM     44  C   UNL A   1      39.109  26.106  27.882  1.00  0.00     0.031 C 
ATOM     45  C   UNL A   1      44.572  24.061  31.014  1.00  0.00     0.029 A 
ATOM     46  C   UNL A   1      44.231  25.471  31.122  1.00  0.00     0.049 A 
ATOM     47  H   UNL A   1      43.214  26.612  29.690  1.00  0.00     0.167 HD
ATOM     48  C   UNL A   1      39.950  28.465  27.477  1.00  0.00     0.034 A 
ATOM     49  C   UNL A   1      44.467  26.346  32.132  1.00  0.00     0.034 A 
ATOM     50  C   UNL A   1      41.159  29.077  26.961  1.00  0.00     0.049 A 
ATOM     51  C   UNL A   1      44.239  27.713  31.595  1.00  0.00     0.074 A 
ATOM     52  C   UNL A   1      41.888  28.924  25.795  1.00  0.00     0.029 A 
ATOM     53  N   UNL A   1      42.005  29.718  27.841  1.00  0.00    -0.354 N 
ATOM     54  N   UNL A   1      44.981  28.265  30.674  1.00  0.00    -0.248 NA
ATOM     55  C   UNL A   1      42.924  28.317  31.763  1.00  0.00     0.031 C 
ATOM     56  C   UNL A   1      43.253  29.043  26.185  1.00  0.00     0.029 A 
ATOM     57  C   UNL A   1      43.289  29.323  27.552  1.00  0.00     0.049 A 
ATOM     58  H   UNL A   1      41.736  30.346  28.549  1.00  0.00     0.167 HD
ATOM     59  C   UNL A   1      44.100  28.976  29.873  1.00  0.00     0.074 A 
ATOM     60  C   UNL A   1      42.877  29.075  30.662  1.00  0.00     0.031 C 
ATOM     61  C   UNL A   1      44.341  29.159  28.541  1.00  0.00     0.034 A 
BRANCH  48  62
ATOM     62  C   UNL A   1      38.933  29.224  28.305  1.00  0.00     0.023 A 
ATOM     63  C   UNL A   1      39.131  29.225  29.694  1.00  0.00     0.031 A 
ATOM     64  C   UNL A   1      37.668  29.692  27.868  1.00  0.00     0.131 A 
ATOM     65  C   UNL A   1      38.085  29.551  30.573  1.00  0.00     0.055 A 
ATOM     66  C   UNL A   1      36.660  30.097  28.746  1.00  0.00     0.041 A 
ATOM     67  F   UNL A   1      37.290  29.706  26.586  1.00  0.00    -0.206 F 
ATOM     68  C   UNL A   1      36.850  29.991  30.109  1.00  0.00     0.022 A 
BRANCH  65  69
ATOM     69  S   UNL A   1      38.315  29.186  32.328  1.00  0.00     0.124 S 
ATOM     70  O   UNL A   1      38.726  30.488  32.843  1.00  0.00    -0.237 OA
ATOM     71  O   UNL A   1      36.984  28.729  32.712  1.00  0.00    -0.237 OA
ATOM     72  O   UNL A   1      39.353  28.158  32.325  1.00  0.00    -0.744 OA
ENDBRANCH  65  69
ENDBRANCH  48  62
BRANCH  49  73
ATOM     73  C   UNL A   1      44.609  26.028  33.575  1.00  0.00     0.023 A 
ATOM     74  C   UNL A   1      43.570  26.258  34.497  1.00  0.00     0.031 A 
ATOM     75  C   UNL A   1      45.717  25.282  34.045  1.00  0.00     0.131 A 
ATOM     76  C   UNL A   1      43.668  25.768  35.817  1.00  0.00     0.055 A 
ATOM     77  C   UNL A   1      45.821  24.823  35.359  1.00  0.00     0.041 A 
ATOM     78  F   UNL A   1      46.701  24.896  33.219  1.00  0.00    -0.206 F 
ATOM     79  C   UNL A   1      44.791  25.059  36.252  1.00  0.00     0.022 A 
BRANCH  76  80
ATOM     80  S   UNL A   1      42.263  25.941  36.961  1.00  0.00     0.124 S 
ATOM     81  O   UNL A   1      41.466  26.978  36.317  1.00  0.00    -0.237 OA
ATOM     82  O   UNL A   1      41.699  24.596  36.970  1.00  0.00    -0.237 OA
ATOM     83  O   UNL A   1      42.898  26.344  38.218  1.00  0.00    -0.744 OA
ENDBRANCH  76  80
ENDBRANCH  49  73
BRANCH  61  84
ATOM     84  C   UNL A   1      45.746  28.934  28.019  1.00  0.00     0.023 A 
ATOM     85  C   UNL A   1      46.235  27.705  27.524  1.00  0.00     0.031 A 
ATOM     86  C   UNL A   1      46.589  30.057  27.916  1.00  0.00     0.131 A 
ATOM     87  C   UNL A   1      47.527  27.632  26.968  1.00  0.00     0.055 A 
ATOM     88  C   UNL A   1      47.861  29.984  27.348  1.00  0.00     0.041 A 
ATOM     89  F   UNL A   1      46.174  31.262  28.341  1.00  0.00    -0.206 F 
ATOM     90  C   UNL A   1      48.338  28.767  26.879  1.00  0.00     0.022 A 
BRANCH  87  91
ATOM     91  S   UNL A   1      48.188  26.044  26.366  1.00  0.00     0.124 S 
ATOM     92  O   UNL A   1      49.431  26.419  25.701  1.00  0.00    -0.237 OA
ATOM     93  O   UNL A   1      48.327  25.276  27.600  1.00  0.00    -0.237 OA
ATOM     94  O   UNL A   1      47.138  25.562  25.466  1.00  0.00    -0.744 OA
ENDBRANCH  87  91
ENDBRANCH  61  84
ENDBRANCH  35  36
ENDBRANCH  28  30
ENDBRANCH  27  28
ENDBRANCH  26  27
ENDBRANCH  25  26
ENDBRANCH  24  25
ENDBRANCH   1  24
TORSDOF 23
ENDMDL
MODEL 3
REMARK VINA RESULT:     -10.5      3.540      9.555
REMARK SMILES COc1ccc(C2=NN=C[C@@H]2C(=O)OCCOCCOCCOC(=O)c2ccc(-c3c4nc(c(-c5cc(S(=O)(=O)[O-])ccc5F)c5ccc([nH]5)c(-c5cc(S(=O)(=O)[O-])ccc5F)c5nc(c(-c6cc(S(=O)(=O)[O-])ccc6F)c6ccc3[nH]6)C=C5)C=C4)cc2)cc1OC
REMARK SMILES IDX 19 1 18 2 17 3 16 4 15 5 14 6 12 7 13 8 11 9 7 10 8 11 9 12
REMARK SMILES IDX 10 13 6 14 3 15 4 16 90 17 5 18 89 19 2 20 1 21 91 22 92 23
REMARK SMILES IDX 20 24 21 25 22 26 23 27 24 28 25 29 26 30 27 31 88 32 28 33
REMARK SMILES IDX 87 34 29 35 30 36 31 37 81 38 32 39 86 40 80 41 82 42 33 43
REMARK SMILES IDX 85 44 79 45 78 46 34 48 66 49 46 50 65 51 47 52 50 53 64 54
REMARK SMILES IDX 83 55 48 56 49 57 63 59 84 60 51 61 35 62 36 63 44 64 37 65
REMARK SMILES IDX 43 66 45 67 42 68 38 69 39 70 40 71 41 72 67 73 68 74 76 75
REMARK SMILES IDX 69 76 75 77 77 78 74 79 70 80 71 81 72 82 73 83 52 84 53 85
REMARK SMILES IDX 61 86 54 87 60 88 62 89 59 90 55 91 56 92 57 93 58 94
REMARK H PARENT 82 47 50 58
REMARK Flexibility Score: inf
ROOT
ATOM      1  C   UNL A   1      35.016  23.455  25.742  1.00  0.00     0.188 C 
ENDROOT
BRANCH   1   2
ATOM      2  C   UNL A   1      35.149  24.255  24.434  1.00  0.00     0.188 C 
BRANCH   2   3
ATOM      3  O   UNL A   1      34.265  25.325  24.120  1.00  0.00    -0.376 OA
BRANCH   3   4
ATOM      4  C   UNL A   1      33.738  25.441  22.810  1.00  0.00     0.202 C 
BRANCH   4   5
ATOM      5  C   UNL A   1      32.940  24.251  22.251  1.00  0.00     0.261 C 
BRANCH   5   6
ATOM      6  O   UNL A   1      31.647  24.016  22.852  1.00  0.00    -0.462 OA
BRANCH   6   7
ATOM      7  C   UNL A   1      31.613  23.170  23.910  1.00  0.00     0.320 C 
ATOM      8  O   UNL A   1      32.257  22.126  23.978  1.00  0.00    -0.251 OA
BRANCH   7   9
ATOM      9  C   UNL A   1      30.695  23.573  25.025  1.00  0.00     0.194 C 
ATOM     10  C   UNL A   1      30.753  24.938  25.637  1.00  0.00     0.090 C 
ATOM     11  N   UNL A   1      31.035  24.905  26.906  1.00  0.00    -0.154 NA
ATOM     12  N   UNL A   1      31.213  23.551  27.299  1.00  0.00    -0.162 NA
ATOM     13  C   UNL A   1      31.029  22.808  26.260  1.00  0.00     0.130 C 
BRANCH  10  14
ATOM     14  C   UNL A   1      30.513  26.190  24.894  1.00  0.00     0.003 A 
ATOM     15  C   UNL A   1      29.894  28.617  23.653  1.00  0.00     0.160 A 
ATOM     16  C   UNL A   1      31.150  28.421  24.245  1.00  0.00     0.051 A 
ATOM     17  C   UNL A   1      28.966  27.573  23.619  1.00  0.00     0.161 A 
ATOM     18  C   UNL A   1      31.454  27.218  24.886  1.00  0.00     0.014 A 
ATOM     19  C   UNL A   1      29.301  26.348  24.209  1.00  0.00     0.060 A 
BRANCH  15  20
ATOM     20  O   UNL A   1      29.620  29.812  23.045  1.00  0.00    -0.493 OA
ATOM     21  C   UNL A   1      30.357  29.964  21.831  1.00  0.00     0.278 C 
ENDBRANCH  15  20
BRANCH  17  22
ATOM     22  O   UNL A   1      27.722  27.607  23.048  1.00  0.00    -0.493 OA
ATOM     23  C   UNL A   1      26.649  28.044  23.876  1.00  0.00     0.278 C 
ENDBRANCH  17  22
ENDBRANCH  10  14
ENDBRANCH   7   9
ENDBRANCH   6   7
ENDBRANCH   5   6
ENDBRANCH   4   5
ENDBRANCH   3   4
ENDBRANCH   2   3
ENDBRANCH   1   2
BRANCH   1  24
ATOM     24  O   UNL A   1      36.226  22.892  26.223  1.00  0.00    -0.376 OA
BRANCH  24  25
ATOM     25  C   UNL A   1      37.162  22.476  25.238  1.00  0.00     0.202 C 
BRANCH  25  26
ATOM     26  C   UNL A   1      38.536  22.254  25.851  1.00  0.00     0.261 C 
BRANCH  26  27
ATOM     27  O   UNL A   1      38.915  23.331  26.692  1.00  0.00    -0.460 OA
BRANCH  27  28
ATOM     28  C   UNL A   1      40.060  23.164  27.390  1.00  0.00     0.338 C 
ATOM     29  O   UNL A   1      40.437  22.158  27.960  1.00  0.00    -0.246 OA
BRANCH  28  30
ATOM     30  C   UNL A   1      40.777  24.440  27.371  1.00  0.00     0.060 A 
ATOM     31  C   UNL A   1      41.697  24.666  28.396  1.00  0.00     0.016 A 
ATOM     32  C   UNL A   1      40.303  25.465  26.541  1.00  0.00     0.016 A 
ATOM     33  C   UNL A   1      41.932  25.966  28.770  1.00  0.00     0.010 A 
ATOM     34  C   UNL A   1      40.493  26.754  26.948  1.00  0.00     0.010 A 
ATOM     35  C   UNL A   1      41.232  26.976  28.108  1.00  0.00    -0.014 A 
BRANCH  35  36
ATOM     36  C   UNL A   1      41.220  28.296  28.682  1.00  0.00     0.031 A 
ATOM     37  C   UNL A   1      42.270  29.190  28.180  1.00  0.00     0.074 A 
ATOM     38  C   UNL A   1      40.209  28.699  29.473  1.00  0.00     0.049 A 
ATOM     39  N   UNL A   1      43.277  29.663  28.831  1.00  0.00    -0.248 NA
ATOM     40  C   UNL A   1      42.301  29.463  26.735  1.00  0.00     0.031 C 
ATOM     41  C   UNL A   1      38.956  27.986  29.740  1.00  0.00     0.029 A 
ATOM     42  N   UNL A   1      40.032  29.895  30.092  1.00  0.00    -0.354 N 
ATOM     43  C   UNL A   1      43.916  30.506  27.935  1.00  0.00     0.074 A 
ATOM     44  C   UNL A   1      43.442  30.140  26.631  1.00  0.00     0.031 C 
ATOM     45  C   UNL A   1      38.069  28.849  30.278  1.00  0.00     0.029 A 
ATOM     46  C   UNL A   1      38.724  30.131  30.488  1.00  0.00     0.049 A 
ATOM     47  H   UNL A   1      40.765  30.534  30.245  1.00  0.00     0.167 HD
ATOM     48  C   UNL A   1      44.538  31.635  28.364  1.00  0.00     0.034 A 
ATOM     49  C   UNL A   1      38.196  31.324  30.863  1.00  0.00     0.034 A 
ATOM     50  C   UNL A   1      44.822  31.564  29.785  1.00  0.00     0.049 A 
ATOM     51  C   UNL A   1      39.326  32.200  31.270  1.00  0.00     0.074 A 
ATOM     52  C   UNL A   1      45.470  30.643  30.588  1.00  0.00     0.029 A 
ATOM     53  N   UNL A   1      44.090  32.352  30.647  1.00  0.00    -0.354 N 
ATOM     54  N   UNL A   1      40.080  31.977  32.311  1.00  0.00    -0.248 NA
ATOM     55  C   UNL A   1      39.907  33.094  30.276  1.00  0.00     0.031 C 
ATOM     56  C   UNL A   1      44.733  30.621  31.807  1.00  0.00     0.029 A 
ATOM     57  C   UNL A   1      43.714  31.571  31.712  1.00  0.00     0.049 A 
ATOM     58  H   UNL A   1      43.875  33.305  30.521  1.00  0.00     0.167 HD
ATOM     59  C   UNL A   1      41.360  32.336  31.918  1.00  0.00     0.074 A 
ATOM     60  C   UNL A   1      41.171  33.131  30.710  1.00  0.00     0.031 C 
ATOM     61  C   UNL A   1      42.462  31.715  32.436  1.00  0.00     0.034 A 
BRANCH  48  62
ATOM     62  C   UNL A   1      44.539  32.935  27.588  1.00  0.00     0.023 A 
ATOM     63  C   UNL A   1      43.796  33.992  28.136  1.00  0.00     0.031 A 
ATOM     64  C   UNL A   1      44.971  33.121  26.250  1.00  0.00     0.131 A 
ATOM     65  C   UNL A   1      43.412  35.089  27.347  1.00  0.00     0.055 A 
ATOM     66  C   UNL A   1      44.656  34.254  25.497  1.00  0.00     0.041 A 
ATOM     67  F   UNL A   1      45.639  32.193  25.556  1.00  0.00    -0.206 F 
ATOM     68  C   UNL A   1      43.839  35.230  26.031  1.00  0.00     0.022 A 
BRANCH  65  69
ATOM     69  S   UNL A   1      42.170  36.216  28.020  1.00  0.00     0.124 S 
ATOM     70  O   UNL A   1      42.731  36.512  29.335  1.00  0.00    -0.237 OA
ATOM     71  O   UNL A   1      42.196  37.302  27.047  1.00  0.00    -0.237 OA
ATOM     72  O   UNL A   1      40.951  35.410  28.027  1.00  0.00    -0.744 OA
ENDBRANCH  65  69
ENDBRANCH  48  62
BRANCH  49  73
ATOM     73  C   UNL A   1      36.811  31.804  30.624  1.00  0.00     0.023 A 
ATOM     74  C   UNL A   1      36.077  32.488  31.610  1.00  0.00     0.031 A 
ATOM     75  C   UNL A   1      36.254  31.780  29.323  1.00  0.00     0.131 A 
ATOM     76  C   UNL A   1      34.844  33.096  31.285  1.00  0.00     0.055 A 
ATOM     77  C   UNL A   1      35.022  32.359  29.013  1.00  0.00     0.041 A 
ATOM     78  F   UNL A   1      36.928  31.269  28.282  1.00  0.00    -0.206 F 
ATOM     79  C   UNL A   1      34.313  33.027  29.995  1.00  0.00     0.022 A 
BRANCH  76  80
ATOM     80  S   UNL A   1      33.968  34.102  32.524  1.00  0.00     0.124 S 
ATOM     81  O   UNL A   1      33.175  34.997  31.691  1.00  0.00    -0.237 OA
ATOM     82  O   UNL A   1      33.234  33.096  33.283  1.00  0.00    -0.237 OA
ATOM     83  O   UNL A   1      35.055  34.749  33.263  1.00  0.00    -0.744 OA
ENDBRANCH  76  80
ENDBRANCH  49  73
BRANCH  61  84
ATOM     84  C   UNL A   1      42.313  30.917  33.716  1.00  0.00     0.023 A 
ATOM     85  C   UNL A   1      42.020  29.537  33.777  1.00  0.00     0.031 A 
ATOM     86  C   UNL A   1      42.596  31.574  34.928  1.00  0.00     0.131 A 
ATOM     87  C   UNL A   1      42.003  28.872  35.018  1.00  0.00     0.055 A 
ATOM     88  C   UNL A   1      42.597  30.908  36.154  1.00  0.00     0.041 A 
ATOM     89  F   UNL A   1      42.912  32.880  34.938  1.00  0.00    -0.206 F 
ATOM     90  C   UNL A   1      42.292  29.554  36.204  1.00  0.00     0.022 A 
BRANCH  87  91
ATOM     91  S   UNL A   1      41.584  27.102  35.115  1.00  0.00     0.124 S 
ATOM     92  O   UNL A   1      40.611  26.920  34.044  1.00  0.00    -0.237 OA
ATOM     93  O   UNL A   1      42.881  26.463  34.918  1.00  0.00    -0.237 OA
ATOM     94  O   UNL A   1      41.035  26.959  36.466  1.00  0.00    -0.744 OA
ENDBRANCH  87  91
ENDBRANCH  61  84
ENDBRANCH  35  36
ENDBRANCH  28  30
ENDBRANCH  27  28
ENDBRANCH  26  27
ENDBRANCH  25  26
ENDBRANCH  24  25
ENDBRANCH   1  24
TORSDOF 23
ENDMDL
