MODEL 1
REMARK VINA RESULT:     -11.4      0.000      0.000
REMARK SMILES CC1(C)S[C@@H]2[C@H]([NH2+]Cn3nnc4ccccc43)C(=O)N2[C@@H]1C(=O)OCCOCCOCCOC(=O)c1ccc(-c2c3nc(c(-c4cc(S(=O)(=O)[O-])ccc4F)c4ccc([nH]4)c(-c4cc(S(=O)(=O)[O-])ccc4F)c4nc(c(-c5cc(S(=O)(=O)[O-])ccc5F)c5ccc2[nH]5)C=C4)C=C3)cc1
REMARK SMILES IDX 28 1 27 2 26 3 25 4 24 5 22 6 23 7 21 8 1 9 2 10 3 11 4 12
REMARK SMILES IDX 5 13 20 14 6 15 18 16 19 17 7 18 8 21 9 22 10 23 17 24 11 25
REMARK SMILES IDX 12 26 16 27 13 28 15 29 14 30 29 31 30 32 31 33 32 34 33 35
REMARK SMILES IDX 34 36 35 37 36 38 37 39 98 40 38 41 97 42 39 43 40 44 41 45
REMARK SMILES IDX 91 46 42 47 96 48 90 49 92 50 43 51 95 52 89 53 88 54 44 56
REMARK SMILES IDX 76 57 56 58 75 59 57 60 60 61 74 62 93 63 58 64 59 65 73 67
REMARK SMILES IDX 94 68 61 69 45 70 46 71 54 72 47 73 53 74 55 75 52 76 48 77
REMARK SMILES IDX 49 78 50 79 51 80 77 81 78 82 86 83 79 84 85 85 87 86 84 87
REMARK SMILES IDX 80 88 81 89 82 90 83 91 62 92 63 93 71 94 64 95 70 96 72 97
REMARK SMILES IDX 69 98 65 99 66 100 67 101 68 102
REMARK H PARENT 7 19 7 20 92 55 60 66
REMARK Flexibility Score: inf
ROOT
ATOM      1  C   UNL A   1      29.792  30.117  23.537  1.00  0.00     0.188 C 
ENDROOT
BRANCH   1   2
ATOM      2  O   UNL A   1      29.111  29.231  22.667  1.00  0.00    -0.376 OA
BRANCH   2   3
ATOM      3  C   UNL A   1      28.321  28.197  23.235  1.00  0.00     0.202 C 
BRANCH   3   4
ATOM      4  C   UNL A   1      28.981  26.839  23.553  1.00  0.00     0.261 C 
BRANCH   4   5
ATOM      5  O   UNL A   1      30.379  26.670  23.153  1.00  0.00    -0.462 OA
BRANCH   5   6
ATOM      6  C   UNL A   1      30.958  25.483  23.512  1.00  0.00     0.330 C 
ATOM      7  O   UNL A   1      30.915  24.506  22.769  1.00  0.00    -0.250 OA
BRANCH   6   8
ATOM      8  C   UNL A   1      31.698  25.436  24.915  1.00  0.00     0.212 C 
ATOM      9  C   UNL A   1      33.411  26.827  23.520  1.00  0.00     0.026 C 
ATOM     10  C   UNL A   1      33.123  26.092  24.837  1.00  0.00     0.044 C 
ATOM     11  C   UNL A   1      33.480  26.904  26.103  1.00  0.00     0.026 C 
ATOM     12  S   UNL A   1      34.351  24.690  24.955  1.00  0.00    -0.121 SA
ATOM     13  C   UNL A   1      33.261  23.842  26.120  1.00  0.00     0.213 C 
ATOM     14  N   UNL A   1      31.935  24.156  25.580  1.00  0.00    -0.304 N 
ATOM     15  C   UNL A   1      32.745  22.366  26.160  1.00  0.00     0.307 C 
ATOM     16  C   UNL A   1      31.358  23.177  26.292  1.00  0.00     0.285 C 
ATOM     17  O   UNL A   1      30.261  22.990  26.762  1.00  0.00    -0.268 OA
BRANCH  15  18
ATOM     18  N   UNL A   1      32.729  21.485  24.938  1.00  0.00    -0.315 N 
ATOM     19  H   UNL A   1      33.623  21.562  24.455  1.00  0.00     0.348 HD
ATOM     20  H   UNL A   1      31.976  21.784  24.319  1.00  0.00     0.348 HD
BRANCH  18  21
ATOM     21  C   UNL A   1      32.509  20.108  25.324  1.00  0.00     0.415 C 
BRANCH  21  22
ATOM     22  N   UNL A   1      33.621  19.183  25.205  1.00  0.00    -0.194 N 
ATOM     23  N   UNL A   1      34.841  19.480  24.731  1.00  0.00    -0.061 NA
ATOM     24  C   UNL A   1      33.414  17.827  25.308  1.00  0.00     0.095 A 
ATOM     25  N   UNL A   1      35.463  18.322  24.515  1.00  0.00    -0.130 NA
ATOM     26  C   UNL A   1      34.601  17.300  24.835  1.00  0.00     0.113 A 
ATOM     27  C   UNL A   1      32.312  17.052  25.699  1.00  0.00     0.030 A 
ATOM     28  C   UNL A   1      34.723  15.907  24.741  1.00  0.00     0.032 A 
ATOM     29  C   UNL A   1      32.448  15.669  25.597  1.00  0.00     0.002 A 
ATOM     30  C   UNL A   1      33.634  15.104  25.125  1.00  0.00     0.002 A 
ENDBRANCH  21  22
ENDBRANCH  18  21
ENDBRANCH  15  18
ENDBRANCH   6   8
ENDBRANCH   5   6
ENDBRANCH   4   5
ENDBRANCH   3   4
ENDBRANCH   2   3
ENDBRANCH   1   2
BRANCH   1  31
ATOM     31  C   UNL A   1      30.780  29.512  24.532  1.00  0.00     0.188 C 
BRANCH  31  32
ATOM     32  O   UNL A   1      31.800  30.361  24.981  1.00  0.00    -0.376 OA
BRANCH  32  33
ATOM     33  C   UNL A   1      31.782  30.703  26.355  1.00  0.00     0.202 C 
BRANCH  33  34
ATOM     34  C   UNL A   1      32.941  30.385  27.351  1.00  0.00     0.261 C 
BRANCH  34  35
ATOM     35  O   UNL A   1      34.208  31.065  27.172  1.00  0.00    -0.460 OA
BRANCH  35  36
ATOM     36  C   UNL A   1      34.766  31.732  28.226  1.00  0.00     0.338 C 
ATOM     37  O   UNL A   1      34.218  32.604  28.879  1.00  0.00    -0.246 OA
BRANCH  36  38
ATOM     38  C   UNL A   1      36.004  30.978  28.667  1.00  0.00     0.060 A 
ATOM     39  C   UNL A   1      37.162  31.598  29.155  1.00  0.00     0.016 A 
ATOM     40  C   UNL A   1      36.088  29.634  28.276  1.00  0.00     0.016 A 
ATOM     41  C   UNL A   1      38.398  30.903  29.153  1.00  0.00     0.010 A 
ATOM     42  C   UNL A   1      37.324  28.959  28.246  1.00  0.00     0.010 A 
ATOM     43  C   UNL A   1      38.508  29.586  28.657  1.00  0.00    -0.014 A 
BRANCH  43  44
ATOM     44  C   UNL A   1      39.668  28.707  28.995  1.00  0.00     0.031 A 
ATOM     45  C   UNL A   1      39.830  28.640  30.450  1.00  0.00     0.074 A 
ATOM     46  C   UNL A   1      40.604  28.033  28.274  1.00  0.00     0.049 A 
ATOM     47  N   UNL A   1      40.734  29.337  31.056  1.00  0.00    -0.248 NA
ATOM     48  C   UNL A   1      38.838  28.021  31.321  1.00  0.00     0.031 C 
ATOM     49  C   UNL A   1      40.990  28.291  26.907  1.00  0.00     0.029 A 
ATOM     50  N   UNL A   1      41.461  26.981  28.611  1.00  0.00    -0.354 N 
ATOM     51  C   UNL A   1      40.617  28.994  32.382  1.00  0.00     0.074 A 
ATOM     52  C   UNL A   1      39.316  28.382  32.516  1.00  0.00     0.031 C 
ATOM     53  C   UNL A   1      41.837  27.332  26.469  1.00  0.00     0.029 A 
ATOM     54  C   UNL A   1      42.040  26.324  27.504  1.00  0.00     0.049 A 
ATOM     55  H   UNL A   1      41.646  26.720  29.542  1.00  0.00     0.167 HD
ATOM     56  C   UNL A   1      41.741  28.951  33.148  1.00  0.00     0.034 A 
ATOM     57  C   UNL A   1      43.132  25.516  27.359  1.00  0.00     0.034 A 
ATOM     58  C   UNL A   1      42.851  29.603  32.490  1.00  0.00     0.049 A 
ATOM     59  C   UNL A   1      44.155  26.011  28.290  1.00  0.00     0.074 A 
ATOM     60  C   UNL A   1      43.292  30.895  32.302  1.00  0.00     0.029 A 
ATOM     61  N   UNL A   1      43.486  28.825  31.557  1.00  0.00    -0.354 N 
ATOM     62  N   UNL A   1      44.839  27.098  28.082  1.00  0.00    -0.248 NA
ATOM     63  C   UNL A   1      44.174  25.484  29.651  1.00  0.00     0.031 C 
ATOM     64  C   UNL A   1      44.170  30.874  31.179  1.00  0.00     0.029 A 
ATOM     65  C   UNL A   1      44.292  29.564  30.731  1.00  0.00     0.049 A 
ATOM     66  H   UNL A   1      43.377  27.849  31.488  1.00  0.00     0.167 HD
ATOM     67  C   UNL A   1      44.935  27.638  29.344  1.00  0.00     0.074 A 
ATOM     68  C   UNL A   1      44.681  26.546  30.276  1.00  0.00     0.031 C 
ATOM     69  C   UNL A   1      44.859  28.980  29.535  1.00  0.00     0.034 A 
BRANCH  56  70
ATOM     70  C   UNL A   1      41.950  27.927  34.230  1.00  0.00     0.023 A 
ATOM     71  C   UNL A   1      42.728  26.769  34.043  1.00  0.00     0.031 A 
ATOM     72  C   UNL A   1      41.561  28.199  35.555  1.00  0.00     0.131 A 
ATOM     73  C   UNL A   1      43.054  25.919  35.101  1.00  0.00     0.055 A 
ATOM     74  C   UNL A   1      41.946  27.387  36.628  1.00  0.00     0.041 A 
ATOM     75  F   UNL A   1      40.835  29.288  35.852  1.00  0.00    -0.206 F 
ATOM     76  C   UNL A   1      42.694  26.235  36.405  1.00  0.00     0.022 A 
BRANCH  73  77
ATOM     77  S   UNL A   1      43.964  24.383  34.782  1.00  0.00     0.124 S 
ATOM     78  O   UNL A   1      43.076  23.380  35.357  1.00  0.00    -0.237 OA
ATOM     79  O   UNL A   1      44.051  24.395  33.324  1.00  0.00    -0.237 OA
ATOM     80  O   UNL A   1      45.232  24.586  35.476  1.00  0.00    -0.744 OA
ENDBRANCH  73  77
ENDBRANCH  56  70
BRANCH  57  81
ATOM     81  C   UNL A   1      43.092  24.054  27.050  1.00  0.00     0.023 A 
ATOM     82  C   UNL A   1      43.984  23.468  26.142  1.00  0.00     0.031 A 
ATOM     83  C   UNL A   1      42.057  23.233  27.555  1.00  0.00     0.131 A 
ATOM     84  C   UNL A   1      43.779  22.149  25.700  1.00  0.00     0.055 A 
ATOM     85  C   UNL A   1      41.871  21.909  27.132  1.00  0.00     0.041 A 
ATOM     86  F   UNL A   1      41.183  23.717  28.452  1.00  0.00    -0.206 F 
ATOM     87  C   UNL A   1      42.726  21.367  26.183  1.00  0.00     0.022 A 
BRANCH  84  88
ATOM     88  S   UNL A   1      44.851  21.441  24.421  1.00  0.00     0.124 S 
ATOM     89  O   UNL A   1      44.654  22.363  23.303  1.00  0.00    -0.237 OA
ATOM     90  O   UNL A   1      46.156  21.507  25.067  1.00  0.00    -0.237 OA
ATOM     91  O   UNL A   1      44.297  20.105  24.221  1.00  0.00    -0.744 OA
ENDBRANCH  84  88
ENDBRANCH  57  81
BRANCH  69  92
ATOM     92  C   UNL A   1      45.285  29.896  28.427  1.00  0.00     0.023 A 
ATOM     93  C   UNL A   1      46.655  30.179  28.363  1.00  0.00     0.031 A 
ATOM     94  C   UNL A   1      44.433  30.608  27.573  1.00  0.00     0.131 A 
ATOM     95  C   UNL A   1      47.123  31.204  27.539  1.00  0.00     0.055 A 
ATOM     96  C   UNL A   1      44.910  31.586  26.692  1.00  0.00     0.041 A 
ATOM     97  F   UNL A   1      43.110  30.436  27.612  1.00  0.00    -0.206 F 
ATOM     98  C   UNL A   1      46.262  31.904  26.690  1.00  0.00     0.022 A 
BRANCH  95  99
ATOM     99  S   UNL A   1      48.830  31.772  27.704  1.00  0.00     0.124 S 
ATOM    100  O   UNL A   1      49.521  30.556  28.122  1.00  0.00    -0.237 OA
ATOM    101  O   UNL A   1      49.130  32.232  26.350  1.00  0.00    -0.237 OA
ATOM    102  O   UNL A   1      48.755  32.827  28.712  1.00  0.00    -0.744 OA
ENDBRANCH  95  99
ENDBRANCH  69  92
ENDBRANCH  43  44
ENDBRANCH  36  38
ENDBRANCH  35  36
ENDBRANCH  34  35
ENDBRANCH  33  34
ENDBRANCH  32  33
ENDBRANCH  31  32
ENDBRANCH   1  31
TORSDOF 23
ENDMDL
MODEL 2
REMARK VINA RESULT:     -10.7      3.808      7.487
REMARK SMILES CC1(C)S[C@@H]2[C@H]([NH2+]Cn3nnc4ccccc43)C(=O)N2[C@@H]1C(=O)OCCOCCOCCOC(=O)c1ccc(-c2c3nc(c(-c4cc(S(=O)(=O)[O-])ccc4F)c4ccc([nH]4)c(-c4cc(S(=O)(=O)[O-])ccc4F)c4nc(c(-c5cc(S(=O)(=O)[O-])ccc5F)c5ccc2[nH]5)C=C4)C=C3)cc1
REMARK SMILES IDX 28 1 27 2 26 3 25 4 24 5 22 6 23 7 21 8 1 9 2 10 3 11 4 12
REMARK SMILES IDX 5 13 20 14 6 15 18 16 19 17 7 18 8 21 9 22 10 23 17 24 11 25
REMARK SMILES IDX 12 26 16 27 13 28 15 29 14 30 29 31 30 32 31 33 32 34 33 35
REMARK SMILES IDX 34 36 35 37 36 38 37 39 98 40 38 41 97 42 39 43 40 44 41 45
REMARK SMILES IDX 91 46 42 47 96 48 90 49 92 50 43 51 95 52 89 53 88 54 44 56
REMARK SMILES IDX 76 57 56 58 75 59 57 60 60 61 74 62 93 63 58 64 59 65 73 67
REMARK SMILES IDX 94 68 61 69 45 70 46 71 54 72 47 73 53 74 55 75 52 76 48 77
REMARK SMILES IDX 49 78 50 79 51 80 77 81 78 82 86 83 79 84 85 85 87 86 84 87
REMARK SMILES IDX 80 88 81 89 82 90 83 91 62 92 63 93 71 94 64 95 70 96 72 97
REMARK SMILES IDX 69 98 65 99 66 100 67 101 68 102
REMARK H PARENT 7 19 7 20 92 55 60 66
REMARK Flexibility Score: inf
ROOT
ATOM      1  C   UNL A   1      34.190  33.576  27.978  1.00  0.00     0.188 C 
ENDROOT
BRANCH   1   2
ATOM      2  O   UNL A   1      34.360  32.171  27.924  1.00  0.00    -0.376 OA
BRANCH   2   3
ATOM      3  C   UNL A   1      33.382  31.395  27.247  1.00  0.00     0.202 C 
BRANCH   3   4
ATOM      4  C   UNL A   1      33.742  29.967  26.790  1.00  0.00     0.261 C 
BRANCH   4   5
ATOM      5  O   UNL A   1      33.690  29.697  25.352  1.00  0.00    -0.462 OA
BRANCH   5   6
ATOM      6  C   UNL A   1      33.189  28.474  24.998  1.00  0.00     0.330 C 
ATOM      7  O   UNL A   1      33.255  27.516  25.762  1.00  0.00    -0.250 OA
BRANCH   6   8
ATOM      8  C   UNL A   1      32.506  28.360  23.569  1.00  0.00     0.212 C 
ATOM      9  C   UNL A   1      30.668  29.680  24.872  1.00  0.00     0.026 C 
ATOM     10  C   UNL A   1      31.045  28.938  23.582  1.00  0.00     0.044 C 
ATOM     11  C   UNL A   1      30.693  29.706  22.287  1.00  0.00     0.026 C 
ATOM     12  S   UNL A   1      29.900  27.469  23.448  1.00  0.00    -0.121 SA
ATOM     13  C   UNL A   1      31.078  26.660  22.341  1.00  0.00     0.213 C 
ATOM     14  N   UNL A   1      32.364  27.057  22.923  1.00  0.00    -0.304 N 
ATOM     15  C   UNL A   1      31.675  25.215  22.351  1.00  0.00     0.307 C 
ATOM     16  C   UNL A   1      33.019  26.098  22.252  1.00  0.00     0.285 C 
ATOM     17  O   UNL A   1      34.142  25.963  21.827  1.00  0.00    -0.268 OA
BRANCH  15  18
ATOM     18  N   UNL A   1      31.693  24.359  23.591  1.00  0.00    -0.315 N 
ATOM     19  H   UNL A   1      30.839  24.521  24.125  1.00  0.00     0.348 HD
ATOM     20  H   UNL A   1      32.505  24.603  24.156  1.00  0.00     0.348 HD
BRANCH  18  21
ATOM     21  C   UNL A   1      31.771  22.961  23.225  1.00  0.00     0.415 C 
BRANCH  21  22
ATOM     22  N   UNL A   1      32.592  22.089  24.046  1.00  0.00    -0.194 N 
ATOM     23  N   UNL A   1      32.158  21.339  25.070  1.00  0.00    -0.061 NA
ATOM     24  C   UNL A   1      33.964  22.190  24.013  1.00  0.00     0.095 A 
ATOM     25  N   UNL A   1      33.239  20.927  25.731  1.00  0.00    -0.130 NA
ATOM     26  C   UNL A   1      34.351  21.457  25.118  1.00  0.00     0.113 A 
ATOM     27  C   UNL A   1      34.855  22.883  23.180  1.00  0.00     0.030 A 
ATOM     28  C   UNL A   1      35.714  21.391  25.433  1.00  0.00     0.032 A 
ATOM     29  C   UNL A   1      36.207  22.810  23.507  1.00  0.00     0.002 A 
ATOM     30  C   UNL A   1      36.632  22.077  24.617  1.00  0.00     0.002 A 
ENDBRANCH  21  22
ENDBRANCH  18  21
ENDBRANCH  15  18
ENDBRANCH   6   8
ENDBRANCH   5   6
ENDBRANCH   4   5
ENDBRANCH   3   4
ENDBRANCH   2   3
ENDBRANCH   1   2
BRANCH   1  31
ATOM     31  C   UNL A   1      33.267  34.136  29.057  1.00  0.00     0.188 C 
BRANCH  31  32
ATOM     32  O   UNL A   1      32.783  35.434  28.842  1.00  0.00    -0.376 OA
BRANCH  32  33
ATOM     33  C   UNL A   1      32.992  36.370  29.883  1.00  0.00     0.202 C 
BRANCH  33  34
ATOM     34  C   UNL A   1      32.619  36.116  31.377  1.00  0.00     0.261 C 
BRANCH  34  35
ATOM     35  O   UNL A   1      33.671  35.717  32.289  1.00  0.00    -0.460 OA
BRANCH  35  36
ATOM     36  C   UNL A   1      33.691  34.438  32.772  1.00  0.00     0.338 C 
ATOM     37  O   UNL A   1      32.737  33.851  33.255  1.00  0.00    -0.246 OA
BRANCH  36  38
ATOM     38  C   UNL A   1      34.959  33.765  32.288  1.00  0.00     0.060 A 
ATOM     39  C   UNL A   1      35.527  32.640  32.900  1.00  0.00     0.016 A 
ATOM     40  C   UNL A   1      35.745  34.492  31.382  1.00  0.00     0.016 A 
ATOM     41  C   UNL A   1      36.889  32.316  32.676  1.00  0.00     0.010 A 
ATOM     42  C   UNL A   1      37.106  34.186  31.189  1.00  0.00     0.010 A 
ATOM     43  C   UNL A   1      37.714  33.111  31.851  1.00  0.00    -0.014 A 
BRANCH  43  44
ATOM     44  C   UNL A   1      39.001  32.598  31.290  1.00  0.00     0.031 A 
ATOM     45  C   UNL A   1      38.782  31.293  30.662  1.00  0.00     0.074 A 
ATOM     46  C   UNL A   1      40.289  33.036  31.289  1.00  0.00     0.049 A 
ATOM     47  N   UNL A   1      39.106  30.197  31.264  1.00  0.00    -0.248 NA
ATOM     48  C   UNL A   1      37.954  31.124  29.473  1.00  0.00     0.031 C 
ATOM     49  C   UNL A   1      40.878  33.986  32.203  1.00  0.00     0.029 A 
ATOM     50  N   UNL A   1      41.388  32.699  30.492  1.00  0.00    -0.354 N 
ATOM     51  C   UNL A   1      38.797  29.197  30.374  1.00  0.00     0.074 A 
ATOM     52  C   UNL A   1      37.896  29.791  29.415  1.00  0.00     0.031 C 
ATOM     53  C   UNL A   1      42.134  34.297  31.811  1.00  0.00     0.029 A 
ATOM     54  C   UNL A   1      42.462  33.610  30.567  1.00  0.00     0.049 A 
ATOM     55  H   UNL A   1      41.410  31.893  29.927  1.00  0.00     0.167 HD
ATOM     56  C   UNL A   1      39.583  28.087  30.339  1.00  0.00     0.034 A 
ATOM     57  C   UNL A   1      43.789  33.524  30.252  1.00  0.00     0.034 A 
ATOM     58  C   UNL A   1      40.442  28.014  31.498  1.00  0.00     0.049 A 
ATOM     59  C   UNL A   1      44.216  32.156  30.578  1.00  0.00     0.074 A 
ATOM     60  C   UNL A   1      40.325  27.622  32.815  1.00  0.00     0.029 A 
ATOM     61  N   UNL A   1      41.571  28.787  31.412  1.00  0.00    -0.354 N 
ATOM     62  N   UNL A   1      44.401  31.741  31.797  1.00  0.00    -0.248 NA
ATOM     63  C   UNL A   1      44.093  31.123  29.554  1.00  0.00     0.031 C 
ATOM     64  C   UNL A   1      41.393  28.240  33.528  1.00  0.00     0.029 A 
ATOM     65  C   UNL A   1      42.176  28.958  32.630  1.00  0.00     0.049 A 
ATOM     66  H   UNL A   1      41.910  29.174  30.572  1.00  0.00     0.167 HD
ATOM     67  C   UNL A   1      43.919  30.453  31.753  1.00  0.00     0.074 A 
ATOM     68  C   UNL A   1      43.914  30.067  30.347  1.00  0.00     0.031 C 
ATOM     69  C   UNL A   1      43.232  29.930  32.801  1.00  0.00     0.034 A 
BRANCH  56  70
ATOM     70  C   UNL A   1      39.910  27.362  29.061  1.00  0.00     0.023 A 
ATOM     71  C   UNL A   1      40.866  27.834  28.141  1.00  0.00     0.031 A 
ATOM     72  C   UNL A   1      39.437  26.056  28.841  1.00  0.00     0.131 A 
ATOM     73  C   UNL A   1      41.283  27.068  27.051  1.00  0.00     0.055 A 
ATOM     74  C   UNL A   1      39.906  25.258  27.789  1.00  0.00     0.041 A 
ATOM     75  F   UNL A   1      38.540  25.497  29.669  1.00  0.00    -0.206 F 
ATOM     76  C   UNL A   1      40.831  25.764  26.883  1.00  0.00     0.022 A 
BRANCH  73  77
ATOM     77  S   UNL A   1      42.431  27.770  25.836  1.00  0.00     0.124 S 
ATOM     78  O   UNL A   1      42.579  26.672  24.888  1.00  0.00    -0.237 OA
ATOM     79  O   UNL A   1      41.677  28.926  25.357  1.00  0.00    -0.237 OA
ATOM     80  O   UNL A   1      43.614  28.092  26.630  1.00  0.00    -0.744 OA
ENDBRANCH  73  77
ENDBRANCH  56  70
BRANCH  57  81
ATOM     81  C   UNL A   1      44.458  34.231  29.117  1.00  0.00     0.023 A 
ATOM     82  C   UNL A   1      44.151  33.937  27.783  1.00  0.00     0.031 A 
ATOM     83  C   UNL A   1      45.530  35.123  29.350  1.00  0.00     0.131 A 
ATOM     84  C   UNL A   1      44.951  34.447  26.744  1.00  0.00     0.055 A 
ATOM     85  C   UNL A   1      46.310  35.650  28.311  1.00  0.00     0.041 A 
ATOM     86  F   UNL A   1      45.862  35.475  30.602  1.00  0.00    -0.206 F 
ATOM     87  C   UNL A   1      46.032  35.296  26.997  1.00  0.00     0.022 A 
BRANCH  84  88
ATOM     88  S   UNL A   1      44.638  33.952  25.028  1.00  0.00     0.124 S 
ATOM     89  O   UNL A   1      44.649  32.493  25.117  1.00  0.00    -0.237 OA
ATOM     90  O   UNL A   1      43.334  34.557  24.785  1.00  0.00    -0.237 OA
ATOM     91  O   UNL A   1      45.763  34.533  24.302  1.00  0.00    -0.744 OA
ENDBRANCH  84  88
ENDBRANCH  57  81
BRANCH  69  92
ATOM     92  C   UNL A   1      43.508  30.449  34.180  1.00  0.00     0.023 A 
ATOM     93  C   UNL A   1      42.641  31.447  34.641  1.00  0.00     0.031 A 
ATOM     94  C   UNL A   1      44.630  30.150  34.965  1.00  0.00     0.131 A 
ATOM     95  C   UNL A   1      42.951  32.171  35.793  1.00  0.00     0.055 A 
ATOM     96  C   UNL A   1      44.904  30.824  36.159  1.00  0.00     0.041 A 
ATOM     97  F   UNL A   1      45.533  29.250  34.568  1.00  0.00    -0.206 F 
ATOM     98  C   UNL A   1      44.071  31.860  36.567  1.00  0.00     0.022 A 
BRANCH  95  99
ATOM     99  S   UNL A   1      42.004  33.656  36.196  1.00  0.00     0.124 S 
ATOM    100  O   UNL A   1      42.369  33.887  37.590  1.00  0.00    -0.237 OA
ATOM    101  O   UNL A   1      42.535  34.624  35.238  1.00  0.00    -0.237 OA
ATOM    102  O   UNL A   1      40.616  33.262  35.969  1.00  0.00    -0.744 OA
ENDBRANCH  95  99
ENDBRANCH  69  92
ENDBRANCH  43  44
ENDBRANCH  36  38
ENDBRANCH  35  36
ENDBRANCH  34  35
ENDBRANCH  33  34
ENDBRANCH  32  33
ENDBRANCH  31  32
ENDBRANCH   1  31
TORSDOF 23
ENDMDL
MODEL 3
REMARK VINA RESULT:     -10.2      5.365     10.601
REMARK SMILES CC1(C)S[C@@H]2[C@H]([NH2+]Cn3nnc4ccccc43)C(=O)N2[C@@H]1C(=O)OCCOCCOCCOC(=O)c1ccc(-c2c3nc(c(-c4cc(S(=O)(=O)[O-])ccc4F)c4ccc([nH]4)c(-c4cc(S(=O)(=O)[O-])ccc4F)c4nc(c(-c5cc(S(=O)(=O)[O-])ccc5F)c5ccc2[nH]5)C=C4)C=C3)cc1
REMARK SMILES IDX 28 1 27 2 26 3 25 4 24 5 22 6 23 7 21 8 1 9 2 10 3 11 4 12
REMARK SMILES IDX 5 13 20 14 6 15 18 16 19 17 7 18 8 21 9 22 10 23 17 24 11 25
REMARK SMILES IDX 12 26 16 27 13 28 15 29 14 30 29 31 30 32 31 33 32 34 33 35
REMARK SMILES IDX 34 36 35 37 36 38 37 39 98 40 38 41 97 42 39 43 40 44 41 45
REMARK SMILES IDX 91 46 42 47 96 48 90 49 92 50 43 51 95 52 89 53 88 54 44 56
REMARK SMILES IDX 76 57 56 58 75 59 57 60 60 61 74 62 93 63 58 64 59 65 73 67
REMARK SMILES IDX 94 68 61 69 45 70 46 71 54 72 47 73 53 74 55 75 52 76 48 77
REMARK SMILES IDX 49 78 50 79 51 80 77 81 78 82 86 83 79 84 85 85 87 86 84 87
REMARK SMILES IDX 80 88 81 89 82 90 83 91 62 92 63 93 71 94 64 95 70 96 72 97
REMARK SMILES IDX 69 98 65 99 66 100 67 101 68 102
REMARK H PARENT 7 19 7 20 92 55 60 66
REMARK Flexibility Score: inf
ROOT
ATOM      1  C   UNL A   1      37.882  31.993  35.092  1.00  0.00     0.188 C 
ENDROOT
BRANCH   1   2
ATOM      2  O   UNL A   1      37.087  32.308  36.221  1.00  0.00    -0.376 OA
BRANCH   2   3
ATOM      3  C   UNL A   1      37.446  33.432  37.010  1.00  0.00     0.202 C 
BRANCH   3   4
ATOM      4  C   UNL A   1      38.919  33.890  37.039  1.00  0.00     0.261 C 
BRANCH   4   5
ATOM      5  O   UNL A   1      39.810  33.199  37.973  1.00  0.00    -0.462 OA
BRANCH   5   6
ATOM      6  C   UNL A   1      40.072  33.862  39.141  1.00  0.00     0.330 C 
ATOM      7  O   UNL A   1      39.308  33.784  40.099  1.00  0.00    -0.250 OA
BRANCH   6   8
ATOM      8  C   UNL A   1      41.409  34.715  39.204  1.00  0.00     0.212 C 
ATOM      9  C   UNL A   1      39.635  36.624  39.039  1.00  0.00     0.026 C 
ATOM     10  C   UNL A   1      41.123  36.249  39.017  1.00  0.00     0.044 C 
ATOM     11  C   UNL A   1      42.011  37.138  39.917  1.00  0.00     0.026 C 
ATOM     12  S   UNL A   1      41.770  36.698  37.323  1.00  0.00    -0.121 SA
ATOM     13  C   UNL A   1      43.143  35.545  37.549  1.00  0.00     0.213 C 
ATOM     14  N   UNL A   1      42.500  34.443  38.271  1.00  0.00    -0.304 N 
ATOM     15  C   UNL A   1      43.710  34.423  36.618  1.00  0.00     0.307 C 
ATOM     16  C   UNL A   1      43.510  33.606  37.992  1.00  0.00     0.285 C 
ATOM     17  O   UNL A   1      43.994  32.638  38.528  1.00  0.00    -0.268 OA
BRANCH  15  18
ATOM     18  N   UNL A   1      42.895  33.808  35.511  1.00  0.00    -0.315 N 
ATOM     19  H   UNL A   1      42.008  33.475  35.890  1.00  0.00     0.348 HD
ATOM     20  H   UNL A   1      43.412  33.027  35.108  1.00  0.00     0.348 HD
BRANCH  18  21
ATOM     21  C   UNL A   1      42.639  34.791  34.480  1.00  0.00     0.415 C 
BRANCH  21  22
ATOM     22  N   UNL A   1      41.795  34.402  33.365  1.00  0.00    -0.194 N 
ATOM     23  N   UNL A   1      40.596  33.805  33.459  1.00  0.00    -0.061 NA
ATOM     24  C   UNL A   1      42.304  34.357  32.088  1.00  0.00     0.095 A 
ATOM     25  N   UNL A   1      40.292  33.359  32.241  1.00  0.00    -0.130 NA
ATOM     26  C   UNL A   1      41.332  33.662  31.395  1.00  0.00     0.113 A 
ATOM     27  C   UNL A   1      43.511  34.795  31.521  1.00  0.00     0.030 A 
ATOM     28  C   UNL A   1      41.553  33.375  30.042  1.00  0.00     0.032 A 
ATOM     29  C   UNL A   1      43.716  34.499  30.175  1.00  0.00     0.002 A 
ATOM     30  C   UNL A   1      42.754  33.799  29.445  1.00  0.00     0.002 A 
ENDBRANCH  21  22
ENDBRANCH  18  21
ENDBRANCH  15  18
ENDBRANCH   6   8
ENDBRANCH   5   6
ENDBRANCH   4   5
ENDBRANCH   3   4
ENDBRANCH   2   3
ENDBRANCH   1   2
BRANCH   1  31
ATOM     31  C   UNL A   1      37.176  31.852  33.746  1.00  0.00     0.188 C 
BRANCH  31  32
ATOM     32  O   UNL A   1      36.796  33.047  33.121  1.00  0.00    -0.376 OA
BRANCH  32  33
ATOM     33  C   UNL A   1      35.416  33.364  33.139  1.00  0.00     0.202 C 
BRANCH  33  34
ATOM     34  C   UNL A   1      34.542  33.543  31.859  1.00  0.00     0.261 C 
BRANCH  34  35
ATOM     35  O   UNL A   1      34.332  32.393  31.004  1.00  0.00    -0.460 OA
BRANCH  35  36
ATOM     36  C   UNL A   1      34.897  32.371  29.758  1.00  0.00     0.338 C 
ATOM     37  O   UNL A   1      34.578  33.091  28.827  1.00  0.00    -0.246 OA
BRANCH  36  38
ATOM     38  C   UNL A   1      36.188  31.583  29.834  1.00  0.00     0.060 A 
ATOM     39  C   UNL A   1      37.461  32.167  29.796  1.00  0.00     0.016 A 
ATOM     40  C   UNL A   1      36.089  30.200  29.622  1.00  0.00     0.016 A 
ATOM     41  C   UNL A   1      38.595  31.387  29.454  1.00  0.00     0.010 A 
ATOM     42  C   UNL A   1      37.213  29.437  29.251  1.00  0.00     0.010 A 
ATOM     43  C   UNL A   1      38.483  30.017  29.132  1.00  0.00    -0.014 A 
BRANCH  43  44
ATOM     44  C   UNL A   1      39.662  29.100  29.156  1.00  0.00     0.031 A 
ATOM     45  C   UNL A   1      40.046  28.824  30.543  1.00  0.00     0.074 A 
ATOM     46  C   UNL A   1      40.460  28.537  28.209  1.00  0.00     0.049 A 
ATOM     47  N   UNL A   1      41.047  29.428  31.093  1.00  0.00    -0.248 NA
ATOM     48  C   UNL A   1      39.188  28.086  31.462  1.00  0.00     0.031 C 
ATOM     49  C   UNL A   1      40.635  28.989  26.849  1.00  0.00     0.029 A 
ATOM     50  N   UNL A   1      41.336  27.448  28.254  1.00  0.00    -0.354 N 
ATOM     51  C   UNL A   1      41.131  28.898  32.359  1.00  0.00     0.074 A 
ATOM     52  C   UNL A   1      39.853  28.272  32.606  1.00  0.00     0.031 C 
ATOM     53  C   UNL A   1      41.382  28.104  26.152  1.00  0.00     0.029 A 
ATOM     54  C   UNL A   1      41.722  26.958  26.989  1.00  0.00     0.049 A 
ATOM     55  H   UNL A   1      41.657  27.057  29.099  1.00  0.00     0.167 HD
ATOM     56  C   UNL A   1      42.358  28.747  32.925  1.00  0.00     0.034 A 
ATOM     57  C   UNL A   1      42.760  26.180  26.561  1.00  0.00     0.034 A 
ATOM     58  C   UNL A   1      43.367  29.487  32.201  1.00  0.00     0.049 A 
ATOM     59  C   UNL A   1      43.926  26.537  27.381  1.00  0.00     0.074 A 
ATOM     60  C   UNL A   1      43.801  30.793  32.131  1.00  0.00     0.029 A 
ATOM     61  N   UNL A   1      43.833  28.852  31.079  1.00  0.00    -0.354 N 
ATOM     62  N   UNL A   1      44.592  27.643  27.225  1.00  0.00    -0.248 NA
ATOM     63  C   UNL A   1      44.144  25.820  28.634  1.00  0.00     0.031 C 
ATOM     64  C   UNL A   1      44.493  30.934  30.893  1.00  0.00     0.029 A 
ATOM     65  C   UNL A   1      44.517  29.702  30.250  1.00  0.00     0.049 A 
ATOM     66  H   UNL A   1      43.693  27.896  30.890  1.00  0.00     0.167 HD
ATOM     67  C   UNL A   1      44.895  27.996  28.521  1.00  0.00     0.074 A 
ATOM     68  C   UNL A   1      44.765  26.782  29.316  1.00  0.00     0.031 C 
ATOM     69  C   UNL A   1      44.878  29.297  28.910  1.00  0.00     0.034 A 
BRANCH  56  70
ATOM     70  C   UNL A   1      42.710  27.578  33.804  1.00  0.00     0.023 A 
ATOM     71  C   UNL A   1      43.347  26.422  33.316  1.00  0.00     0.031 A 
ATOM     72  C   UNL A   1      42.624  27.686  35.204  1.00  0.00     0.131 A 
ATOM     73  C   UNL A   1      43.822  25.423  34.168  1.00  0.00     0.055 A 
ATOM     74  C   UNL A   1      43.161  26.721  36.064  1.00  0.00     0.041 A 
ATOM     75  F   UNL A   1      42.055  28.758  35.780  1.00  0.00    -0.206 F 
ATOM     76  C   UNL A   1      43.762  25.577  35.548  1.00  0.00     0.022 A 
BRANCH  73  77
ATOM     77  S   UNL A   1      44.532  23.904  33.477  1.00  0.00     0.124 S 
ATOM     78  O   UNL A   1      45.651  23.655  34.379  1.00  0.00    -0.237 OA
ATOM     79  O   UNL A   1      43.407  22.980  33.590  1.00  0.00    -0.237 OA
ATOM     80  O   UNL A   1      44.885  24.282  32.112  1.00  0.00    -0.744 OA
ENDBRANCH  73  77
ENDBRANCH  56  70
BRANCH  57  81
ATOM     81  C   UNL A   1      42.641  24.777  26.058  1.00  0.00     0.023 A 
ATOM     82  C   UNL A   1      41.610  23.928  26.479  1.00  0.00     0.031 A 
ATOM     83  C   UNL A   1      43.651  24.209  25.247  1.00  0.00     0.131 A 
ATOM     84  C   UNL A   1      41.653  22.557  26.171  1.00  0.00     0.055 A 
ATOM     85  C   UNL A   1      43.677  22.846  24.919  1.00  0.00     0.041 A 
ATOM     86  F   UNL A   1      44.655  24.969  24.780  1.00  0.00    -0.206 F 
ATOM     87  C   UNL A   1      42.681  22.007  25.400  1.00  0.00     0.022 A 
BRANCH  84  88
ATOM     88  S   UNL A   1      40.392  21.435  26.835  1.00  0.00     0.124 S 
ATOM     89  O   UNL A   1      40.759  21.354  28.248  1.00  0.00    -0.237 OA
ATOM     90  O   UNL A   1      39.167  22.171  26.546  1.00  0.00    -0.237 OA
ATOM     91  O   UNL A   1      40.601  20.207  26.074  1.00  0.00    -0.744 OA
ENDBRANCH  84  88
ENDBRANCH  57  81
BRANCH  69  92
ATOM     92  C   UNL A   1      45.148  30.363  27.890  1.00  0.00     0.023 A 
ATOM     93  C   UNL A   1      46.495  30.669  27.669  1.00  0.00     0.031 A 
ATOM     94  C   UNL A   1      44.186  31.177  27.275  1.00  0.00     0.131 A 
ATOM     95  C   UNL A   1      46.848  31.804  26.937  1.00  0.00     0.055 A 
ATOM     96  C   UNL A   1      44.538  32.272  26.480  1.00  0.00     0.041 A 
ATOM     97  F   UNL A   1      42.882  30.984  27.480  1.00  0.00    -0.206 F 
ATOM     98  C   UNL A   1      45.879  32.604  26.327  1.00  0.00     0.022 A 
BRANCH  95  99
ATOM     99  S   UNL A   1      48.566  32.364  26.931  1.00  0.00     0.124 S 
ATOM    100  O   UNL A   1      48.742  32.835  28.300  1.00  0.00    -0.237 OA
ATOM    101  O   UNL A   1      49.284  31.138  26.588  1.00  0.00    -0.237 OA
ATOM    102  O   UNL A   1      48.594  33.402  25.903  1.00  0.00    -0.744 OA
ENDBRANCH  95  99
ENDBRANCH  69  92
ENDBRANCH  43  44
ENDBRANCH  36  38
ENDBRANCH  35  36
ENDBRANCH  34  35
ENDBRANCH  33  34
ENDBRANCH  32  33
ENDBRANCH  31  32
ENDBRANCH   1  31
TORSDOF 23
ENDMDL
