MODEL 1
REMARK VINA RESULT:     -10.0      0.000      0.000
REMARK SMILES CCC[NH2+]CC(=O)N1CCC(CC(=O)OCCOCCOCCOC(=O)c2ccc(-c3c4nc(c(-c5cc(S(=O)(=O)[O-])ccc5F)c5ccc([nH]5)c(-c5cc(S(=O)(=O)[O-])ccc5F)c5nc(c(-c6cc(S(=O)(=O)[O-])ccc6F)c6ccc3[nH]6)C=C5)C=C4)cc2)CC1
REMARK SMILES IDX 19 1 18 2 17 3 16 4 15 5 13 6 14 7 12 8 11 9 6 10 7 11 8 12
REMARK SMILES IDX 9 13 91 14 10 15 90 16 5 17 4 18 3 21 2 22 1 23 20 24 21 25
REMARK SMILES IDX 22 26 23 27 24 28 25 29 26 30 27 31 28 32 89 33 29 34 88 35
REMARK SMILES IDX 30 36 31 37 32 38 82 39 33 40 87 41 81 42 83 43 34 44 86 45
REMARK SMILES IDX 80 46 79 47 35 49 67 50 47 51 66 52 48 53 51 54 65 55 84 56
REMARK SMILES IDX 49 57 50 58 64 60 85 61 52 62 36 63 37 64 45 65 38 66 44 67
REMARK SMILES IDX 46 68 43 69 39 70 40 71 41 72 42 73 68 74 69 75 77 76 70 77
REMARK SMILES IDX 76 78 78 79 75 80 71 81 72 82 73 83 74 84 53 85 54 86 62 87
REMARK SMILES IDX 55 88 61 89 63 90 60 91 56 92 57 93 58 94 59 95
REMARK H PARENT 4 19 4 20 83 48 51 59
REMARK Flexibility Score: inf
ROOT
ATOM      1  C   UNL A   1      33.273  32.817  27.759  1.00  0.00     0.188 C 
ENDROOT
BRANCH   1   2
ATOM      2  O   UNL A   1      31.959  33.010  27.242  1.00  0.00    -0.376 OA
BRANCH   2   3
ATOM      3  C   UNL A   1      31.379  31.908  26.546  1.00  0.00     0.202 C 
BRANCH   3   4
ATOM      4  C   UNL A   1      32.303  30.705  26.315  1.00  0.00     0.261 C 
BRANCH   4   5
ATOM      5  O   UNL A   1      32.300  29.771  27.414  1.00  0.00    -0.463 OA
BRANCH   5   6
ATOM      6  C   UNL A   1      31.632  28.610  27.198  1.00  0.00     0.306 C 
ATOM      7  O   UNL A   1      31.156  27.904  28.082  1.00  0.00    -0.252 OA
BRANCH   6   8
ATOM      8  C   UNL A   1      31.422  28.282  25.733  1.00  0.00     0.126 C 
BRANCH   8   9
ATOM      9  C   UNL A   1      31.987  26.978  25.146  1.00  0.00     0.003 C 
ATOM     10  C   UNL A   1      33.174  23.165  26.383  1.00  0.00     0.277 C 
ATOM     11  O   UNL A   1      34.033  23.345  27.255  1.00  0.00    -0.268 OA
ATOM     12  N   UNL A   1      32.819  24.198  25.525  1.00  0.00    -0.338 N 
ATOM     13  C   UNL A   1      33.802  25.230  25.227  1.00  0.00     0.120 C 
ATOM     14  C   UNL A   1      31.488  24.462  25.002  1.00  0.00     0.120 C 
ATOM     15  C   UNL A   1      33.354  26.598  25.732  1.00  0.00     0.026 C 
ATOM     16  C   UNL A   1      30.982  25.842  25.429  1.00  0.00     0.026 C 
BRANCH  10  17
ATOM     17  C   UNL A   1      32.690  21.725  26.100  1.00  0.00     0.362 C 
BRANCH  17  18
ATOM     18  N   UNL A   1      33.603  20.866  25.332  1.00  0.00    -0.338 N 
ATOM     19  H   UNL A   1      33.938  21.384  24.519  1.00  0.00     0.346 HD
ATOM     20  H   UNL A   1      34.379  20.601  25.940  1.00  0.00     0.346 HD
BRANCH  18  21
ATOM     21  C   UNL A   1      32.942  19.644  24.876  1.00  0.00     0.260 C 
BRANCH  21  22
ATOM     22  C   UNL A   1      32.646  19.570  23.369  1.00  0.00     0.058 C 
ATOM     23  C   UNL A   1      32.287  18.202  22.804  1.00  0.00     0.010 C 
ENDBRANCH  21  22
ENDBRANCH  18  21
ENDBRANCH  17  18
ENDBRANCH  10  17
ENDBRANCH   8   9
ENDBRANCH   6   8
ENDBRANCH   5   6
ENDBRANCH   4   5
ENDBRANCH   3   4
ENDBRANCH   2   3
ENDBRANCH   1   2
BRANCH   1  24
ATOM     24  C   UNL A   1      33.867  34.003  28.519  1.00  0.00     0.188 C 
BRANCH  24  25
ATOM     25  O   UNL A   1      33.157  34.408  29.686  1.00  0.00    -0.376 OA
BRANCH  25  26
ATOM     26  C   UNL A   1      33.929  35.127  30.656  1.00  0.00     0.202 C 
BRANCH  26  27
ATOM     27  C   UNL A   1      34.345  34.345  31.921  1.00  0.00     0.261 C 
BRANCH  27  28
ATOM     28  O   UNL A   1      34.841  33.008  31.695  1.00  0.00    -0.460 OA
BRANCH  28  29
ATOM     29  C   UNL A   1      35.707  32.488  32.597  1.00  0.00     0.338 C 
ATOM     30  O   UNL A   1      35.556  32.458  33.807  1.00  0.00    -0.246 OA
BRANCH  29  31
ATOM     31  C   UNL A   1      36.735  31.700  31.860  1.00  0.00     0.060 A 
ATOM     32  C   UNL A   1      37.624  30.908  32.603  1.00  0.00     0.016 A 
ATOM     33  C   UNL A   1      36.784  31.671  30.462  1.00  0.00     0.016 A 
ATOM     34  C   UNL A   1      38.588  30.128  31.958  1.00  0.00     0.010 A 
ATOM     35  C   UNL A   1      37.757  30.899  29.817  1.00  0.00     0.010 A 
ATOM     36  C   UNL A   1      38.688  30.150  30.561  1.00  0.00    -0.014 A 
BRANCH  36  37
ATOM     37  C   UNL A   1      39.897  29.608  29.886  1.00  0.00     0.031 A 
ATOM     38  C   UNL A   1      41.087  30.522  29.748  1.00  0.00     0.074 A 
ATOM     39  C   UNL A   1      39.961  28.351  29.409  1.00  0.00     0.049 A 
ATOM     40  N   UNL A   1      42.213  30.339  29.109  1.00  0.00    -0.248 NA
ATOM     41  C   UNL A   1      40.980  31.826  30.421  1.00  0.00     0.031 C 
ATOM     42  C   UNL A   1      38.912  27.342  29.531  1.00  0.00     0.029 A 
ATOM     43  N   UNL A   1      40.960  27.715  28.709  1.00  0.00    -0.354 N 
ATOM     44  C   UNL A   1      42.944  31.509  29.292  1.00  0.00     0.074 A 
ATOM     45  C   UNL A   1      42.118  32.404  30.073  1.00  0.00     0.031 C 
ATOM     46  C   UNL A   1      39.317  26.218  28.911  1.00  0.00     0.029 A 
ATOM     47  C   UNL A   1      40.632  26.440  28.309  1.00  0.00     0.049 A 
ATOM     48  H   UNL A   1      41.830  28.133  28.514  1.00  0.00     0.167 HD
ATOM     49  C   UNL A   1      44.191  31.810  28.856  1.00  0.00     0.034 A 
ATOM     50  C   UNL A   1      41.300  25.571  27.519  1.00  0.00     0.034 A 
ATOM     51  C   UNL A   1      45.003  30.920  28.064  1.00  0.00     0.049 A 
ATOM     52  C   UNL A   1      42.645  25.967  26.949  1.00  0.00     0.074 A 
ATOM     53  C   UNL A   1      46.278  31.129  27.569  1.00  0.00     0.029 A 
ATOM     54  N   UNL A   1      44.615  29.656  27.640  1.00  0.00    -0.354 N 
ATOM     55  N   UNL A   1      43.322  27.080  27.119  1.00  0.00    -0.248 NA
ATOM     56  C   UNL A   1      43.316  24.988  26.081  1.00  0.00     0.031 C 
ATOM     57  C   UNL A   1      46.631  30.027  26.784  1.00  0.00     0.029 A 
ATOM     58  C   UNL A   1      45.613  29.090  26.861  1.00  0.00     0.049 A 
ATOM     59  H   UNL A   1      43.757  29.225  27.858  1.00  0.00     0.167 HD
ATOM     60  C   UNL A   1      44.514  26.914  26.412  1.00  0.00     0.074 A 
ATOM     61  C   UNL A   1      44.465  25.594  25.820  1.00  0.00     0.031 C 
ATOM     62  C   UNL A   1      45.559  27.770  26.274  1.00  0.00     0.034 A 
BRANCH  49  63
ATOM     63  C   UNL A   1      44.719  33.186  29.179  1.00  0.00     0.023 A 
ATOM     64  C   UNL A   1      44.565  34.265  28.289  1.00  0.00     0.031 A 
ATOM     65  C   UNL A   1      45.426  33.411  30.372  1.00  0.00     0.131 A 
ATOM     66  C   UNL A   1      45.177  35.495  28.572  1.00  0.00     0.055 A 
ATOM     67  C   UNL A   1      45.958  34.662  30.688  1.00  0.00     0.041 A 
ATOM     68  F   UNL A   1      45.629  32.412  31.245  1.00  0.00    -0.206 F 
ATOM     69  C   UNL A   1      45.848  35.709  29.778  1.00  0.00     0.022 A 
BRANCH  66  70
ATOM     70  S   UNL A   1      45.214  36.760  27.273  1.00  0.00     0.124 S 
ATOM     71  O   UNL A   1      46.052  36.119  26.262  1.00  0.00    -0.237 OA
ATOM     72  O   UNL A   1      43.803  36.906  26.933  1.00  0.00    -0.237 OA
ATOM     73  O   UNL A   1      45.822  37.913  27.935  1.00  0.00    -0.744 OA
ENDBRANCH  66  70
ENDBRANCH  49  63
BRANCH  50  74
ATOM     74  C   UNL A   1      40.696  24.252  27.157  1.00  0.00     0.023 A 
ATOM     75  C   UNL A   1      39.500  24.173  26.425  1.00  0.00     0.031 A 
ATOM     76  C   UNL A   1      41.265  23.050  27.615  1.00  0.00     0.131 A 
ATOM     77  C   UNL A   1      38.887  22.927  26.216  1.00  0.00     0.055 A 
ATOM     78  C   UNL A   1      40.682  21.808  27.354  1.00  0.00     0.041 A 
ATOM     79  F   UNL A   1      42.402  23.066  28.329  1.00  0.00    -0.206 F 
ATOM     80  C   UNL A   1      39.477  21.743  26.662  1.00  0.00     0.022 A 
BRANCH  77  81
ATOM     81  S   UNL A   1      37.250  22.883  25.433  1.00  0.00     0.124 S 
ATOM     82  O   UNL A   1      36.558  21.892  26.250  1.00  0.00    -0.237 OA
ATOM     83  O   UNL A   1      36.804  24.264  25.584  1.00  0.00    -0.237 OA
ATOM     84  O   UNL A   1      37.539  22.470  24.061  1.00  0.00    -0.744 OA
ENDBRANCH  77  81
ENDBRANCH  50  74
BRANCH  62  85
ATOM     85  C   UNL A   1      46.768  27.284  25.511  1.00  0.00     0.023 A 
ATOM     86  C   UNL A   1      47.049  27.709  24.200  1.00  0.00     0.031 A 
ATOM     87  C   UNL A   1      47.663  26.382  26.116  1.00  0.00     0.131 A 
ATOM     88  C   UNL A   1      48.169  27.198  23.523  1.00  0.00     0.055 A 
ATOM     89  C   UNL A   1      48.805  25.922  25.459  1.00  0.00     0.041 A 
ATOM     90  F   UNL A   1      47.445  25.939  27.365  1.00  0.00    -0.206 F 
ATOM     91  C   UNL A   1      49.058  26.322  24.151  1.00  0.00     0.022 A 
BRANCH  88  92
ATOM     92  S   UNL A   1      48.408  27.629  21.776  1.00  0.00     0.124 S 
ATOM     93  O   UNL A   1      47.106  28.184  21.419  1.00  0.00    -0.237 OA
ATOM     94  O   UNL A   1      49.512  28.581  21.839  1.00  0.00    -0.237 OA
ATOM     95  O   UNL A   1      48.730  26.349  21.148  1.00  0.00    -0.744 OA
ENDBRANCH  88  92
ENDBRANCH  62  85
ENDBRANCH  36  37
ENDBRANCH  29  31
ENDBRANCH  28  29
ENDBRANCH  27  28
ENDBRANCH  26  27
ENDBRANCH  25  26
ENDBRANCH  24  25
ENDBRANCH   1  24
TORSDOF 25
ENDMDL
MODEL 2
REMARK VINA RESULT:      -9.8      4.731      9.116
REMARK SMILES CCC[NH2+]CC(=O)N1CCC(CC(=O)OCCOCCOCCOC(=O)c2ccc(-c3c4nc(c(-c5cc(S(=O)(=O)[O-])ccc5F)c5ccc([nH]5)c(-c5cc(S(=O)(=O)[O-])ccc5F)c5nc(c(-c6cc(S(=O)(=O)[O-])ccc6F)c6ccc3[nH]6)C=C5)C=C4)cc2)CC1
REMARK SMILES IDX 19 1 18 2 17 3 16 4 15 5 13 6 14 7 12 8 11 9 6 10 7 11 8 12
REMARK SMILES IDX 9 13 91 14 10 15 90 16 5 17 4 18 3 21 2 22 1 23 20 24 21 25
REMARK SMILES IDX 22 26 23 27 24 28 25 29 26 30 27 31 28 32 89 33 29 34 88 35
REMARK SMILES IDX 30 36 31 37 32 38 82 39 33 40 87 41 81 42 83 43 34 44 86 45
REMARK SMILES IDX 80 46 79 47 35 49 67 50 47 51 66 52 48 53 51 54 65 55 84 56
REMARK SMILES IDX 49 57 50 58 64 60 85 61 52 62 36 63 37 64 45 65 38 66 44 67
REMARK SMILES IDX 46 68 43 69 39 70 40 71 41 72 42 73 68 74 69 75 77 76 70 77
REMARK SMILES IDX 76 78 78 79 75 80 71 81 72 82 73 83 74 84 53 85 54 86 62 87
REMARK SMILES IDX 55 88 61 89 63 90 60 91 56 92 57 93 58 94 59 95
REMARK H PARENT 4 19 4 20 83 48 51 59
REMARK Flexibility Score: inf
ROOT
ATOM      1  C   UNL A   1      28.989  27.871  23.103  1.00  0.00     0.188 C 
ENDROOT
BRANCH   1   2
ATOM      2  O   UNL A   1      28.921  26.670  23.866  1.00  0.00    -0.376 OA
BRANCH   2   3
ATOM      3  C   UNL A   1      30.156  26.157  24.362  1.00  0.00     0.202 C 
BRANCH   3   4
ATOM      4  C   UNL A   1      31.052  25.462  23.328  1.00  0.00     0.261 C 
BRANCH   4   5
ATOM      5  O   UNL A   1      31.744  26.388  22.466  1.00  0.00    -0.463 OA
BRANCH   5   6
ATOM      6  C   UNL A   1      33.071  26.159  22.301  1.00  0.00     0.306 C 
ATOM      7  O   UNL A   1      33.673  26.276  21.239  1.00  0.00    -0.252 OA
BRANCH   6   8
ATOM      8  C   UNL A   1      33.805  25.829  23.587  1.00  0.00     0.126 C 
BRANCH   8   9
ATOM      9  C   UNL A   1      34.383  24.422  23.806  1.00  0.00     0.003 C 
ATOM     10  C   UNL A   1      33.648  20.979  26.063  1.00  0.00     0.277 C 
ATOM     11  O   UNL A   1      33.641  21.345  27.244  1.00  0.00    -0.268 OA
ATOM     12  N   UNL A   1      34.197  21.793  25.080  1.00  0.00    -0.338 N 
ATOM     13  C   UNL A   1      35.255  22.722  25.451  1.00  0.00     0.120 C 
ATOM     14  C   UNL A   1      33.712  21.943  23.717  1.00  0.00     0.120 C 
ATOM     15  C   UNL A   1      34.828  24.173  25.254  1.00  0.00     0.026 C 
ATOM     16  C   UNL A   1      33.301  23.388  23.425  1.00  0.00     0.026 C 
BRANCH  10  17
ATOM     17  C   UNL A   1      33.273  19.517  25.733  1.00  0.00     0.362 C 
BRANCH  17  18
ATOM     18  N   UNL A   1      34.282  18.729  25.010  1.00  0.00    -0.338 N 
ATOM     19  H   UNL A   1      34.969  19.365  24.603  1.00  0.00     0.346 HD
ATOM     20  H   UNL A   1      34.724  18.091  25.673  1.00  0.00     0.346 HD
BRANCH  18  21
ATOM     21  C   UNL A   1      33.682  17.933  23.941  1.00  0.00     0.260 C 
BRANCH  21  22
ATOM     22  C   UNL A   1      34.275  16.528  23.745  1.00  0.00     0.058 C 
ATOM     23  C   UNL A   1      34.819  15.832  24.986  1.00  0.00     0.010 C 
ENDBRANCH  21  22
ENDBRANCH  18  21
ENDBRANCH  17  18
ENDBRANCH  10  17
ENDBRANCH   8   9
ENDBRANCH   6   8
ENDBRANCH   5   6
ENDBRANCH   4   5
ENDBRANCH   3   4
ENDBRANCH   2   3
ENDBRANCH   1   2
BRANCH   1  24
ATOM     24  C   UNL A   1      29.671  29.055  23.789  1.00  0.00     0.188 C 
BRANCH  24  25
ATOM     25  O   UNL A   1      31.053  29.230  23.490  1.00  0.00    -0.376 OA
BRANCH  25  26
ATOM     26  C   UNL A   1      31.916  29.360  24.627  1.00  0.00     0.202 C 
BRANCH  26  27
ATOM     27  C   UNL A   1      31.512  30.415  25.679  1.00  0.00     0.261 C 
BRANCH  27  28
ATOM     28  O   UNL A   1      32.339  30.467  26.862  1.00  0.00    -0.460 OA
BRANCH  28  29
ATOM     29  C   UNL A   1      32.933  31.644  27.175  1.00  0.00     0.338 C 
ATOM     30  O   UNL A   1      32.393  32.737  27.208  1.00  0.00    -0.246 OA
BRANCH  29  31
ATOM     31  C   UNL A   1      34.275  31.353  27.751  1.00  0.00     0.060 A 
ATOM     32  C   UNL A   1      34.630  30.011  27.963  1.00  0.00     0.016 A 
ATOM     33  C   UNL A   1      35.206  32.364  28.007  1.00  0.00     0.016 A 
ATOM     34  C   UNL A   1      35.889  29.683  28.475  1.00  0.00     0.010 A 
ATOM     35  C   UNL A   1      36.462  32.036  28.530  1.00  0.00     0.010 A 
ATOM     36  C   UNL A   1      36.799  30.696  28.801  1.00  0.00    -0.014 A 
BRANCH  36  37
ATOM     37  C   UNL A   1      37.986  30.397  29.647  1.00  0.00     0.031 A 
ATOM     38  C   UNL A   1      39.018  29.453  29.088  1.00  0.00     0.074 A 
ATOM     39  C   UNL A   1      38.165  30.937  30.866  1.00  0.00     0.049 A 
ATOM     40  N   UNL A   1      40.079  28.941  29.656  1.00  0.00    -0.248 NA
ATOM     41  C   UNL A   1      38.813  29.023  27.695  1.00  0.00     0.031 C 
ATOM     42  C   UNL A   1      37.282  31.913  31.501  1.00  0.00     0.029 A 
ATOM     43  N   UNL A   1      39.155  30.724  31.797  1.00  0.00    -0.354 N 
ATOM     44  C   UNL A   1      40.662  28.120  28.696  1.00  0.00     0.074 A 
ATOM     45  C   UNL A   1      39.815  28.178  27.523  1.00  0.00     0.031 C 
ATOM     46  C   UNL A   1      37.762  32.201  32.725  1.00  0.00     0.029 A 
ATOM     47  C   UNL A   1      38.959  31.398  32.980  1.00  0.00     0.049 A 
ATOM     48  H   UNL A   1      39.932  30.144  31.630  1.00  0.00     0.167 HD
ATOM     49  C   UNL A   1      41.800  27.389  28.779  1.00  0.00     0.034 A 
ATOM     50  C   UNL A   1      39.644  31.344  34.143  1.00  0.00     0.034 A 
ATOM     51  C   UNL A   1      42.629  27.323  29.955  1.00  0.00     0.049 A 
ATOM     52  C   UNL A   1      40.850  30.437  34.253  1.00  0.00     0.074 A 
ATOM     53  C   UNL A   1      43.800  26.610  30.144  1.00  0.00     0.029 A 
ATOM     54  N   UNL A   1      42.370  27.984  31.149  1.00  0.00    -0.354 N 
ATOM     55  N   UNL A   1      41.386  29.655  33.344  1.00  0.00    -0.248 NA
ATOM     56  C   UNL A   1      41.545  30.405  35.549  1.00  0.00     0.031 C 
ATOM     57  C   UNL A   1      44.208  26.778  31.471  1.00  0.00     0.029 A 
ATOM     58  C   UNL A   1      43.341  27.667  32.087  1.00  0.00     0.049 A 
ATOM     59  H   UNL A   1      41.608  28.587  31.307  1.00  0.00     0.167 HD
ATOM     60  C   UNL A   1      42.501  29.074  33.947  1.00  0.00     0.074 A 
ATOM     61  C   UNL A   1      42.565  29.598  35.295  1.00  0.00     0.031 C 
ATOM     62  C   UNL A   1      43.399  28.195  33.431  1.00  0.00     0.034 A 
BRANCH  49  63
ATOM     63  C   UNL A   1      42.170  26.555  27.577  1.00  0.00     0.023 A 
ATOM     64  C   UNL A   1      41.812  25.198  27.480  1.00  0.00     0.031 A 
ATOM     65  C   UNL A   1      42.930  27.113  26.535  1.00  0.00     0.131 A 
ATOM     66  C   UNL A   1      42.281  24.428  26.405  1.00  0.00     0.055 A 
ATOM     67  C   UNL A   1      43.320  26.363  25.425  1.00  0.00     0.041 A 
ATOM     68  F   UNL A   1      43.325  28.395  26.588  1.00  0.00    -0.206 F 
ATOM     69  C   UNL A   1      43.009  25.007  25.363  1.00  0.00     0.022 A 
BRANCH  66  70
ATOM     70  S   UNL A   1      42.059  22.629  26.468  1.00  0.00     0.124 S 
ATOM     71  O   UNL A   1      42.907  22.267  27.602  1.00  0.00    -0.237 OA
ATOM     72  O   UNL A   1      40.621  22.496  26.678  1.00  0.00    -0.237 OA
ATOM     73  O   UNL A   1      42.546  22.178  25.166  1.00  0.00    -0.744 OA
ENDBRANCH  66  70
ENDBRANCH  49  63
BRANCH  50  74
ATOM     74  C   UNL A   1      39.187  32.125  35.334  1.00  0.00     0.023 A 
ATOM     75  C   UNL A   1      39.617  33.444  35.551  1.00  0.00     0.031 A 
ATOM     76  C   UNL A   1      38.378  31.528  36.318  1.00  0.00     0.131 A 
ATOM     77  C   UNL A   1      39.280  34.104  36.744  1.00  0.00     0.055 A 
ATOM     78  C   UNL A   1      37.997  32.210  37.475  1.00  0.00     0.041 A 
ATOM     79  F   UNL A   1      37.947  30.266  36.168  1.00  0.00    -0.206 F 
ATOM     80  C   UNL A   1      38.461  33.502  37.700  1.00  0.00     0.022 A 
BRANCH  77  81
ATOM     81  S   UNL A   1      40.010  35.733  37.073  1.00  0.00     0.124 S 
ATOM     82  O   UNL A   1      41.422  35.398  37.227  1.00  0.00    -0.237 OA
ATOM     83  O   UNL A   1      39.653  36.475  35.869  1.00  0.00    -0.237 OA
ATOM     84  O   UNL A   1      39.334  36.168  38.294  1.00  0.00    -0.744 OA
ENDBRANCH  77  81
ENDBRANCH  50  74
BRANCH  62  85
ATOM     85  C   UNL A   1      44.569  27.796  34.299  1.00  0.00     0.023 A 
ATOM     86  C   UNL A   1      45.777  28.516  34.310  1.00  0.00     0.031 A 
ATOM     87  C   UNL A   1      44.465  26.672  35.141  1.00  0.00     0.131 A 
ATOM     88  C   UNL A   1      46.845  28.079  35.110  1.00  0.00     0.055 A 
ATOM     89  C   UNL A   1      45.510  26.278  35.978  1.00  0.00     0.041 A 
ATOM     90  F   UNL A   1      43.337  25.945  35.172  1.00  0.00    -0.206 F 
ATOM     91  C   UNL A   1      46.713  26.976  35.957  1.00  0.00     0.022 A 
BRANCH  88  92
ATOM     92  S   UNL A   1      48.446  28.924  34.970  1.00  0.00     0.124 S 
ATOM     93  O   UNL A   1      49.378  27.802  34.930  1.00  0.00    -0.237 OA
ATOM     94  O   UNL A   1      48.295  29.673  33.726  1.00  0.00    -0.237 OA
ATOM     95  O   UNL A   1      48.509  29.741  36.180  1.00  0.00    -0.744 OA
ENDBRANCH  88  92
ENDBRANCH  62  85
ENDBRANCH  36  37
ENDBRANCH  29  31
ENDBRANCH  28  29
ENDBRANCH  27  28
ENDBRANCH  26  27
ENDBRANCH  25  26
ENDBRANCH  24  25
ENDBRANCH   1  24
TORSDOF 25
ENDMDL
MODEL 3
REMARK VINA RESULT:      -9.3      5.032      7.355
REMARK SMILES CCC[NH2+]CC(=O)N1CCC(CC(=O)OCCOCCOCCOC(=O)c2ccc(-c3c4nc(c(-c5cc(S(=O)(=O)[O-])ccc5F)c5ccc([nH]5)c(-c5cc(S(=O)(=O)[O-])ccc5F)c5nc(c(-c6cc(S(=O)(=O)[O-])ccc6F)c6ccc3[nH]6)C=C5)C=C4)cc2)CC1
REMARK SMILES IDX 19 1 18 2 17 3 16 4 15 5 13 6 14 7 12 8 11 9 6 10 7 11 8 12
REMARK SMILES IDX 9 13 91 14 10 15 90 16 5 17 4 18 3 21 2 22 1 23 20 24 21 25
REMARK SMILES IDX 22 26 23 27 24 28 25 29 26 30 27 31 28 32 89 33 29 34 88 35
REMARK SMILES IDX 30 36 31 37 32 38 82 39 33 40 87 41 81 42 83 43 34 44 86 45
REMARK SMILES IDX 80 46 79 47 35 49 67 50 47 51 66 52 48 53 51 54 65 55 84 56
REMARK SMILES IDX 49 57 50 58 64 60 85 61 52 62 36 63 37 64 45 65 38 66 44 67
REMARK SMILES IDX 46 68 43 69 39 70 40 71 41 72 42 73 68 74 69 75 77 76 70 77
REMARK SMILES IDX 76 78 78 79 75 80 71 81 72 82 73 83 74 84 53 85 54 86 62 87
REMARK SMILES IDX 55 88 61 89 63 90 60 91 56 92 57 93 58 94 59 95
REMARK H PARENT 4 19 4 20 83 48 51 59
REMARK Flexibility Score: inf
ROOT
ATOM      1  C   UNL A   1      33.594  28.520  27.063  1.00  0.00     0.188 C 
ENDROOT
BRANCH   1   2
ATOM      2  O   UNL A   1      33.771  27.757  25.874  1.00  0.00    -0.376 OA
BRANCH   2   3
ATOM      3  C   UNL A   1      33.861  28.488  24.652  1.00  0.00     0.202 C 
BRANCH   3   4
ATOM      4  C   UNL A   1      32.823  28.126  23.582  1.00  0.00     0.261 C 
BRANCH   4   5
ATOM      5  O   UNL A   1      31.476  28.074  24.094  1.00  0.00    -0.463 OA
BRANCH   5   6
ATOM      6  C   UNL A   1      30.565  27.466  23.294  1.00  0.00     0.306 C 
ATOM      7  O   UNL A   1      30.512  27.593  22.075  1.00  0.00    -0.252 OA
BRANCH   6   8
ATOM      8  C   UNL A   1      29.644  26.508  24.024  1.00  0.00     0.126 C 
BRANCH   8   9
ATOM      9  C   UNL A   1      30.064  25.044  24.236  1.00  0.00     0.003 C 
ATOM     10  C   UNL A   1      33.531  22.737  24.617  1.00  0.00     0.277 C 
ATOM     11  O   UNL A   1      34.198  22.959  23.599  1.00  0.00    -0.268 OA
ATOM     12  N   UNL A   1      32.182  23.068  24.657  1.00  0.00    -0.338 N 
ATOM     13  C   UNL A   1      31.429  23.091  23.412  1.00  0.00     0.120 C 
ATOM     14  C   UNL A   1      31.453  23.566  25.814  1.00  0.00     0.120 C 
ATOM     15  C   UNL A   1      30.918  24.491  23.086  1.00  0.00     0.026 C 
ATOM     16  C   UNL A   1      30.869  24.956  25.551  1.00  0.00     0.026 C 
BRANCH  10  17
ATOM     17  C   UNL A   1      34.146  21.867  25.736  1.00  0.00     0.362 C 
BRANCH  17  18
ATOM     18  N   UNL A   1      33.619  20.501  25.867  1.00  0.00    -0.338 N 
ATOM     19  H   UNL A   1      34.207  19.980  26.519  1.00  0.00     0.346 HD
ATOM     20  H   UNL A   1      32.660  20.561  26.211  1.00  0.00     0.346 HD
BRANCH  18  21
ATOM     21  C   UNL A   1      33.600  19.803  24.583  1.00  0.00     0.260 C 
BRANCH  21  22
ATOM     22  C   UNL A   1      34.397  18.489  24.528  1.00  0.00     0.058 C 
ATOM     23  C   UNL A   1      33.631  17.235  24.128  1.00  0.00     0.010 C 
ENDBRANCH  21  22
ENDBRANCH  18  21
ENDBRANCH  17  18
ENDBRANCH  10  17
ENDBRANCH   8   9
ENDBRANCH   6   8
ENDBRANCH   5   6
ENDBRANCH   4   5
ENDBRANCH   3   4
ENDBRANCH   2   3
ENDBRANCH   1   2
BRANCH   1  24
ATOM     24  C   UNL A   1      32.165  28.989  27.343  1.00  0.00     0.188 C 
BRANCH  24  25
ATOM     25  O   UNL A   1      31.813  30.257  26.798  1.00  0.00    -0.376 OA
BRANCH  25  26
ATOM     26  C   UNL A   1      32.829  31.265  26.881  1.00  0.00     0.202 C 
BRANCH  26  27
ATOM     27  C   UNL A   1      32.340  32.722  27.032  1.00  0.00     0.261 C 
BRANCH  27  28
ATOM     28  O   UNL A   1      33.372  33.710  27.245  1.00  0.00    -0.460 OA
BRANCH  28  29
ATOM     29  C   UNL A   1      33.462  34.286  28.467  1.00  0.00     0.338 C 
ATOM     30  O   UNL A   1      32.644  35.038  28.971  1.00  0.00    -0.246 OA
BRANCH  29  31
ATOM     31  C   UNL A   1      34.571  33.629  29.214  1.00  0.00     0.060 A 
ATOM     32  C   UNL A   1      35.887  34.023  28.930  1.00  0.00     0.016 A 
ATOM     33  C   UNL A   1      34.330  32.701  30.233  1.00  0.00     0.016 A 
ATOM     34  C   UNL A   1      36.962  33.459  29.624  1.00  0.00     0.010 A 
ATOM     35  C   UNL A   1      35.406  32.128  30.919  1.00  0.00     0.010 A 
ATOM     36  C   UNL A   1      36.731  32.476  30.595  1.00  0.00    -0.014 A 
BRANCH  36  37
ATOM     37  C   UNL A   1      37.851  31.634  31.094  1.00  0.00     0.031 A 
ATOM     38  C   UNL A   1      38.355  31.900  32.489  1.00  0.00     0.074 A 
ATOM     39  C   UNL A   1      38.413  30.660  30.355  1.00  0.00     0.049 A 
ATOM     40  N   UNL A   1      39.382  31.393  33.118  1.00  0.00    -0.248 NA
ATOM     41  C   UNL A   1      37.592  32.885  33.273  1.00  0.00     0.031 C 
ATOM     42  C   UNL A   1      37.984  30.252  29.020  1.00  0.00     0.029 A 
ATOM     43  N   UNL A   1      39.483  29.841  30.629  1.00  0.00    -0.354 N 
ATOM     44  C   UNL A   1      39.397  32.004  34.368  1.00  0.00     0.074 A 
ATOM     45  C   UNL A   1      38.296  32.943  34.391  1.00  0.00     0.031 C 
ATOM     46  C   UNL A   1      38.795  29.271  28.583  1.00  0.00     0.029 A 
ATOM     47  C   UNL A   1      39.829  29.011  29.587  1.00  0.00     0.049 A 
ATOM     48  H   UNL A   1      39.957  29.847  31.492  1.00  0.00     0.167 HD
ATOM     49  C   UNL A   1      40.245  31.799  35.405  1.00  0.00     0.034 A 
ATOM     50  C   UNL A   1      40.876  28.169  29.447  1.00  0.00     0.034 A 
ATOM     51  C   UNL A   1      41.350  30.874  35.370  1.00  0.00     0.049 A 
ATOM     52  C   UNL A   1      41.877  28.035  30.575  1.00  0.00     0.074 A 
ATOM     53  C   UNL A   1      42.270  30.595  36.365  1.00  0.00     0.029 A 
ATOM     54  N   UNL A   1      41.694  30.087  34.279  1.00  0.00    -0.354 N 
ATOM     55  N   UNL A   1      41.889  28.626  31.748  1.00  0.00    -0.248 NA
ATOM     56  C   UNL A   1      43.006  27.118  30.359  1.00  0.00     0.031 C 
ATOM     57  C   UNL A   1      43.213  29.698  35.852  1.00  0.00     0.029 A 
ATOM     58  C   UNL A   1      42.832  29.349  34.566  1.00  0.00     0.049 A 
ATOM     59  H   UNL A   1      41.204  30.059  33.426  1.00  0.00     0.167 HD
ATOM     60  C   UNL A   1      43.002  28.120  32.420  1.00  0.00     0.074 A 
ATOM     61  C   UNL A   1      43.632  27.173  31.525  1.00  0.00     0.031 C 
ATOM     62  C   UNL A   1      43.455  28.403  33.668  1.00  0.00     0.034 A 
BRANCH  49  63
ATOM     63  C   UNL A   1      40.039  32.644  36.639  1.00  0.00     0.023 A 
ATOM     64  C   UNL A   1      39.163  32.251  37.666  1.00  0.00     0.031 A 
ATOM     65  C   UNL A   1      40.693  33.881  36.766  1.00  0.00     0.131 A 
ATOM     66  C   UNL A   1      38.907  33.122  38.736  1.00  0.00     0.055 A 
ATOM     67  C   UNL A   1      40.500  34.704  37.876  1.00  0.00     0.041 A 
ATOM     68  F   UNL A   1      41.518  34.321  35.803  1.00  0.00    -0.206 F 
ATOM     69  C   UNL A   1      39.590  34.334  38.862  1.00  0.00     0.022 A 
BRANCH  66  70
ATOM     70  S   UNL A   1      37.555  32.718  39.875  1.00  0.00     0.124 S 
ATOM     71  O   UNL A   1      38.041  31.481  40.483  1.00  0.00    -0.237 OA
ATOM     72  O   UNL A   1      37.517  33.886  40.747  1.00  0.00    -0.237 OA
ATOM     73  O   UNL A   1      36.400  32.558  38.993  1.00  0.00    -0.744 OA
ENDBRANCH  66  70
ENDBRANCH  49  63
BRANCH  50  74
ATOM     74  C   UNL A   1      41.085  27.418  28.171  1.00  0.00     0.023 A 
ATOM     75  C   UNL A   1      40.804  26.045  28.078  1.00  0.00     0.031 A 
ATOM     76  C   UNL A   1      41.652  28.049  27.050  1.00  0.00     0.131 A 
ATOM     77  C   UNL A   1      41.136  25.339  26.910  1.00  0.00     0.055 A 
ATOM     78  C   UNL A   1      41.926  27.355  25.870  1.00  0.00     0.041 A 
ATOM     79  F   UNL A   1      41.952  29.357  27.087  1.00  0.00    -0.206 F 
ATOM     80  C   UNL A   1      41.681  25.987  25.801  1.00  0.00     0.022 A 
BRANCH  77  81
ATOM     81  S   UNL A   1      40.934  23.536  26.896  1.00  0.00     0.124 S 
ATOM     82  O   UNL A   1      41.378  23.178  28.239  1.00  0.00    -0.237 OA
ATOM     83  O   UNL A   1      39.506  23.392  26.633  1.00  0.00    -0.237 OA
ATOM     84  O   UNL A   1      41.812  23.103  25.811  1.00  0.00    -0.744 OA
ENDBRANCH  77  81
ENDBRANCH  50  74
BRANCH  62  85
ATOM     85  C   UNL A   1      44.652  27.632  34.172  1.00  0.00     0.023 A 
ATOM     86  C   UNL A   1      44.524  26.411  34.858  1.00  0.00     0.031 A 
ATOM     87  C   UNL A   1      45.950  28.130  33.950  1.00  0.00     0.131 A 
ATOM     88  C   UNL A   1      45.669  25.753  35.336  1.00  0.00     0.055 A 
ATOM     89  C   UNL A   1      47.087  27.441  34.376  1.00  0.00     0.041 A 
ATOM     90  F   UNL A   1      46.135  29.291  33.302  1.00  0.00    -0.206 F 
ATOM     91  C   UNL A   1      46.951  26.252  35.083  1.00  0.00     0.022 A 
BRANCH  88  92
ATOM     92  S   UNL A   1      45.463  24.274  36.367  1.00  0.00     0.124 S 
ATOM     93  O   UNL A   1      44.241  23.692  35.823  1.00  0.00    -0.237 OA
ATOM     94  O   UNL A   1      46.695  23.536  36.102  1.00  0.00    -0.237 OA
ATOM     95  O   UNL A   1      45.345  24.812  37.720  1.00  0.00    -0.744 OA
ENDBRANCH  88  92
ENDBRANCH  62  85
ENDBRANCH  36  37
ENDBRANCH  29  31
ENDBRANCH  28  29
ENDBRANCH  27  28
ENDBRANCH  26  27
ENDBRANCH  25  26
ENDBRANCH  24  25
ENDBRANCH   1  24
TORSDOF 25
ENDMDL
