MODEL 1
REMARK VINA RESULT:      -9.9      0.000      0.000
REMARK SMILES CC1(C)OC(=O)C(/C=N/[C@@H](CCC(N)=O)C(=O)OCCOCCOCCOC(=O)c2ccc(-c3c4nc(c(-c5cc(S(=O)(=O)[O-])ccc5F)c5ccc([nH]5)c(-c5cc(S(=O)(=O)[O-])ccc5F)c5nc(c(-c6cc(S(=O)(=O)[O-])ccc6F)c6ccc3[nH]6)C=C5)C=C4)cc2)C(=O)O1
REMARK SMILES IDX 22 1 21 2 20 3 19 4 18 5 16 6 17 7 10 8 9 9 8 10 7 11 1 12
REMARK SMILES IDX 2 13 3 14 4 15 95 16 5 17 93 18 6 19 94 20 11 21 12 22 13 23
REMARK SMILES IDX 14 24 15 25 23 28 24 29 25 30 26 31 27 32 28 33 29 34 30 35
REMARK SMILES IDX 31 36 92 37 32 38 91 39 33 40 34 41 35 42 85 43 36 44 90 45
REMARK SMILES IDX 84 46 86 47 37 48 89 49 83 50 82 51 38 53 70 54 50 55 69 56
REMARK SMILES IDX 51 57 54 58 68 59 87 60 52 61 53 62 67 64 88 65 55 66 39 67
REMARK SMILES IDX 40 68 48 69 41 70 47 71 49 72 46 73 42 74 43 75 44 76 45 77
REMARK SMILES IDX 71 78 72 79 80 80 73 81 79 82 81 83 78 84 74 85 75 86 76 87
REMARK SMILES IDX 77 88 56 89 57 90 65 91 58 92 64 93 66 94 63 95 59 96 60 97
REMARK SMILES IDX 61 98 62 99
REMARK H PARENT 14 26 14 27 86 52 54 63
REMARK Flexibility Score: inf
ROOT
ATOM      1  C   UNL A   1      30.827  29.664  24.538  1.00  0.00     0.188 C 
ENDROOT
BRANCH   1   2
ATOM      2  O   UNL A   1      30.689  28.821  23.401  1.00  0.00    -0.376 OA
BRANCH   2   3
ATOM      3  C   UNL A   1      29.400  28.352  23.028  1.00  0.00     0.202 C 
BRANCH   3   4
ATOM      4  C   UNL A   1      28.713  27.278  23.882  1.00  0.00     0.261 C 
BRANCH   4   5
ATOM      5  O   UNL A   1      29.333  25.975  23.852  1.00  0.00    -0.462 OA
BRANCH   5   6
ATOM      6  C   UNL A   1      30.345  25.785  24.730  1.00  0.00     0.330 C 
ATOM      7  O   UNL A   1      30.344  26.243  25.871  1.00  0.00    -0.250 OA
BRANCH   6   8
ATOM      8  C   UNL A   1      31.570  25.041  24.201  1.00  0.00     0.215 C 
BRANCH   8   9
ATOM      9  N   UNL A   1      32.213  23.938  24.931  1.00  0.00    -0.281 NA
ATOM     10  C   UNL A   1      31.626  23.023  25.602  1.00  0.00     0.106 C 
BRANCH  10  11
ATOM     11  C   UNL A   1      32.441  21.858  26.111  1.00  0.00     0.250 C 
ATOM     12  C   UNL A   1      35.527  22.650  24.074  1.00  0.00     0.106 C 
ATOM     13  C   UNL A   1      34.976  21.522  24.941  1.00  0.00     0.252 C 
ATOM     14  C   UNL A   1      35.978  20.368  25.000  1.00  0.00     0.106 C 
ATOM     15  O   UNL A   1      33.796  21.023  24.318  1.00  0.00    -0.422 OA
ATOM     16  O   UNL A   1      34.853  22.007  26.278  1.00  0.00    -0.422 OA
ATOM     17  C   UNL A   1      32.711  20.830  25.084  1.00  0.00     0.329 C 
ATOM     18  C   UNL A   1      33.665  22.328  26.809  1.00  0.00     0.329 C 
ATOM     19  O   UNL A   1      31.947  19.897  24.867  1.00  0.00    -0.251 OA
ATOM     20  O   UNL A   1      33.620  22.975  27.852  1.00  0.00    -0.251 OA
ENDBRANCH  10  11
ENDBRANCH   8   9
BRANCH   8  21
ATOM     21  C   UNL A   1      31.404  24.693  22.717  1.00  0.00     0.049 C 
BRANCH  21  22
ATOM     22  C   UNL A   1      31.785  25.785  21.719  1.00  0.00     0.102 C 
BRANCH  22  23
ATOM     23  C   UNL A   1      33.108  26.468  21.977  1.00  0.00     0.217 C 
ATOM     24  N   UNL A   1      33.056  27.806  22.212  1.00  0.00    -0.370 N 
ATOM     25  O   UNL A   1      34.175  25.863  22.000  1.00  0.00    -0.275 OA
ATOM     26  H   UNL A   1      32.191  28.277  22.189  1.00  0.00     0.159 HD
ATOM     27  H   UNL A   1      33.883  28.305  22.404  1.00  0.00     0.159 HD
ENDBRANCH  22  23
ENDBRANCH  21  22
ENDBRANCH   8  21
ENDBRANCH   6   8
ENDBRANCH   5   6
ENDBRANCH   4   5
ENDBRANCH   3   4
ENDBRANCH   2   3
ENDBRANCH   1   2
BRANCH   1  28
ATOM     28  C   UNL A   1      32.066  29.523  25.441  1.00  0.00     0.188 C 
BRANCH  28  29
ATOM     29  O   UNL A   1      31.968  30.148  26.703  1.00  0.00    -0.376 OA
BRANCH  29  30
ATOM     30  C   UNL A   1      32.839  31.227  27.000  1.00  0.00     0.202 C 
BRANCH  30  31
ATOM     31  C   UNL A   1      32.347  32.666  27.247  1.00  0.00     0.261 C 
BRANCH  31  32
ATOM     32  O   UNL A   1      33.336  33.689  27.403  1.00  0.00    -0.460 OA
BRANCH  32  33
ATOM     33  C   UNL A   1      33.357  34.357  28.583  1.00  0.00     0.338 C 
ATOM     34  O   UNL A   1      32.537  35.162  28.987  1.00  0.00    -0.246 OA
BRANCH  33  35
ATOM     35  C   UNL A   1      34.460  33.786  29.389  1.00  0.00     0.060 A 
ATOM     36  C   UNL A   1      35.782  34.178  29.130  1.00  0.00     0.016 A 
ATOM     37  C   UNL A   1      34.177  32.889  30.419  1.00  0.00     0.016 A 
ATOM     38  C   UNL A   1      36.829  33.651  29.891  1.00  0.00     0.010 A 
ATOM     39  C   UNL A   1      35.227  32.343  31.161  1.00  0.00     0.010 A 
ATOM     40  C   UNL A   1      36.560  32.698  30.882  1.00  0.00    -0.014 A 
BRANCH  40  41
ATOM     41  C   UNL A   1      37.666  31.910  31.482  1.00  0.00     0.031 A 
ATOM     42  C   UNL A   1      38.143  32.298  32.856  1.00  0.00     0.074 A 
ATOM     43  C   UNL A   1      38.241  30.883  30.831  1.00  0.00     0.049 A 
ATOM     44  N   UNL A   1      39.150  31.839  33.550  1.00  0.00    -0.248 NA
ATOM     45  C   UNL A   1      37.381  33.362  33.527  1.00  0.00     0.031 C 
ATOM     46  C   UNL A   1      37.835  30.381  29.520  1.00  0.00     0.029 A 
ATOM     47  N   UNL A   1      39.304  30.088  31.183  1.00  0.00    -0.354 N 
ATOM     48  C   UNL A   1      39.151  32.564  34.738  1.00  0.00     0.074 A 
ATOM     49  C   UNL A   1      38.068  33.520  34.647  1.00  0.00     0.031 C 
ATOM     50  C   UNL A   1      38.651  29.369  29.172  1.00  0.00     0.029 A 
ATOM     51  C   UNL A   1      39.662  29.182  30.212  1.00  0.00     0.049 A 
ATOM     52  H   UNL A   1      39.765  30.159  32.050  1.00  0.00     0.167 HD
ATOM     53  C   UNL A   1      39.974  32.438  35.807  1.00  0.00     0.034 A 
ATOM     54  C   UNL A   1      40.705  28.327  30.156  1.00  0.00     0.034 A 
ATOM     55  C   UNL A   1      41.061  31.492  35.874  1.00  0.00     0.049 A 
ATOM     56  C   UNL A   1      41.672  28.271  31.318  1.00  0.00     0.074 A 
ATOM     57  C   UNL A   1      41.947  31.269  36.912  1.00  0.00     0.029 A 
ATOM     58  N   UNL A   1      41.421  30.621  34.852  1.00  0.00    -0.354 N 
ATOM     59  N   UNL A   1      41.661  28.955  32.441  1.00  0.00    -0.248 NA
ATOM     60  C   UNL A   1      42.790  27.326  31.206  1.00  0.00     0.031 C 
ATOM     61  C   UNL A   1      42.892  30.331  36.488  1.00  0.00     0.029 A 
ATOM     62  C   UNL A   1      42.540  29.892  35.221  1.00  0.00     0.049 A 
ATOM     63  H   UNL A   1      40.950  30.535  33.991  1.00  0.00     0.167 HD
ATOM     64  C   UNL A   1      42.749  28.493  33.180  1.00  0.00     0.074 A 
ATOM     65  C   UNL A   1      43.385  27.466  32.382  1.00  0.00     0.031 C 
ATOM     66  C   UNL A   1      43.177  28.876  34.412  1.00  0.00     0.034 A 
BRANCH  53  67
ATOM     67  C   UNL A   1      39.762  33.392  36.959  1.00  0.00     0.023 A 
ATOM     68  C   UNL A   1      39.197  32.974  38.177  1.00  0.00     0.031 A 
ATOM     69  C   UNL A   1      40.090  34.753  36.822  1.00  0.00     0.131 A 
ATOM     70  C   UNL A   1      38.905  33.917  39.175  1.00  0.00     0.055 A 
ATOM     71  C   UNL A   1      39.880  35.671  37.853  1.00  0.00     0.041 A 
ATOM     72  F   UNL A   1      40.607  35.220  35.674  1.00  0.00    -0.206 F 
ATOM     73  C   UNL A   1      39.268  35.257  39.032  1.00  0.00     0.022 A 
BRANCH  70  74
ATOM     74  S   UNL A   1      37.898  33.395  40.592  1.00  0.00     0.124 S 
ATOM     75  O   UNL A   1      36.625  33.080  39.948  1.00  0.00    -0.237 OA
ATOM     76  O   UNL A   1      38.650  32.259  41.112  1.00  0.00    -0.237 OA
ATOM     77  O   UNL A   1      37.878  34.577  41.451  1.00  0.00    -0.744 OA
ENDBRANCH  70  74
ENDBRANCH  53  67
BRANCH  54  78
ATOM     78  C   UNL A   1      40.926  27.478  28.948  1.00  0.00     0.023 A 
ATOM     79  C   UNL A   1      41.905  27.805  27.997  1.00  0.00     0.031 A 
ATOM     80  C   UNL A   1      40.115  26.356  28.697  1.00  0.00     0.131 A 
ATOM     81  C   UNL A   1      42.022  27.046  26.821  1.00  0.00     0.055 A 
ATOM     82  C   UNL A   1      40.273  25.570  27.554  1.00  0.00     0.041 A 
ATOM     83  F   UNL A   1      39.155  26.003  29.566  1.00  0.00    -0.206 F 
ATOM     84  C   UNL A   1      41.223  25.921  26.601  1.00  0.00     0.022 A 
BRANCH  81  85
ATOM     85  S   UNL A   1      43.172  27.605  25.533  1.00  0.00     0.124 S 
ATOM     86  O   UNL A   1      43.715  26.340  25.052  1.00  0.00    -0.237 OA
ATOM     87  O   UNL A   1      42.283  28.312  24.618  1.00  0.00    -0.237 OA
ATOM     88  O   UNL A   1      44.113  28.453  26.262  1.00  0.00    -0.744 OA
ENDBRANCH  81  85
ENDBRANCH  54  78
BRANCH  66  89
ATOM     89  C   UNL A   1      44.362  28.140  34.996  1.00  0.00     0.023 A 
ATOM     90  C   UNL A   1      44.210  26.982  35.780  1.00  0.00     0.031 A 
ATOM     91  C   UNL A   1      45.668  28.609  34.760  1.00  0.00     0.131 A 
ATOM     92  C   UNL A   1      45.339  26.369  36.347  1.00  0.00     0.055 A 
ATOM     93  C   UNL A   1      46.790  27.955  35.270  1.00  0.00     0.041 A 
ATOM     94  F   UNL A   1      45.875  29.712  34.023  1.00  0.00    -0.206 F 
ATOM     95  C   UNL A   1      46.628  26.835  36.080  1.00  0.00     0.022 A 
BRANCH  92  96
ATOM     96  S   UNL A   1      45.094  25.011  37.525  1.00  0.00     0.124 S 
ATOM     97  O   UNL A   1      45.989  23.987  36.998  1.00  0.00    -0.237 OA
ATOM     98  O   UNL A   1      45.494  25.619  38.791  1.00  0.00    -0.237 OA
ATOM     99  O   UNL A   1      43.669  24.708  37.409  1.00  0.00    -0.744 OA
ENDBRANCH  92  96
ENDBRANCH  66  89
ENDBRANCH  40  41
ENDBRANCH  33  35
ENDBRANCH  32  33
ENDBRANCH  31  32
ENDBRANCH  30  31
ENDBRANCH  29  30
ENDBRANCH  28  29
ENDBRANCH   1  28
TORSDOF 25
ENDMDL
MODEL 2
REMARK VINA RESULT:      -9.4      1.685      7.562
REMARK SMILES CC1(C)OC(=O)C(/C=N/[C@@H](CCC(N)=O)C(=O)OCCOCCOCCOC(=O)c2ccc(-c3c4nc(c(-c5cc(S(=O)(=O)[O-])ccc5F)c5ccc([nH]5)c(-c5cc(S(=O)(=O)[O-])ccc5F)c5nc(c(-c6cc(S(=O)(=O)[O-])ccc6F)c6ccc3[nH]6)C=C5)C=C4)cc2)C(=O)O1
REMARK SMILES IDX 22 1 21 2 20 3 19 4 18 5 16 6 17 7 10 8 9 9 8 10 7 11 1 12
REMARK SMILES IDX 2 13 3 14 4 15 95 16 5 17 93 18 6 19 94 20 11 21 12 22 13 23
REMARK SMILES IDX 14 24 15 25 23 28 24 29 25 30 26 31 27 32 28 33 29 34 30 35
REMARK SMILES IDX 31 36 92 37 32 38 91 39 33 40 34 41 35 42 85 43 36 44 90 45
REMARK SMILES IDX 84 46 86 47 37 48 89 49 83 50 82 51 38 53 70 54 50 55 69 56
REMARK SMILES IDX 51 57 54 58 68 59 87 60 52 61 53 62 67 64 88 65 55 66 39 67
REMARK SMILES IDX 40 68 48 69 41 70 47 71 49 72 46 73 42 74 43 75 44 76 45 77
REMARK SMILES IDX 71 78 72 79 80 80 73 81 79 82 81 83 78 84 74 85 75 86 76 87
REMARK SMILES IDX 77 88 56 89 57 90 65 91 58 92 64 93 66 94 63 95 59 96 60 97
REMARK SMILES IDX 61 98 62 99
REMARK H PARENT 14 26 14 27 86 52 54 63
REMARK Flexibility Score: inf
ROOT
ATOM      1  C   UNL A   1      29.178  31.218  24.063  1.00  0.00     0.188 C 
ENDROOT
BRANCH   1   2
ATOM      2  O   UNL A   1      29.397  30.914  22.691  1.00  0.00    -0.376 OA
BRANCH   2   3
ATOM      3  C   UNL A   1      29.043  29.630  22.193  1.00  0.00     0.202 C 
BRANCH   3   4
ATOM      4  C   UNL A   1      29.981  28.441  22.441  1.00  0.00     0.261 C 
BRANCH   4   5
ATOM      5  O   UNL A   1      30.192  28.101  23.829  1.00  0.00    -0.462 OA
BRANCH   5   6
ATOM      6  C   UNL A   1      29.835  26.846  24.188  1.00  0.00     0.330 C 
ATOM      7  O   UNL A   1      28.728  26.365  23.949  1.00  0.00    -0.250 OA
BRANCH   6   8
ATOM      8  C   UNL A   1      30.853  26.061  25.013  1.00  0.00     0.215 C 
BRANCH   8   9
ATOM      9  N   UNL A   1      31.581  24.897  24.487  1.00  0.00    -0.281 NA
ATOM     10  C   UNL A   1      31.302  24.236  23.430  1.00  0.00     0.106 C 
BRANCH  10  11
ATOM     11  C   UNL A   1      32.286  23.201  22.940  1.00  0.00     0.250 C 
ATOM     12  C   UNL A   1      35.131  24.309  25.170  1.00  0.00     0.106 C 
ATOM     13  C   UNL A   1      34.892  23.383  23.982  1.00  0.00     0.252 C 
ATOM     14  C   UNL A   1      36.199  22.701  23.575  1.00  0.00     0.106 C 
ATOM     15  O   UNL A   1      34.473  24.181  22.878  1.00  0.00    -0.422 OA
ATOM     16  O   UNL A   1      34.015  22.337  24.401  1.00  0.00    -0.422 OA
ATOM     17  C   UNL A   1      33.411  23.769  22.168  1.00  0.00     0.329 C 
ATOM     18  C   UNL A   1      32.722  22.313  24.048  1.00  0.00     0.329 C 
ATOM     19  O   UNL A   1      33.357  23.950  20.958  1.00  0.00    -0.251 OA
ATOM     20  O   UNL A   1      31.948  21.555  24.627  1.00  0.00    -0.251 OA
ENDBRANCH  10  11
ENDBRANCH   8   9
BRANCH   8  21
ATOM     21  C   UNL A   1      31.798  27.007  25.763  1.00  0.00     0.049 C 
BRANCH  21  22
ATOM     22  C   UNL A   1      33.173  27.228  25.135  1.00  0.00     0.102 C 
BRANCH  22  23
ATOM     23  C   UNL A   1      33.666  28.656  25.141  1.00  0.00     0.217 C 
ATOM     24  N   UNL A   1      33.215  29.450  24.132  1.00  0.00    -0.370 N 
ATOM     25  O   UNL A   1      34.412  29.100  26.009  1.00  0.00    -0.275 OA
ATOM     26  H   UNL A   1      32.618  29.078  23.443  1.00  0.00     0.159 HD
ATOM     27  H   UNL A   1      33.487  30.395  24.091  1.00  0.00     0.159 HD
ENDBRANCH  22  23
ENDBRANCH  21  22
ENDBRANCH   8  21
ENDBRANCH   6   8
ENDBRANCH   5   6
ENDBRANCH   4   5
ENDBRANCH   3   4
ENDBRANCH   2   3
ENDBRANCH   1   2
BRANCH   1  28
ATOM     28  C   UNL A   1      30.310  31.858  24.888  1.00  0.00     0.188 C 
BRANCH  28  29
ATOM     29  O   UNL A   1      31.143  30.949  25.576  1.00  0.00    -0.376 OA
BRANCH  29  30
ATOM     30  C   UNL A   1      31.832  31.396  26.733  1.00  0.00     0.202 C 
BRANCH  30  31
ATOM     31  C   UNL A   1      31.951  32.880  27.125  1.00  0.00     0.261 C 
BRANCH  31  32
ATOM     32  O   UNL A   1      32.579  33.190  28.373  1.00  0.00    -0.460 OA
BRANCH  32  33
ATOM     33  C   UNL A   1      33.496  34.189  28.375  1.00  0.00     0.338 C 
ATOM     34  O   UNL A   1      33.363  35.311  27.919  1.00  0.00    -0.246 OA
BRANCH  33  35
ATOM     35  C   UNL A   1      34.633  33.738  29.209  1.00  0.00     0.060 A 
ATOM     36  C   UNL A   1      35.873  34.385  29.099  1.00  0.00     0.016 A 
ATOM     37  C   UNL A   1      34.457  32.696  30.120  1.00  0.00     0.016 A 
ATOM     38  C   UNL A   1      36.950  33.972  29.888  1.00  0.00     0.010 A 
ATOM     39  C   UNL A   1      35.542  32.266  30.888  1.00  0.00     0.010 A 
ATOM     40  C   UNL A   1      36.801  32.882  30.755  1.00  0.00    -0.014 A 
BRANCH  40  41
ATOM     41  C   UNL A   1      37.994  32.241  31.364  1.00  0.00     0.031 A 
ATOM     42  C   UNL A   1      38.711  31.185  30.567  1.00  0.00     0.074 A 
ATOM     43  C   UNL A   1      38.430  32.575  32.591  1.00  0.00     0.049 A 
ATOM     44  N   UNL A   1      39.707  30.412  30.911  1.00  0.00    -0.248 NA
ATOM     45  C   UNL A   1      38.222  30.968  29.196  1.00  0.00     0.031 C 
ATOM     46  C   UNL A   1      37.852  33.615  33.440  1.00  0.00     0.029 A 
ATOM     47  N   UNL A   1      39.457  32.059  33.344  1.00  0.00    -0.354 N 
ATOM     48  C   UNL A   1      39.959  29.608  29.803  1.00  0.00     0.074 A 
ATOM     49  C   UNL A   1      38.983  29.962  28.795  1.00  0.00     0.031 C 
ATOM     50  C   UNL A   1      38.526  33.649  34.604  1.00  0.00     0.029 A 
ATOM     51  C   UNL A   1      39.552  32.607  34.602  1.00  0.00     0.049 A 
ATOM     52  H   UNL A   1      40.069  31.362  33.012  1.00  0.00     0.167 HD
ATOM     53  C   UNL A   1      40.921  28.667  29.640  1.00  0.00     0.034 A 
ATOM     54  C   UNL A   1      40.350  32.281  35.639  1.00  0.00     0.034 A 
ATOM     55  C   UNL A   1      41.875  28.313  30.663  1.00  0.00     0.049 A 
ATOM     56  C   UNL A   1      41.351  31.159  35.472  1.00  0.00     0.074 A 
ATOM     57  C   UNL A   1      42.900  27.385  30.602  1.00  0.00     0.029 A 
ATOM     58  N   UNL A   1      41.911  28.859  31.941  1.00  0.00    -0.354 N 
ATOM     59  N   UNL A   1      41.588  30.409  34.419  1.00  0.00    -0.248 NA
ATOM     60  C   UNL A   1      42.193  30.842  36.632  1.00  0.00     0.031 C 
ATOM     61  C   UNL A   1      43.497  27.308  31.864  1.00  0.00     0.029 A 
ATOM     62  C   UNL A   1      42.913  28.257  32.687  1.00  0.00     0.049 A 
ATOM     63  H   UNL A   1      41.312  29.569  32.268  1.00  0.00     0.167 HD
ATOM     64  C   UNL A   1      42.632  29.559  34.783  1.00  0.00     0.074 A 
ATOM     65  C   UNL A   1      42.985  29.898  36.146  1.00  0.00     0.031 C 
ATOM     66  C   UNL A   1      43.250  28.594  34.053  1.00  0.00     0.034 A 
BRANCH  53  67
ATOM     67  C   UNL A   1      40.940  27.917  28.329  1.00  0.00     0.023 A 
ATOM     68  C   UNL A   1      40.280  26.686  28.167  1.00  0.00     0.031 A 
ATOM     69  C   UNL A   1      41.668  28.420  27.235  1.00  0.00     0.131 A 
ATOM     70  C   UNL A   1      40.425  25.964  26.972  1.00  0.00     0.055 A 
ATOM     71  C   UNL A   1      41.734  27.739  26.018  1.00  0.00     0.041 A 
ATOM     72  F   UNL A   1      42.342  29.576  27.337  1.00  0.00    -0.206 F 
ATOM     73  C   UNL A   1      41.125  26.496  25.887  1.00  0.00     0.022 A 
BRANCH  70  74
ATOM     74  S   UNL A   1      39.824  24.253  26.915  1.00  0.00     0.124 S 
ATOM     75  O   UNL A   1      39.467  24.020  28.312  1.00  0.00    -0.237 OA
ATOM     76  O   UNL A   1      38.713  24.340  25.976  1.00  0.00    -0.237 OA
ATOM     77  O   UNL A   1      40.984  23.499  26.442  1.00  0.00    -0.744 OA
ENDBRANCH  70  74
ENDBRANCH  53  67
BRANCH  54  78
ATOM     78  C   UNL A   1      40.219  32.988  36.948  1.00  0.00     0.023 A 
ATOM     79  C   UNL A   1      39.366  32.507  37.954  1.00  0.00     0.031 A 
ATOM     80  C   UNL A   1      40.904  34.193  37.188  1.00  0.00     0.131 A 
ATOM     81  C   UNL A   1      39.186  33.247  39.134  1.00  0.00     0.055 A 
ATOM     82  C   UNL A   1      40.767  34.895  38.386  1.00  0.00     0.041 A 
ATOM     83  F   UNL A   1      41.724  34.706  36.258  1.00  0.00    -0.206 F 
ATOM     84  C   UNL A   1      39.893  34.429  39.364  1.00  0.00     0.022 A 
BRANCH  81  85
ATOM     85  S   UNL A   1      37.940  32.690  40.330  1.00  0.00     0.124 S 
ATOM     86  O   UNL A   1      36.745  33.374  39.853  1.00  0.00    -0.237 OA
ATOM     87  O   UNL A   1      37.968  31.243  40.146  1.00  0.00    -0.237 OA
ATOM     88  O   UNL A   1      38.463  33.162  41.611  1.00  0.00    -0.744 OA
ENDBRANCH  81  85
ENDBRANCH  54  78
BRANCH  66  89
ATOM     89  C   UNL A   1      44.410  27.870  34.698  1.00  0.00     0.023 A 
ATOM     90  C   UNL A   1      44.236  26.687  35.438  1.00  0.00     0.031 A 
ATOM     91  C   UNL A   1      45.717  28.378  34.568  1.00  0.00     0.131 A 
ATOM     92  C   UNL A   1      45.338  26.085  36.066  1.00  0.00     0.055 A 
ATOM     93  C   UNL A   1      46.818  27.737  35.137  1.00  0.00     0.041 A 
ATOM     94  F   UNL A   1      45.946  29.507  33.877  1.00  0.00    -0.206 F 
ATOM     95  C   UNL A   1      46.630  26.590  35.902  1.00  0.00     0.022 A 
BRANCH  92  96
ATOM     96  S   UNL A   1      45.048  24.688  37.186  1.00  0.00     0.124 S 
ATOM     97  O   UNL A   1      46.309  24.619  37.917  1.00  0.00    -0.237 OA
ATOM     98  O   UNL A   1      43.889  25.137  37.953  1.00  0.00    -0.237 OA
ATOM     99  O   UNL A   1      44.794  23.569  36.281  1.00  0.00    -0.744 OA
ENDBRANCH  92  96
ENDBRANCH  66  89
ENDBRANCH  40  41
ENDBRANCH  33  35
ENDBRANCH  32  33
ENDBRANCH  31  32
ENDBRANCH  30  31
ENDBRANCH  29  30
ENDBRANCH  28  29
ENDBRANCH   1  28
TORSDOF 25
ENDMDL
MODEL 3
REMARK VINA RESULT:      -9.2      3.413      8.188
REMARK SMILES CC1(C)OC(=O)C(/C=N/[C@@H](CCC(N)=O)C(=O)OCCOCCOCCOC(=O)c2ccc(-c3c4nc(c(-c5cc(S(=O)(=O)[O-])ccc5F)c5ccc([nH]5)c(-c5cc(S(=O)(=O)[O-])ccc5F)c5nc(c(-c6cc(S(=O)(=O)[O-])ccc6F)c6ccc3[nH]6)C=C5)C=C4)cc2)C(=O)O1
REMARK SMILES IDX 22 1 21 2 20 3 19 4 18 5 16 6 17 7 10 8 9 9 8 10 7 11 1 12
REMARK SMILES IDX 2 13 3 14 4 15 95 16 5 17 93 18 6 19 94 20 11 21 12 22 13 23
REMARK SMILES IDX 14 24 15 25 23 28 24 29 25 30 26 31 27 32 28 33 29 34 30 35
REMARK SMILES IDX 31 36 92 37 32 38 91 39 33 40 34 41 35 42 85 43 36 44 90 45
REMARK SMILES IDX 84 46 86 47 37 48 89 49 83 50 82 51 38 53 70 54 50 55 69 56
REMARK SMILES IDX 51 57 54 58 68 59 87 60 52 61 53 62 67 64 88 65 55 66 39 67
REMARK SMILES IDX 40 68 48 69 41 70 47 71 49 72 46 73 42 74 43 75 44 76 45 77
REMARK SMILES IDX 71 78 72 79 80 80 73 81 79 82 81 83 78 84 74 85 75 86 76 87
REMARK SMILES IDX 77 88 56 89 57 90 65 91 58 92 64 93 66 94 63 95 59 96 60 97
REMARK SMILES IDX 61 98 62 99
REMARK H PARENT 14 26 14 27 86 52 54 63
REMARK Flexibility Score: inf
ROOT
ATOM      1  C   UNL A   1      32.383  28.430  24.087  1.00  0.00     0.188 C 
ENDROOT
BRANCH   1   2
ATOM      2  O   UNL A   1      32.212  28.105  22.713  1.00  0.00    -0.376 OA
BRANCH   2   3
ATOM      3  C   UNL A   1      32.103  26.743  22.324  1.00  0.00     0.202 C 
BRANCH   3   4
ATOM      4  C   UNL A   1      33.312  26.041  21.689  1.00  0.00     0.261 C 
BRANCH   4   5
ATOM      5  O   UNL A   1      33.231  24.601  21.633  1.00  0.00    -0.462 OA
BRANCH   5   6
ATOM      6  C   UNL A   1      33.461  23.953  22.799  1.00  0.00     0.330 C 
ATOM      7  O   UNL A   1      34.417  24.202  23.532  1.00  0.00    -0.250 OA
BRANCH   6   8
ATOM      8  C   UNL A   1      32.517  22.799  23.130  1.00  0.00     0.215 C 
BRANCH   8   9
ATOM      9  N   UNL A   1      32.931  21.629  23.920  1.00  0.00    -0.281 NA
ATOM     10  C   UNL A   1      34.128  21.285  24.203  1.00  0.00     0.106 C 
BRANCH  10  11
ATOM     11  C   UNL A   1      34.348  20.169  25.197  1.00  0.00     0.250 C 
ATOM     12  C   UNL A   1      33.844  17.360  22.717  1.00  0.00     0.106 C 
ATOM     13  C   UNL A   1      33.973  17.557  24.225  1.00  0.00     0.252 C 
ATOM     14  C   UNL A   1      33.865  16.212  24.942  1.00  0.00     0.106 C 
ATOM     15  O   UNL A   1      32.876  18.355  24.659  1.00  0.00    -0.422 OA
ATOM     16  O   UNL A   1      35.285  18.047  24.499  1.00  0.00    -0.422 OA
ATOM     17  C   UNL A   1      33.130  19.382  25.485  1.00  0.00     0.329 C 
ATOM     18  C   UNL A   1      35.511  19.332  24.811  1.00  0.00     0.329 C 
ATOM     19  O   UNL A   1      32.335  19.694  26.364  1.00  0.00    -0.251 OA
ATOM     20  O   UNL A   1      36.659  19.769  24.787  1.00  0.00    -0.251 OA
ENDBRANCH  10  11
ENDBRANCH   8   9
BRANCH   8  21
ATOM     21  C   UNL A   1      31.154  23.320  23.597  1.00  0.00     0.049 C 
BRANCH  21  22
ATOM     22  C   UNL A   1      31.154  24.179  24.861  1.00  0.00     0.102 C 
BRANCH  22  23
ATOM     23  C   UNL A   1      30.782  23.458  26.136  1.00  0.00     0.217 C 
ATOM     24  N   UNL A   1      30.653  22.107  26.044  1.00  0.00    -0.370 N 
ATOM     25  O   UNL A   1      30.624  24.037  27.206  1.00  0.00    -0.275 OA
ATOM     26  H   UNL A   1      30.783  21.658  25.178  1.00  0.00     0.159 HD
ATOM     27  H   UNL A   1      30.430  21.579  26.844  1.00  0.00     0.159 HD
ENDBRANCH  22  23
ENDBRANCH  21  22
ENDBRANCH   8  21
ENDBRANCH   6   8
ENDBRANCH   5   6
ENDBRANCH   4   5
ENDBRANCH   3   4
ENDBRANCH   2   3
ENDBRANCH   1   2
BRANCH   1  28
ATOM     28  C   UNL A   1      31.483  29.501  24.732  1.00  0.00     0.188 C 
BRANCH  28  29
ATOM     29  O   UNL A   1      31.474  29.512  26.143  1.00  0.00    -0.376 OA
BRANCH  29  30
ATOM     30  C   UNL A   1      32.401  28.694  26.838  1.00  0.00     0.202 C 
BRANCH  30  31
ATOM     31  C   UNL A   1      33.802  29.174  27.259  1.00  0.00     0.261 C 
BRANCH  31  32
ATOM     32  O   UNL A   1      34.133  30.546  27.023  1.00  0.00    -0.460 OA
BRANCH  32  33
ATOM     33  C   UNL A   1      34.644  31.249  28.064  1.00  0.00     0.338 C 
ATOM     34  O   UNL A   1      34.105  32.154  28.677  1.00  0.00    -0.246 OA
BRANCH  33  35
ATOM     35  C   UNL A   1      35.910  30.590  28.458  1.00  0.00     0.060 A 
ATOM     36  C   UNL A   1      35.939  29.767  29.595  1.00  0.00     0.016 A 
ATOM     37  C   UNL A   1      37.056  30.763  27.682  1.00  0.00     0.016 A 
ATOM     38  C   UNL A   1      37.126  29.135  29.971  1.00  0.00     0.010 A 
ATOM     39  C   UNL A   1      38.249  30.152  28.074  1.00  0.00     0.010 A 
ATOM     40  C   UNL A   1      38.298  29.359  29.236  1.00  0.00    -0.014 A 
BRANCH  40  41
ATOM     41  C   UNL A   1      39.615  28.950  29.786  1.00  0.00     0.031 A 
ATOM     42  C   UNL A   1      40.328  27.799  29.129  1.00  0.00     0.074 A 
ATOM     43  C   UNL A   1      40.167  29.572  30.843  1.00  0.00     0.049 A 
ATOM     44  N   UNL A   1      41.430  27.190  29.478  1.00  0.00    -0.248 NA
ATOM     45  C   UNL A   1      39.695  27.256  27.916  1.00  0.00     0.031 C 
ATOM     46  C   UNL A   1      39.599  30.729  31.534  1.00  0.00     0.029 A 
ATOM     47  N   UNL A   1      41.325  29.304  31.530  1.00  0.00    -0.354 N 
ATOM     48  C   UNL A   1      41.619  26.185  28.534  1.00  0.00     0.074 A 
ATOM     49  C   UNL A   1      40.495  26.243  27.626  1.00  0.00     0.031 C 
ATOM     50  C   UNL A   1      40.407  31.062  32.557  1.00  0.00     0.029 A 
ATOM     51  C   UNL A   1      41.522  30.118  32.622  1.00  0.00     0.049 A 
ATOM     52  H   UNL A   1      41.957  28.597  31.265  1.00  0.00     0.167 HD
ATOM     53  C   UNL A   1      42.641  25.300  28.432  1.00  0.00     0.034 A 
ATOM     54  C   UNL A   1      42.473  30.081  33.579  1.00  0.00     0.034 A 
ATOM     55  C   UNL A   1      43.746  25.244  29.359  1.00  0.00     0.049 A 
ATOM     56  C   UNL A   1      43.551  29.022  33.505  1.00  0.00     0.074 A 
ATOM     57  C   UNL A   1      44.842  24.399  29.343  1.00  0.00     0.029 A 
ATOM     58  N   UNL A   1      43.888  26.055  30.478  1.00  0.00    -0.354 N 
ATOM     59  N   UNL A   1      43.727  28.080  32.605  1.00  0.00    -0.248 NA
ATOM     60  C   UNL A   1      44.559  29.025  34.572  1.00  0.00     0.031 C 
ATOM     61  C   UNL A   1      45.597  24.639  30.495  1.00  0.00     0.029 A 
ATOM     62  C   UNL A   1      45.030  25.702  31.181  1.00  0.00     0.049 A 
ATOM     63  H   UNL A   1      43.268  26.776  30.735  1.00  0.00     0.167 HD
ATOM     64  C   UNL A   1      44.887  27.405  32.982  1.00  0.00     0.074 A 
ATOM     65  C   UNL A   1      45.372  28.055  34.181  1.00  0.00     0.031 C 
ATOM     66  C   UNL A   1      45.501  26.349  32.385  1.00  0.00     0.034 A 
BRANCH  53  67
ATOM     67  C   UNL A   1      42.570  24.287  27.314  1.00  0.00     0.023 A 
ATOM     68  C   UNL A   1      41.745  23.151  27.392  1.00  0.00     0.031 A 
ATOM     69  C   UNL A   1      43.374  24.436  26.170  1.00  0.00     0.131 A 
ATOM     70  C   UNL A   1      41.801  22.173  26.387  1.00  0.00     0.055 A 
ATOM     71  C   UNL A   1      43.358  23.504  25.130  1.00  0.00     0.041 A 
ATOM     72  F   UNL A   1      44.203  25.486  26.049  1.00  0.00    -0.206 F 
ATOM     73  C   UNL A   1      42.582  22.356  25.243  1.00  0.00     0.022 A 
BRANCH  70  74
ATOM     74  S   UNL A   1      40.967  20.588  26.673  1.00  0.00     0.124 S 
ATOM     75  O   UNL A   1      39.699  20.792  25.975  1.00  0.00    -0.237 OA
ATOM     76  O   UNL A   1      41.885  19.633  26.064  1.00  0.00    -0.237 OA
ATOM     77  O   UNL A   1      40.863  20.514  28.129  1.00  0.00    -0.744 OA
ENDBRANCH  70  74
ENDBRANCH  53  67
BRANCH  54  78
ATOM     78  C   UNL A   1      42.438  31.044  34.720  1.00  0.00     0.023 A 
ATOM     79  C   UNL A   1      42.919  32.356  34.582  1.00  0.00     0.031 A 
ATOM     80  C   UNL A   1      41.974  30.644  35.986  1.00  0.00     0.131 A 
ATOM     81  C   UNL A   1      42.967  33.206  35.699  1.00  0.00     0.055 A 
ATOM     82  C   UNL A   1      41.968  31.512  37.080  1.00  0.00     0.041 A 
ATOM     83  F   UNL A   1      41.512  29.399  36.179  1.00  0.00    -0.206 F 
ATOM     84  C   UNL A   1      42.479  32.799  36.943  1.00  0.00     0.022 A 
BRANCH  81  85
ATOM     85  S   UNL A   1      43.762  34.828  35.525  1.00  0.00     0.124 S 
ATOM     86  O   UNL A   1      44.844  34.732  36.498  1.00  0.00    -0.237 OA
ATOM     87  O   UNL A   1      44.159  34.823  34.121  1.00  0.00    -0.237 OA
ATOM     88  O   UNL A   1      42.697  35.768  35.866  1.00  0.00    -0.744 OA
ENDBRANCH  81  85
ENDBRANCH  54  78
BRANCH  66  89
ATOM     89  C   UNL A   1      46.799  25.866  32.992  1.00  0.00     0.023 A 
ATOM     90  C   UNL A   1      46.843  24.806  33.914  1.00  0.00     0.031 A 
ATOM     91  C   UNL A   1      48.014  26.481  32.637  1.00  0.00     0.131 A 
ATOM     92  C   UNL A   1      48.067  24.433  34.493  1.00  0.00     0.055 A 
ATOM     93  C   UNL A   1      49.235  26.060  33.164  1.00  0.00     0.041 A 
ATOM     94  F   UNL A   1      48.035  27.501  31.764  1.00  0.00    -0.206 F 
ATOM     95  C   UNL A   1      49.265  25.038  34.108  1.00  0.00     0.022 A 
BRANCH  92  96
ATOM     96  S   UNL A   1      48.061  23.212  35.835  1.00  0.00     0.124 S 
ATOM     97  O   UNL A   1      49.341  23.471  36.487  1.00  0.00    -0.237 OA
ATOM     98  O   UNL A   1      46.871  23.585  36.594  1.00  0.00    -0.237 OA
ATOM     99  O   UNL A   1      47.971  21.932  35.135  1.00  0.00    -0.744 OA
ENDBRANCH  92  96
ENDBRANCH  66  89
ENDBRANCH  40  41
ENDBRANCH  33  35
ENDBRANCH  32  33
ENDBRANCH  31  32
ENDBRANCH  30  31
ENDBRANCH  29  30
ENDBRANCH  28  29
ENDBRANCH   1  28
TORSDOF 25
ENDMDL
