MODEL 1
REMARK VINA RESULT:      -9.3      0.000      0.000
REMARK SMILES O=C(OCCOCCOCCOC(=O)c1ccc(-c2c3nc(c(-c4cc(S(=O)(=O)[O-])ccc4F)c4ccc([nH]4)c(-c4cc(S(=O)(=O)[O-])ccc4F)c4nc(c(-c5cc(S(=O)(=O)[O-])ccc5F)c5ccc2[nH]5)C=C4)C=C3)cc1)c1ccc(NS(=O)(=O)Cc2c(Cl)cccc2Cl)cc1
REMARK SMILES IDX 7 1 6 2 5 3 4 4 3 5 2 6 1 7 78 8 79 9 96 10 80 11 95 12
REMARK SMILES IDX 81 13 82 14 83 16 84 17 85 18 86 19 87 20 88 21 93 22 89 23
REMARK SMILES IDX 90 24 92 25 94 26 91 27 8 28 9 29 10 30 11 31 12 32 13 33
REMARK SMILES IDX 14 34 15 35 16 36 77 37 17 38 76 39 18 40 19 41 20 42 70 43
REMARK SMILES IDX 21 44 75 45 69 46 71 47 22 48 74 49 68 50 67 51 23 53 55 54
REMARK SMILES IDX 35 55 54 56 36 57 39 58 53 59 72 60 37 61 38 62 52 64 73 65
REMARK SMILES IDX 40 66 24 67 25 68 33 69 26 70 32 71 34 72 31 73 27 74 28 75
REMARK SMILES IDX 29 76 30 77 56 78 57 79 65 80 58 81 64 82 66 83 63 84 59 85
REMARK SMILES IDX 60 86 61 87 62 88 41 89 42 90 50 91 43 92 49 93 51 94 48 95
REMARK SMILES IDX 44 96 45 97 46 98 47 99
REMARK H PARENT 82 15 71 52 39 63
REMARK Flexibility Score: inf
ROOT
ATOM      1  C   UNL A   1      35.363  32.993  29.605  1.00  0.00     0.188 C 
ENDROOT
BRANCH   1   2
ATOM      2  O   UNL A   1      34.672  31.778  29.297  1.00  0.00    -0.376 OA
BRANCH   2   3
ATOM      3  C   UNL A   1      34.636  31.439  27.922  1.00  0.00     0.202 C 
BRANCH   3   4
ATOM      4  C   UNL A   1      34.780  29.951  27.596  1.00  0.00     0.261 C 
BRANCH   4   5
ATOM      5  O   UNL A   1      33.536  29.297  27.299  1.00  0.00    -0.460 OA
BRANCH   5   6
ATOM      6  C   UNL A   1      33.088  29.039  26.043  1.00  0.00     0.338 C 
ATOM      7  O   UNL A   1      33.278  29.827  25.125  1.00  0.00    -0.246 OA
BRANCH   6   8
ATOM      8  C   UNL A   1      32.413  27.752  25.775  1.00  0.00     0.060 A 
ATOM      9  C   UNL A   1      31.025  27.635  25.835  1.00  0.00     0.018 A 
ATOM     10  C   UNL A   1      33.185  26.653  25.402  1.00  0.00     0.018 A 
ATOM     11  C   UNL A   1      30.411  26.395  25.648  1.00  0.00     0.027 A 
ATOM     12  C   UNL A   1      32.564  25.420  25.187  1.00  0.00     0.027 A 
ATOM     13  C   UNL A   1      31.179  25.277  25.340  1.00  0.00     0.049 A 
BRANCH  13  14
ATOM     14  N   UNL A   1      30.676  23.953  25.313  1.00  0.00    -0.283 N 
ATOM     15  H   UNL A   1      30.102  23.718  24.548  1.00  0.00     0.180 HD
BRANCH  14  16
ATOM     16  S   UNL A   1      30.946  22.761  26.425  1.00  0.00     0.237 S 
ATOM     17  O   UNL A   1      31.511  23.350  27.616  1.00  0.00    -0.206 OA
ATOM     18  O   UNL A   1      29.685  22.042  26.500  1.00  0.00    -0.206 OA
BRANCH  16  19
ATOM     19  C   UNL A   1      32.141  21.584  25.766  1.00  0.00     0.198 C 
BRANCH  19  20
ATOM     20  C   UNL A   1      33.426  22.097  25.148  1.00  0.00     0.006 A 
ATOM     21  C   UNL A   1      33.482  22.357  23.756  1.00  0.00     0.046 A 
ATOM     22  C   UNL A   1      34.540  22.518  25.900  1.00  0.00     0.046 A 
ATOM     23  Cl  UNL A   1      32.151  22.059  22.686  1.00  0.00    -0.084 Cl
ATOM     24  C   UNL A   1      34.608  22.940  23.155  1.00  0.00     0.021 A 
ATOM     25  C   UNL A   1      35.695  23.028  25.281  1.00  0.00     0.021 A 
ATOM     26  Cl  UNL A   1      34.535  22.584  27.628  1.00  0.00    -0.084 Cl
ATOM     27  C   UNL A   1      35.730  23.243  23.909  1.00  0.00     0.003 A 
ENDBRANCH  19  20
ENDBRANCH  16  19
ENDBRANCH  14  16
ENDBRANCH  13  14
ENDBRANCH   6   8
ENDBRANCH   5   6
ENDBRANCH   4   5
ENDBRANCH   3   4
ENDBRANCH   2   3
ENDBRANCH   1   2
BRANCH   1  28
ATOM     28  C   UNL A   1      35.282  33.921  28.390  1.00  0.00     0.188 C 
BRANCH  28  29
ATOM     29  O   UNL A   1      34.513  35.108  28.607  1.00  0.00    -0.376 OA
BRANCH  29  30
ATOM     30  C   UNL A   1      33.150  34.933  28.984  1.00  0.00     0.202 C 
BRANCH  30  31
ATOM     31  C   UNL A   1      32.589  35.914  30.019  1.00  0.00     0.261 C 
BRANCH  31  32
ATOM     32  O   UNL A   1      33.410  36.102  31.185  1.00  0.00    -0.460 OA
BRANCH  32  33
ATOM     33  C   UNL A   1      33.224  35.171  32.154  1.00  0.00     0.338 C 
ATOM     34  O   UNL A   1      32.166  34.677  32.510  1.00  0.00    -0.246 OA
BRANCH  33  35
ATOM     35  C   UNL A   1      34.500  34.839  32.806  1.00  0.00     0.060 A 
ATOM     36  C   UNL A   1      35.677  35.486  32.417  1.00  0.00     0.016 A 
ATOM     37  C   UNL A   1      34.543  33.744  33.671  1.00  0.00     0.016 A 
ATOM     38  C   UNL A   1      36.915  35.006  32.865  1.00  0.00     0.010 A 
ATOM     39  C   UNL A   1      35.779  33.272  34.118  1.00  0.00     0.010 A 
ATOM     40  C   UNL A   1      36.977  33.873  33.691  1.00  0.00    -0.014 A 
BRANCH  40  41
ATOM     41  C   UNL A   1      38.267  33.206  34.015  1.00  0.00     0.031 A 
ATOM     42  C   UNL A   1      38.709  32.030  33.186  1.00  0.00     0.074 A 
ATOM     43  C   UNL A   1      39.002  33.586  35.073  1.00  0.00     0.049 A 
ATOM     44  N   UNL A   1      39.689  31.185  33.389  1.00  0.00    -0.248 NA
ATOM     45  C   UNL A   1      37.931  31.770  31.966  1.00  0.00     0.031 C 
ATOM     46  C   UNL A   1      38.707  34.727  35.936  1.00  0.00     0.029 A 
ATOM     47  N   UNL A   1      40.128  33.024  35.629  1.00  0.00    -0.354 N 
ATOM     48  C   UNL A   1      39.634  30.279  32.334  1.00  0.00     0.074 A 
ATOM     49  C   UNL A   1      38.506  30.667  31.511  1.00  0.00     0.031 C 
ATOM     50  C   UNL A   1      39.590  34.748  36.948  1.00  0.00     0.029 A 
ATOM     51  C   UNL A   1      40.488  33.599  36.825  1.00  0.00     0.049 A 
ATOM     52  H   UNL A   1      40.626  32.284  35.212  1.00  0.00     0.167 HD
ATOM     53  C   UNL A   1      40.449  29.226  32.075  1.00  0.00     0.034 A 
ATOM     54  C   UNL A   1      41.394  33.214  37.746  1.00  0.00     0.034 A 
ATOM     55  C   UNL A   1      41.561  28.843  32.912  1.00  0.00     0.049 A 
ATOM     56  C   UNL A   1      42.236  31.988  37.494  1.00  0.00     0.074 A 
ATOM     57  C   UNL A   1      42.481  27.828  32.717  1.00  0.00     0.029 A 
ATOM     58  N   UNL A   1      41.891  29.445  34.121  1.00  0.00    -0.354 N 
ATOM     59  N   UNL A   1      42.200  31.155  36.480  1.00  0.00    -0.248 NA
ATOM     60  C   UNL A   1      43.248  31.656  38.507  1.00  0.00     0.031 C 
ATOM     61  C   UNL A   1      43.317  27.767  33.838  1.00  0.00     0.029 A 
ATOM     62  C   UNL A   1      42.971  28.796  34.700  1.00  0.00     0.049 A 
ATOM     63  H   UNL A   1      41.424  30.220  34.511  1.00  0.00     0.167 HD
ATOM     64  C   UNL A   1      43.202  30.217  36.720  1.00  0.00     0.074 A 
ATOM     65  C   UNL A   1      43.824  30.587  37.975  1.00  0.00     0.031 C 
ATOM     66  C   UNL A   1      43.581  29.159  35.959  1.00  0.00     0.034 A 
BRANCH  53  67
ATOM     67  C   UNL A   1      40.123  28.381  30.865  1.00  0.00     0.023 A 
ATOM     68  C   UNL A   1      40.716  28.617  29.612  1.00  0.00     0.031 A 
ATOM     69  C   UNL A   1      39.168  27.353  30.957  1.00  0.00     0.131 A 
ATOM     70  C   UNL A   1      40.288  27.895  28.487  1.00  0.00     0.055 A 
ATOM     71  C   UNL A   1      38.804  26.584  29.849  1.00  0.00     0.041 A 
ATOM     72  F   UNL A   1      38.553  27.093  32.121  1.00  0.00    -0.206 F 
ATOM     73  C   UNL A   1      39.351  26.866  28.602  1.00  0.00     0.022 A 
BRANCH  70  74
ATOM     74  S   UNL A   1      40.850  28.429  26.847  1.00  0.00     0.124 S 
ATOM     75  O   UNL A   1      40.938  27.158  26.132  1.00  0.00    -0.237 OA
ATOM     76  O   UNL A   1      39.780  29.327  26.424  1.00  0.00    -0.237 OA
ATOM     77  O   UNL A   1      42.135  29.073  27.117  1.00  0.00    -0.744 OA
ENDBRANCH  70  74
ENDBRANCH  53  67
BRANCH  54  78
ATOM     78  C   UNL A   1      41.501  33.962  39.030  1.00  0.00     0.023 A 
ATOM     79  C   UNL A   1      42.409  35.018  39.191  1.00  0.00     0.031 A 
ATOM     80  C   UNL A   1      40.686  33.614  40.124  1.00  0.00     0.131 A 
ATOM     81  C   UNL A   1      42.498  35.675  40.429  1.00  0.00     0.055 A 
ATOM     82  C   UNL A   1      40.753  34.294  41.339  1.00  0.00     0.041 A 
ATOM     83  F   UNL A   1      39.792  32.620  40.013  1.00  0.00    -0.206 F 
ATOM     84  C   UNL A   1      41.670  35.327  41.500  1.00  0.00     0.022 A 
BRANCH  81  85
ATOM     85  S   UNL A   1      43.742  36.978  40.636  1.00  0.00     0.124 S 
ATOM     86  O   UNL A   1      43.222  37.708  41.786  1.00  0.00    -0.237 OA
ATOM     87  O   UNL A   1      44.958  36.204  40.864  1.00  0.00    -0.237 OA
ATOM     88  O   UNL A   1      43.697  37.698  39.365  1.00  0.00    -0.744 OA
ENDBRANCH  81  85
ENDBRANCH  54  78
BRANCH  66  89
ATOM     89  C   UNL A   1      44.766  28.352  36.432  1.00  0.00     0.023 A 
ATOM     90  C   UNL A   1      44.620  27.199  37.224  1.00  0.00     0.031 A 
ATOM     91  C   UNL A   1      46.068  28.739  36.062  1.00  0.00     0.131 A 
ATOM     92  C   UNL A   1      45.758  26.493  37.646  1.00  0.00     0.055 A 
ATOM     93  C   UNL A   1      47.191  28.007  36.445  1.00  0.00     0.041 A 
ATOM     94  F   UNL A   1      46.266  29.834  35.310  1.00  0.00    -0.206 F 
ATOM     95  C   UNL A   1      47.041  26.881  37.248  1.00  0.00     0.022 A 
BRANCH  92  96
ATOM     96  S   UNL A   1      45.552  25.084  38.772  1.00  0.00     0.124 S 
ATOM     97  O   UNL A   1      44.862  25.698  39.902  1.00  0.00    -0.237 OA
ATOM     98  O   UNL A   1      44.763  24.154  37.971  1.00  0.00    -0.237 OA
ATOM     99  O   UNL A   1      46.923  24.656  39.042  1.00  0.00    -0.744 OA
ENDBRANCH  92  96
ENDBRANCH  66  89
ENDBRANCH  40  41
ENDBRANCH  33  35
ENDBRANCH  32  33
ENDBRANCH  31  32
ENDBRANCH  30  31
ENDBRANCH  29  30
ENDBRANCH  28  29
ENDBRANCH   1  28
TORSDOF 24
ENDMDL
MODEL 2
REMARK VINA RESULT:      -9.3      5.505     10.806
REMARK SMILES O=C(OCCOCCOCCOC(=O)c1ccc(-c2c3nc(c(-c4cc(S(=O)(=O)[O-])ccc4F)c4ccc([nH]4)c(-c4cc(S(=O)(=O)[O-])ccc4F)c4nc(c(-c5cc(S(=O)(=O)[O-])ccc5F)c5ccc2[nH]5)C=C4)C=C3)cc1)c1ccc(NS(=O)(=O)Cc2c(Cl)cccc2Cl)cc1
REMARK SMILES IDX 7 1 6 2 5 3 4 4 3 5 2 6 1 7 78 8 79 9 96 10 80 11 95 12
REMARK SMILES IDX 81 13 82 14 83 16 84 17 85 18 86 19 87 20 88 21 93 22 89 23
REMARK SMILES IDX 90 24 92 25 94 26 91 27 8 28 9 29 10 30 11 31 12 32 13 33
REMARK SMILES IDX 14 34 15 35 16 36 77 37 17 38 76 39 18 40 19 41 20 42 70 43
REMARK SMILES IDX 21 44 75 45 69 46 71 47 22 48 74 49 68 50 67 51 23 53 55 54
REMARK SMILES IDX 35 55 54 56 36 57 39 58 53 59 72 60 37 61 38 62 52 64 73 65
REMARK SMILES IDX 40 66 24 67 25 68 33 69 26 70 32 71 34 72 31 73 27 74 28 75
REMARK SMILES IDX 29 76 30 77 56 78 57 79 65 80 58 81 64 82 66 83 63 84 59 85
REMARK SMILES IDX 60 86 61 87 62 88 41 89 42 90 50 91 43 92 49 93 51 94 48 95
REMARK SMILES IDX 44 96 45 97 46 98 47 99
REMARK H PARENT 82 15 71 52 39 63
REMARK Flexibility Score: inf
ROOT
ATOM      1  C   UNL A   1      43.952  26.780  26.891  1.00  0.00     0.188 C 
ENDROOT
BRANCH   1   2
ATOM      2  O   UNL A   1      42.528  26.641  26.888  1.00  0.00    -0.376 OA
BRANCH   2   3
ATOM      3  C   UNL A   1      41.805  27.852  26.749  1.00  0.00     0.202 C 
BRANCH   3   4
ATOM      4  C   UNL A   1      40.465  27.917  27.484  1.00  0.00     0.261 C 
BRANCH   4   5
ATOM      5  O   UNL A   1      40.166  29.210  28.034  1.00  0.00    -0.460 OA
BRANCH   5   6
ATOM      6  C   UNL A   1      39.035  29.503  28.728  1.00  0.00     0.338 C 
ATOM      7  O   UNL A   1      37.957  29.637  28.162  1.00  0.00    -0.246 OA
BRANCH   6   8
ATOM      8  C   UNL A   1      39.106  29.601  30.201  1.00  0.00     0.060 A 
ATOM      9  C   UNL A   1      39.677  30.709  30.827  1.00  0.00     0.018 A 
ATOM     10  C   UNL A   1      38.539  28.587  30.971  1.00  0.00     0.018 A 
ATOM     11  C   UNL A   1      39.798  30.752  32.217  1.00  0.00     0.027 A 
ATOM     12  C   UNL A   1      38.636  28.647  32.364  1.00  0.00     0.027 A 
ATOM     13  C   UNL A   1      39.293  29.712  32.992  1.00  0.00     0.049 A 
BRANCH  13  14
ATOM     14  N   UNL A   1      39.527  29.575  34.383  1.00  0.00    -0.283 N 
ATOM     15  H   UNL A   1      38.732  29.587  34.964  1.00  0.00     0.180 HD
BRANCH  14  16
ATOM     16  S   UNL A   1      40.987  29.398  35.135  1.00  0.00     0.237 S 
ATOM     17  O   UNL A   1      41.592  30.698  35.297  1.00  0.00    -0.206 OA
ATOM     18  O   UNL A   1      40.697  28.583  36.304  1.00  0.00    -0.206 OA
BRANCH  16  19
ATOM     19  C   UNL A   1      42.078  28.402  34.104  1.00  0.00     0.198 C 
BRANCH  19  20
ATOM     20  C   UNL A   1      43.547  28.763  34.009  1.00  0.00     0.006 A 
ATOM     21  C   UNL A   1      44.469  28.213  34.935  1.00  0.00     0.046 A 
ATOM     22  C   UNL A   1      44.106  29.477  32.932  1.00  0.00     0.046 A 
ATOM     23  Cl  UNL A   1      43.990  27.172  36.236  1.00  0.00    -0.084 Cl
ATOM     24  C   UNL A   1      45.851  28.423  34.819  1.00  0.00     0.021 A 
ATOM     25  C   UNL A   1      45.484  29.750  32.867  1.00  0.00     0.021 A 
ATOM     26  Cl  UNL A   1      43.192  29.948  31.542  1.00  0.00    -0.084 Cl
ATOM     27  C   UNL A   1      46.358  29.223  33.808  1.00  0.00     0.003 A 
ENDBRANCH  19  20
ENDBRANCH  16  19
ENDBRANCH  14  16
ENDBRANCH  13  14
ENDBRANCH   6   8
ENDBRANCH   5   6
ENDBRANCH   4   5
ENDBRANCH   3   4
ENDBRANCH   2   3
ENDBRANCH   1   2
BRANCH   1  28
ATOM     28  C   UNL A   1      44.296  28.273  26.882  1.00  0.00     0.188 C 
BRANCH  28  29
ATOM     29  O   UNL A   1      45.094  28.685  25.769  1.00  0.00    -0.376 OA
BRANCH  29  30
ATOM     30  C   UNL A   1      46.352  29.286  26.065  1.00  0.00     0.202 C 
BRANCH  30  31
ATOM     31  C   UNL A   1      46.358  30.803  26.280  1.00  0.00     0.261 C 
BRANCH  31  32
ATOM     32  O   UNL A   1      45.163  31.482  25.857  1.00  0.00    -0.460 OA
BRANCH  32  33
ATOM     33  C   UNL A   1      45.143  32.807  26.146  1.00  0.00     0.338 C 
ATOM     34  O   UNL A   1      45.831  33.683  25.646  1.00  0.00    -0.246 OA
BRANCH  33  35
ATOM     35  C   UNL A   1      44.186  33.088  27.227  1.00  0.00     0.060 A 
ATOM     36  C   UNL A   1      43.891  34.408  27.580  1.00  0.00     0.016 A 
ATOM     37  C   UNL A   1      43.733  32.025  28.010  1.00  0.00     0.016 A 
ATOM     38  C   UNL A   1      43.172  34.671  28.752  1.00  0.00     0.010 A 
ATOM     39  C   UNL A   1      43.011  32.292  29.176  1.00  0.00     0.010 A 
ATOM     40  C   UNL A   1      42.757  33.615  29.578  1.00  0.00    -0.014 A 
BRANCH  40  41
ATOM     41  C   UNL A   1      42.181  33.854  30.930  1.00  0.00     0.031 A 
ATOM     42  C   UNL A   1      43.061  33.686  32.139  1.00  0.00     0.074 A 
ATOM     43  C   UNL A   1      40.878  34.143  31.092  1.00  0.00     0.049 A 
ATOM     44  N   UNL A   1      42.742  33.660  33.409  1.00  0.00    -0.248 NA
ATOM     45  C   UNL A   1      44.497  33.515  31.874  1.00  0.00     0.031 C 
ATOM     46  C   UNL A   1      39.926  34.367  30.008  1.00  0.00     0.029 A 
ATOM     47  N   UNL A   1      40.122  34.255  32.235  1.00  0.00    -0.354 N 
ATOM     48  C   UNL A   1      43.934  33.449  34.096  1.00  0.00     0.074 A 
ATOM     49  C   UNL A   1      44.975  33.328  33.096  1.00  0.00     0.031 C 
ATOM     50  C   UNL A   1      38.699  34.529  30.532  1.00  0.00     0.029 A 
ATOM     51  C   UNL A   1      38.776  34.381  31.985  1.00  0.00     0.049 A 
ATOM     52  H   UNL A   1      40.507  34.245  33.142  1.00  0.00     0.167 HD
ATOM     53  C   UNL A   1      44.139  33.368  35.434  1.00  0.00     0.034 A 
ATOM     54  C   UNL A   1      37.720  34.325  32.821  1.00  0.00     0.034 A 
ATOM     55  C   UNL A   1      43.089  33.476  36.419  1.00  0.00     0.049 A 
ATOM     56  C   UNL A   1      37.950  34.142  34.301  1.00  0.00     0.074 A 
ATOM     57  C   UNL A   1      43.193  33.460  37.799  1.00  0.00     0.029 A 
ATOM     58  N   UNL A   1      41.735  33.596  36.128  1.00  0.00    -0.354 N 
ATOM     59  N   UNL A   1      39.081  33.975  34.946  1.00  0.00    -0.248 NA
ATOM     60  C   UNL A   1      36.762  34.151  35.166  1.00  0.00     0.031 C 
ATOM     61  C   UNL A   1      41.903  33.494  38.340  1.00  0.00     0.029 A 
ATOM     62  C   UNL A   1      40.993  33.611  37.299  1.00  0.00     0.049 A 
ATOM     63  H   UNL A   1      41.357  33.660  35.221  1.00  0.00     0.167 HD
ATOM     64  C   UNL A   1      38.742  33.887  36.295  1.00  0.00     0.074 A 
ATOM     65  C   UNL A   1      37.302  34.018  36.370  1.00  0.00     0.031 C 
ATOM     66  C   UNL A   1      39.554  33.729  37.371  1.00  0.00     0.034 A 
BRANCH  53  67
ATOM     67  C   UNL A   1      45.549  33.089  35.900  1.00  0.00     0.023 A 
ATOM     68  C   UNL A   1      46.571  34.048  35.791  1.00  0.00     0.031 A 
ATOM     69  C   UNL A   1      45.887  31.826  36.419  1.00  0.00     0.131 A 
ATOM     70  C   UNL A   1      47.894  33.704  36.114  1.00  0.00     0.055 A 
ATOM     71  C   UNL A   1      47.190  31.515  36.814  1.00  0.00     0.041 A 
ATOM     72  F   UNL A   1      44.959  30.862  36.530  1.00  0.00    -0.206 F 
ATOM     73  C   UNL A   1      48.205  32.450  36.645  1.00  0.00     0.022 A 
BRANCH  70  74
ATOM     74  S   UNL A   1      49.223  34.859  35.677  1.00  0.00     0.124 S 
ATOM     75  O   UNL A   1      49.994  34.076  34.714  1.00  0.00    -0.237 OA
ATOM     76  O   UNL A   1      48.487  35.995  35.134  1.00  0.00    -0.237 OA
ATOM     77  O   UNL A   1      49.898  35.103  36.951  1.00  0.00    -0.744 OA
ENDBRANCH  70  74
ENDBRANCH  53  67
BRANCH  54  78
ATOM     78  C   UNL A   1      36.338  34.372  32.265  1.00  0.00     0.023 A 
ATOM     79  C   UNL A   1      35.528  35.507  32.405  1.00  0.00     0.031 A 
ATOM     80  C   UNL A   1      35.810  33.258  31.585  1.00  0.00     0.131 A 
ATOM     81  C   UNL A   1      34.221  35.496  31.892  1.00  0.00     0.055 A 
ATOM     82  C   UNL A   1      34.524  33.266  31.045  1.00  0.00     0.041 A 
ATOM     83  F   UNL A   1      36.552  32.154  31.413  1.00  0.00    -0.206 F 
ATOM     84  C   UNL A   1      33.718  34.388  31.205  1.00  0.00     0.022 A 
BRANCH  81  85
ATOM     85  S   UNL A   1      33.166  36.945  32.164  1.00  0.00     0.124 S 
ATOM     86  O   UNL A   1      31.939  36.333  32.659  1.00  0.00    -0.237 OA
ATOM     87  O   UNL A   1      33.941  37.708  33.136  1.00  0.00    -0.237 OA
ATOM     88  O   UNL A   1      33.071  37.551  30.836  1.00  0.00    -0.744 OA
ENDBRANCH  81  85
ENDBRANCH  54  78
BRANCH  66  89
ATOM     89  C   UNL A   1      38.911  33.749  38.736  1.00  0.00     0.023 A 
ATOM     90  C   UNL A   1      38.315  32.607  39.301  1.00  0.00     0.031 A 
ATOM     91  C   UNL A   1      38.915  34.936  39.493  1.00  0.00     0.131 A 
ATOM     92  C   UNL A   1      37.720  32.685  40.570  1.00  0.00     0.055 A 
ATOM     93  C   UNL A   1      38.364  34.994  40.773  1.00  0.00     0.041 A 
ATOM     94  F   UNL A   1      39.467  36.057  39.002  1.00  0.00    -0.206 F 
ATOM     95  C   UNL A   1      37.755  33.867  41.316  1.00  0.00     0.022 A 
BRANCH  92  96
ATOM     96  S   UNL A   1      36.845  31.235  41.222  1.00  0.00     0.124 S 
ATOM     97  O   UNL A   1      36.409  31.708  42.532  1.00  0.00    -0.237 OA
ATOM     98  O   UNL A   1      35.791  31.031  40.233  1.00  0.00    -0.237 OA
ATOM     99  O   UNL A   1      37.874  30.197  41.250  1.00  0.00    -0.744 OA
ENDBRANCH  92  96
ENDBRANCH  66  89
ENDBRANCH  40  41
ENDBRANCH  33  35
ENDBRANCH  32  33
ENDBRANCH  31  32
ENDBRANCH  30  31
ENDBRANCH  29  30
ENDBRANCH  28  29
ENDBRANCH   1  28
TORSDOF 24
ENDMDL
MODEL 3
REMARK VINA RESULT:      -9.3      1.836      2.348
REMARK SMILES O=C(OCCOCCOCCOC(=O)c1ccc(-c2c3nc(c(-c4cc(S(=O)(=O)[O-])ccc4F)c4ccc([nH]4)c(-c4cc(S(=O)(=O)[O-])ccc4F)c4nc(c(-c5cc(S(=O)(=O)[O-])ccc5F)c5ccc2[nH]5)C=C4)C=C3)cc1)c1ccc(NS(=O)(=O)Cc2c(Cl)cccc2Cl)cc1
REMARK SMILES IDX 7 1 6 2 5 3 4 4 3 5 2 6 1 7 78 8 79 9 96 10 80 11 95 12
REMARK SMILES IDX 81 13 82 14 83 16 84 17 85 18 86 19 87 20 88 21 93 22 89 23
REMARK SMILES IDX 90 24 92 25 94 26 91 27 8 28 9 29 10 30 11 31 12 32 13 33
REMARK SMILES IDX 14 34 15 35 16 36 77 37 17 38 76 39 18 40 19 41 20 42 70 43
REMARK SMILES IDX 21 44 75 45 69 46 71 47 22 48 74 49 68 50 67 51 23 53 55 54
REMARK SMILES IDX 35 55 54 56 36 57 39 58 53 59 72 60 37 61 38 62 52 64 73 65
REMARK SMILES IDX 40 66 24 67 25 68 33 69 26 70 32 71 34 72 31 73 27 74 28 75
REMARK SMILES IDX 29 76 30 77 56 78 57 79 65 80 58 81 64 82 66 83 63 84 59 85
REMARK SMILES IDX 60 86 61 87 62 88 41 89 42 90 50 91 43 92 49 93 51 94 48 95
REMARK SMILES IDX 44 96 45 97 46 98 47 99
REMARK H PARENT 82 15 71 52 39 63
REMARK Flexibility Score: inf
ROOT
ATOM      1  C   UNL A   1      35.260  33.147  29.386  1.00  0.00     0.188 C 
ENDROOT
BRANCH   1   2
ATOM      2  O   UNL A   1      34.653  31.888  29.077  1.00  0.00    -0.376 OA
BRANCH   2   3
ATOM      3  C   UNL A   1      34.089  31.794  27.780  1.00  0.00     0.202 C 
BRANCH   3   4
ATOM      4  C   UNL A   1      33.807  30.377  27.276  1.00  0.00     0.261 C 
BRANCH   4   5
ATOM      5  O   UNL A   1      32.428  30.136  26.959  1.00  0.00    -0.460 OA
BRANCH   5   6
ATOM      6  C   UNL A   1      31.999  29.507  25.834  1.00  0.00     0.338 C 
ATOM      7  O   UNL A   1      31.130  29.997  25.123  1.00  0.00    -0.246 OA
BRANCH   6   8
ATOM      8  C   UNL A   1      32.642  28.238  25.436  1.00  0.00     0.060 A 
ATOM      9  C   UNL A   1      32.692  27.147  26.304  1.00  0.00     0.018 A 
ATOM     10  C   UNL A   1      33.157  28.120  24.146  1.00  0.00     0.018 A 
ATOM     11  C   UNL A   1      33.365  25.981  25.936  1.00  0.00     0.027 A 
ATOM     12  C   UNL A   1      33.805  26.940  23.771  1.00  0.00     0.027 A 
ATOM     13  C   UNL A   1      33.941  25.878  24.673  1.00  0.00     0.049 A 
BRANCH  13  14
ATOM     14  N   UNL A   1      34.794  24.819  24.275  1.00  0.00    -0.283 N 
ATOM     15  H   UNL A   1      35.640  24.728  24.770  1.00  0.00     0.180 HD
BRANCH  14  16
ATOM     16  S   UNL A   1      34.525  23.721  23.070  1.00  0.00     0.237 S 
ATOM     17  O   UNL A   1      33.695  24.330  22.058  1.00  0.00    -0.206 OA
ATOM     18  O   UNL A   1      35.848  23.231  22.723  1.00  0.00    -0.206 OA
BRANCH  16  19
ATOM     19  C   UNL A   1      33.636  22.303  23.737  1.00  0.00     0.198 C 
BRANCH  19  20
ATOM     20  C   UNL A   1      33.315  22.255  25.216  1.00  0.00     0.006 A 
ATOM     21  C   UNL A   1      34.308  21.842  26.140  1.00  0.00     0.046 A 
ATOM     22  C   UNL A   1      32.133  22.778  25.775  1.00  0.00     0.046 A 
ATOM     23  Cl  UNL A   1      35.888  21.319  25.655  1.00  0.00    -0.084 Cl
ATOM     24  C   UNL A   1      34.098  21.891  27.526  1.00  0.00     0.021 A 
ATOM     25  C   UNL A   1      31.899  22.750  27.161  1.00  0.00     0.021 A 
ATOM     26  Cl  UNL A   1      30.946  23.621  24.840  1.00  0.00    -0.084 Cl
ATOM     27  C   UNL A   1      32.881  22.310  28.039  1.00  0.00     0.003 A 
ENDBRANCH  19  20
ENDBRANCH  16  19
ENDBRANCH  14  16
ENDBRANCH  13  14
ENDBRANCH   6   8
ENDBRANCH   5   6
ENDBRANCH   4   5
ENDBRANCH   3   4
ENDBRANCH   2   3
ENDBRANCH   1   2
BRANCH   1  28
ATOM     28  C   UNL A   1      34.939  34.132  28.258  1.00  0.00     0.188 C 
BRANCH  28  29
ATOM     29  O   UNL A   1      34.161  35.261  28.667  1.00  0.00    -0.376 OA
BRANCH  29  30
ATOM     30  C   UNL A   1      33.066  35.004  29.544  1.00  0.00     0.202 C 
BRANCH  30  31
ATOM     31  C   UNL A   1      32.701  36.115  30.534  1.00  0.00     0.261 C 
BRANCH  31  32
ATOM     32  O   UNL A   1      33.555  36.206  31.687  1.00  0.00    -0.460 OA
BRANCH  32  33
ATOM     33  C   UNL A   1      33.511  35.122  32.500  1.00  0.00     0.338 C 
ATOM     34  O   UNL A   1      32.525  34.475  32.817  1.00  0.00    -0.246 OA
BRANCH  33  35
ATOM     35  C   UNL A   1      34.847  34.820  33.036  1.00  0.00     0.060 A 
ATOM     36  C   UNL A   1      35.989  35.297  32.385  1.00  0.00     0.016 A 
ATOM     37  C   UNL A   1      34.956  33.901  34.081  1.00  0.00     0.016 A 
ATOM     38  C   UNL A   1      37.252  34.816  32.755  1.00  0.00     0.010 A 
ATOM     39  C   UNL A   1      36.218  33.429  34.450  1.00  0.00     0.010 A 
ATOM     40  C   UNL A   1      37.372  33.851  33.767  1.00  0.00    -0.014 A 
BRANCH  40  41
ATOM     41  C   UNL A   1      38.661  33.161  34.045  1.00  0.00     0.031 A 
ATOM     42  C   UNL A   1      39.054  31.980  33.199  1.00  0.00     0.074 A 
ATOM     43  C   UNL A   1      39.438  33.525  35.079  1.00  0.00     0.049 A 
ATOM     44  N   UNL A   1      40.025  31.117  33.367  1.00  0.00    -0.248 NA
ATOM     45  C   UNL A   1      38.231  31.737  32.006  1.00  0.00     0.031 C 
ATOM     46  C   UNL A   1      39.192  34.668  35.954  1.00  0.00     0.029 A 
ATOM     47  N   UNL A   1      40.572  32.942  35.595  1.00  0.00    -0.354 N 
ATOM     48  C   UNL A   1      39.919  30.216  32.312  1.00  0.00     0.074 A 
ATOM     49  C   UNL A   1      38.771  30.625  31.529  1.00  0.00     0.031 C 
ATOM     50  C   UNL A   1      40.110  34.671  36.936  1.00  0.00     0.029 A 
ATOM     51  C   UNL A   1      40.982  33.507  36.780  1.00  0.00     0.049 A 
ATOM     52  H   UNL A   1      41.042  32.194  35.160  1.00  0.00     0.167 HD
ATOM     53  C   UNL A   1      40.707  29.150  32.023  1.00  0.00     0.034 A 
ATOM     54  C   UNL A   1      41.912  33.103  37.669  1.00  0.00     0.034 A 
ATOM     55  C   UNL A   1      41.839  28.745  32.821  1.00  0.00     0.049 A 
ATOM     56  C   UNL A   1      42.724  31.863  37.386  1.00  0.00     0.074 A 
ATOM     57  C   UNL A   1      42.734  27.714  32.592  1.00  0.00     0.029 A 
ATOM     58  N   UNL A   1      42.220  29.337  34.020  1.00  0.00    -0.354 N 
ATOM     59  N   UNL A   1      42.639  31.034  36.372  1.00  0.00    -0.248 NA
ATOM     60  C   UNL A   1      43.763  31.510  38.363  1.00  0.00     0.031 C 
ATOM     61  C   UNL A   1      43.606  27.635  33.684  1.00  0.00     0.029 A 
ATOM     62  C   UNL A   1      43.307  28.668  34.561  1.00  0.00     0.049 A 
ATOM     63  H   UNL A   1      41.780  30.119  34.427  1.00  0.00     0.167 HD
ATOM     64  C   UNL A   1      43.632  30.078  36.575  1.00  0.00     0.074 A 
ATOM     65  C   UNL A   1      44.302  30.433  37.809  1.00  0.00     0.031 C 
ATOM     66  C   UNL A   1      43.966  29.016  35.799  1.00  0.00     0.034 A 
BRANCH  53  67
ATOM     67  C   UNL A   1      40.325  28.314  30.823  1.00  0.00     0.023 A 
ATOM     68  C   UNL A   1      40.946  28.482  29.573  1.00  0.00     0.031 A 
ATOM     69  C   UNL A   1      39.289  27.368  30.920  1.00  0.00     0.131 A 
ATOM     70  C   UNL A   1      40.472  27.779  28.454  1.00  0.00     0.055 A 
ATOM     71  C   UNL A   1      38.876  26.612  29.821  1.00  0.00     0.041 A 
ATOM     72  F   UNL A   1      38.645  27.176  32.082  1.00  0.00    -0.206 F 
ATOM     73  C   UNL A   1      39.455  26.829  28.575  1.00  0.00     0.022 A 
BRANCH  70  74
ATOM     74  S   UNL A   1      41.090  28.240  26.812  1.00  0.00     0.124 S 
ATOM     75  O   UNL A   1      40.092  29.214  26.380  1.00  0.00    -0.237 OA
ATOM     76  O   UNL A   1      42.415  28.772  27.113  1.00  0.00    -0.237 OA
ATOM     77  O   UNL A   1      41.078  26.978  26.074  1.00  0.00    -0.744 OA
ENDBRANCH  70  74
ENDBRANCH  53  67
BRANCH  54  78
ATOM     78  C   UNL A   1      42.076  33.845  38.950  1.00  0.00     0.023 A 
ATOM     79  C   UNL A   1      41.430  33.433  40.124  1.00  0.00     0.031 A 
ATOM     80  C   UNL A   1      42.888  34.994  39.007  1.00  0.00     0.131 A 
ATOM     81  C   UNL A   1      41.588  34.180  41.303  1.00  0.00     0.055 A 
ATOM     82  C   UNL A   1      43.070  35.711  40.188  1.00  0.00     0.041 A 
ATOM     83  F   UNL A   1      43.538  35.419  37.913  1.00  0.00    -0.206 F 
ATOM     84  C   UNL A   1      42.411  35.309  41.345  1.00  0.00     0.022 A 
BRANCH  81  85
ATOM     85  S   UNL A   1      40.672  33.675  42.784  1.00  0.00     0.124 S 
ATOM     86  O   UNL A   1      41.062  34.702  43.742  1.00  0.00    -0.237 OA
ATOM     87  O   UNL A   1      39.291  33.722  42.318  1.00  0.00    -0.237 OA
ATOM     88  O   UNL A   1      41.185  32.334  43.061  1.00  0.00    -0.744 OA
ENDBRANCH  81  85
ENDBRANCH  54  78
BRANCH  66  89
ATOM     89  C   UNL A   1      45.152  28.187  36.229  1.00  0.00     0.023 A 
ATOM     90  C   UNL A   1      45.019  27.071  37.074  1.00  0.00     0.031 A 
ATOM     91  C   UNL A   1      46.439  28.515  35.764  1.00  0.00     0.131 A 
ATOM     92  C   UNL A   1      46.158  26.342  37.454  1.00  0.00     0.055 A 
ATOM     93  C   UNL A   1      47.561  27.759  36.106  1.00  0.00     0.041 A 
ATOM     94  F   UNL A   1      46.624  29.573  34.958  1.00  0.00    -0.206 F 
ATOM     95  C   UNL A   1      47.425  26.670  36.961  1.00  0.00     0.022 A 
BRANCH  92  96
ATOM     96  S   UNL A   1      45.979  24.985  38.645  1.00  0.00     0.124 S 
ATOM     97  O   UNL A   1      44.686  24.421  38.270  1.00  0.00    -0.237 OA
ATOM     98  O   UNL A   1      47.145  24.156  38.357  1.00  0.00    -0.237 OA
ATOM     99  O   UNL A   1      46.006  25.660  39.942  1.00  0.00    -0.744 OA
ENDBRANCH  92  96
ENDBRANCH  66  89
ENDBRANCH  40  41
ENDBRANCH  33  35
ENDBRANCH  32  33
ENDBRANCH  31  32
ENDBRANCH  30  31
ENDBRANCH  29  30
ENDBRANCH  28  29
ENDBRANCH   1  28
TORSDOF 24
ENDMDL
