MODEL 1
REMARK VINA RESULT:     -10.9      0.000      0.000
REMARK SMILES O=C(OCCOCCOCCOC(=O)c1ccc(-c2c3nc(c(-c4cc(S(=O)(=O)[O-])ccc4F)c4ccc([nH]4)c(-c4cc(S(=O)(=O)[O-])ccc4F)c4nc(c(-c5cc(S(=O)(=O)[O-])ccc5F)c5ccc2[nH]5)C=C4)C=C3)cc1)C1=Cc2cc(S(F)(F)(F)(F)F)cc(Br)c2O[C@H]1C(F)(F)F
REMARK SMILES IDX 8 1 7 2 6 3 5 4 4 5 3 6 2 7 1 8 78 9 79 10 94 11 80 12 93 13
REMARK SMILES IDX 81 14 92 15 82 16 90 17 89 18 91 19 95 20 96 21 97 22 98 23
REMARK SMILES IDX 83 24 84 25 85 26 86 27 87 28 88 29 9 30 10 31 11 32 12 33
REMARK SMILES IDX 13 34 14 35 15 36 16 37 77 38 17 39 76 40 18 41 19 42 20 43
REMARK SMILES IDX 70 44 21 45 75 46 69 47 71 48 22 49 74 50 68 51 67 52 23 54
REMARK SMILES IDX 55 55 35 56 54 57 36 58 39 59 53 60 72 61 37 62 38 63 52 65
REMARK SMILES IDX 73 66 40 67 24 68 25 69 33 70 26 71 32 72 34 73 31 74 27 75
REMARK SMILES IDX 28 76 29 77 30 78 56 79 57 80 65 81 58 82 64 83 66 84 63 85
REMARK SMILES IDX 59 86 60 87 61 88 62 89 41 90 42 91 50 92 43 93 49 94 51 95
REMARK SMILES IDX 48 96 44 97 45 98 46 99 47 100
REMARK H PARENT 71 53 39 64
REMARK Flexibility Score: inf
ROOT
ATOM      1  C   UNL A   1      37.917  23.047  25.938  1.00  0.00     0.188 C 
ENDROOT
BRANCH   1   2
ATOM      2  C   UNL A   1      36.420  23.269  26.079  1.00  0.00     0.188 C 
BRANCH   2   3
ATOM      3  O   UNL A   1      36.020  24.346  25.244  1.00  0.00    -0.376 OA
BRANCH   3   4
ATOM      4  C   UNL A   1      35.621  23.840  23.978  1.00  0.00     0.202 C 
BRANCH   4   5
ATOM      5  C   UNL A   1      34.344  24.535  23.535  1.00  0.00     0.261 C 
BRANCH   5   6
ATOM      6  O   UNL A   1      33.362  23.560  23.216  1.00  0.00    -0.460 OA
BRANCH   6   7
ATOM      7  C   UNL A   1      32.367  23.216  24.170  1.00  0.00     0.338 C 
ATOM      8  O   UNL A   1      31.182  22.960  23.788  1.00  0.00    -0.246 OA
BRANCH   7   9
ATOM      9  C   UNL A   1      32.720  23.154  25.647  1.00  0.00     0.087 C 
ATOM     10  C   UNL A   1      32.703  24.287  26.399  1.00  0.00     0.027 C 
ATOM     11  C   UNL A   1      33.093  21.825  26.284  1.00  0.00     0.316 C 
ATOM     12  C   UNL A   1      32.331  25.616  25.761  1.00  0.00     0.020 A 
ATOM     13  O   UNL A   1      30.685  24.539  24.426  1.00  0.00    -0.474 OA
ATOM     14  C   UNL A   1      33.037  26.737  26.164  1.00  0.00     0.036 A 
ATOM     15  C   UNL A   1      31.287  25.716  24.945  1.00  0.00     0.142 A 
ATOM     16  C   UNL A   1      32.384  27.960  25.879  1.00  0.00     0.109 A 
ATOM     17  C   UNL A   1      30.784  26.947  24.601  1.00  0.00     0.062 A 
ATOM     18  C   UNL A   1      31.398  28.098  25.011  1.00  0.00     0.044 A 
ATOM     19  Br  UNL A   1      29.164  27.055  23.502  1.00  0.00    -0.047 Br
BRANCH  11  20
ATOM     20  C   UNL A   1      33.035  20.726  25.235  1.00  0.00     0.430 C 
ATOM     21  F   UNL A   1      33.737  21.080  24.162  1.00  0.00    -0.167 F 
ATOM     22  F   UNL A   1      33.561  19.624  25.765  1.00  0.00    -0.167 F 
ATOM     23  F   UNL A   1      31.774  20.491  24.883  1.00  0.00    -0.167 F 
ENDBRANCH  11  20
BRANCH  16  24
ATOM     24  S   UNL A   1      32.939  29.437  26.765  1.00  0.00     0.310 S 
ATOM     25  F   UNL A   1      33.643  28.571  27.892  1.00  0.00    -0.094 F 
ATOM     26  F   UNL A   1      31.625  29.372  27.632  1.00  0.00    -0.094 F 
ATOM     27  F   UNL A   1      33.413  30.705  27.530  1.00  0.00    -0.094 F 
ATOM     28  F   UNL A   1      34.311  29.404  25.984  1.00  0.00    -0.094 F 
ATOM     29  F   UNL A   1      32.521  28.085  26.060  1.00  0.00    -0.094 F 
ENDBRANCH  16  24
ENDBRANCH   7   9
ENDBRANCH   6   7
ENDBRANCH   5   6
ENDBRANCH   4   5
ENDBRANCH   3   4
ENDBRANCH   2   3
ENDBRANCH   1   2
BRANCH   1  30
ATOM     30  O   UNL A   1      38.153  21.781  25.339  1.00  0.00    -0.376 OA
BRANCH  30  31
ATOM     31  C   UNL A   1      39.114  21.067  26.103  1.00  0.00     0.202 C 
BRANCH  31  32
ATOM     32  C   UNL A   1      39.481  19.781  25.380  1.00  0.00     0.261 C 
BRANCH  32  33
ATOM     33  O   UNL A   1      40.460  19.078  26.129  1.00  0.00    -0.460 OA
BRANCH  33  34
ATOM     34  C   UNL A   1      41.837  19.380  25.957  1.00  0.00     0.338 C 
ATOM     35  O   UNL A   1      42.615  18.523  25.433  1.00  0.00    -0.246 OA
BRANCH  34  36
ATOM     36  C   UNL A   1      42.381  20.727  26.401  1.00  0.00     0.060 A 
ATOM     37  C   UNL A   1      42.687  21.611  25.380  1.00  0.00     0.016 A 
ATOM     38  C   UNL A   1      42.431  21.103  27.675  1.00  0.00     0.016 A 
ATOM     39  C   UNL A   1      43.319  22.798  25.818  1.00  0.00     0.010 A 
ATOM     40  C   UNL A   1      42.936  22.333  28.022  1.00  0.00     0.010 A 
ATOM     41  C   UNL A   1      43.313  23.234  27.066  1.00  0.00    -0.014 A 
BRANCH  41  42
ATOM     42  C   UNL A   1      43.705  24.659  27.418  1.00  0.00     0.031 A 
ATOM     43  C   UNL A   1      42.734  25.582  27.808  1.00  0.00     0.074 A 
ATOM     44  C   UNL A   1      45.025  24.987  27.155  1.00  0.00     0.049 A 
ATOM     45  N   UNL A   1      42.895  26.889  28.026  1.00  0.00    -0.248 NA
ATOM     46  C   UNL A   1      41.325  25.242  28.054  1.00  0.00     0.031 C 
ATOM     47  C   UNL A   1      46.012  24.061  26.768  1.00  0.00     0.029 A 
ATOM     48  N   UNL A   1      45.614  26.231  27.215  1.00  0.00    -0.354 N 
ATOM     49  C   UNL A   1      41.738  27.438  28.405  1.00  0.00     0.074 A 
ATOM     50  C   UNL A   1      40.712  26.388  28.423  1.00  0.00     0.031 C 
ATOM     51  C   UNL A   1      47.177  24.737  26.587  1.00  0.00     0.029 A 
ATOM     52  C   UNL A   1      46.937  26.097  26.857  1.00  0.00     0.049 A 
ATOM     53  H   UNL A   1      45.166  27.070  27.469  1.00  0.00     0.167 HD
ATOM     54  C   UNL A   1      41.502  28.772  28.739  1.00  0.00     0.034 A 
ATOM     55  C   UNL A   1      47.896  27.093  26.762  1.00  0.00     0.034 A 
ATOM     56  C   UNL A   1      42.472  29.761  28.688  1.00  0.00     0.049 A 
ATOM     57  C   UNL A   1      47.645  28.440  27.040  1.00  0.00     0.074 A 
ATOM     58  C   UNL A   1      42.252  31.109  29.028  1.00  0.00     0.029 A 
ATOM     59  N   UNL A   1      43.789  29.632  28.306  1.00  0.00    -0.354 N 
ATOM     60  N   UNL A   1      46.500  28.981  27.458  1.00  0.00    -0.248 NA
ATOM     61  C   UNL A   1      48.644  29.508  26.914  1.00  0.00     0.031 C 
ATOM     62  C   UNL A   1      43.417  31.786  28.845  1.00  0.00     0.029 A 
ATOM     63  C   UNL A   1      44.384  30.872  28.387  1.00  0.00     0.049 A 
ATOM     64  H   UNL A   1      44.229  28.798  28.024  1.00  0.00     0.167 HD
ATOM     65  C   UNL A   1      46.650  30.295  27.636  1.00  0.00     0.074 A 
ATOM     66  C   UNL A   1      48.030  30.655  27.281  1.00  0.00     0.031 C 
ATOM     67  C   UNL A   1      45.694  31.209  28.083  1.00  0.00     0.034 A 
BRANCH  54  68
ATOM     68  C   UNL A   1      40.102  29.163  29.184  1.00  0.00     0.023 A 
ATOM     69  C   UNL A   1      39.754  29.414  30.501  1.00  0.00     0.031 A 
ATOM     70  C   UNL A   1      39.245  29.376  28.192  1.00  0.00     0.131 A 
ATOM     71  C   UNL A   1      38.368  29.618  30.699  1.00  0.00     0.055 A 
ATOM     72  C   UNL A   1      37.937  29.706  28.457  1.00  0.00     0.041 A 
ATOM     73  F   UNL A   1      39.656  29.270  26.933  1.00  0.00    -0.206 F 
ATOM     74  C   UNL A   1      37.510  29.911  29.739  1.00  0.00     0.022 A 
BRANCH  71  75
ATOM     75  S   UNL A   1      37.727  29.466  32.385  1.00  0.00     0.124 S 
ATOM     76  O   UNL A   1      38.575  30.317  33.333  1.00  0.00    -0.237 OA
ATOM     77  O   UNL A   1      36.276  29.951  32.424  1.00  0.00    -0.237 OA
ATOM     78  O   UNL A   1      37.794  27.828  32.874  1.00  0.00    -0.744 OA
ENDBRANCH  71  75
ENDBRANCH  54  68
BRANCH  55  79
ATOM     79  C   UNL A   1      49.300  26.699  26.334  1.00  0.00     0.023 A 
ATOM     80  C   UNL A   1      50.317  26.519  27.257  1.00  0.00     0.031 A 
ATOM     81  C   UNL A   1      49.545  26.690  25.029  1.00  0.00     0.131 A 
ATOM     82  C   UNL A   1      51.616  26.624  26.707  1.00  0.00     0.055 A 
ATOM     83  C   UNL A   1      50.836  26.655  24.560  1.00  0.00     0.041 A 
ATOM     84  F   UNL A   1      48.531  26.715  24.168  1.00  0.00    -0.206 F 
ATOM     85  C   UNL A   1      51.893  26.537  25.419  1.00  0.00     0.022 A 
BRANCH  82  86
ATOM     86  S   UNL A   1      52.994  26.898  27.848  1.00  0.00     0.124 S 
ATOM     87  O   UNL A   1      52.683  26.234  29.192  1.00  0.00    -0.237 OA
ATOM     88  O   UNL A   1      54.271  26.290  27.262  1.00  0.00    -0.237 OA
ATOM     89  O   UNL A   1      53.217  28.578  28.081  1.00  0.00    -0.744 OA
ENDBRANCH  82  86
ENDBRANCH  55  79
BRANCH  67  90
ATOM     90  C   UNL A   1      46.114  32.660  28.245  1.00  0.00     0.023 A 
ATOM     91  C   UNL A   1      46.670  32.987  29.470  1.00  0.00     0.031 A 
ATOM     92  C   UNL A   1      46.062  33.541  27.253  1.00  0.00     0.131 A 
ATOM     93  C   UNL A   1      46.888  34.374  29.647  1.00  0.00     0.055 A 
ATOM     94  C   UNL A   1      46.420  34.852  27.463  1.00  0.00     0.041 A 
ATOM     95  F   UNL A   1      45.661  33.153  26.046  1.00  0.00    -0.206 F 
ATOM     96  C   UNL A   1      46.923  35.259  28.668  1.00  0.00     0.022 A 
BRANCH  93  97
ATOM     97  S   UNL A   1      47.138  34.978  31.336  1.00  0.00     0.124 S 
ATOM     98  O   UNL A   1      45.780  35.186  32.009  1.00  0.00    -0.237 OA
ATOM     99  O   UNL A   1      47.950  33.951  32.130  1.00  0.00    -0.237 OA
ATOM    100  O   UNL A   1      47.986  36.462  31.291  1.00  0.00    -0.744 OA
ENDBRANCH  93  97
ENDBRANCH  67  90
ENDBRANCH  41  42
ENDBRANCH  34  36
ENDBRANCH  33  34
ENDBRANCH  32  33
ENDBRANCH  31  32
ENDBRANCH  30  31
ENDBRANCH   1  30
TORSDOF 22
ENDMDL
MODEL 2
REMARK VINA RESULT:     -10.8      2.843      3.463
REMARK SMILES O=C(OCCOCCOCCOC(=O)c1ccc(-c2c3nc(c(-c4cc(S(=O)(=O)[O-])ccc4F)c4ccc([nH]4)c(-c4cc(S(=O)(=O)[O-])ccc4F)c4nc(c(-c5cc(S(=O)(=O)[O-])ccc5F)c5ccc2[nH]5)C=C4)C=C3)cc1)C1=Cc2cc(S(F)(F)(F)(F)F)cc(Br)c2O[C@H]1C(F)(F)F
REMARK SMILES IDX 8 1 7 2 6 3 5 4 4 5 3 6 2 7 1 8 78 9 79 10 94 11 80 12 93 13
REMARK SMILES IDX 81 14 92 15 82 16 90 17 89 18 91 19 95 20 96 21 97 22 98 23
REMARK SMILES IDX 83 24 84 25 85 26 86 27 87 28 88 29 9 30 10 31 11 32 12 33
REMARK SMILES IDX 13 34 14 35 15 36 16 37 77 38 17 39 76 40 18 41 19 42 20 43
REMARK SMILES IDX 70 44 21 45 75 46 69 47 71 48 22 49 74 50 68 51 67 52 23 54
REMARK SMILES IDX 55 55 35 56 54 57 36 58 39 59 53 60 72 61 37 62 38 63 52 65
REMARK SMILES IDX 73 66 40 67 24 68 25 69 33 70 26 71 32 72 34 73 31 74 27 75
REMARK SMILES IDX 28 76 29 77 30 78 56 79 57 80 65 81 58 82 64 83 66 84 63 85
REMARK SMILES IDX 59 86 60 87 61 88 62 89 41 90 42 91 50 92 43 93 49 94 51 95
REMARK SMILES IDX 48 96 44 97 45 98 46 99 47 100
REMARK H PARENT 71 53 39 64
REMARK Flexibility Score: inf
ROOT
ATOM      1  C   UNL A   1      37.845  21.233  25.374  1.00  0.00     0.188 C 
ENDROOT
BRANCH   1   2
ATOM      2  C   UNL A   1      36.422  21.765  25.420  1.00  0.00     0.188 C 
BRANCH   2   3
ATOM      3  O   UNL A   1      36.410  23.032  26.060  1.00  0.00    -0.376 OA
BRANCH   3   4
ATOM      4  C   UNL A   1      35.981  24.024  25.138  1.00  0.00     0.202 C 
BRANCH   4   5
ATOM      5  C   UNL A   1      34.697  24.663  25.641  1.00  0.00     0.261 C 
BRANCH   5   6
ATOM      6  O   UNL A   1      33.685  24.533  24.653  1.00  0.00    -0.460 OA
BRANCH   6   7
ATOM      7  C   UNL A   1      32.322  24.723  25.003  1.00  0.00     0.338 C 
ATOM      8  O   UNL A   1      32.020  25.372  26.053  1.00  0.00    -0.246 OA
BRANCH   7   9
ATOM      9  C   UNL A   1      31.224  24.150  24.121  1.00  0.00     0.087 C 
ATOM     10  C   UNL A   1      30.459  24.980  23.363  1.00  0.00     0.027 C 
ATOM     11  C   UNL A   1      30.981  22.650  24.090  1.00  0.00     0.316 C 
ATOM     12  C   UNL A   1      30.702  26.480  23.396  1.00  0.00     0.020 A 
ATOM     13  O   UNL A   1      33.047  26.119  23.529  1.00  0.00    -0.474 OA
ATOM     14  C   UNL A   1      29.591  27.307  23.362  1.00  0.00     0.036 A 
ATOM     15  C   UNL A   1      31.932  26.976  23.332  1.00  0.00     0.142 A 
ATOM     16  C   UNL A   1      29.877  28.636  22.968  1.00  0.00     0.109 A 
ATOM     17  C   UNL A   1      32.136  28.311  23.077  1.00  0.00     0.062 A 
ATOM     18  C   UNL A   1      31.082  29.176  22.974  1.00  0.00     0.044 A 
ATOM     19  Br  UNL A   1      33.964  28.984  22.859  1.00  0.00    -0.047 Br
BRANCH  11  20
ATOM     20  C   UNL A   1      31.964  21.957  25.019  1.00  0.00     0.430 C 
ATOM     21  F   UNL A   1      31.623  20.681  25.176  1.00  0.00    -0.167 F 
ATOM     22  F   UNL A   1      33.172  22.028  24.467  1.00  0.00    -0.167 F 
ATOM     23  F   UNL A   1      31.981  22.560  26.205  1.00  0.00    -0.167 F 
ENDBRANCH  11  20
BRANCH  16  24
ATOM     24  S   UNL A   1      28.496  29.666  22.416  1.00  0.00     0.310 S 
ATOM     25  F   UNL A   1      28.986  30.896  23.288  1.00  0.00    -0.094 F 
ATOM     26  F   UNL A   1      27.678  29.188  23.676  1.00  0.00    -0.094 F 
ATOM     27  F   UNL A   1      27.306  30.551  21.947  1.00  0.00    -0.094 F 
ATOM     28  F   UNL A   1      29.378  30.240  21.240  1.00  0.00    -0.094 F 
ATOM     29  F   UNL A   1      29.748  28.859  22.944  1.00  0.00    -0.094 F 
ENDBRANCH  16  24
ENDBRANCH   7   9
ENDBRANCH   6   7
ENDBRANCH   5   6
ENDBRANCH   4   5
ENDBRANCH   3   4
ENDBRANCH   2   3
ENDBRANCH   1   2
BRANCH   1  30
ATOM     30  O   UNL A   1      37.832  19.883  24.934  1.00  0.00    -0.376 OA
BRANCH  30  31
ATOM     31  C   UNL A   1      38.985  19.214  25.423  1.00  0.00     0.202 C 
BRANCH  31  32
ATOM     32  C   UNL A   1      39.882  20.209  26.141  1.00  0.00     0.261 C 
BRANCH  32  33
ATOM     33  O   UNL A   1      41.185  19.662  26.276  1.00  0.00    -0.460 OA
BRANCH  33  34
ATOM     34  C   UNL A   1      42.323  20.456  25.975  1.00  0.00     0.338 C 
ATOM     35  O   UNL A   1      43.277  19.966  25.293  1.00  0.00    -0.246 OA
BRANCH  34  36
ATOM     36  C   UNL A   1      42.400  21.891  26.468  1.00  0.00     0.060 A 
ATOM     37  C   UNL A   1      42.596  22.042  27.831  1.00  0.00     0.016 A 
ATOM     38  C   UNL A   1      42.426  22.937  25.649  1.00  0.00     0.016 A 
ATOM     39  C   UNL A   1      42.525  23.382  28.276  1.00  0.00     0.010 A 
ATOM     40  C   UNL A   1      42.494  24.215  26.149  1.00  0.00     0.010 A 
ATOM     41  C   UNL A   1      42.629  24.439  27.491  1.00  0.00    -0.014 A 
BRANCH  41  42
ATOM     42  C   UNL A   1      42.885  25.829  28.050  1.00  0.00     0.031 A 
ATOM     43  C   UNL A   1      41.819  26.637  28.449  1.00  0.00     0.074 A 
ATOM     44  C   UNL A   1      44.197  26.265  27.962  1.00  0.00     0.049 A 
ATOM     45  N   UNL A   1      41.866  27.913  28.837  1.00  0.00    -0.248 NA
ATOM     46  C   UNL A   1      40.421  26.186  28.510  1.00  0.00     0.031 C 
ATOM     47  C   UNL A   1      45.278  25.454  27.567  1.00  0.00     0.029 A 
ATOM     48  N   UNL A   1      44.688  27.523  28.229  1.00  0.00    -0.354 N 
ATOM     49  C   UNL A   1      40.644  28.340  29.162  1.00  0.00     0.074 A 
ATOM     50  C   UNL A   1      39.697  27.238  28.951  1.00  0.00     0.031 C 
ATOM     51  C   UNL A   1      46.404  26.215  27.586  1.00  0.00     0.029 A 
ATOM     52  C   UNL A   1      46.045  27.514  27.992  1.00  0.00     0.049 A 
ATOM     53  H   UNL A   1      44.161  28.296  28.537  1.00  0.00     0.167 HD
ATOM     54  C   UNL A   1      40.284  29.605  29.629  1.00  0.00     0.034 A 
ATOM     55  C   UNL A   1      46.935  28.569  28.115  1.00  0.00     0.034 A 
ATOM     56  C   UNL A   1      41.182  30.648  29.794  1.00  0.00     0.049 A 
ATOM     57  C   UNL A   1      46.566  29.852  28.526  1.00  0.00     0.074 A 
ATOM     58  C   UNL A   1      40.837  31.927  30.270  1.00  0.00     0.029 A 
ATOM     59  N   UNL A   1      42.534  30.646  29.533  1.00  0.00    -0.354 N 
ATOM     60  N   UNL A   1      45.351  30.268  28.889  1.00  0.00    -0.248 NA
ATOM     61  C   UNL A   1      47.494  30.985  28.631  1.00  0.00     0.031 C 
ATOM     62  C   UNL A   1      41.963  32.689  30.288  1.00  0.00     0.029 A 
ATOM     63  C   UNL A   1      43.030  31.898  29.823  1.00  0.00     0.049 A 
ATOM     64  H   UNL A   1      43.056  29.881  29.199  1.00  0.00     0.167 HD
ATOM     65  C   UNL A   1      45.391  31.555  29.238  1.00  0.00     0.074 A 
ATOM     66  C   UNL A   1      46.769  32.038  29.069  1.00  0.00     0.031 C 
ATOM     67  C   UNL A   1      44.335  32.348  29.693  1.00  0.00     0.034 A 
BRANCH  54  68
ATOM     68  C   UNL A   1      38.824  29.854  29.975  1.00  0.00     0.023 A 
ATOM     69  C   UNL A   1      37.887  30.319  29.069  1.00  0.00     0.031 A 
ATOM     70  C   UNL A   1      38.471  29.468  31.195  1.00  0.00     0.131 A 
ATOM     71  C   UNL A   1      36.628  30.614  29.645  1.00  0.00     0.055 A 
ATOM     72  C   UNL A   1      37.188  29.663  31.647  1.00  0.00     0.041 A 
ATOM     73  F   UNL A   1      39.367  28.886  31.987  1.00  0.00    -0.206 F 
ATOM     74  C   UNL A   1      36.223  30.174  30.823  1.00  0.00     0.022 A 
BRANCH  71  75
ATOM     75  S   UNL A   1      35.497  31.668  28.705  1.00  0.00     0.124 S 
ATOM     76  O   UNL A   1      36.297  32.738  27.960  1.00  0.00    -0.237 OA
ATOM     77  O   UNL A   1      34.724  30.814  27.697  1.00  0.00    -0.237 OA
ATOM     78  O   UNL A   1      34.396  32.420  29.776  1.00  0.00    -0.744 OA
ENDBRANCH  71  75
ENDBRANCH  54  68
BRANCH  55  79
ATOM     79  C   UNL A   1      48.397  28.316  27.785  1.00  0.00     0.023 A 
ATOM     80  C   UNL A   1      48.888  28.467  26.499  1.00  0.00     0.031 A 
ATOM     81  C   UNL A   1      49.144  27.792  28.750  1.00  0.00     0.131 A 
ATOM     82  C   UNL A   1      50.093  27.766  26.259  1.00  0.00     0.055 A 
ATOM     83  C   UNL A   1      50.372  27.245  28.466  1.00  0.00     0.041 A 
ATOM     84  F   UNL A   1      48.700  27.798  30.004  1.00  0.00    -0.206 F 
ATOM     85  C   UNL A   1      50.893  27.307  27.203  1.00  0.00     0.022 A 
BRANCH  82  86
ATOM     86  S   UNL A   1      50.571  27.478  24.537  1.00  0.00     0.124 S 
ATOM     87  O   UNL A   1      51.811  26.582  24.494  1.00  0.00    -0.237 OA
ATOM     88  O   UNL A   1      49.421  26.792  23.796  1.00  0.00    -0.237 OA
ATOM     89  O   UNL A   1      50.921  28.974  23.785  1.00  0.00    -0.744 OA
ENDBRANCH  82  86
ENDBRANCH  55  79
BRANCH  67  90
ATOM     90  C   UNL A   1      44.635  33.789  30.070  1.00  0.00     0.023 A 
ATOM     91  C   UNL A   1      44.412  34.725  29.074  1.00  0.00     0.031 A 
ATOM     92  C   UNL A   1      44.979  34.158  31.298  1.00  0.00     0.131 A 
ATOM     93  C   UNL A   1      44.862  36.026  29.399  1.00  0.00     0.055 A 
ATOM     94  C   UNL A   1      45.274  35.471  31.577  1.00  0.00     0.041 A 
ATOM     95  F   UNL A   1      45.039  33.249  32.267  1.00  0.00    -0.206 F 
ATOM     96  C   UNL A   1      45.134  36.441  30.624  1.00  0.00     0.022 A 
BRANCH  93  97
ATOM     97  S   UNL A   1      45.083  37.205  28.043  1.00  0.00     0.124 S 
ATOM     98  O   UNL A   1      44.215  36.784  26.856  1.00  0.00    -0.237 OA
ATOM     99  O   UNL A   1      44.667  38.602  28.510  1.00  0.00    -0.237 OA
ATOM    100  O   UNL A   1      46.726  37.228  27.569  1.00  0.00    -0.744 OA
ENDBRANCH  93  97
ENDBRANCH  67  90
ENDBRANCH  41  42
ENDBRANCH  34  36
ENDBRANCH  33  34
ENDBRANCH  32  33
ENDBRANCH  31  32
ENDBRANCH  30  31
ENDBRANCH   1  30
TORSDOF 22
ENDMDL
MODEL 3
REMARK VINA RESULT:     -10.7      5.414     10.063
REMARK SMILES O=C(OCCOCCOCCOC(=O)c1ccc(-c2c3nc(c(-c4cc(S(=O)(=O)[O-])ccc4F)c4ccc([nH]4)c(-c4cc(S(=O)(=O)[O-])ccc4F)c4nc(c(-c5cc(S(=O)(=O)[O-])ccc5F)c5ccc2[nH]5)C=C4)C=C3)cc1)C1=Cc2cc(S(F)(F)(F)(F)F)cc(Br)c2O[C@H]1C(F)(F)F
REMARK SMILES IDX 8 1 7 2 6 3 5 4 4 5 3 6 2 7 1 8 78 9 79 10 94 11 80 12 93 13
REMARK SMILES IDX 81 14 92 15 82 16 90 17 89 18 91 19 95 20 96 21 97 22 98 23
REMARK SMILES IDX 83 24 84 25 85 26 86 27 87 28 88 29 9 30 10 31 11 32 12 33
REMARK SMILES IDX 13 34 14 35 15 36 16 37 77 38 17 39 76 40 18 41 19 42 20 43
REMARK SMILES IDX 70 44 21 45 75 46 69 47 71 48 22 49 74 50 68 51 67 52 23 54
REMARK SMILES IDX 55 55 35 56 54 57 36 58 39 59 53 60 72 61 37 62 38 63 52 65
REMARK SMILES IDX 73 66 40 67 24 68 25 69 33 70 26 71 32 72 34 73 31 74 27 75
REMARK SMILES IDX 28 76 29 77 30 78 56 79 57 80 65 81 58 82 64 83 66 84 63 85
REMARK SMILES IDX 59 86 60 87 61 88 62 89 41 90 42 91 50 92 43 93 49 94 51 95
REMARK SMILES IDX 48 96 44 97 45 98 46 99 47 100
REMARK H PARENT 71 53 39 64
REMARK Flexibility Score: inf
ROOT
ATOM      1  C   UNL A   1      32.018  28.707  27.255  1.00  0.00     0.188 C 
ENDROOT
BRANCH   1   2
ATOM      2  C   UNL A   1      31.079  27.699  26.611  1.00  0.00     0.188 C 
BRANCH   2   3
ATOM      3  O   UNL A   1      31.520  26.383  26.910  1.00  0.00    -0.376 OA
BRANCH   3   4
ATOM      4  C   UNL A   1      30.584  25.443  26.401  1.00  0.00     0.202 C 
BRANCH   4   5
ATOM      5  C   UNL A   1      31.301  24.146  26.064  1.00  0.00     0.261 C 
BRANCH   5   6
ATOM      6  O   UNL A   1      32.627  24.433  25.646  1.00  0.00    -0.460 OA
BRANCH   6   7
ATOM      7  C   UNL A   1      33.044  24.105  24.329  1.00  0.00     0.338 C 
ATOM      8  O   UNL A   1      34.265  24.231  23.999  1.00  0.00    -0.246 OA
BRANCH   7   9
ATOM      9  C   UNL A   1      32.031  23.602  23.314  1.00  0.00     0.087 C 
ATOM     10  C   UNL A   1      31.216  24.483  22.674  1.00  0.00     0.027 C 
ATOM     11  C   UNL A   1      31.927  22.116  23.015  1.00  0.00     0.316 C 
ATOM     12  C   UNL A   1      31.319  25.970  22.974  1.00  0.00     0.020 A 
ATOM     13  O   UNL A   1      33.682  25.793  23.151  1.00  0.00    -0.474 OA
ATOM     14  C   UNL A   1      30.138  26.692  23.032  1.00  0.00     0.036 A 
ATOM     15  C   UNL A   1      32.499  26.573  23.052  1.00  0.00     0.142 A 
ATOM     16  C   UNL A   1      30.312  28.089  22.883  1.00  0.00     0.109 A 
ATOM     17  C   UNL A   1      32.587  27.944  23.038  1.00  0.00     0.062 A 
ATOM     18  C   UNL A   1      31.462  28.721  23.036  1.00  0.00     0.044 A 
ATOM     19  Br  UNL A   1      34.351  28.798  23.022  1.00  0.00    -0.047 Br
BRANCH  11  20
ATOM     20  C   UNL A   1      32.942  21.358  23.857  1.00  0.00     0.430 C 
ATOM     21  F   UNL A   1      34.168  21.814  23.616  1.00  0.00    -0.167 F 
ATOM     22  F   UNL A   1      32.640  21.552  25.138  1.00  0.00    -0.167 F 
ATOM     23  F   UNL A   1      32.890  20.058  23.580  1.00  0.00    -0.167 F 
ENDBRANCH  11  20
BRANCH  16  24
ATOM     24  S   UNL A   1      28.859  29.078  22.454  1.00  0.00     0.310 S 
ATOM     25  F   UNL A   1      29.117  30.087  23.649  1.00  0.00    -0.094 F 
ATOM     26  F   UNL A   1      28.011  28.210  23.459  1.00  0.00    -0.094 F 
ATOM     27  F   UNL A   1      27.608  29.926  22.088  1.00  0.00    -0.094 F 
ATOM     28  F   UNL A   1      29.752  30.023  21.559  1.00  0.00    -0.094 F 
ATOM     29  F   UNL A   1      30.158  28.297  22.901  1.00  0.00    -0.094 F 
ENDBRANCH  16  24
ENDBRANCH   7   9
ENDBRANCH   6   7
ENDBRANCH   5   6
ENDBRANCH   4   5
ENDBRANCH   3   4
ENDBRANCH   2   3
ENDBRANCH   1   2
BRANCH   1  30
ATOM     30  O   UNL A   1      32.778  29.356  26.247  1.00  0.00    -0.376 OA
BRANCH  30  31
ATOM     31  C   UNL A   1      33.368  30.532  26.782  1.00  0.00     0.202 C 
BRANCH  31  32
ATOM     32  C   UNL A   1      32.274  31.511  27.177  1.00  0.00     0.261 C 
BRANCH  32  33
ATOM     33  O   UNL A   1      32.726  32.839  26.958  1.00  0.00    -0.460 OA
BRANCH  33  34
ATOM     34  C   UNL A   1      33.226  33.606  28.043  1.00  0.00     0.338 C 
ATOM     35  O   UNL A   1      32.579  34.618  28.459  1.00  0.00    -0.246 OA
BRANCH  34  36
ATOM     36  C   UNL A   1      34.537  33.219  28.707  1.00  0.00     0.060 A 
ATOM     37  C   UNL A   1      34.426  32.356  29.784  1.00  0.00     0.016 A 
ATOM     38  C   UNL A   1      35.725  33.556  28.215  1.00  0.00     0.016 A 
ATOM     39  C   UNL A   1      35.645  32.125  30.464  1.00  0.00     0.010 A 
ATOM     40  C   UNL A   1      36.880  33.182  28.858  1.00  0.00     0.010 A 
ATOM     41  C   UNL A   1      36.841  32.378  29.964  1.00  0.00    -0.014 A 
BRANCH  41  42
ATOM     42  C   UNL A   1      38.105  31.807  30.583  1.00  0.00     0.031 A 
ATOM     43  C   UNL A   1      38.791  30.766  29.956  1.00  0.00     0.074 A 
ATOM     44  C   UNL A   1      38.397  32.271  31.855  1.00  0.00     0.049 A 
ATOM     45  N   UNL A   1      39.833  30.077  30.427  1.00  0.00    -0.248 NA
ATOM     46  C   UNL A   1      38.461  30.249  28.620  1.00  0.00     0.031 C 
ATOM     47  C   UNL A   1      37.715  33.325  32.492  1.00  0.00     0.029 A 
ATOM     48  N   UNL A   1      39.369  31.815  32.718  1.00  0.00    -0.354 N 
ATOM     49  C   UNL A   1      40.229  29.172  29.529  1.00  0.00     0.074 A 
ATOM     50  C   UNL A   1      39.350  29.266  28.357  1.00  0.00     0.031 C 
ATOM     51  C   UNL A   1      38.260  33.496  33.725  1.00  0.00     0.029 A 
ATOM     52  C   UNL A   1      39.292  32.552  33.880  1.00  0.00     0.049 A 
ATOM     53  H   UNL A   1      40.009  31.090  32.536  1.00  0.00     0.167 HD
ATOM     54  C   UNL A   1      41.292  28.275  29.643  1.00  0.00     0.034 A 
ATOM     55  C   UNL A   1      40.067  32.421  35.020  1.00  0.00     0.034 A 
ATOM     56  C   UNL A   1      42.096  28.173  30.768  1.00  0.00     0.049 A 
ATOM     57  C   UNL A   1      41.094  31.483  35.157  1.00  0.00     0.074 A 
ATOM     58  C   UNL A   1      43.176  27.279  30.896  1.00  0.00     0.029 A 
ATOM     59  N   UNL A   1      42.003  28.892  31.939  1.00  0.00    -0.354 N 
ATOM     60  N   UNL A   1      41.516  30.605  34.245  1.00  0.00    -0.248 NA
ATOM     61  C   UNL A   1      41.901  31.314  36.372  1.00  0.00     0.031 C 
ATOM     62  C   UNL A   1      43.721  27.449  32.129  1.00  0.00     0.029 A 
ATOM     63  C   UNL A   1      42.991  28.453  32.793  1.00  0.00     0.049 A 
ATOM     64  H   UNL A   1      41.345  29.599  32.131  1.00  0.00     0.167 HD
ATOM     65  C   UNL A   1      42.531  29.889  34.732  1.00  0.00     0.074 A 
ATOM     66  C   UNL A   1      42.788  30.329  36.111  1.00  0.00     0.031 C 
ATOM     67  C   UNL A   1      43.255  28.887  34.083  1.00  0.00     0.034 A 
BRANCH  54  68
ATOM     68  C   UNL A   1      41.584  27.356  28.467  1.00  0.00     0.023 A 
ATOM     69  C   UNL A   1      41.035  26.093  28.322  1.00  0.00     0.031 A 
ATOM     70  C   UNL A   1      42.317  27.904  27.505  1.00  0.00     0.131 A 
ATOM     71  C   UNL A   1      41.559  25.362  27.229  1.00  0.00     0.055 A 
ATOM     72  C   UNL A   1      42.679  27.173  26.400  1.00  0.00     0.041 A 
ATOM     73  F   UNL A   1      42.702  29.172  27.612  1.00  0.00    -0.206 F 
ATOM     74  C   UNL A   1      42.221  25.897  26.219  1.00  0.00     0.022 A 
BRANCH  71  75
ATOM     75  S   UNL A   1      41.307  23.570  27.216  1.00  0.00     0.124 S 
ATOM     76  O   UNL A   1      41.904  22.961  28.486  1.00  0.00    -0.237 OA
ATOM     77  O   UNL A   1      39.807  23.267  27.162  1.00  0.00    -0.237 OA
ATOM     78  O   UNL A   1      42.074  22.896  25.844  1.00  0.00    -0.744 OA
ENDBRANCH  71  75
ENDBRANCH  54  68
BRANCH  55  79
ATOM     79  C   UNL A   1      39.786  33.351  36.190  1.00  0.00     0.023 A 
ATOM     80  C   UNL A   1      40.592  34.445  36.457  1.00  0.00     0.031 A 
ATOM     81  C   UNL A   1      38.831  32.977  37.032  1.00  0.00     0.131 A 
ATOM     82  C   UNL A   1      40.500  34.914  37.789  1.00  0.00     0.055 A 
ATOM     83  C   UNL A   1      38.713  33.572  38.265  1.00  0.00     0.041 A 
ATOM     84  F   UNL A   1      37.979  32.019  36.679  1.00  0.00    -0.206 F 
ATOM     85  C   UNL A   1      39.516  34.621  38.618  1.00  0.00     0.022 A 
BRANCH  82  86
ATOM     86  S   UNL A   1      41.822  35.990  38.396  1.00  0.00     0.124 S 
ATOM     87  O   UNL A   1      42.390  35.416  39.697  1.00  0.00    -0.237 OA
ATOM     88  O   UNL A   1      42.934  36.073  37.347  1.00  0.00    -0.237 OA
ATOM     89  O   UNL A   1      41.196  37.554  38.688  1.00  0.00    -0.744 OA
ENDBRANCH  82  86
ENDBRANCH  55  79
BRANCH  67  90
ATOM     90  C   UNL A   1      44.403  28.234  34.834  1.00  0.00     0.023 A 
ATOM     91  C   UNL A   1      44.044  27.223  35.710  1.00  0.00     0.031 A 
ATOM     92  C   UNL A   1      45.677  28.521  34.598  1.00  0.00     0.131 A 
ATOM     93  C   UNL A   1      45.111  26.759  36.516  1.00  0.00     0.055 A 
ATOM     94  C   UNL A   1      46.677  27.928  35.332  1.00  0.00     0.041 A 
ATOM     95  F   UNL A   1      45.991  29.392  33.642  1.00  0.00    -0.206 F 
ATOM     96  C   UNL A   1      46.390  26.963  36.257  1.00  0.00     0.022 A 
BRANCH  93  97
ATOM     97  S   UNL A   1      44.693  25.819  38.006  1.00  0.00     0.124 S 
ATOM     98  O   UNL A   1      43.360  26.317  38.566  1.00  0.00    -0.237 OA
ATOM     99  O   UNL A   1      44.577  24.333  37.656  1.00  0.00    -0.237 OA
ATOM    100  O   UNL A   1      45.920  26.034  39.178  1.00  0.00    -0.744 OA
ENDBRANCH  93  97
ENDBRANCH  67  90
ENDBRANCH  41  42
ENDBRANCH  34  36
ENDBRANCH  33  34
ENDBRANCH  32  33
ENDBRANCH  31  32
ENDBRANCH  30  31
ENDBRANCH   1  30
TORSDOF 22
ENDMDL
