MODEL 1
REMARK VINA RESULT:     -10.8      0.000      0.000
REMARK SMILES O=C(OCCOCCOCCOC(=O)c1ccc(-c2c3nc(c(-c4cc(S(=O)(=O)[O-])ccc4F)c4ccc([nH]4)c(-c4cc(S(=O)(=O)[O-])ccc4F)c4nc(c(-c5cc(S(=O)(=O)[O-])ccc5F)c5ccc2[nH]5)C=C4)C=C3)cc1)C1=NN(c2ccc([N+](=O)[O-])cc2)[C@H](c2ccccc2)C1
REMARK SMILES IDX 8 1 7 2 6 3 5 4 4 5 3 6 2 7 1 8 78 9 79 10 97 11 80 12 90 13
REMARK SMILES IDX 81 14 82 15 89 16 83 17 88 18 84 19 85 20 86 21 87 22 91 23
REMARK SMILES IDX 92 24 96 25 93 26 95 27 94 28 9 29 10 30 11 31 12 32 13 33
REMARK SMILES IDX 14 34 15 35 16 36 77 37 17 38 76 39 18 40 19 41 20 42 70 43
REMARK SMILES IDX 21 44 75 45 69 46 71 47 22 48 74 49 68 50 67 51 23 53 55 54
REMARK SMILES IDX 35 55 54 56 36 57 39 58 53 59 72 60 37 61 38 62 52 64 73 65
REMARK SMILES IDX 40 66 24 67 25 68 33 69 26 70 32 71 34 72 31 73 27 74 28 75
REMARK SMILES IDX 29 76 30 77 56 78 57 79 65 80 58 81 64 82 66 83 63 84 59 85
REMARK SMILES IDX 60 86 61 87 62 88 41 89 42 90 50 91 43 92 49 93 51 94 48 95
REMARK SMILES IDX 44 96 45 97 46 98 47 99
REMARK H PARENT 71 52 39 63
REMARK Flexibility Score: inf
ROOT
ATOM      1  C   UNL A   1      30.713  29.693  24.256  1.00  0.00     0.188 C 
ENDROOT
BRANCH   1   2
ATOM      2  C   UNL A   1      30.084  29.828  22.861  1.00  0.00     0.188 C 
BRANCH   2   3
ATOM      3  O   UNL A   1      29.976  28.570  22.215  1.00  0.00    -0.376 OA
BRANCH   3   4
ATOM      4  C   UNL A   1      29.722  27.453  23.044  1.00  0.00     0.202 C 
BRANCH   4   5
ATOM      5  C   UNL A   1      30.630  26.267  22.711  1.00  0.00     0.261 C 
BRANCH   5   6
ATOM      6  O   UNL A   1      31.613  26.443  21.662  1.00  0.00    -0.459 OA
BRANCH   6   7
ATOM      7  C   UNL A   1      32.858  25.959  21.629  1.00  0.00     0.354 C 
ATOM      8  O   UNL A   1      33.452  25.746  20.579  1.00  0.00    -0.245 OA
BRANCH   7   9
ATOM      9  C   UNL A   1      33.515  25.504  22.906  1.00  0.00     0.148 C 
ATOM     10  N   UNL A   1      34.229  24.430  23.022  1.00  0.00    -0.169 NA
ATOM     11  C   UNL A   1      33.429  26.356  24.147  1.00  0.00     0.098 C 
ATOM     12  N   UNL A   1      34.673  24.444  24.299  1.00  0.00    -0.257 N 
ATOM     13  C   UNL A   1      33.842  25.284  25.167  1.00  0.00     0.144 C 
BRANCH  12  14
ATOM     14  C   UNL A   1      35.718  23.636  24.696  1.00  0.00     0.061 A 
ATOM     15  C   UNL A   1      36.767  24.153  25.468  1.00  0.00     0.035 A 
ATOM     16  C   UNL A   1      35.768  22.290  24.312  1.00  0.00     0.035 A 
ATOM     17  C   UNL A   1      37.842  23.345  25.857  1.00  0.00     0.088 A 
ATOM     18  C   UNL A   1      36.817  21.461  24.718  1.00  0.00     0.088 A 
ATOM     19  C   UNL A   1      37.855  21.996  25.489  1.00  0.00     0.269 A 
BRANCH  19  20
ATOM     20  N   UNL A   1      38.969  21.138  25.901  1.00  0.00     0.062 N 
ATOM     21  O   UNL A   1      39.706  21.545  26.810  1.00  0.00    -0.258 OA
ATOM     22  O   UNL A   1      39.120  20.062  25.303  1.00  0.00    -0.258 OA
ENDBRANCH  19  20
ENDBRANCH  12  14
BRANCH  13  23
ATOM     23  C   UNL A   1      32.708  24.405  25.699  1.00  0.00    -0.023 A 
ATOM     24  C   UNL A   1      32.923  23.142  26.282  1.00  0.00     0.006 A 
ATOM     25  C   UNL A   1      31.412  24.947  25.759  1.00  0.00     0.006 A 
ATOM     26  C   UNL A   1      31.896  22.478  26.951  1.00  0.00     0.000 A 
ATOM     27  C   UNL A   1      30.389  24.285  26.438  1.00  0.00     0.000 A 
ATOM     28  C   UNL A   1      30.635  23.056  27.045  1.00  0.00     0.000 A 
ENDBRANCH  13  23
ENDBRANCH   7   9
ENDBRANCH   6   7
ENDBRANCH   5   6
ENDBRANCH   4   5
ENDBRANCH   3   4
ENDBRANCH   2   3
ENDBRANCH   1   2
BRANCH   1  29
ATOM     29  O   UNL A   1      30.747  30.834  25.106  1.00  0.00    -0.376 OA
BRANCH  29  30
ATOM     30  C   UNL A   1      31.683  30.860  26.178  1.00  0.00     0.202 C 
BRANCH  30  31
ATOM     31  C   UNL A   1      31.823  32.144  27.002  1.00  0.00     0.261 C 
BRANCH  31  32
ATOM     32  O   UNL A   1      33.171  32.531  27.331  1.00  0.00    -0.460 OA
BRANCH  32  33
ATOM     33  C   UNL A   1      33.255  33.616  28.138  1.00  0.00     0.338 C 
ATOM     34  O   UNL A   1      32.515  34.594  28.142  1.00  0.00    -0.246 OA
BRANCH  33  35
ATOM     35  C   UNL A   1      34.348  33.473  29.112  1.00  0.00     0.060 A 
ATOM     36  C   UNL A   1      35.611  33.987  28.800  1.00  0.00     0.016 A 
ATOM     37  C   UNL A   1      34.174  32.659  30.234  1.00  0.00     0.016 A 
ATOM     38  C   UNL A   1      36.715  33.663  29.593  1.00  0.00     0.010 A 
ATOM     39  C   UNL A   1      35.281  32.338  31.029  1.00  0.00     0.010 A 
ATOM     40  C   UNL A   1      36.565  32.806  30.694  1.00  0.00    -0.014 A 
BRANCH  40  41
ATOM     41  C   UNL A   1      37.762  32.259  31.389  1.00  0.00     0.031 A 
ATOM     42  C   UNL A   1      38.510  31.111  30.760  1.00  0.00     0.074 A 
ATOM     43  C   UNL A   1      38.193  32.775  32.555  1.00  0.00     0.049 A 
ATOM     44  N   UNL A   1      39.521  30.423  31.225  1.00  0.00    -0.248 NA
ATOM     45  C   UNL A   1      38.049  30.684  29.431  1.00  0.00     0.031 C 
ATOM     46  C   UNL A   1      37.597  33.919  33.242  1.00  0.00     0.029 A 
ATOM     47  N   UNL A   1      39.230  32.397  33.371  1.00  0.00    -0.354 N 
ATOM     48  C   UNL A   1      39.815  29.475  30.249  1.00  0.00     0.074 A 
ATOM     49  C   UNL A   1      38.845  29.656  29.188  1.00  0.00     0.031 C 
ATOM     50  C   UNL A   1      38.272  34.143  34.383  1.00  0.00     0.029 A 
ATOM     51  C   UNL A   1      39.323  33.134  34.528  1.00  0.00     0.049 A 
ATOM     52  H   UNL A   1      39.850  31.664  33.150  1.00  0.00     0.167 HD
ATOM     53  C   UNL A   1      40.806  28.548  30.230  1.00  0.00     0.034 A 
ATOM     54  C   UNL A   1      40.140  32.997  35.593  1.00  0.00     0.034 A 
ATOM     55  C   UNL A   1      41.763  28.367  31.294  1.00  0.00     0.049 A 
ATOM     56  C   UNL A   1      41.172  31.891  35.598  1.00  0.00     0.074 A 
ATOM     57  C   UNL A   1      42.806  27.459  31.370  1.00  0.00     0.029 A 
ATOM     58  N   UNL A   1      41.793  29.100  32.472  1.00  0.00    -0.354 N 
ATOM     59  N   UNL A   1      41.430  30.996  34.674  1.00  0.00    -0.248 NA
ATOM     60  C   UNL A   1      42.023  31.783  36.793  1.00  0.00     0.031 C 
ATOM     61  C   UNL A   1      43.422  27.598  32.620  1.00  0.00     0.029 A 
ATOM     62  C   UNL A   1      42.813  28.645  33.293  1.00  0.00     0.049 A 
ATOM     63  H   UNL A   1      41.178  29.838  32.693  1.00  0.00     0.167 HD
ATOM     64  C   UNL A   1      42.497  30.242  35.162  1.00  0.00     0.074 A 
ATOM     65  C   UNL A   1      42.837  30.793  36.457  1.00  0.00     0.031 C 
ATOM     66  C   UNL A   1      43.142  29.195  34.587  1.00  0.00     0.034 A 
BRANCH  53  67
ATOM     67  C   UNL A   1      40.864  27.629  29.035  1.00  0.00     0.023 A 
ATOM     68  C   UNL A   1      41.794  27.824  27.998  1.00  0.00     0.031 A 
ATOM     69  C   UNL A   1      39.954  26.564  28.913  1.00  0.00     0.131 A 
ATOM     70  C   UNL A   1      41.742  27.016  26.852  1.00  0.00     0.055 A 
ATOM     71  C   UNL A   1      39.960  25.714  27.805  1.00  0.00     0.041 A 
ATOM     72  F   UNL A   1      39.030  26.343  29.862  1.00  0.00    -0.206 F 
ATOM     73  C   UNL A   1      40.847  25.947  26.759  1.00  0.00     0.022 A 
BRANCH  70  74
ATOM     74  S   UNL A   1      42.763  27.474  25.426  1.00  0.00     0.124 S 
ATOM     75  O   UNL A   1      44.083  27.609  26.039  1.00  0.00    -0.237 OA
ATOM     76  O   UNL A   1      42.587  26.336  24.532  1.00  0.00    -0.237 OA
ATOM     77  O   UNL A   1      42.167  28.727  24.966  1.00  0.00    -0.744 OA
ENDBRANCH  70  74
ENDBRANCH  53  67
BRANCH  54  78
ATOM     78  C   UNL A   1      40.002  33.896  36.774  1.00  0.00     0.023 A 
ATOM     79  C   UNL A   1      39.405  33.447  37.962  1.00  0.00     0.031 A 
ATOM     80  C   UNL A   1      40.405  35.243  36.707  1.00  0.00     0.131 A 
ATOM     81  C   UNL A   1      39.184  34.345  39.018  1.00  0.00     0.055 A 
ATOM     82  C   UNL A   1      40.228  36.120  37.778  1.00  0.00     0.041 A 
ATOM     83  F   UNL A   1      40.984  35.724  35.595  1.00  0.00    -0.206 F 
ATOM     84  C   UNL A   1      39.601  35.676  38.938  1.00  0.00     0.022 A 
BRANCH  81  85
ATOM     85  S   UNL A   1      38.267  33.767  40.472  1.00  0.00     0.124 S 
ATOM     86  O   UNL A   1      38.154  34.991  41.257  1.00  0.00    -0.237 OA
ATOM     87  O   UNL A   1      37.032  33.271  39.872  1.00  0.00    -0.237 OA
ATOM     88  O   UNL A   1      39.139  32.740  41.037  1.00  0.00    -0.744 OA
ENDBRANCH  81  85
ENDBRANCH  54  78
BRANCH  66  89
ATOM     89  C   UNL A   1      44.319  28.611  35.333  1.00  0.00     0.023 A 
ATOM     90  C   UNL A   1      44.158  27.641  36.338  1.00  0.00     0.031 A 
ATOM     91  C   UNL A   1      45.626  29.036  35.031  1.00  0.00     0.131 A 
ATOM     92  C   UNL A   1      45.278  27.165  37.038  1.00  0.00     0.055 A 
ATOM     93  C   UNL A   1      46.742  28.518  35.691  1.00  0.00     0.041 A 
ATOM     94  F   UNL A   1      45.840  29.961  34.081  1.00  0.00    -0.206 F 
ATOM     95  C   UNL A   1      46.570  27.586  36.709  1.00  0.00     0.022 A 
BRANCH  92  96
ATOM     96  S   UNL A   1      45.021  26.045  38.443  1.00  0.00     0.124 S 
ATOM     97  O   UNL A   1      44.904  24.749  37.781  1.00  0.00    -0.237 OA
ATOM     98  O   UNL A   1      46.231  26.252  39.232  1.00  0.00    -0.237 OA
ATOM     99  O   UNL A   1      43.789  26.541  39.055  1.00  0.00    -0.744 OA
ENDBRANCH  92  96
ENDBRANCH  66  89
ENDBRANCH  40  41
ENDBRANCH  33  35
ENDBRANCH  32  33
ENDBRANCH  31  32
ENDBRANCH  30  31
ENDBRANCH  29  30
ENDBRANCH   1  29
TORSDOF 23
ENDMDL
MODEL 2
REMARK VINA RESULT:     -10.6      2.059      7.625
REMARK SMILES O=C(OCCOCCOCCOC(=O)c1ccc(-c2c3nc(c(-c4cc(S(=O)(=O)[O-])ccc4F)c4ccc([nH]4)c(-c4cc(S(=O)(=O)[O-])ccc4F)c4nc(c(-c5cc(S(=O)(=O)[O-])ccc5F)c5ccc2[nH]5)C=C4)C=C3)cc1)C1=NN(c2ccc([N+](=O)[O-])cc2)[C@H](c2ccccc2)C1
REMARK SMILES IDX 8 1 7 2 6 3 5 4 4 5 3 6 2 7 1 8 78 9 79 10 97 11 80 12 90 13
REMARK SMILES IDX 81 14 82 15 89 16 83 17 88 18 84 19 85 20 86 21 87 22 91 23
REMARK SMILES IDX 92 24 96 25 93 26 95 27 94 28 9 29 10 30 11 31 12 32 13 33
REMARK SMILES IDX 14 34 15 35 16 36 77 37 17 38 76 39 18 40 19 41 20 42 70 43
REMARK SMILES IDX 21 44 75 45 69 46 71 47 22 48 74 49 68 50 67 51 23 53 55 54
REMARK SMILES IDX 35 55 54 56 36 57 39 58 53 59 72 60 37 61 38 62 52 64 73 65
REMARK SMILES IDX 40 66 24 67 25 68 33 69 26 70 32 71 34 72 31 73 27 74 28 75
REMARK SMILES IDX 29 76 30 77 56 78 57 79 65 80 58 81 64 82 66 83 63 84 59 85
REMARK SMILES IDX 60 86 61 87 62 88 41 89 42 90 50 91 43 92 49 93 51 94 48 95
REMARK SMILES IDX 44 96 45 97 46 98 47 99
REMARK H PARENT 71 52 39 63
REMARK Flexibility Score: inf
ROOT
ATOM      1  C   UNL A   1      30.716  29.535  24.261  1.00  0.00     0.188 C 
ENDROOT
BRANCH   1   2
ATOM      2  C   UNL A   1      30.042  29.607  22.882  1.00  0.00     0.188 C 
BRANCH   2   3
ATOM      3  O   UNL A   1      29.568  28.336  22.469  1.00  0.00    -0.376 OA
BRANCH   3   4
ATOM      4  C   UNL A   1      29.691  27.281  23.402  1.00  0.00     0.202 C 
BRANCH   4   5
ATOM      5  C   UNL A   1      30.390  26.059  22.804  1.00  0.00     0.261 C 
BRANCH   5   6
ATOM      6  O   UNL A   1      31.506  26.289  21.910  1.00  0.00    -0.459 OA
BRANCH   6   7
ATOM      7  C   UNL A   1      32.592  25.526  21.757  1.00  0.00     0.354 C 
ATOM      8  O   UNL A   1      33.278  25.557  20.742  1.00  0.00    -0.245 OA
BRANCH   7   9
ATOM      9  C   UNL A   1      32.915  24.474  22.785  1.00  0.00     0.148 C 
ATOM     10  N   UNL A   1      32.576  23.227  22.690  1.00  0.00    -0.169 NA
ATOM     11  C   UNL A   1      33.750  24.823  23.991  1.00  0.00     0.098 C 
ATOM     12  N   UNL A   1      33.118  22.636  23.779  1.00  0.00    -0.257 N 
ATOM     13  C   UNL A   1      33.403  23.598  24.849  1.00  0.00     0.144 C 
BRANCH  12  14
ATOM     14  C   UNL A   1      33.243  21.265  23.854  1.00  0.00     0.061 A 
ATOM     15  C   UNL A   1      34.266  20.680  24.611  1.00  0.00     0.035 A 
ATOM     16  C   UNL A   1      32.367  20.427  23.151  1.00  0.00     0.035 A 
ATOM     17  C   UNL A   1      34.413  19.290  24.675  1.00  0.00     0.088 A 
ATOM     18  C   UNL A   1      32.478  19.037  23.230  1.00  0.00     0.088 A 
ATOM     19  C   UNL A   1      33.508  18.473  23.991  1.00  0.00     0.269 A 
BRANCH  19  20
ATOM     20  N   UNL A   1      33.644  17.015  24.061  1.00  0.00     0.062 N 
ATOM     21  O   UNL A   1      33.397  16.463  25.143  1.00  0.00    -0.258 OA
ATOM     22  O   UNL A   1      34.016  16.421  23.038  1.00  0.00    -0.258 OA
ENDBRANCH  19  20
ENDBRANCH  12  14
BRANCH  13  23
ATOM     23  C   UNL A   1      32.136  23.721  25.698  1.00  0.00    -0.023 A 
ATOM     24  C   UNL A   1      31.471  24.942  25.914  1.00  0.00     0.006 A 
ATOM     25  C   UNL A   1      31.516  22.542  26.148  1.00  0.00     0.006 A 
ATOM     26  C   UNL A   1      30.206  24.974  26.502  1.00  0.00     0.000 A 
ATOM     27  C   UNL A   1      30.246  22.577  26.727  1.00  0.00     0.000 A 
ATOM     28  C   UNL A   1      29.587  23.792  26.891  1.00  0.00     0.000 A 
ENDBRANCH  13  23
ENDBRANCH   7   9
ENDBRANCH   6   7
ENDBRANCH   5   6
ENDBRANCH   4   5
ENDBRANCH   3   4
ENDBRANCH   2   3
ENDBRANCH   1   2
BRANCH   1  29
ATOM     29  O   UNL A   1      30.900  30.739  24.998  1.00  0.00    -0.376 OA
BRANCH  29  30
ATOM     30  C   UNL A   1      31.730  30.713  26.154  1.00  0.00     0.202 C 
BRANCH  30  31
ATOM     31  C   UNL A   1      31.825  31.974  27.020  1.00  0.00     0.261 C 
BRANCH  31  32
ATOM     32  O   UNL A   1      33.086  32.669  26.974  1.00  0.00    -0.460 OA
BRANCH  32  33
ATOM     33  C   UNL A   1      33.263  33.563  27.975  1.00  0.00     0.338 C 
ATOM     34  O   UNL A   1      32.529  34.501  28.268  1.00  0.00    -0.246 OA
BRANCH  33  35
ATOM     35  C   UNL A   1      34.462  33.248  28.767  1.00  0.00     0.060 A 
ATOM     36  C   UNL A   1      35.713  33.251  28.141  1.00  0.00     0.016 A 
ATOM     37  C   UNL A   1      34.323  32.754  30.066  1.00  0.00     0.016 A 
ATOM     38  C   UNL A   1      36.828  32.731  28.803  1.00  0.00     0.010 A 
ATOM     39  C   UNL A   1      35.443  32.236  30.729  1.00  0.00     0.010 A 
ATOM     40  C   UNL A   1      36.695  32.186  30.088  1.00  0.00    -0.014 A 
BRANCH  40  41
ATOM     41  C   UNL A   1      37.812  31.410  30.696  1.00  0.00     0.031 A 
ATOM     42  C   UNL A   1      38.231  31.722  32.109  1.00  0.00     0.074 A 
ATOM     43  C   UNL A   1      38.439  30.434  30.014  1.00  0.00     0.049 A 
ATOM     44  N   UNL A   1      39.227  31.238  32.807  1.00  0.00    -0.248 NA
ATOM     45  C   UNL A   1      37.420  32.717  32.825  1.00  0.00     0.031 C 
ATOM     46  C   UNL A   1      38.097  29.994  28.664  1.00  0.00     0.029 A 
ATOM     47  N   UNL A   1      39.504  29.641  30.365  1.00  0.00    -0.354 N 
ATOM     48  C   UNL A   1      39.167  31.874  34.044  1.00  0.00     0.074 A 
ATOM     49  C   UNL A   1      38.061  32.806  33.979  1.00  0.00     0.031 C 
ATOM     50  C   UNL A   1      38.943  29.016  28.295  1.00  0.00     0.029 A 
ATOM     51  C   UNL A   1      39.914  28.789  29.367  1.00  0.00     0.049 A 
ATOM     52  H   UNL A   1      39.936  29.680  31.249  1.00  0.00     0.167 HD
ATOM     53  C   UNL A   1      39.951  31.691  35.136  1.00  0.00     0.034 A 
ATOM     54  C   UNL A   1      40.964  27.943  29.312  1.00  0.00     0.034 A 
ATOM     55  C   UNL A   1      41.057  30.767  35.192  1.00  0.00     0.049 A 
ATOM     56  C   UNL A   1      41.888  27.829  30.504  1.00  0.00     0.074 A 
ATOM     57  C   UNL A   1      41.911  30.506  36.251  1.00  0.00     0.029 A 
ATOM     58  N   UNL A   1      41.472  29.957  34.143  1.00  0.00    -0.354 N 
ATOM     59  N   UNL A   1      41.825  28.444  31.662  1.00  0.00    -0.248 NA
ATOM     60  C   UNL A   1      43.023  26.902  30.378  1.00  0.00     0.031 C 
ATOM     61  C   UNL A   1      42.879  29.591  35.821  1.00  0.00     0.029 A 
ATOM     62  C   UNL A   1      42.586  29.221  34.518  1.00  0.00     0.049 A 
ATOM     63  H   UNL A   1      41.038  29.912  33.259  1.00  0.00     0.167 HD
ATOM     64  C   UNL A   1      42.892  27.950  32.413  1.00  0.00     0.074 A 
ATOM     65  C   UNL A   1      43.574  26.983  31.580  1.00  0.00     0.031 C 
ATOM     66  C   UNL A   1      43.266  28.264  33.679  1.00  0.00     0.034 A 
BRANCH  53  67
ATOM     67  C   UNL A   1      39.661  32.550  36.342  1.00  0.00     0.023 A 
ATOM     68  C   UNL A   1      38.831  32.103  37.385  1.00  0.00     0.031 A 
ATOM     69  C   UNL A   1      40.192  33.849  36.432  1.00  0.00     0.131 A 
ATOM     70  C   UNL A   1      38.495  32.973  38.433  1.00  0.00     0.055 A 
ATOM     71  C   UNL A   1      39.917  34.682  37.519  1.00  0.00     0.041 A 
ATOM     72  F   UNL A   1      40.973  34.338  35.456  1.00  0.00    -0.206 F 
ATOM     73  C   UNL A   1      39.052  34.252  38.520  1.00  0.00     0.022 A 
BRANCH  70  74
ATOM     74  S   UNL A   1      37.208  32.461  39.602  1.00  0.00     0.124 S 
ATOM     75  O   UNL A   1      37.732  31.182  40.076  1.00  0.00    -0.237 OA
ATOM     76  O   UNL A   1      37.208  33.550  40.571  1.00  0.00    -0.237 OA
ATOM     77  O   UNL A   1      36.009  32.364  38.772  1.00  0.00    -0.744 OA
ENDBRANCH  70  74
ENDBRANCH  53  67
BRANCH  54  78
ATOM     78  C   UNL A   1      41.240  27.159  28.074  1.00  0.00     0.023 A 
ATOM     79  C   UNL A   1      41.077  25.765  28.047  1.00  0.00     0.031 A 
ATOM     80  C   UNL A   1      41.737  27.788  26.917  1.00  0.00     0.131 A 
ATOM     81  C   UNL A   1      41.454  25.039  26.906  1.00  0.00     0.055 A 
ATOM     82  C   UNL A   1      42.061  27.066  25.768  1.00  0.00     0.041 A 
ATOM     83  F   UNL A   1      41.908  29.119  26.888  1.00  0.00    -0.206 F 
ATOM     84  C   UNL A   1      41.934  25.681  25.763  1.00  0.00     0.022 A 
BRANCH  81  85
ATOM     85  S   UNL A   1      41.380  23.228  26.968  1.00  0.00     0.124 S 
ATOM     86  O   UNL A   1      42.396  22.924  27.969  1.00  0.00    -0.237 OA
ATOM     87  O   UNL A   1      39.995  22.996  27.365  1.00  0.00    -0.237 OA
ATOM     88  O   UNL A   1      41.709  22.828  25.601  1.00  0.00    -0.744 OA
ENDBRANCH  81  85
ENDBRANCH  54  78
BRANCH  66  89
ATOM     89  C   UNL A   1      44.439  27.509  34.262  1.00  0.00     0.023 A 
ATOM     90  C   UNL A   1      44.312  26.196  34.749  1.00  0.00     0.031 A 
ATOM     91  C   UNL A   1      45.705  28.118  34.330  1.00  0.00     0.131 A 
ATOM     92  C   UNL A   1      45.419  25.554  35.326  1.00  0.00     0.055 A 
ATOM     93  C   UNL A   1      46.816  27.454  34.854  1.00  0.00     0.041 A 
ATOM     94  F   UNL A   1      45.884  29.370  33.881  1.00  0.00    -0.206 F 
ATOM     95  C   UNL A   1      46.673  26.169  35.367  1.00  0.00     0.022 A 
BRANCH  92  96
ATOM     96  S   UNL A   1      45.181  23.929  36.100  1.00  0.00     0.124 S 
ATOM     97  O   UNL A   1      43.873  23.536  35.585  1.00  0.00    -0.237 OA
ATOM     98  O   UNL A   1      46.321  23.172  35.592  1.00  0.00    -0.237 OA
ATOM     99  O   UNL A   1      45.221  24.222  37.532  1.00  0.00    -0.744 OA
ENDBRANCH  92  96
ENDBRANCH  66  89
ENDBRANCH  40  41
ENDBRANCH  33  35
ENDBRANCH  32  33
ENDBRANCH  31  32
ENDBRANCH  30  31
ENDBRANCH  29  30
ENDBRANCH   1  29
TORSDOF 23
ENDMDL
MODEL 3
REMARK VINA RESULT:     -10.1      2.677      7.641
REMARK SMILES O=C(OCCOCCOCCOC(=O)c1ccc(-c2c3nc(c(-c4cc(S(=O)(=O)[O-])ccc4F)c4ccc([nH]4)c(-c4cc(S(=O)(=O)[O-])ccc4F)c4nc(c(-c5cc(S(=O)(=O)[O-])ccc5F)c5ccc2[nH]5)C=C4)C=C3)cc1)C1=NN(c2ccc([N+](=O)[O-])cc2)[C@H](c2ccccc2)C1
REMARK SMILES IDX 8 1 7 2 6 3 5 4 4 5 3 6 2 7 1 8 78 9 79 10 97 11 80 12 90 13
REMARK SMILES IDX 81 14 82 15 89 16 83 17 88 18 84 19 85 20 86 21 87 22 91 23
REMARK SMILES IDX 92 24 96 25 93 26 95 27 94 28 9 29 10 30 11 31 12 32 13 33
REMARK SMILES IDX 14 34 15 35 16 36 77 37 17 38 76 39 18 40 19 41 20 42 70 43
REMARK SMILES IDX 21 44 75 45 69 46 71 47 22 48 74 49 68 50 67 51 23 53 55 54
REMARK SMILES IDX 35 55 54 56 36 57 39 58 53 59 72 60 37 61 38 62 52 64 73 65
REMARK SMILES IDX 40 66 24 67 25 68 33 69 26 70 32 71 34 72 31 73 27 74 28 75
REMARK SMILES IDX 29 76 30 77 56 78 57 79 65 80 58 81 64 82 66 83 63 84 59 85
REMARK SMILES IDX 60 86 61 87 62 88 41 89 42 90 50 91 43 92 49 93 51 94 48 95
REMARK SMILES IDX 44 96 45 97 46 98 47 99
REMARK H PARENT 71 52 39 63
REMARK Flexibility Score: inf
ROOT
ATOM      1  C   UNL A   1      30.630  29.440  24.337  1.00  0.00     0.188 C 
ENDROOT
BRANCH   1   2
ATOM      2  C   UNL A   1      29.922  29.614  22.984  1.00  0.00     0.188 C 
BRANCH   2   3
ATOM      3  O   UNL A   1      29.527  28.366  22.440  1.00  0.00    -0.376 OA
BRANCH   3   4
ATOM      4  C   UNL A   1      29.686  27.234  23.272  1.00  0.00     0.202 C 
BRANCH   4   5
ATOM      5  C   UNL A   1      30.628  26.195  22.661  1.00  0.00     0.261 C 
BRANCH   5   6
ATOM      6  O   UNL A   1      31.927  26.646  22.204  1.00  0.00    -0.459 OA
BRANCH   6   7
ATOM      7  C   UNL A   1      33.080  25.973  22.250  1.00  0.00     0.354 C 
ATOM      8  O   UNL A   1      33.990  26.175  21.455  1.00  0.00    -0.245 OA
BRANCH   7   9
ATOM      9  C   UNL A   1      33.231  24.816  23.202  1.00  0.00     0.148 C 
ATOM     10  N   UNL A   1      32.827  23.609  22.959  1.00  0.00    -0.169 NA
ATOM     11  C   UNL A   1      33.957  25.000  24.510  1.00  0.00     0.098 C 
ATOM     12  N   UNL A   1      33.218  22.889  24.036  1.00  0.00    -0.257 N 
ATOM     13  C   UNL A   1      33.450  23.732  25.213  1.00  0.00     0.144 C 
BRANCH  12  14
ATOM     14  C   UNL A   1      33.250  21.511  23.994  1.00  0.00     0.061 A 
ATOM     15  C   UNL A   1      32.286  20.795  23.272  1.00  0.00     0.035 A 
ATOM     16  C   UNL A   1      34.228  20.796  24.696  1.00  0.00     0.035 A 
ATOM     17  C   UNL A   1      32.297  19.396  23.242  1.00  0.00     0.088 A 
ATOM     18  C   UNL A   1      34.276  19.400  24.651  1.00  0.00     0.088 A 
ATOM     19  C   UNL A   1      33.303  18.705  23.924  1.00  0.00     0.269 A 
BRANCH  19  20
ATOM     20  N   UNL A   1      33.334  17.239  23.890  1.00  0.00     0.062 N 
ATOM     21  O   UNL A   1      32.903  16.629  24.878  1.00  0.00    -0.258 OA
ATOM     22  O   UNL A   1      33.807  16.696  22.880  1.00  0.00    -0.258 OA
ENDBRANCH  19  20
ENDBRANCH  12  14
BRANCH  13  23
ATOM     23  C   UNL A   1      32.113  23.870  25.943  1.00  0.00    -0.023 A 
ATOM     24  C   UNL A   1      31.400  25.081  26.021  1.00  0.00     0.006 A 
ATOM     25  C   UNL A   1      31.486  22.704  26.418  1.00  0.00     0.006 A 
ATOM     26  C   UNL A   1      30.089  25.112  26.498  1.00  0.00     0.000 A 
ATOM     27  C   UNL A   1      30.172  22.736  26.885  1.00  0.00     0.000 A 
ATOM     28  C   UNL A   1      29.469  23.938  26.912  1.00  0.00     0.000 A 
ENDBRANCH  13  23
ENDBRANCH   7   9
ENDBRANCH   6   7
ENDBRANCH   5   6
ENDBRANCH   4   5
ENDBRANCH   3   4
ENDBRANCH   2   3
ENDBRANCH   1   2
BRANCH   1  29
ATOM     29  O   UNL A   1      30.917  30.597  25.115  1.00  0.00    -0.376 OA
BRANCH  29  30
ATOM     30  C   UNL A   1      31.882  30.498  26.156  1.00  0.00     0.202 C 
BRANCH  30  31
ATOM     31  C   UNL A   1      32.063  31.686  27.107  1.00  0.00     0.261 C 
BRANCH  31  32
ATOM     32  O   UNL A   1      33.328  32.369  27.019  1.00  0.00    -0.460 OA
BRANCH  32  33
ATOM     33  C   UNL A   1      33.496  33.347  27.942  1.00  0.00     0.338 C 
ATOM     34  O   UNL A   1      32.791  34.337  28.107  1.00  0.00    -0.246 OA
BRANCH  33  35
ATOM     35  C   UNL A   1      34.639  33.060  28.822  1.00  0.00     0.060 A 
ATOM     36  C   UNL A   1      35.927  33.415  28.405  1.00  0.00     0.016 A 
ATOM     37  C   UNL A   1      34.458  32.264  29.955  1.00  0.00     0.016 A 
ATOM     38  C   UNL A   1      37.043  32.948  29.104  1.00  0.00     0.010 A 
ATOM     39  C   UNL A   1      35.578  31.800  30.656  1.00  0.00     0.010 A 
ATOM     40  C   UNL A   1      36.879  32.106  30.214  1.00  0.00    -0.014 A 
BRANCH  40  41
ATOM     41  C   UNL A   1      38.051  31.408  30.808  1.00  0.00     0.031 A 
ATOM     42  C   UNL A   1      38.532  31.823  32.175  1.00  0.00     0.074 A 
ATOM     43  C   UNL A   1      38.677  30.410  30.157  1.00  0.00     0.049 A 
ATOM     44  N   UNL A   1      39.578  31.417  32.847  1.00  0.00    -0.248 NA
ATOM     45  C   UNL A   1      37.723  32.835  32.869  1.00  0.00     0.031 C 
ATOM     46  C   UNL A   1      38.281  29.873  28.857  1.00  0.00     0.029 A 
ATOM     47  N   UNL A   1      39.786  29.676  30.499  1.00  0.00    -0.354 N 
ATOM     48  C   UNL A   1      39.559  32.128  34.043  1.00  0.00     0.074 A 
ATOM     49  C   UNL A   1      38.420  33.019  33.980  1.00  0.00     0.031 C 
ATOM     50  C   UNL A   1      39.141  28.901  28.505  1.00  0.00     0.029 A 
ATOM     51  C   UNL A   1      40.173  28.774  29.535  1.00  0.00     0.049 A 
ATOM     52  H   UNL A   1      40.261  29.785  31.354  1.00  0.00     0.167 HD
ATOM     53  C   UNL A   1      40.405  32.041  35.101  1.00  0.00     0.034 A 
ATOM     54  C   UNL A   1      41.248  27.960  29.477  1.00  0.00     0.034 A 
ATOM     55  C   UNL A   1      41.544  31.159  35.155  1.00  0.00     0.049 A 
ATOM     56  C   UNL A   1      42.235  27.953  30.622  1.00  0.00     0.074 A 
ATOM     57  C   UNL A   1      42.460  30.993  36.181  1.00  0.00     0.029 A 
ATOM     58  N   UNL A   1      41.933  30.296  34.138  1.00  0.00    -0.354 N 
ATOM     59  N   UNL A   1      42.211  28.639  31.741  1.00  0.00    -0.248 NA
ATOM     60  C   UNL A   1      43.394  27.056  30.494  1.00  0.00     0.031 C 
ATOM     61  C   UNL A   1      43.436  30.083  35.758  1.00  0.00     0.029 A 
ATOM     62  C   UNL A   1      43.089  29.622  34.499  1.00  0.00     0.049 A 
ATOM     63  H   UNL A   1      41.455  30.180  33.284  1.00  0.00     0.167 HD
ATOM     64  C   UNL A   1      43.331  28.228  32.464  1.00  0.00     0.074 A 
ATOM     65  C   UNL A   1      44.003  27.232  31.658  1.00  0.00     0.031 C 
ATOM     66  C   UNL A   1      43.759  28.634  33.687  1.00  0.00     0.034 A 
BRANCH  53  67
ATOM     67  C   UNL A   1      40.147  32.967  36.265  1.00  0.00     0.023 A 
ATOM     68  C   UNL A   1      40.868  34.162  36.430  1.00  0.00     0.031 A 
ATOM     69  C   UNL A   1      39.192  32.632  37.241  1.00  0.00     0.131 A 
ATOM     70  C   UNL A   1      40.678  34.939  37.584  1.00  0.00     0.055 A 
ATOM     71  C   UNL A   1      38.951  33.451  38.346  1.00  0.00     0.041 A 
ATOM     72  F   UNL A   1      38.488  31.492  37.146  1.00  0.00    -0.206 F 
ATOM     73  C   UNL A   1      39.707  34.604  38.531  1.00  0.00     0.022 A 
BRANCH  70  74
ATOM     74  S   UNL A   1      41.819  36.313  37.898  1.00  0.00     0.124 S 
ATOM     75  O   UNL A   1      40.955  37.258  38.602  1.00  0.00    -0.237 OA
ATOM     76  O   UNL A   1      42.862  35.682  38.698  1.00  0.00    -0.237 OA
ATOM     77  O   UNL A   1      42.227  36.732  36.559  1.00  0.00    -0.744 OA
ENDBRANCH  70  74
ENDBRANCH  53  67
BRANCH  54  78
ATOM     78  C   UNL A   1      41.487  27.107  28.278  1.00  0.00     0.023 A 
ATOM     79  C   UNL A   1      41.093  25.761  28.255  1.00  0.00     0.031 A 
ATOM     80  C   UNL A   1      42.177  27.612  27.160  1.00  0.00     0.131 A 
ATOM     81  C   UNL A   1      41.432  24.950  27.160  1.00  0.00     0.055 A 
ATOM     82  C   UNL A   1      42.467  26.815  26.052  1.00  0.00     0.041 A 
ATOM     83  F   UNL A   1      42.574  28.894  27.128  1.00  0.00    -0.206 F 
ATOM     84  C   UNL A   1      42.107  25.471  26.054  1.00  0.00     0.022 A 
BRANCH  81  85
ATOM     85  S   UNL A   1      41.047  23.180  27.239  1.00  0.00     0.124 S 
ATOM     86  O   UNL A   1      39.594  23.198  27.373  1.00  0.00    -0.237 OA
ATOM     87  O   UNL A   1      41.568  22.701  25.963  1.00  0.00    -0.237 OA
ATOM     88  O   UNL A   1      41.778  22.725  28.419  1.00  0.00    -0.744 OA
ENDBRANCH  81  85
ENDBRANCH  54  78
BRANCH  66  89
ATOM     89  C   UNL A   1      44.986  27.956  34.252  1.00  0.00     0.023 A 
ATOM     90  C   UNL A   1      46.278  28.474  34.057  1.00  0.00     0.031 A 
ATOM     91  C   UNL A   1      44.855  26.771  34.998  1.00  0.00     0.131 A 
ATOM     92  C   UNL A   1      47.392  27.782  34.560  1.00  0.00     0.055 A 
ATOM     93  C   UNL A   1      45.961  26.117  35.543  1.00  0.00     0.041 A 
ATOM     94  F   UNL A   1      43.645  26.231  35.215  1.00  0.00    -0.206 F 
ATOM     95  C   UNL A   1      47.240  26.616  35.315  1.00  0.00     0.022 A 
BRANCH  92  96
ATOM     96  S   UNL A   1      49.054  28.381  34.145  1.00  0.00     0.124 S 
ATOM     97  O   UNL A   1      49.726  28.335  35.440  1.00  0.00    -0.237 OA
ATOM     98  O   UNL A   1      49.501  27.402  33.159  1.00  0.00    -0.237 OA
ATOM     99  O   UNL A   1      48.813  29.724  33.619  1.00  0.00    -0.744 OA
ENDBRANCH  92  96
ENDBRANCH  66  89
ENDBRANCH  40  41
ENDBRANCH  33  35
ENDBRANCH  32  33
ENDBRANCH  31  32
ENDBRANCH  30  31
ENDBRANCH  29  30
ENDBRANCH   1  29
TORSDOF 23
ENDMDL
