MODEL 1
REMARK VINA RESULT:     -10.1      0.000      0.000
REMARK SMILES Cc1cc(F)c([C@@](C)(C(=O)OCCOCCOCCOC(=O)c2ccc(-c3c4nc(c(-c5cc(S(=O)(=O)[O-])ccc5F)c5ccc([nH]5)c(-c5cc(S(=O)(=O)[O-])ccc5F)c5nc(c(-c6cc(S(=O)(=O)[O-])ccc6F)c6ccc3[nH]6)C=C5)C=C4)cc2)[NH+]2CC[NH2+]CC2)cc1F
REMARK SMILES IDX 16 1 15 2 14 3 13 4 12 5 11 6 9 7 10 8 7 9 8 10 6 11 1 12
REMARK SMILES IDX 2 13 3 14 93 15 4 16 92 17 94 18 5 19 86 20 87 21 91 22
REMARK SMILES IDX 88 24 90 25 89 26 17 29 18 30 19 31 20 32 21 33 22 34 23 35
REMARK SMILES IDX 24 36 85 37 25 38 84 39 26 40 27 41 28 42 78 43 29 44 83 45
REMARK SMILES IDX 77 46 79 47 30 48 82 49 76 50 75 51 31 53 63 54 43 55 62 56
REMARK SMILES IDX 44 57 47 58 61 59 80 60 45 61 46 62 60 64 81 65 48 66 32 67
REMARK SMILES IDX 33 68 41 69 34 70 40 71 42 72 39 73 35 74 36 75 37 76 38 77
REMARK SMILES IDX 64 78 65 79 73 80 66 81 72 82 74 83 71 84 67 85 68 86 69 87
REMARK SMILES IDX 70 88 49 89 50 90 58 91 51 92 57 93 59 94 56 95 52 96 53 97
REMARK SMILES IDX 54 98 55 99
REMARK H PARENT 86 23 89 27 89 28 79 52 47 63
REMARK Flexibility Score: inf
ROOT
ATOM      1  C   UNL A   1      33.901  35.883  28.501  1.00  0.00     0.188 C 
ENDROOT
BRANCH   1   2
ATOM      2  C   UNL A   1      33.182  37.059  29.193  1.00  0.00     0.188 C 
BRANCH   2   3
ATOM      3  O   UNL A   1      32.604  36.850  30.474  1.00  0.00    -0.376 OA
BRANCH   3   4
ATOM      4  C   UNL A   1      33.224  37.464  31.600  1.00  0.00     0.202 C 
BRANCH   4   5
ATOM      5  C   UNL A   1      33.736  36.518  32.683  1.00  0.00     0.261 C 
BRANCH   5   6
ATOM      6  O   UNL A   1      34.761  35.641  32.170  1.00  0.00    -0.458 OA
BRANCH   6   7
ATOM      7  C   UNL A   1      34.554  34.306  32.321  1.00  0.00     0.372 C 
ATOM      8  O   UNL A   1      33.432  33.836  32.508  1.00  0.00    -0.244 OA
BRANCH   7   9
ATOM      9  C   UNL A   1      35.863  33.420  32.321  1.00  0.00     0.221 C 
ATOM     10  C   UNL A   1      35.331  32.066  31.783  1.00  0.00     0.098 C 
BRANCH   9  11
ATOM     11  C   UNL A   1      36.545  33.111  33.688  1.00  0.00     0.062 A 
ATOM     12  C   UNL A   1      38.341  31.958  37.509  1.00  0.00     0.047 C 
ATOM     13  C   UNL A   1      37.743  32.384  36.204  1.00  0.00    -0.012 A 
ATOM     14  C   UNL A   1      36.931  33.515  36.087  1.00  0.00     0.046 A 
ATOM     15  C   UNL A   1      37.920  31.605  35.074  1.00  0.00     0.126 A 
ATOM     16  C   UNL A   1      36.337  33.859  34.857  1.00  0.00     0.133 A 
ATOM     17  C   UNL A   1      37.333  31.957  33.862  1.00  0.00     0.053 A 
ATOM     18  F   UNL A   1      38.638  30.475  35.135  1.00  0.00    -0.207 F 
ATOM     19  F   UNL A   1      35.504  34.909  34.855  1.00  0.00    -0.206 F 
ENDBRANCH   9  11
BRANCH   9  20
ATOM     20  N   UNL A   1      36.808  34.062  31.366  1.00  0.00    -0.308 N 
ATOM     21  C   UNL A   1      37.960  34.829  31.822  1.00  0.00     0.325 C 
ATOM     22  C   UNL A   1      36.759  33.914  29.923  1.00  0.00     0.325 C 
ATOM     23  H   UNL A   1      35.840  34.112  31.684  1.00  0.00     0.349 HD
ATOM     24  C   UNL A   1      39.300  34.335  31.220  1.00  0.00     0.322 C 
ATOM     25  C   UNL A   1      38.062  33.312  29.354  1.00  0.00     0.322 C 
ATOM     26  N   UNL A   1      39.307  33.944  29.805  1.00  0.00    -0.337 N 
ATOM     27  H   UNL A   1      40.073  33.286  29.657  1.00  0.00     0.346 HD
ATOM     28  H   UNL A   1      39.418  34.801  29.261  1.00  0.00     0.346 HD
ENDBRANCH   9  20
ENDBRANCH   7   9
ENDBRANCH   6   7
ENDBRANCH   5   6
ENDBRANCH   4   5
ENDBRANCH   3   4
ENDBRANCH   2   3
ENDBRANCH   1   2
BRANCH   1  29
ATOM     29  O   UNL A   1      33.770  34.567  29.013  1.00  0.00    -0.376 OA
BRANCH  29  30
ATOM     30  C   UNL A   1      33.291  33.560  28.134  1.00  0.00     0.202 C 
BRANCH  30  31
ATOM     31  C   UNL A   1      34.277  32.455  27.746  1.00  0.00     0.261 C 
BRANCH  31  32
ATOM     32  O   UNL A   1      33.752  31.140  28.000  1.00  0.00    -0.460 OA
BRANCH  32  33
ATOM     33  C   UNL A   1      34.443  30.123  27.422  1.00  0.00     0.338 C 
ATOM     34  O   UNL A   1      34.163  29.535  26.394  1.00  0.00    -0.246 OA
BRANCH  33  35
ATOM     35  C   UNL A   1      35.726  29.942  28.129  1.00  0.00     0.060 A 
ATOM     36  C   UNL A   1      35.770  29.535  29.463  1.00  0.00     0.016 A 
ATOM     37  C   UNL A   1      36.907  30.101  27.396  1.00  0.00     0.016 A 
ATOM     38  C   UNL A   1      37.011  29.269  30.060  1.00  0.00     0.010 A 
ATOM     39  C   UNL A   1      38.137  29.841  27.997  1.00  0.00     0.010 A 
ATOM     40  C   UNL A   1      38.204  29.412  29.327  1.00  0.00    -0.014 A 
BRANCH  40  41
ATOM     41  C   UNL A   1      39.497  28.895  29.843  1.00  0.00     0.031 A 
ATOM     42  C   UNL A   1      40.212  29.512  31.008  1.00  0.00     0.074 A 
ATOM     43  C   UNL A   1      40.096  27.914  29.140  1.00  0.00     0.049 A 
ATOM     44  N   UNL A   1      41.274  29.076  31.637  1.00  0.00    -0.248 NA
ATOM     45  C   UNL A   1      39.698  30.792  31.513  1.00  0.00     0.031 C 
ATOM     46  C   UNL A   1      39.580  27.360  27.888  1.00  0.00     0.029 A 
ATOM     47  N   UNL A   1      41.260  27.225  29.360  1.00  0.00    -0.354 N 
ATOM     48  C   UNL A   1      41.541  30.008  32.633  1.00  0.00     0.074 A 
ATOM     49  C   UNL A   1      40.572  31.073  32.474  1.00  0.00     0.031 C 
ATOM     50  C   UNL A   1      40.405  26.392  27.467  1.00  0.00     0.029 A 
ATOM     51  C   UNL A   1      41.503  26.250  28.420  1.00  0.00     0.049 A 
ATOM     52  H   UNL A   1      41.863  27.409  30.116  1.00  0.00     0.167 HD
ATOM     53  C   UNL A   1      42.486  29.951  33.605  1.00  0.00     0.034 A 
ATOM     54  C   UNL A   1      42.474  25.318  28.354  1.00  0.00     0.034 A 
ATOM     55  C   UNL A   1      43.448  28.879  33.722  1.00  0.00     0.049 A 
ATOM     56  C   UNL A   1      43.464  25.219  29.484  1.00  0.00     0.074 A 
ATOM     57  C   UNL A   1      44.369  28.660  34.732  1.00  0.00     0.029 A 
ATOM     58  N   UNL A   1      43.629  27.861  32.796  1.00  0.00    -0.354 N 
ATOM     59  N   UNL A   1      43.572  25.975  30.551  1.00  0.00    -0.248 NA
ATOM     60  C   UNL A   1      44.438  24.122  29.426  1.00  0.00     0.031 C 
ATOM     61  C   UNL A   1      45.147  27.553  34.387  1.00  0.00     0.029 A 
ATOM     62  C   UNL A   1      44.665  27.030  33.197  1.00  0.00     0.049 A 
ATOM     63  H   UNL A   1      43.099  27.745  31.974  1.00  0.00     0.167 HD
ATOM     64  C   UNL A   1      44.609  25.430  31.304  1.00  0.00     0.074 A 
ATOM     65  C   UNL A   1      45.074  24.263  30.582  1.00  0.00     0.031 C 
ATOM     66  C   UNL A   1      45.127  25.863  32.482  1.00  0.00     0.034 A 
BRANCH  53  67
ATOM     67  C   UNL A   1      42.504  31.019  34.677  1.00  0.00     0.023 A 
ATOM     68  C   UNL A   1      43.252  32.200  34.506  1.00  0.00     0.031 A 
ATOM     69  C   UNL A   1      41.927  30.781  35.939  1.00  0.00     0.131 A 
ATOM     70  C   UNL A   1      43.434  33.074  35.588  1.00  0.00     0.055 A 
ATOM     71  C   UNL A   1      42.075  31.676  37.000  1.00  0.00     0.041 A 
ATOM     72  F   UNL A   1      41.219  29.661  36.166  1.00  0.00    -0.206 F 
ATOM     73  C   UNL A   1      42.844  32.822  36.831  1.00  0.00     0.022 A 
BRANCH  70  74
ATOM     74  S   UNL A   1      44.510  34.531  35.457  1.00  0.00     0.124 S 
ATOM     75  O   UNL A   1      43.946  35.217  34.297  1.00  0.00    -0.237 OA
ATOM     76  O   UNL A   1      44.287  35.192  36.741  1.00  0.00    -0.237 OA
ATOM     77  O   UNL A   1      45.841  33.968  35.260  1.00  0.00    -0.744 OA
ENDBRANCH  70  74
ENDBRANCH  53  67
BRANCH  54  78
ATOM     78  C   UNL A   1      42.427  24.322  27.246  1.00  0.00     0.023 A 
ATOM     79  C   UNL A   1      41.640  23.161  27.342  1.00  0.00     0.031 A 
ATOM     80  C   UNL A   1      43.293  24.448  26.146  1.00  0.00     0.131 A 
ATOM     81  C   UNL A   1      41.783  22.145  26.387  1.00  0.00     0.055 A 
ATOM     82  C   UNL A   1      43.382  23.464  25.161  1.00  0.00     0.041 A 
ATOM     83  F   UNL A   1      44.083  25.527  26.028  1.00  0.00    -0.206 F 
ATOM     84  C   UNL A   1      42.637  22.297  25.289  1.00  0.00     0.022 A 
BRANCH  81  85
ATOM     85  S   UNL A   1      40.981  20.533  26.614  1.00  0.00     0.124 S 
ATOM     86  O   UNL A   1      40.864  20.454  28.067  1.00  0.00    -0.237 OA
ATOM     87  O   UNL A   1      39.726  20.720  25.889  1.00  0.00    -0.237 OA
ATOM     88  O   UNL A   1      41.916  19.595  26.002  1.00  0.00    -0.744 OA
ENDBRANCH  81  85
ENDBRANCH  54  78
BRANCH  66  89
ATOM     89  C   UNL A   1      46.275  25.091  33.093  1.00  0.00     0.023 A 
ATOM     90  C   UNL A   1      46.017  24.007  33.955  1.00  0.00     0.031 A 
ATOM     91  C   UNL A   1      47.607  25.514  32.938  1.00  0.00     0.131 A 
ATOM     92  C   UNL A   1      47.071  23.408  34.657  1.00  0.00     0.055 A 
ATOM     93  C   UNL A   1      48.659  24.881  33.602  1.00  0.00     0.041 A 
ATOM     94  F   UNL A   1      47.905  26.550  32.139  1.00  0.00    -0.206 F 
ATOM     95  C   UNL A   1      48.392  23.834  34.478  1.00  0.00     0.022 A 
BRANCH  92  96
ATOM     96  S   UNL A   1      46.762  22.118  35.895  1.00  0.00     0.124 S 
ATOM     97  O   UNL A   1      45.518  22.578  36.507  1.00  0.00    -0.237 OA
ATOM     98  O   UNL A   1      46.644  20.920  35.068  1.00  0.00    -0.237 OA
ATOM     99  O   UNL A   1      47.937  22.170  36.759  1.00  0.00    -0.744 OA
ENDBRANCH  92  96
ENDBRANCH  66  89
ENDBRANCH  40  41
ENDBRANCH  33  35
ENDBRANCH  32  33
ENDBRANCH  31  32
ENDBRANCH  30  31
ENDBRANCH  29  30
ENDBRANCH   1  29
TORSDOF 22
ENDMDL
MODEL 2
REMARK VINA RESULT:      -9.6      4.752     10.627
REMARK SMILES Cc1cc(F)c([C@@](C)(C(=O)OCCOCCOCCOC(=O)c2ccc(-c3c4nc(c(-c5cc(S(=O)(=O)[O-])ccc5F)c5ccc([nH]5)c(-c5cc(S(=O)(=O)[O-])ccc5F)c5nc(c(-c6cc(S(=O)(=O)[O-])ccc6F)c6ccc3[nH]6)C=C5)C=C4)cc2)[NH+]2CC[NH2+]CC2)cc1F
REMARK SMILES IDX 16 1 15 2 14 3 13 4 12 5 11 6 9 7 10 8 7 9 8 10 6 11 1 12
REMARK SMILES IDX 2 13 3 14 93 15 4 16 92 17 94 18 5 19 86 20 87 21 91 22
REMARK SMILES IDX 88 24 90 25 89 26 17 29 18 30 19 31 20 32 21 33 22 34 23 35
REMARK SMILES IDX 24 36 85 37 25 38 84 39 26 40 27 41 28 42 78 43 29 44 83 45
REMARK SMILES IDX 77 46 79 47 30 48 82 49 76 50 75 51 31 53 63 54 43 55 62 56
REMARK SMILES IDX 44 57 47 58 61 59 80 60 45 61 46 62 60 64 81 65 48 66 32 67
REMARK SMILES IDX 33 68 41 69 34 70 40 71 42 72 39 73 35 74 36 75 37 76 38 77
REMARK SMILES IDX 64 78 65 79 73 80 66 81 72 82 74 83 71 84 67 85 68 86 69 87
REMARK SMILES IDX 70 88 49 89 50 90 58 91 51 92 57 93 59 94 56 95 52 96 53 97
REMARK SMILES IDX 54 98 55 99
REMARK H PARENT 86 23 89 27 89 28 79 52 47 63
REMARK Flexibility Score: inf
ROOT
ATOM      1  C   UNL A   1      33.024  29.906  26.173  1.00  0.00     0.188 C 
ENDROOT
BRANCH   1   2
ATOM      2  C   UNL A   1      32.647  28.994  24.987  1.00  0.00     0.188 C 
BRANCH   2   3
ATOM      3  O   UNL A   1      31.726  27.935  25.204  1.00  0.00    -0.376 OA
BRANCH   3   4
ATOM      4  C   UNL A   1      32.141  26.835  26.006  1.00  0.00     0.202 C 
BRANCH   4   5
ATOM      5  C   UNL A   1      33.532  26.278  25.714  1.00  0.00     0.261 C 
BRANCH   5   6
ATOM      6  O   UNL A   1      33.454  25.009  25.030  1.00  0.00    -0.458 OA
BRANCH   6   7
ATOM      7  C   UNL A   1      33.070  23.938  25.773  1.00  0.00     0.372 C 
ATOM      8  O   UNL A   1      33.361  23.830  26.964  1.00  0.00    -0.244 OA
BRANCH   7   9
ATOM      9  C   UNL A   1      32.300  22.810  24.976  1.00  0.00     0.221 C 
ATOM     10  C   UNL A   1      31.066  22.566  25.883  1.00  0.00     0.098 C 
BRANCH   9  11
ATOM     11  C   UNL A   1      32.995  21.427  24.797  1.00  0.00     0.062 A 
ATOM     12  C   UNL A   1      34.779  17.439  24.539  1.00  0.00     0.047 C 
ATOM     13  C   UNL A   1      34.187  18.812  24.599  1.00  0.00    -0.012 A 
ATOM     14  C   UNL A   1      34.973  19.963  24.696  1.00  0.00     0.046 A 
ATOM     15  C   UNL A   1      32.813  18.973  24.639  1.00  0.00     0.126 A 
ATOM     16  C   UNL A   1      34.385  21.238  24.807  1.00  0.00     0.133 A 
ATOM     17  C   UNL A   1      32.242  20.238  24.743  1.00  0.00     0.053 A 
ATOM     18  F   UNL A   1      32.005  17.904  24.611  1.00  0.00    -0.207 F 
ATOM     19  F   UNL A   1      35.212  22.278  24.983  1.00  0.00    -0.206 F 
ENDBRANCH   9  11
BRANCH   9  20
ATOM     20  N   UNL A   1      31.915  23.407  23.667  1.00  0.00    -0.308 N 
ATOM     21  C   UNL A   1      30.653  24.112  23.484  1.00  0.00     0.325 C 
ATOM     22  C   UNL A   1      32.765  23.450  22.491  1.00  0.00     0.325 C 
ATOM     23  H   UNL A   1      32.084  22.505  24.113  1.00  0.00     0.349 HD
ATOM     24  C   UNL A   1      30.830  25.545  22.920  1.00  0.00     0.322 C 
ATOM     25  C   UNL A   1      33.024  24.895  22.012  1.00  0.00     0.322 C 
ATOM     26  N   UNL A   1      31.834  25.743  21.868  1.00  0.00    -0.337 N 
ATOM     27  H   UNL A   1      32.132  26.718  21.887  1.00  0.00     0.346 HD
ATOM     28  H   UNL A   1      31.393  25.486  20.985  1.00  0.00     0.346 HD
ENDBRANCH   9  20
ENDBRANCH   7   9
ENDBRANCH   6   7
ENDBRANCH   5   6
ENDBRANCH   4   5
ENDBRANCH   3   4
ENDBRANCH   2   3
ENDBRANCH   1   2
BRANCH   1  29
ATOM     29  O   UNL A   1      32.011  30.548  26.929  1.00  0.00    -0.376 OA
BRANCH  29  30
ATOM     30  C   UNL A   1      31.395  31.698  26.367  1.00  0.00     0.202 C 
BRANCH  30  31
ATOM     31  C   UNL A   1      31.880  33.058  26.873  1.00  0.00     0.261 C 
BRANCH  31  32
ATOM     32  O   UNL A   1      32.781  32.936  27.989  1.00  0.00    -0.460 OA
BRANCH  32  33
ATOM     33  C   UNL A   1      33.891  33.717  27.920  1.00  0.00     0.338 C 
ATOM     34  O   UNL A   1      33.933  34.920  27.735  1.00  0.00    -0.246 OA
BRANCH  33  35
ATOM     35  C   UNL A   1      35.073  32.919  28.299  1.00  0.00     0.060 A 
ATOM     36  C   UNL A   1      36.355  33.469  28.288  1.00  0.00     0.016 A 
ATOM     37  C   UNL A   1      34.863  31.616  28.764  1.00  0.00     0.016 A 
ATOM     38  C   UNL A   1      37.434  32.707  28.762  1.00  0.00     0.010 A 
ATOM     39  C   UNL A   1      35.940  30.864  29.228  1.00  0.00     0.010 A 
ATOM     40  C   UNL A   1      37.232  31.401  29.244  1.00  0.00    -0.014 A 
BRANCH  40  41
ATOM     41  C   UNL A   1      38.294  30.675  29.986  1.00  0.00     0.031 A 
ATOM     42  C   UNL A   1      39.085  29.553  29.380  1.00  0.00     0.074 A 
ATOM     43  C   UNL A   1      38.447  30.966  31.291  1.00  0.00     0.049 A 
ATOM     44  N   UNL A   1      40.125  28.930  29.873  1.00  0.00    -0.248 NA
ATOM     45  C   UNL A   1      38.638  29.039  28.079  1.00  0.00     0.031 C 
ATOM     46  C   UNL A   1      37.612  31.912  32.032  1.00  0.00     0.029 A 
ATOM     47  N   UNL A   1      39.333  30.495  32.226  1.00  0.00    -0.354 N 
ATOM     48  C   UNL A   1      40.481  27.972  28.932  1.00  0.00     0.074 A 
ATOM     49  C   UNL A   1      39.496  28.046  27.872  1.00  0.00     0.031 C 
ATOM     50  C   UNL A   1      38.045  31.979  33.298  1.00  0.00     0.029 A 
ATOM     51  C   UNL A   1      39.192  31.088  33.459  1.00  0.00     0.049 A 
ATOM     52  H   UNL A   1      40.003  29.800  32.034  1.00  0.00     0.167 HD
ATOM     53  C   UNL A   1      41.552  27.138  28.945  1.00  0.00     0.034 A 
ATOM     54  C   UNL A   1      39.928  30.964  34.581  1.00  0.00     0.034 A 
ATOM     55  C   UNL A   1      42.506  27.080  30.029  1.00  0.00     0.049 A 
ATOM     56  C   UNL A   1      41.159  30.098  34.550  1.00  0.00     0.074 A 
ATOM     57  C   UNL A   1      43.688  26.363  30.094  1.00  0.00     0.029 A 
ATOM     58  N   UNL A   1      42.382  27.746  31.242  1.00  0.00    -0.354 N 
ATOM     59  N   UNL A   1      41.621  29.360  33.568  1.00  0.00    -0.248 NA
ATOM     60  C   UNL A   1      41.992  30.076  35.759  1.00  0.00     0.031 C 
ATOM     61  C   UNL A   1      44.242  26.541  31.363  1.00  0.00     0.029 A 
ATOM     62  C   UNL A   1      43.449  27.432  32.069  1.00  0.00     0.049 A 
ATOM     63  H   UNL A   1      41.644  28.353  31.479  1.00  0.00     0.167 HD
ATOM     64  C   UNL A   1      42.811  28.805  34.032  1.00  0.00     0.074 A 
ATOM     65  C   UNL A   1      43.011  29.319  35.372  1.00  0.00     0.031 C 
ATOM     66  C   UNL A   1      43.654  27.947  33.404  1.00  0.00     0.034 A 
BRANCH  53  67
ATOM     67  C   UNL A   1      41.822  26.267  27.737  1.00  0.00     0.023 A 
ATOM     68  C   UNL A   1      41.524  24.891  27.760  1.00  0.00     0.031 A 
ATOM     69  C   UNL A   1      42.541  26.769  26.636  1.00  0.00     0.131 A 
ATOM     70  C   UNL A   1      41.977  24.062  26.723  1.00  0.00     0.055 A 
ATOM     71  C   UNL A   1      42.951  25.946  25.586  1.00  0.00     0.041 A 
ATOM     72  F   UNL A   1      42.871  28.070  26.571  1.00  0.00    -0.206 F 
ATOM     73  C   UNL A   1      42.682  24.583  25.633  1.00  0.00     0.022 A 
BRANCH  70  74
ATOM     74  S   UNL A   1      41.745  22.262  26.781  1.00  0.00     0.124 S 
ATOM     75  O   UNL A   1      42.938  21.829  27.506  1.00  0.00    -0.237 OA
ATOM     76  O   UNL A   1      40.490  22.138  27.517  1.00  0.00    -0.237 OA
ATOM     77  O   UNL A   1      41.695  21.869  25.377  1.00  0.00    -0.744 OA
ENDBRANCH  70  74
ENDBRANCH  53  67
BRANCH  54  78
ATOM     78  C   UNL A   1      39.583  31.817  35.754  1.00  0.00     0.023 A 
ATOM     79  C   UNL A   1      38.742  31.345  36.778  1.00  0.00     0.031 A 
ATOM     80  C   UNL A   1      39.970  33.168  35.783  1.00  0.00     0.131 A 
ATOM     81  C   UNL A   1      38.264  32.235  37.749  1.00  0.00     0.055 A 
ATOM     82  C   UNL A   1      39.546  34.035  36.790  1.00  0.00     0.041 A 
ATOM     83  F   UNL A   1      40.749  33.668  34.811  1.00  0.00    -0.206 F 
ATOM     84  C   UNL A   1      38.675  33.573  37.771  1.00  0.00     0.022 A 
BRANCH  81  85
ATOM     85  S   UNL A   1      36.981  31.729  38.927  1.00  0.00     0.124 S 
ATOM     86  O   UNL A   1      36.693  30.365  38.495  1.00  0.00    -0.237 OA
ATOM     87  O   UNL A   1      37.684  31.852  40.203  1.00  0.00    -0.237 OA
ATOM     88  O   UNL A   1      35.914  32.700  38.712  1.00  0.00    -0.744 OA
ENDBRANCH  81  85
ENDBRANCH  54  78
BRANCH  66  89
ATOM     89  C   UNL A   1      44.888  27.477  34.141  1.00  0.00     0.023 A 
ATOM     90  C   UNL A   1      44.826  26.340  34.970  1.00  0.00     0.031 A 
ATOM     91  C   UNL A   1      46.076  28.229  34.135  1.00  0.00     0.131 A 
ATOM     92  C   UNL A   1      45.915  26.011  35.787  1.00  0.00     0.055 A 
ATOM     93  C   UNL A   1      47.177  27.868  34.913  1.00  0.00     0.041 A 
ATOM     94  F   UNL A   1      46.183  29.328  33.371  1.00  0.00    -0.206 F 
ATOM     95  C   UNL A   1      47.094  26.764  35.755  1.00  0.00     0.022 A 
BRANCH  92  96
ATOM     96  S   UNL A   1      45.815  24.653  36.985  1.00  0.00     0.124 S 
ATOM     97  O   UNL A   1      44.488  24.856  37.563  1.00  0.00    -0.237 OA
ATOM     98  O   UNL A   1      45.948  23.476  36.128  1.00  0.00    -0.237 OA
ATOM     99  O   UNL A   1      46.933  24.898  37.891  1.00  0.00    -0.744 OA
ENDBRANCH  92  96
ENDBRANCH  66  89
ENDBRANCH  40  41
ENDBRANCH  33  35
ENDBRANCH  32  33
ENDBRANCH  31  32
ENDBRANCH  30  31
ENDBRANCH  29  30
ENDBRANCH   1  29
TORSDOF 22
ENDMDL
MODEL 3
REMARK VINA RESULT:      -9.3      3.731      6.817
REMARK SMILES Cc1cc(F)c([C@@](C)(C(=O)OCCOCCOCCOC(=O)c2ccc(-c3c4nc(c(-c5cc(S(=O)(=O)[O-])ccc5F)c5ccc([nH]5)c(-c5cc(S(=O)(=O)[O-])ccc5F)c5nc(c(-c6cc(S(=O)(=O)[O-])ccc6F)c6ccc3[nH]6)C=C5)C=C4)cc2)[NH+]2CC[NH2+]CC2)cc1F
REMARK SMILES IDX 16 1 15 2 14 3 13 4 12 5 11 6 9 7 10 8 7 9 8 10 6 11 1 12
REMARK SMILES IDX 2 13 3 14 93 15 4 16 92 17 94 18 5 19 86 20 87 21 91 22
REMARK SMILES IDX 88 24 90 25 89 26 17 29 18 30 19 31 20 32 21 33 22 34 23 35
REMARK SMILES IDX 24 36 85 37 25 38 84 39 26 40 27 41 28 42 78 43 29 44 83 45
REMARK SMILES IDX 77 46 79 47 30 48 82 49 76 50 75 51 31 53 63 54 43 55 62 56
REMARK SMILES IDX 44 57 47 58 61 59 80 60 45 61 46 62 60 64 81 65 48 66 32 67
REMARK SMILES IDX 33 68 41 69 34 70 40 71 42 72 39 73 35 74 36 75 37 76 38 77
REMARK SMILES IDX 64 78 65 79 73 80 66 81 72 82 74 83 71 84 67 85 68 86 69 87
REMARK SMILES IDX 70 88 49 89 50 90 58 91 51 92 57 93 59 94 56 95 52 96 53 97
REMARK SMILES IDX 54 98 55 99
REMARK H PARENT 86 23 89 27 89 28 79 52 47 63
REMARK Flexibility Score: inf
ROOT
ATOM      1  C   UNL A   1      35.658  31.258  28.186  1.00  0.00     0.188 C 
ENDROOT
BRANCH   1   2
ATOM      2  C   UNL A   1      35.925  29.752  27.992  1.00  0.00     0.188 C 
BRANCH   2   3
ATOM      3  O   UNL A   1      34.984  28.979  27.259  1.00  0.00    -0.376 OA
BRANCH   3   4
ATOM      4  C   UNL A   1      33.911  29.657  26.615  1.00  0.00     0.202 C 
BRANCH   4   5
ATOM      5  C   UNL A   1      32.650  28.835  26.366  1.00  0.00     0.261 C 
BRANCH   5   6
ATOM      6  O   UNL A   1      32.974  27.472  26.020  1.00  0.00    -0.458 OA
BRANCH   6   7
ATOM      7  C   UNL A   1      31.929  26.632  25.799  1.00  0.00     0.372 C 
ATOM      8  O   UNL A   1      31.005  26.513  26.603  1.00  0.00    -0.244 OA
BRANCH   7   9
ATOM      9  C   UNL A   1      32.030  25.765  24.481  1.00  0.00     0.221 C 
ATOM     10  C   UNL A   1      30.780  24.856  24.600  1.00  0.00     0.098 C 
BRANCH   9  11
ATOM     11  C   UNL A   1      33.252  24.812  24.316  1.00  0.00     0.062 A 
ATOM     12  C   UNL A   1      36.867  22.386  23.864  1.00  0.00     0.047 C 
ATOM     13  C   UNL A   1      35.612  23.187  24.020  1.00  0.00    -0.012 A 
ATOM     14  C   UNL A   1      34.554  23.104  23.110  1.00  0.00     0.046 A 
ATOM     15  C   UNL A   1      35.499  24.106  25.047  1.00  0.00     0.126 A 
ATOM     16  C   UNL A   1      33.408  23.911  23.252  1.00  0.00     0.133 A 
ATOM     17  C   UNL A   1      34.360  24.895  25.182  1.00  0.00     0.053 A 
ATOM     18  F   UNL A   1      36.504  24.276  25.918  1.00  0.00    -0.207 F 
ATOM     19  F   UNL A   1      32.482  23.830  22.287  1.00  0.00    -0.206 F 
ENDBRANCH   9  11
BRANCH   9  20
ATOM     20  N   UNL A   1      31.916  26.716  23.340  1.00  0.00    -0.308 N 
ATOM     21  C   UNL A   1      30.631  27.253  22.911  1.00  0.00     0.325 C 
ATOM     22  C   UNL A   1      33.038  27.285  22.617  1.00  0.00     0.325 C 
ATOM     23  H   UNL A   1      32.168  25.750  23.550  1.00  0.00     0.349 HD
ATOM     24  C   UNL A   1      30.599  28.803  22.869  1.00  0.00     0.322 C 
ATOM     25  C   UNL A   1      33.053  28.828  22.684  1.00  0.00     0.322 C 
ATOM     26  N   UNL A   1      31.787  29.494  22.355  1.00  0.00    -0.337 N 
ATOM     27  H   UNL A   1      31.807  30.434  22.750  1.00  0.00     0.346 HD
ATOM     28  H   UNL A   1      31.711  29.498  21.338  1.00  0.00     0.346 HD
ENDBRANCH   9  20
ENDBRANCH   7   9
ENDBRANCH   6   7
ENDBRANCH   5   6
ENDBRANCH   4   5
ENDBRANCH   3   4
ENDBRANCH   2   3
ENDBRANCH   1   2
BRANCH   1  29
ATOM     29  O   UNL A   1      34.372  31.710  28.575  1.00  0.00    -0.376 OA
BRANCH  29  30
ATOM     30  C   UNL A   1      33.961  32.996  28.132  1.00  0.00     0.202 C 
BRANCH  30  31
ATOM     31  C   UNL A   1      34.023  34.132  29.156  1.00  0.00     0.261 C 
BRANCH  31  32
ATOM     32  O   UNL A   1      34.018  33.647  30.511  1.00  0.00    -0.460 OA
BRANCH  32  33
ATOM     33  C   UNL A   1      34.995  34.154  31.307  1.00  0.00     0.338 C 
ATOM     34  O   UNL A   1      34.896  35.077  32.095  1.00  0.00    -0.246 OA
BRANCH  33  35
ATOM     35  C   UNL A   1      36.187  33.288  31.227  1.00  0.00     0.060 A 
ATOM     36  C   UNL A   1      37.357  33.719  30.602  1.00  0.00     0.016 A 
ATOM     37  C   UNL A   1      36.145  32.051  31.880  1.00  0.00     0.016 A 
ATOM     38  C   UNL A   1      38.500  32.906  30.647  1.00  0.00     0.010 A 
ATOM     39  C   UNL A   1      37.282  31.247  31.916  1.00  0.00     0.010 A 
ATOM     40  C   UNL A   1      38.472  31.667  31.312  1.00  0.00    -0.014 A 
BRANCH  40  41
ATOM     41  C   UNL A   1      39.719  30.913  31.599  1.00  0.00     0.031 A 
ATOM     42  C   UNL A   1      40.600  31.219  32.774  1.00  0.00     0.074 A 
ATOM     43  C   UNL A   1      40.122  30.011  30.685  1.00  0.00     0.049 A 
ATOM     44  N   UNL A   1      41.639  30.553  33.209  1.00  0.00    -0.248 NA
ATOM     45  C   UNL A   1      40.306  32.440  33.537  1.00  0.00     0.031 C 
ATOM     46  C   UNL A   1      39.439  29.757  29.415  1.00  0.00     0.029 A 
ATOM     47  N   UNL A   1      41.195  29.158  30.666  1.00  0.00    -0.354 N 
ATOM     48  C   UNL A   1      42.107  31.251  34.316  1.00  0.00     0.074 A 
ATOM     49  C   UNL A   1      41.283  32.435  34.439  1.00  0.00     0.031 C 
ATOM     50  C   UNL A   1      40.089  28.789  28.756  1.00  0.00     0.029 A 
ATOM     51  C   UNL A   1      41.229  28.347  29.556  1.00  0.00     0.049 A 
ATOM     52  H   UNL A   1      41.875  29.129  31.377  1.00  0.00     0.167 HD
ATOM     53  C   UNL A   1      43.110  30.906  35.165  1.00  0.00     0.034 A 
ATOM     54  C   UNL A   1      42.056  27.333  29.235  1.00  0.00     0.034 A 
ATOM     55  C   UNL A   1      43.923  29.723  35.001  1.00  0.00     0.049 A 
ATOM     56  C   UNL A   1      43.109  26.913  30.226  1.00  0.00     0.074 A 
ATOM     57  C   UNL A   1      44.882  29.216  35.862  1.00  0.00     0.029 A 
ATOM     58  N   UNL A   1      43.891  28.874  33.903  1.00  0.00    -0.354 N 
ATOM     59  N   UNL A   1      43.402  27.446  31.390  1.00  0.00    -0.248 NA
ATOM     60  C   UNL A   1      43.917  25.736  29.886  1.00  0.00     0.031 C 
ATOM     61  C   UNL A   1      45.472  28.105  35.257  1.00  0.00     0.029 A 
ATOM     62  C   UNL A   1      44.832  27.867  34.051  1.00  0.00     0.049 A 
ATOM     63  H   UNL A   1      43.287  28.973  33.131  1.00  0.00     0.167 HD
ATOM     64  C   UNL A   1      44.411  26.653  31.931  1.00  0.00     0.074 A 
ATOM     65  C   UNL A   1      44.655  25.589  30.979  1.00  0.00     0.031 C 
ATOM     66  C   UNL A   1      45.074  26.801  33.106  1.00  0.00     0.034 A 
BRANCH  53  67
ATOM     67  C   UNL A   1      43.357  31.753  36.394  1.00  0.00     0.023 A 
ATOM     68  C   UNL A   1      42.489  31.686  37.502  1.00  0.00     0.031 A 
ATOM     69  C   UNL A   1      44.346  32.754  36.391  1.00  0.00     0.131 A 
ATOM     70  C   UNL A   1      42.604  32.627  38.536  1.00  0.00     0.055 A 
ATOM     71  C   UNL A   1      44.484  33.659  37.445  1.00  0.00     0.041 A 
ATOM     72  F   UNL A   1      45.190  32.877  35.353  1.00  0.00    -0.206 F 
ATOM     73  C   UNL A   1      43.601  33.608  38.517  1.00  0.00     0.022 A 
BRANCH  70  74
ATOM     74  S   UNL A   1      41.417  32.673  39.909  1.00  0.00     0.124 S 
ATOM     75  O   UNL A   1      41.612  34.025  40.429  1.00  0.00    -0.237 OA
ATOM     76  O   UNL A   1      40.146  32.446  39.224  1.00  0.00    -0.237 OA
ATOM     77  O   UNL A   1      41.858  31.598  40.792  1.00  0.00    -0.744 OA
ENDBRANCH  70  74
ENDBRANCH  53  67
BRANCH  54  78
ATOM     78  C   UNL A   1      41.788  26.565  27.986  1.00  0.00     0.023 A 
ATOM     79  C   UNL A   1      41.188  25.294  28.024  1.00  0.00     0.031 A 
ATOM     80  C   UNL A   1      42.271  27.034  26.751  1.00  0.00     0.131 A 
ATOM     81  C   UNL A   1      41.147  24.510  26.864  1.00  0.00     0.055 A 
ATOM     82  C   UNL A   1      42.166  26.278  25.584  1.00  0.00     0.041 A 
ATOM     83  F   UNL A   1      42.875  28.230  26.673  1.00  0.00    -0.206 F 
ATOM     84  C   UNL A   1      41.618  25.002  25.640  1.00  0.00     0.022 A 
BRANCH  81  85
ATOM     85  S   UNL A   1      40.620  22.775  26.928  1.00  0.00     0.124 S 
ATOM     86  O   UNL A   1      39.192  22.881  26.647  1.00  0.00    -0.237 OA
ATOM     87  O   UNL A   1      41.429  22.179  25.867  1.00  0.00    -0.237 OA
ATOM     88  O   UNL A   1      40.971  22.360  28.282  1.00  0.00    -0.744 OA
ENDBRANCH  81  85
ENDBRANCH  54  78
BRANCH  66  89
ATOM     89  C   UNL A   1      46.150  25.799  33.459  1.00  0.00     0.023 A 
ATOM     90  C   UNL A   1      45.816  24.617  34.148  1.00  0.00     0.031 A 
ATOM     91  C   UNL A   1      47.511  26.079  33.243  1.00  0.00     0.131 A 
ATOM     92  C   UNL A   1      46.831  23.779  34.630  1.00  0.00     0.055 A 
ATOM     93  C   UNL A   1      48.517  25.216  33.681  1.00  0.00     0.041 A 
ATOM     94  F   UNL A   1      47.884  27.199  32.603  1.00  0.00    -0.206 F 
ATOM     95  C   UNL A   1      48.179  24.068  34.390  1.00  0.00     0.022 A 
BRANCH  92  96
ATOM     96  S   UNL A   1      46.448  22.334  35.658  1.00  0.00     0.124 S 
ATOM     97  O   UNL A   1      47.742  22.050  36.274  1.00  0.00    -0.237 OA
ATOM     98  O   UNL A   1      45.430  22.862  36.563  1.00  0.00    -0.237 OA
ATOM     99  O   UNL A   1      45.981  21.335  34.702  1.00  0.00    -0.744 OA
ENDBRANCH  92  96
ENDBRANCH  66  89
ENDBRANCH  40  41
ENDBRANCH  33  35
ENDBRANCH  32  33
ENDBRANCH  31  32
ENDBRANCH  30  31
ENDBRANCH  29  30
ENDBRANCH   1  29
TORSDOF 22
ENDMDL
