MODEL 1
REMARK VINA RESULT:     -11.7      0.000      0.000
REMARK SMILES O=C(OCCOCCOCCOC(=O)c1ccc(-c2c3nc(c(-c4cc(S(=O)(=O)[O-])ccc4F)c4ccc([nH]4)c(-c4cc(S(=O)(=O)[O-])ccc4F)c4nc(c(-c5cc(S(=O)(=O)[O-])ccc5F)c5ccc2[nH]5)C=C4)C=C3)cc1)C1=Cc2cc(S(F)(F)(F)(F)F)ccc2O[C@@H]1C(F)(F)F
REMARK SMILES IDX 8 1 7 2 6 3 5 4 4 5 3 6 2 7 1 8 78 9 79 10 93 11 80 12 92 13
REMARK SMILES IDX 81 14 91 15 82 16 90 17 89 18 94 19 95 20 96 21 97 22 83 23
REMARK SMILES IDX 84 24 85 25 86 26 87 27 88 28 9 29 10 30 11 31 12 32 13 33
REMARK SMILES IDX 14 34 15 35 16 36 77 37 17 38 76 39 18 40 19 41 20 42 70 43
REMARK SMILES IDX 21 44 75 45 69 46 71 47 22 48 74 49 68 50 67 51 23 53 55 54
REMARK SMILES IDX 35 55 54 56 36 57 39 58 53 59 72 60 37 61 38 62 52 64 73 65
REMARK SMILES IDX 40 66 24 67 25 68 33 69 26 70 32 71 34 72 31 73 27 74 28 75
REMARK SMILES IDX 29 76 30 77 56 78 57 79 65 80 58 81 64 82 66 83 63 84 59 85
REMARK SMILES IDX 60 86 61 87 62 88 41 89 42 90 50 91 43 92 49 93 51 94 48 95
REMARK SMILES IDX 44 96 45 97 46 98 47 99
REMARK H PARENT 71 52 39 63
REMARK Flexibility Score: inf
ROOT
ATOM      1  C   UNL A   1      34.251  21.983  24.993  1.00  0.00     0.188 C 
ENDROOT
BRANCH   1   2
ATOM      2  C   UNL A   1      34.471  22.248  26.473  1.00  0.00     0.188 C 
BRANCH   2   3
ATOM      3  O   UNL A   1      33.222  22.497  27.101  1.00  0.00    -0.376 OA
BRANCH   3   4
ATOM      4  C   UNL A   1      32.354  23.146  26.185  1.00  0.00     0.202 C 
BRANCH   4   5
ATOM      5  C   UNL A   1      31.941  24.496  26.746  1.00  0.00     0.261 C 
BRANCH   5   6
ATOM      6  O   UNL A   1      32.058  25.485  25.734  1.00  0.00    -0.460 OA
BRANCH   6   7
ATOM      7  C   UNL A   1      30.996  25.687  24.812  1.00  0.00     0.338 C 
ATOM      8  O   UNL A   1      29.833  25.976  25.237  1.00  0.00    -0.246 OA
BRANCH   7   9
ATOM      9  C   UNL A   1      31.249  25.558  23.320  1.00  0.00     0.087 C 
ATOM     10  C   UNL A   1      31.006  26.612  22.495  1.00  0.00     0.027 C 
ATOM     11  C   UNL A   1      31.776  24.252  22.749  1.00  0.00     0.316 C 
ATOM     12  C   UNL A   1      30.479  27.918  23.065  1.00  0.00     0.019 A 
ATOM     13  O   UNL A   1      31.954  27.518  24.886  1.00  0.00    -0.475 OA
ATOM     14  C   UNL A   1      29.493  28.654  22.429  1.00  0.00     0.036 A 
ATOM     15  C   UNL A   1      31.066  28.365  24.170  1.00  0.00     0.128 A 
ATOM     16  C   UNL A   1      29.397  29.993  22.876  1.00  0.00     0.107 A 
ATOM     17  C   UNL A   1      30.823  29.637  24.626  1.00  0.00     0.048 A 
ATOM     18  C   UNL A   1      29.904  30.441  24.011  1.00  0.00     0.028 A 
BRANCH  11  19
ATOM     19  C   UNL A   1      33.111  24.499  22.065  1.00  0.00     0.430 C 
ATOM     20  F   UNL A   1      33.783  25.434  22.730  1.00  0.00    -0.167 F 
ATOM     21  F   UNL A   1      33.817  23.372  22.050  1.00  0.00    -0.167 F 
ATOM     22  F   UNL A   1      32.900  24.907  20.817  1.00  0.00    -0.167 F 
ENDBRANCH  11  19
BRANCH  16  23
ATOM     23  S   UNL A   1      28.520  31.172  21.821  1.00  0.00     0.310 S 
ATOM     24  F   UNL A   1      27.375  31.388  22.897  1.00  0.00    -0.094 F 
ATOM     25  F   UNL A   1      27.664  29.978  21.251  1.00  0.00    -0.094 F 
ATOM     26  F   UNL A   1      27.768  32.182  20.908  1.00  0.00    -0.094 F 
ATOM     27  F   UNL A   1      29.288  32.373  22.503  1.00  0.00    -0.094 F 
ATOM     28  F   UNL A   1      29.211  30.174  22.832  1.00  0.00    -0.094 F 
ENDBRANCH  16  23
ENDBRANCH   7   9
ENDBRANCH   6   7
ENDBRANCH   5   6
ENDBRANCH   4   5
ENDBRANCH   3   4
ENDBRANCH   2   3
ENDBRANCH   1   2
BRANCH   1  29
ATOM     29  O   UNL A   1      35.489  21.650  24.382  1.00  0.00    -0.376 OA
BRANCH  29  30
ATOM     30  C   UNL A   1      35.984  20.442  24.941  1.00  0.00     0.202 C 
BRANCH  30  31
ATOM     31  C   UNL A   1      37.501  20.499  25.007  1.00  0.00     0.261 C 
BRANCH  31  32
ATOM     32  O   UNL A   1      37.897  21.434  26.000  1.00  0.00    -0.460 OA
BRANCH  32  33
ATOM     33  C   UNL A   1      39.274  21.615  26.296  1.00  0.00     0.338 C 
ATOM     34  O   UNL A   1      40.089  20.652  26.140  1.00  0.00    -0.246 OA
BRANCH  33  35
ATOM     35  C   UNL A   1      39.774  22.959  26.797  1.00  0.00     0.060 A 
ATOM     36  C   UNL A   1      40.771  23.105  27.748  1.00  0.00     0.016 A 
ATOM     37  C   UNL A   1      39.246  24.013  26.186  1.00  0.00     0.016 A 
ATOM     38  C   UNL A   1      40.942  24.435  28.200  1.00  0.00     0.010 A 
ATOM     39  C   UNL A   1      39.563  25.288  26.591  1.00  0.00     0.010 A 
ATOM     40  C   UNL A   1      40.496  25.504  27.567  1.00  0.00    -0.014 A 
BRANCH  40  41
ATOM     41  C   UNL A   1      40.991  26.900  27.906  1.00  0.00     0.031 A 
ATOM     42  C   UNL A   1      42.356  27.104  27.693  1.00  0.00     0.074 A 
ATOM     43  C   UNL A   1      40.153  27.829  28.500  1.00  0.00     0.049 A 
ATOM     44  N   UNL A   1      43.069  28.195  27.976  1.00  0.00    -0.248 NA
ATOM     45  C   UNL A   1      43.255  26.106  27.094  1.00  0.00     0.031 C 
ATOM     46  C   UNL A   1      38.775  27.634  28.710  1.00  0.00     0.029 A 
ATOM     47  N   UNL A   1      40.483  29.075  28.984  1.00  0.00    -0.354 N 
ATOM     48  C   UNL A   1      44.341  28.021  27.610  1.00  0.00     0.074 A 
ATOM     49  C   UNL A   1      44.479  26.673  27.043  1.00  0.00     0.031 C 
ATOM     50  C   UNL A   1      38.282  28.742  29.324  1.00  0.00     0.029 A 
ATOM     51  C   UNL A   1      39.343  29.648  29.505  1.00  0.00     0.049 A 
ATOM     52  H   UNL A   1      41.377  29.487  28.962  1.00  0.00     0.167 HD
ATOM     53  C   UNL A   1      45.390  28.936  27.724  1.00  0.00     0.034 A 
ATOM     54  C   UNL A   1      39.218  30.889  30.111  1.00  0.00     0.034 A 
ATOM     55  C   UNL A   1      45.255  30.193  28.290  1.00  0.00     0.049 A 
ATOM     56  C   UNL A   1      40.279  31.781  30.279  1.00  0.00     0.074 A 
ATOM     57  C   UNL A   1      46.300  31.129  28.406  1.00  0.00     0.029 A 
ATOM     58  N   UNL A   1      44.121  30.756  28.833  1.00  0.00    -0.354 N 
ATOM     59  N   UNL A   1      41.542  31.623  29.876  1.00  0.00    -0.248 NA
ATOM     60  C   UNL A   1      40.166  33.083  30.948  1.00  0.00     0.031 C 
ATOM     61  C   UNL A   1      45.806  32.238  29.020  1.00  0.00     0.029 A 
ATOM     62  C   UNL A   1      44.444  32.012  29.297  1.00  0.00     0.049 A 
ATOM     63  H   UNL A   1      43.233  30.333  28.883  1.00  0.00     0.167 HD
ATOM     64  C   UNL A   1      42.264  32.697  30.197  1.00  0.00     0.074 A 
ATOM     65  C   UNL A   1      41.391  33.649  30.898  1.00  0.00     0.031 C 
ATOM     66  C   UNL A   1      43.616  32.925  29.932  1.00  0.00     0.034 A 
BRANCH  53  67
ATOM     67  C   UNL A   1      46.757  28.529  27.198  1.00  0.00     0.023 A 
ATOM     68  C   UNL A   1      47.025  28.601  25.840  1.00  0.00     0.031 A 
ATOM     69  C   UNL A   1      47.632  28.001  28.045  1.00  0.00     0.131 A 
ATOM     70  C   UNL A   1      48.132  27.821  25.433  1.00  0.00     0.055 A 
ATOM     71  C   UNL A   1      48.761  27.371  27.583  1.00  0.00     0.041 A 
ATOM     72  F   UNL A   1      47.412  28.082  29.354  1.00  0.00    -0.206 F 
ATOM     73  C   UNL A   1      49.060  27.353  26.248  1.00  0.00     0.022 A 
BRANCH  70  74
ATOM     74  S   UNL A   1      48.289  27.437  23.671  1.00  0.00     0.124 S 
ATOM     75  O   UNL A   1      49.690  27.818  23.188  1.00  0.00    -0.237 OA
ATOM     76  O   UNL A   1      48.063  25.940  23.452  1.00  0.00    -0.237 OA
ATOM     77  O   UNL A   1      47.122  28.324  22.789  1.00  0.00    -0.744 OA
ENDBRANCH  70  74
ENDBRANCH  53  67
BRANCH  54  78
ATOM     78  C   UNL A   1      37.848  31.302  30.622  1.00  0.00     0.023 A 
ATOM     79  C   UNL A   1      36.886  31.803  29.760  1.00  0.00     0.031 A 
ATOM     80  C   UNL A   1      37.569  31.059  31.898  1.00  0.00     0.131 A 
ATOM     81  C   UNL A   1      35.730  32.291  30.412  1.00  0.00     0.055 A 
ATOM     82  C   UNL A   1      36.364  31.443  32.436  1.00  0.00     0.041 A 
ATOM     83  F   UNL A   1      38.465  30.439  32.661  1.00  0.00    -0.206 F 
ATOM     84  C   UNL A   1      35.391  31.998  31.655  1.00  0.00     0.022 A 
BRANCH  81  85
ATOM     85  S   UNL A   1      34.639  33.395  29.480  1.00  0.00     0.124 S 
ATOM     86  O   UNL A   1      33.860  32.584  28.442  1.00  0.00    -0.237 OA
ATOM     87  O   UNL A   1      33.659  34.074  30.439  1.00  0.00    -0.237 OA
ATOM     88  O   UNL A   1      35.577  34.585  28.687  1.00  0.00    -0.744 OA
ENDBRANCH  81  85
ENDBRANCH  54  78
BRANCH  66  89
ATOM     89  C   UNL A   1      44.215  34.254  30.363  1.00  0.00     0.023 A 
ATOM     90  C   UNL A   1      44.159  35.396  29.580  1.00  0.00     0.031 A 
ATOM     91  C   UNL A   1      44.748  34.276  31.578  1.00  0.00     0.131 A 
ATOM     92  C   UNL A   1      44.960  36.458  30.061  1.00  0.00     0.055 A 
ATOM     93  C   UNL A   1      45.400  35.397  32.035  1.00  0.00     0.041 A 
ATOM     94  F   UNL A   1      44.652  33.205  32.361  1.00  0.00    -0.206 F 
ATOM     95  C   UNL A   1      45.435  36.543  31.290  1.00  0.00     0.022 A 
BRANCH  92  96
ATOM     96  S   UNL A   1      45.362  37.795  28.909  1.00  0.00     0.124 S 
ATOM     97  O   UNL A   1      46.478  38.661  29.501  1.00  0.00    -0.237 OA
ATOM     98  O   UNL A   1      45.829  37.200  27.578  1.00  0.00    -0.237 OA
ATOM     99  O   UNL A   1      43.973  38.759  28.645  1.00  0.00    -0.744 OA
ENDBRANCH  92  96
ENDBRANCH  66  89
ENDBRANCH  40  41
ENDBRANCH  33  35
ENDBRANCH  32  33
ENDBRANCH  31  32
ENDBRANCH  30  31
ENDBRANCH  29  30
ENDBRANCH   1  29
TORSDOF 22
ENDMDL
MODEL 2
REMARK VINA RESULT:     -11.4      2.101      7.826
REMARK SMILES O=C(OCCOCCOCCOC(=O)c1ccc(-c2c3nc(c(-c4cc(S(=O)(=O)[O-])ccc4F)c4ccc([nH]4)c(-c4cc(S(=O)(=O)[O-])ccc4F)c4nc(c(-c5cc(S(=O)(=O)[O-])ccc5F)c5ccc2[nH]5)C=C4)C=C3)cc1)C1=Cc2cc(S(F)(F)(F)(F)F)ccc2O[C@@H]1C(F)(F)F
REMARK SMILES IDX 8 1 7 2 6 3 5 4 4 5 3 6 2 7 1 8 78 9 79 10 93 11 80 12 92 13
REMARK SMILES IDX 81 14 91 15 82 16 90 17 89 18 94 19 95 20 96 21 97 22 83 23
REMARK SMILES IDX 84 24 85 25 86 26 87 27 88 28 9 29 10 30 11 31 12 32 13 33
REMARK SMILES IDX 14 34 15 35 16 36 77 37 17 38 76 39 18 40 19 41 20 42 70 43
REMARK SMILES IDX 21 44 75 45 69 46 71 47 22 48 74 49 68 50 67 51 23 53 55 54
REMARK SMILES IDX 35 55 54 56 36 57 39 58 53 59 72 60 37 61 38 62 52 64 73 65
REMARK SMILES IDX 40 66 24 67 25 68 33 69 26 70 32 71 34 72 31 73 27 74 28 75
REMARK SMILES IDX 29 76 30 77 56 78 57 79 65 80 58 81 64 82 66 83 63 84 59 85
REMARK SMILES IDX 60 86 61 87 62 88 41 89 42 90 50 91 43 92 49 93 51 94 48 95
REMARK SMILES IDX 44 96 45 97 46 98 47 99
REMARK H PARENT 71 52 39 63
REMARK Flexibility Score: inf
ROOT
ATOM      1  C   UNL A   1      33.976  22.365  23.897  1.00  0.00     0.188 C 
ENDROOT
BRANCH   1   2
ATOM      2  C   UNL A   1      33.068  23.558  24.144  1.00  0.00     0.188 C 
BRANCH   2   3
ATOM      3  O   UNL A   1      31.713  23.132  24.140  1.00  0.00    -0.376 OA
BRANCH   3   4
ATOM      4  C   UNL A   1      30.894  24.153  24.688  1.00  0.00     0.202 C 
BRANCH   4   5
ATOM      5  C   UNL A   1      30.270  24.962  23.564  1.00  0.00     0.261 C 
BRANCH   5   6
ATOM      6  O   UNL A   1      30.294  26.341  23.903  1.00  0.00    -0.460 OA
BRANCH   6   7
ATOM      7  C   UNL A   1      30.220  27.325  22.882  1.00  0.00     0.338 C 
ATOM      8  O   UNL A   1      30.580  27.039  21.697  1.00  0.00    -0.246 OA
BRANCH   7   9
ATOM      9  C   UNL A   1      29.712  28.720  23.206  1.00  0.00     0.087 C 
ATOM     10  C   UNL A   1      30.467  29.561  23.962  1.00  0.00     0.027 C 
ATOM     11  C   UNL A   1      28.358  29.176  22.684  1.00  0.00     0.316 C 
ATOM     12  C   UNL A   1      31.820  29.106  24.483  1.00  0.00     0.019 A 
ATOM     13  O   UNL A   1      32.088  28.052  22.370  1.00  0.00    -0.475 OA
ATOM     14  C   UNL A   1      32.249  29.398  25.768  1.00  0.00     0.036 A 
ATOM     15  C   UNL A   1      32.610  28.478  23.620  1.00  0.00     0.128 A 
ATOM     16  C   UNL A   1      33.643  29.242  25.957  1.00  0.00     0.107 A 
ATOM     17  C   UNL A   1      33.928  28.238  23.924  1.00  0.00     0.048 A 
ATOM     18  C   UNL A   1      34.435  28.554  25.154  1.00  0.00     0.028 A 
BRANCH  11  19
ATOM     19  C   UNL A   1      28.541  30.399  21.801  1.00  0.00     0.430 C 
ATOM     20  F   UNL A   1      29.759  30.383  21.268  1.00  0.00    -0.167 F 
ATOM     21  F   UNL A   1      27.632  30.385  20.831  1.00  0.00    -0.167 F 
ATOM     22  F   UNL A   1      28.392  31.499  22.533  1.00  0.00    -0.167 F 
ENDBRANCH  11  19
BRANCH  16  23
ATOM     23  S   UNL A   1      34.392  30.041  27.397  1.00  0.00     0.310 S 
ATOM     24  F   UNL A   1      33.867  28.913  28.381  1.00  0.00    -0.094 F 
ATOM     25  F   UNL A   1      33.031  30.796  27.647  1.00  0.00    -0.094 F 
ATOM     26  F   UNL A   1      35.034  30.734  28.632  1.00  0.00    -0.094 F 
ATOM     27  F   UNL A   1      35.699  29.173  27.215  1.00  0.00    -0.094 F 
ATOM     28  F   UNL A   1      33.715  29.248  26.210  1.00  0.00    -0.094 F 
ENDBRANCH  16  23
ENDBRANCH   7   9
ENDBRANCH   6   7
ENDBRANCH   5   6
ENDBRANCH   4   5
ENDBRANCH   3   4
ENDBRANCH   2   3
ENDBRANCH   1   2
BRANCH   1  29
ATOM     29  O   UNL A   1      33.464  21.231  24.581  1.00  0.00    -0.376 OA
BRANCH  29  30
ATOM     30  C   UNL A   1      34.540  20.397  24.987  1.00  0.00     0.202 C 
BRANCH  30  31
ATOM     31  C   UNL A   1      35.856  21.112  24.737  1.00  0.00     0.261 C 
BRANCH  31  32
ATOM     32  O   UNL A   1      36.638  21.095  25.923  1.00  0.00    -0.460 OA
BRANCH  32  33
ATOM     33  C   UNL A   1      38.055  21.137  25.840  1.00  0.00     0.338 C 
ATOM     34  O   UNL A   1      38.702  20.100  25.495  1.00  0.00    -0.246 OA
BRANCH  33  35
ATOM     35  C   UNL A   1      38.797  22.424  26.163  1.00  0.00     0.060 A 
ATOM     36  C   UNL A   1      38.270  23.689  25.963  1.00  0.00     0.016 A 
ATOM     37  C   UNL A   1      39.977  22.254  26.747  1.00  0.00     0.016 A 
ATOM     38  C   UNL A   1      39.202  24.736  26.154  1.00  0.00     0.010 A 
ATOM     39  C   UNL A   1      40.779  23.334  27.030  1.00  0.00     0.010 A 
ATOM     40  C   UNL A   1      40.345  24.611  26.802  1.00  0.00    -0.014 A 
BRANCH  40  41
ATOM     41  C   UNL A   1      41.138  25.821  27.269  1.00  0.00     0.031 A 
ATOM     42  C   UNL A   1      40.429  26.704  28.086  1.00  0.00     0.074 A 
ATOM     43  C   UNL A   1      42.416  26.061  26.796  1.00  0.00     0.049 A 
ATOM     44  N   UNL A   1      40.844  27.875  28.570  1.00  0.00    -0.248 NA
ATOM     45  C   UNL A   1      39.058  26.466  28.563  1.00  0.00     0.031 C 
ATOM     46  C   UNL A   1      43.141  25.172  25.979  1.00  0.00     0.029 A 
ATOM     47  N   UNL A   1      43.204  27.169  27.016  1.00  0.00    -0.354 N 
ATOM     48  C   UNL A   1      39.892  28.424  29.329  1.00  0.00     0.074 A 
ATOM     49  C   UNL A   1      38.728  27.528  29.329  1.00  0.00     0.031 C 
ATOM     50  C   UNL A   1      44.343  25.740  25.701  1.00  0.00     0.029 A 
ATOM     51  C   UNL A   1      44.392  26.993  26.340  1.00  0.00     0.049 A 
ATOM     52  H   UNL A   1      42.962  27.951  27.563  1.00  0.00     0.167 HD
ATOM     53  C   UNL A   1      39.952  29.635  30.021  1.00  0.00     0.034 A 
ATOM     54  C   UNL A   1      45.466  27.865  26.271  1.00  0.00     0.034 A 
ATOM     55  C   UNL A   1      41.043  30.487  29.988  1.00  0.00     0.049 A 
ATOM     56  C   UNL A   1      45.503  29.103  26.916  1.00  0.00     0.074 A 
ATOM     57  C   UNL A   1      41.122  31.707  30.686  1.00  0.00     0.029 A 
ATOM     58  N   UNL A   1      42.221  30.322  29.291  1.00  0.00    -0.354 N 
ATOM     59  N   UNL A   1      44.567  29.633  27.707  1.00  0.00    -0.248 NA
ATOM     60  C   UNL A   1      46.622  30.050  26.824  1.00  0.00     0.031 C 
ATOM     61  C   UNL A   1      42.326  32.275  30.407  1.00  0.00     0.029 A 
ATOM     62  C   UNL A   1      43.019  31.419  29.530  1.00  0.00     0.049 A 
ATOM     63  H   UNL A   1      42.451  29.553  28.721  1.00  0.00     0.167 HD
ATOM     64  C   UNL A   1      44.966  30.824  28.157  1.00  0.00     0.074 A 
ATOM     65  C   UNL A   1      46.291  31.112  27.590  1.00  0.00     0.031 C 
ATOM     66  C   UNL A   1      44.281  31.681  29.021  1.00  0.00     0.034 A 
BRANCH  53  67
ATOM     67  C   UNL A   1      38.751  30.041  30.859  1.00  0.00     0.023 A 
ATOM     68  C   UNL A   1      37.840  30.960  30.362  1.00  0.00     0.031 A 
ATOM     69  C   UNL A   1      38.663  29.590  32.105  1.00  0.00     0.131 A 
ATOM     70  C   UNL A   1      37.035  31.564  31.356  1.00  0.00     0.055 A 
ATOM     71  C   UNL A   1      37.760  30.134  32.985  1.00  0.00     0.041 A 
ATOM     72  F   UNL A   1      39.457  28.601  32.504  1.00  0.00    -0.206 F 
ATOM     73  C   UNL A   1      36.868  31.088  32.577  1.00  0.00     0.022 A 
BRANCH  70  74
ATOM     74  S   UNL A   1      36.173  33.096  30.925  1.00  0.00     0.124 S 
ATOM     75  O   UNL A   1      36.449  34.155  31.994  1.00  0.00    -0.237 OA
ATOM     76  O   UNL A   1      36.672  33.597  29.568  1.00  0.00    -0.237 OA
ATOM     77  O   UNL A   1      34.491  32.799  30.839  1.00  0.00    -0.744 OA
ENDBRANCH  70  74
ENDBRANCH  53  67
BRANCH  54  78
ATOM     78  C   UNL A   1      46.674  27.452  25.446  1.00  0.00     0.023 A 
ATOM     79  C   UNL A   1      46.940  28.044  24.223  1.00  0.00     0.031 A 
ATOM     80  C   UNL A   1      47.523  26.588  25.993  1.00  0.00     0.131 A 
ATOM     81  C   UNL A   1      48.000  27.436  23.510  1.00  0.00     0.055 A 
ATOM     82  C   UNL A   1      48.614  26.140  25.288  1.00  0.00     0.041 A 
ATOM     83  F   UNL A   1      47.314  26.153  27.232  1.00  0.00    -0.206 F 
ATOM     84  C   UNL A   1      48.904  26.638  24.049  1.00  0.00     0.022 A 
BRANCH  81  85
ATOM     85  S   UNL A   1      48.127  27.776  21.737  1.00  0.00     0.124 S 
ATOM     86  O   UNL A   1      46.775  28.267  21.214  1.00  0.00    -0.237 OA
ATOM     87  O   UNL A   1      49.188  28.853  21.499  1.00  0.00    -0.237 OA
ATOM     88  O   UNL A   1      48.572  26.345  20.913  1.00  0.00    -0.744 OA
ENDBRANCH  81  85
ENDBRANCH  54  78
BRANCH  66  89
ATOM     89  C   UNL A   1      44.961  32.978  29.428  1.00  0.00     0.023 A 
ATOM     90  C   UNL A   1      44.748  34.179  28.772  1.00  0.00     0.031 A 
ATOM     91  C   UNL A   1      45.736  32.907  30.503  1.00  0.00     0.131 A 
ATOM     92  C   UNL A   1      45.635  35.209  29.163  1.00  0.00     0.055 A 
ATOM     93  C   UNL A   1      46.473  33.995  30.907  1.00  0.00     0.041 A 
ATOM     94  F   UNL A   1      45.802  31.774  31.197  1.00  0.00    -0.206 F 
ATOM     95  C   UNL A   1      46.355  35.199  30.270  1.00  0.00     0.022 A 
BRANCH  92  96
ATOM     96  S   UNL A   1      45.793  36.643  28.069  1.00  0.00     0.124 S 
ATOM     97  O   UNL A   1      46.690  36.283  26.881  1.00  0.00    -0.237 OA
ATOM     98  O   UNL A   1      44.408  37.050  27.558  1.00  0.00    -0.237 OA
ATOM     99  O   UNL A   1      46.487  37.946  28.933  1.00  0.00    -0.744 OA
ENDBRANCH  92  96
ENDBRANCH  66  89
ENDBRANCH  40  41
ENDBRANCH  33  35
ENDBRANCH  32  33
ENDBRANCH  31  32
ENDBRANCH  30  31
ENDBRANCH  29  30
ENDBRANCH   1  29
TORSDOF 22
ENDMDL
MODEL 3
REMARK VINA RESULT:     -11.2      2.322      3.665
REMARK SMILES O=C(OCCOCCOCCOC(=O)c1ccc(-c2c3nc(c(-c4cc(S(=O)(=O)[O-])ccc4F)c4ccc([nH]4)c(-c4cc(S(=O)(=O)[O-])ccc4F)c4nc(c(-c5cc(S(=O)(=O)[O-])ccc5F)c5ccc2[nH]5)C=C4)C=C3)cc1)C1=Cc2cc(S(F)(F)(F)(F)F)ccc2O[C@@H]1C(F)(F)F
REMARK SMILES IDX 8 1 7 2 6 3 5 4 4 5 3 6 2 7 1 8 78 9 79 10 93 11 80 12 92 13
REMARK SMILES IDX 81 14 91 15 82 16 90 17 89 18 94 19 95 20 96 21 97 22 83 23
REMARK SMILES IDX 84 24 85 25 86 26 87 27 88 28 9 29 10 30 11 31 12 32 13 33
REMARK SMILES IDX 14 34 15 35 16 36 77 37 17 38 76 39 18 40 19 41 20 42 70 43
REMARK SMILES IDX 21 44 75 45 69 46 71 47 22 48 74 49 68 50 67 51 23 53 55 54
REMARK SMILES IDX 35 55 54 56 36 57 39 58 53 59 72 60 37 61 38 62 52 64 73 65
REMARK SMILES IDX 40 66 24 67 25 68 33 69 26 70 32 71 34 72 31 73 27 74 28 75
REMARK SMILES IDX 29 76 30 77 56 78 57 79 65 80 58 81 64 82 66 83 63 84 59 85
REMARK SMILES IDX 60 86 61 87 62 88 41 89 42 90 50 91 43 92 49 93 51 94 48 95
REMARK SMILES IDX 44 96 45 97 46 98 47 99
REMARK H PARENT 71 52 39 63
REMARK Flexibility Score: inf
ROOT
ATOM      1  C   UNL A   1      33.865  22.469  24.178  1.00  0.00     0.188 C 
ENDROOT
BRANCH   1   2
ATOM      2  C   UNL A   1      32.705  23.445  24.281  1.00  0.00     0.188 C 
BRANCH   2   3
ATOM      3  O   UNL A   1      31.667  23.042  23.399  1.00  0.00    -0.376 OA
BRANCH   3   4
ATOM      4  C   UNL A   1      30.657  24.039  23.371  1.00  0.00     0.202 C 
BRANCH   4   5
ATOM      5  C   UNL A   1      31.248  25.373  23.795  1.00  0.00     0.261 C 
BRANCH   5   6
ATOM      6  O   UNL A   1      30.228  26.361  23.803  1.00  0.00    -0.460 OA
BRANCH   6   7
ATOM      7  C   UNL A   1      30.233  27.396  22.830  1.00  0.00     0.338 C 
ATOM      8  O   UNL A   1      30.675  27.166  21.661  1.00  0.00    -0.246 OA
BRANCH   7   9
ATOM      9  C   UNL A   1      29.711  28.777  23.187  1.00  0.00     0.087 C 
ATOM     10  C   UNL A   1      30.443  29.595  23.989  1.00  0.00     0.027 C 
ATOM     11  C   UNL A   1      28.369  29.245  22.647  1.00  0.00     0.316 C 
ATOM     12  C   UNL A   1      31.785  29.128  24.529  1.00  0.00     0.019 A 
ATOM     13  O   UNL A   1      32.110  28.145  22.390  1.00  0.00    -0.475 OA
ATOM     14  C   UNL A   1      32.180  29.378  25.833  1.00  0.00     0.036 A 
ATOM     15  C   UNL A   1      32.599  28.532  23.666  1.00  0.00     0.128 A 
ATOM     16  C   UNL A   1      33.569  29.221  26.052  1.00  0.00     0.107 A 
ATOM     17  C   UNL A   1      33.909  28.285  23.995  1.00  0.00     0.048 A 
ATOM     18  C   UNL A   1      34.384  28.562  25.247  1.00  0.00     0.028 A 
BRANCH  11  19
ATOM     19  C   UNL A   1      28.568  30.498  21.810  1.00  0.00     0.430 C 
ATOM     20  F   UNL A   1      27.678  30.517  20.823  1.00  0.00    -0.167 F 
ATOM     21  F   UNL A   1      28.405  31.573  22.575  1.00  0.00    -0.167 F 
ATOM     22  F   UNL A   1      29.796  30.498  21.300  1.00  0.00    -0.167 F 
ENDBRANCH  11  19
BRANCH  16  23
ATOM     23  S   UNL A   1      34.279  29.974  27.536  1.00  0.00     0.310 S 
ATOM     24  F   UNL A   1      35.761  29.783  27.008  1.00  0.00    -0.094 F 
ATOM     25  F   UNL A   1      34.393  28.537  28.173  1.00  0.00    -0.094 F 
ATOM     26  F   UNL A   1      34.883  30.619  28.816  1.00  0.00    -0.094 F 
ATOM     27  F   UNL A   1      34.286  31.388  26.830  1.00  0.00    -0.094 F 
ATOM     28  F   UNL A   1      33.769  29.321  26.191  1.00  0.00    -0.094 F 
ENDBRANCH  16  23
ENDBRANCH   7   9
ENDBRANCH   6   7
ENDBRANCH   5   6
ENDBRANCH   4   5
ENDBRANCH   3   4
ENDBRANCH   2   3
ENDBRANCH   1   2
BRANCH   1  29
ATOM     29  O   UNL A   1      33.563  21.295  24.916  1.00  0.00    -0.376 OA
BRANCH  29  30
ATOM     30  C   UNL A   1      34.679  20.418  24.890  1.00  0.00     0.202 C 
BRANCH  30  31
ATOM     31  C   UNL A   1      35.955  21.227  24.731  1.00  0.00     0.261 C 
BRANCH  31  32
ATOM     32  O   UNL A   1      36.726  21.135  25.920  1.00  0.00    -0.460 OA
BRANCH  32  33
ATOM     33  C   UNL A   1      38.144  21.169  25.851  1.00  0.00     0.338 C 
ATOM     34  O   UNL A   1      38.781  20.180  25.370  1.00  0.00    -0.246 OA
BRANCH  33  35
ATOM     35  C   UNL A   1      38.900  22.388  26.352  1.00  0.00     0.060 A 
ATOM     36  C   UNL A   1      40.066  22.319  27.097  1.00  0.00     0.016 A 
ATOM     37  C   UNL A   1      38.412  23.553  25.944  1.00  0.00     0.016 A 
ATOM     38  C   UNL A   1      40.491  23.566  27.613  1.00  0.00     0.010 A 
ATOM     39  C   UNL A   1      38.963  24.734  26.380  1.00  0.00     0.010 A 
ATOM     40  C   UNL A   1      40.080  24.739  27.169  1.00  0.00    -0.014 A 
BRANCH  40  41
ATOM     41  C   UNL A   1      40.809  26.027  27.515  1.00  0.00     0.031 A 
ATOM     42  C   UNL A   1      42.148  26.065  27.123  1.00  0.00     0.074 A 
ATOM     43  C   UNL A   1      40.197  27.010  28.276  1.00  0.00     0.049 A 
ATOM     44  N   UNL A   1      43.040  27.026  27.366  1.00  0.00    -0.248 NA
ATOM     45  C   UNL A   1      42.810  25.006  26.345  1.00  0.00     0.031 C 
ATOM     46  C   UNL A   1      38.845  26.984  28.668  1.00  0.00     0.029 A 
ATOM     47  N   UNL A   1      40.761  28.160  28.781  1.00  0.00    -0.354 N 
ATOM     48  C   UNL A   1      44.215  26.715  26.813  1.00  0.00     0.074 A 
ATOM     49  C   UNL A   1      44.085  25.409  26.155  1.00  0.00     0.031 C 
ATOM     50  C   UNL A   1      38.600  28.096  29.408  1.00  0.00     0.029 A 
ATOM     51  C   UNL A   1      39.794  28.837  29.491  1.00  0.00     0.049 A 
ATOM     52  H   UNL A   1      41.694  28.450  28.656  1.00  0.00     0.167 HD
ATOM     53  C   UNL A   1      45.389  27.472  26.832  1.00  0.00     0.034 A 
ATOM     54  C   UNL A   1      39.926  30.031  30.180  1.00  0.00     0.034 A 
ATOM     55  C   UNL A   1      45.509  28.687  27.484  1.00  0.00     0.049 A 
ATOM     56  C   UNL A   1      41.116  30.760  30.248  1.00  0.00     0.074 A 
ATOM     57  C   UNL A   1      46.683  29.465  27.506  1.00  0.00     0.029 A 
ATOM     58  N   UNL A   1      44.549  29.351  28.215  1.00  0.00    -0.354 N 
ATOM     59  N   UNL A   1      42.279  30.468  29.662  1.00  0.00    -0.248 NA
ATOM     60  C   UNL A   1      41.278  32.010  31.002  1.00  0.00     0.031 C 
ATOM     61  C   UNL A   1      46.437  30.579  28.248  1.00  0.00     0.029 A 
ATOM     62  C   UNL A   1      45.105  30.514  28.702  1.00  0.00     0.049 A 
ATOM     63  H   UNL A   1      43.624  29.047  28.365  1.00  0.00     0.167 HD
ATOM     64  C   UNL A   1      43.183  31.409  29.940  1.00  0.00     0.074 A 
ATOM     65  C   UNL A   1      42.554  32.411  30.812  1.00  0.00     0.031 C 
ATOM     66  C   UNL A   1      44.506  31.476  29.499  1.00  0.00     0.034 A 
BRANCH  53  67
ATOM     67  C   UNL A   1      46.602  26.930  26.095  1.00  0.00     0.023 A 
ATOM     68  C   UNL A   1      47.571  26.219  26.786  1.00  0.00     0.031 A 
ATOM     69  C   UNL A   1      46.765  27.250  24.817  1.00  0.00     0.131 A 
ATOM     70  C   UNL A   1      48.814  26.142  26.114  1.00  0.00     0.055 A 
ATOM     71  C   UNL A   1      47.964  27.022  24.185  1.00  0.00     0.041 A 
ATOM     72  F   UNL A   1      45.759  27.798  24.142  1.00  0.00    -0.206 F 
ATOM     73  C   UNL A   1      48.985  26.378  24.826  1.00  0.00     0.022 A 
BRANCH  70  74
ATOM     74  S   UNL A   1      50.270  25.688  27.088  1.00  0.00     0.124 S 
ATOM     75  O   UNL A   1      50.399  26.632  28.285  1.00  0.00    -0.237 OA
ATOM     76  O   UNL A   1      50.122  24.248  27.588  1.00  0.00    -0.237 OA
ATOM     77  O   UNL A   1      51.669  25.811  26.113  1.00  0.00    -0.744 OA
ENDBRANCH  70  74
ENDBRANCH  53  67
BRANCH  54  78
ATOM     78  C   UNL A   1      38.708  30.581  30.903  1.00  0.00     0.023 A 
ATOM     79  C   UNL A   1      37.824  31.435  30.265  1.00  0.00     0.031 A 
ATOM     80  C   UNL A   1      38.463  30.125  32.127  1.00  0.00     0.131 A 
ATOM     81  C   UNL A   1      36.839  31.985  31.119  1.00  0.00     0.055 A 
ATOM     82  C   UNL A   1      37.401  30.609  32.853  1.00  0.00     0.041 A 
ATOM     83  F   UNL A   1      39.252  29.192  32.652  1.00  0.00    -0.206 F 
ATOM     84  C   UNL A   1      36.522  31.499  32.305  1.00  0.00     0.022 A 
BRANCH  81  85
ATOM     85  S   UNL A   1      35.953  33.455  30.546  1.00  0.00     0.124 S 
ATOM     86  O   UNL A   1      35.801  34.443  31.705  1.00  0.00    -0.237 OA
ATOM     87  O   UNL A   1      36.740  34.115  29.411  1.00  0.00    -0.237 OA
ATOM     88  O   UNL A   1      34.405  33.001  29.976  1.00  0.00    -0.744 OA
ENDBRANCH  81  85
ENDBRANCH  54  78
BRANCH  66  89
ATOM     89  C   UNL A   1      45.339  32.676  29.919  1.00  0.00     0.023 A 
ATOM     90  C   UNL A   1      45.426  33.835  29.164  1.00  0.00     0.031 A 
ATOM     91  C   UNL A   1      45.938  32.575  31.099  1.00  0.00     0.131 A 
ATOM     92  C   UNL A   1      46.417  34.738  29.615  1.00  0.00     0.055 A 
ATOM     93  C   UNL A   1      46.791  33.561  31.537  1.00  0.00     0.041 A 
ATOM     94  F   UNL A   1      45.714  31.511  31.865  1.00  0.00    -0.206 F 
ATOM     95  C   UNL A   1      46.970  34.708  30.814  1.00  0.00     0.022 A 
BRANCH  92  96
ATOM     96  S   UNL A   1      46.965  36.026  28.467  1.00  0.00     0.124 S 
ATOM     97  O   UNL A   1      48.324  36.569  28.920  1.00  0.00    -0.237 OA
ATOM     98  O   UNL A   1      47.096  35.434  27.061  1.00  0.00    -0.237 OA
ATOM     99  O   UNL A   1      45.821  37.297  28.446  1.00  0.00    -0.744 OA
ENDBRANCH  92  96
ENDBRANCH  66  89
ENDBRANCH  40  41
ENDBRANCH  33  35
ENDBRANCH  32  33
ENDBRANCH  31  32
ENDBRANCH  30  31
ENDBRANCH  29  30
ENDBRANCH   1  29
TORSDOF 22
ENDMDL
