MODEL 1
REMARK VINA RESULT:     -11.2      0.000      0.000
REMARK SMILES O=C(OCCOCCOCCOC(=O)c1ccccc1C[N@H+]1CCCC[C@@H]1CCn1cccn1)c1ccc(-c2c3nc(c(-c4cc(S(=O)(=O)[O-])ccc4F)c4ccc([nH]4)c(-c4cc(S(=O)(=O)[O-])ccc4F)c4nc(c(-c5cc(S(=O)(=O)[O-])ccc5F)c5ccc2[nH]5)C=C4)C=C3)cc1
REMARK SMILES IDX 8 1 7 2 6 3 5 4 4 5 3 6 2 7 1 8 35 9 36 10 97 11 37 12 96 13
REMARK SMILES IDX 38 14 39 15 40 16 90 17 41 18 95 19 89 20 91 21 42 22 94 23
REMARK SMILES IDX 88 24 87 25 43 27 75 28 55 29 74 30 56 31 59 32 73 33 92 34
REMARK SMILES IDX 57 35 58 36 72 38 93 39 60 40 44 41 45 42 53 43 46 44 52 45
REMARK SMILES IDX 54 46 51 47 47 48 48 49 49 50 50 51 76 52 77 53 85 54 78 55
REMARK SMILES IDX 84 56 86 57 83 58 79 59 80 60 81 61 82 62 61 63 62 64 70 65
REMARK SMILES IDX 63 66 69 67 71 68 68 69 64 70 65 71 66 72 67 73 9 74 10 75
REMARK SMILES IDX 11 76 12 77 13 78 14 79 15 80 16 81 20 82 17 83 19 84 18 85
REMARK SMILES IDX 21 86 22 87 23 88 27 89 24 91 26 92 25 93 28 94 29 95 30 96
REMARK SMILES IDX 31 97 34 98 32 99 33 100
REMARK H PARENT 91 26 59 37 22 90
REMARK Flexibility Score: inf
ROOT
ATOM      1  C   UNL A   1      33.892  31.619  28.103  1.00  0.00     0.188 C 
ENDROOT
BRANCH   1   2
ATOM      2  C   UNL A   1      34.206  33.136  28.134  1.00  0.00     0.188 C 
BRANCH   2   3
ATOM      3  O   UNL A   1      35.472  33.442  28.683  1.00  0.00    -0.376 OA
BRANCH   3   4
ATOM      4  C   UNL A   1      35.583  33.544  30.087  1.00  0.00     0.202 C 
BRANCH   4   5
ATOM      5  C   UNL A   1      36.215  32.360  30.828  1.00  0.00     0.261 C 
BRANCH   5   6
ATOM      6  O   UNL A   1      36.445  31.170  30.056  1.00  0.00    -0.460 OA
BRANCH   6   7
ATOM      7  C   UNL A   1      36.736  29.897  30.380  1.00  0.00     0.338 C 
ATOM      8  O   UNL A   1      36.087  29.370  31.284  1.00  0.00    -0.246 OA
BRANCH   7   9
ATOM      9  C   UNL A   1      37.871  29.121  29.811  1.00  0.00     0.060 A 
ATOM     10  C   UNL A   1      38.443  27.978  30.365  1.00  0.00     0.016 A 
ATOM     11  C   UNL A   1      38.431  29.661  28.634  1.00  0.00     0.016 A 
ATOM     12  C   UNL A   1      39.657  27.514  29.882  1.00  0.00     0.010 A 
ATOM     13  C   UNL A   1      39.635  29.196  28.140  1.00  0.00     0.010 A 
ATOM     14  C   UNL A   1      40.288  28.191  28.835  1.00  0.00    -0.014 A 
BRANCH  14  15
ATOM     15  C   UNL A   1      41.659  27.823  28.516  1.00  0.00     0.031 A 
ATOM     16  C   UNL A   1      41.807  26.511  27.840  1.00  0.00     0.074 A 
ATOM     17  C   UNL A   1      42.697  28.636  28.803  1.00  0.00     0.049 A 
ATOM     18  N   UNL A   1      42.374  25.444  28.296  1.00  0.00    -0.248 NA
ATOM     19  C   UNL A   1      41.107  26.313  26.562  1.00  0.00     0.031 C 
ATOM     20  C   UNL A   1      42.669  30.024  29.275  1.00  0.00     0.029 A 
ATOM     21  N   UNL A   1      44.029  28.400  28.656  1.00  0.00    -0.354 N 
ATOM     22  C   UNL A   1      42.295  24.499  27.279  1.00  0.00     0.074 A 
ATOM     23  C   UNL A   1      41.368  25.029  26.314  1.00  0.00     0.031 C 
ATOM     24  C   UNL A   1      43.902  30.570  29.147  1.00  0.00     0.029 A 
ATOM     25  C   UNL A   1      44.833  29.534  28.731  1.00  0.00     0.049 A 
ATOM     26  H   UNL A   1      44.396  27.499  28.509  1.00  0.00     0.167 HD
ATOM     27  C   UNL A   1      43.158  23.448  27.218  1.00  0.00     0.034 A 
ATOM     28  C   UNL A   1      46.157  29.625  28.425  1.00  0.00     0.034 A 
ATOM     29  C   UNL A   1      43.762  23.193  28.505  1.00  0.00     0.049 A 
ATOM     30  C   UNL A   1      46.708  28.249  28.534  1.00  0.00     0.074 A 
ATOM     31  C   UNL A   1      43.258  22.844  29.744  1.00  0.00     0.029 A 
ATOM     32  N   UNL A   1      45.023  23.687  28.749  1.00  0.00    -0.354 N 
ATOM     33  N   UNL A   1      46.771  27.599  29.666  1.00  0.00    -0.248 NA
ATOM     34  C   UNL A   1      46.697  27.413  27.343  1.00  0.00     0.031 C 
ATOM     35  C   UNL A   1      44.004  23.626  30.674  1.00  0.00     0.029 A 
ATOM     36  C   UNL A   1      44.979  24.332  29.965  1.00  0.00     0.049 A 
ATOM     37  H   UNL A   1      45.810  23.596  28.165  1.00  0.00     0.167 HD
ATOM     38  C   UNL A   1      46.368  26.308  29.363  1.00  0.00     0.074 A 
ATOM     39  C   UNL A   1      46.417  26.231  27.902  1.00  0.00     0.031 C 
ATOM     40  C   UNL A   1      45.763  25.510  30.294  1.00  0.00     0.034 A 
BRANCH  27  41
ATOM     41  C   UNL A   1      43.685  22.855  25.932  1.00  0.00     0.023 A 
ATOM     42  C   UNL A   1      43.664  21.454  25.784  1.00  0.00     0.031 A 
ATOM     43  C   UNL A   1      44.449  23.563  24.974  1.00  0.00     0.131 A 
ATOM     44  C   UNL A   1      44.423  20.824  24.780  1.00  0.00     0.055 A 
ATOM     45  C   UNL A   1      45.150  22.936  23.941  1.00  0.00     0.041 A 
ATOM     46  F   UNL A   1      44.642  24.886  25.038  1.00  0.00    -0.206 F 
ATOM     47  C   UNL A   1      45.163  21.557  23.854  1.00  0.00     0.022 A 
BRANCH  44  48
ATOM     48  S   UNL A   1      44.567  19.017  24.803  1.00  0.00     0.124 S 
ATOM     49  O   UNL A   1      44.862  18.724  23.404  1.00  0.00    -0.237 OA
ATOM     50  O   UNL A   1      45.659  18.815  25.749  1.00  0.00    -0.237 OA
ATOM     51  O   UNL A   1      43.252  18.578  25.266  1.00  0.00    -0.744 OA
ENDBRANCH  44  48
ENDBRANCH  27  41
BRANCH  28  52
ATOM     52  C   UNL A   1      46.815  30.725  27.660  1.00  0.00     0.023 A 
ATOM     53  C   UNL A   1      46.103  31.754  27.002  1.00  0.00     0.031 A 
ATOM     54  C   UNL A   1      48.213  30.903  27.775  1.00  0.00     0.131 A 
ATOM     55  C   UNL A   1      46.792  32.886  26.493  1.00  0.00     0.055 A 
ATOM     56  C   UNL A   1      48.885  32.020  27.273  1.00  0.00     0.041 A 
ATOM     57  F   UNL A   1      48.971  30.032  28.461  1.00  0.00    -0.206 F 
ATOM     58  C   UNL A   1      48.174  33.022  26.636  1.00  0.00     0.022 A 
BRANCH  55  59
ATOM     59  S   UNL A   1      45.882  34.254  25.695  1.00  0.00     0.124 S 
ATOM     60  O   UNL A   1      45.379  35.004  26.840  1.00  0.00    -0.237 OA
ATOM     61  O   UNL A   1      46.920  34.900  24.901  1.00  0.00    -0.237 OA
ATOM     62  O   UNL A   1      44.852  33.570  24.911  1.00  0.00    -0.744 OA
ENDBRANCH  55  59
ENDBRANCH  28  52
BRANCH  40  63
ATOM     63  C   UNL A   1      45.733  25.982  31.740  1.00  0.00     0.023 A 
ATOM     64  C   UNL A   1      44.613  26.567  32.381  1.00  0.00     0.031 A 
ATOM     65  C   UNL A   1      46.861  25.709  32.532  1.00  0.00     0.131 A 
ATOM     66  C   UNL A   1      44.662  26.864  33.761  1.00  0.00     0.055 A 
ATOM     67  C   UNL A   1      46.898  25.985  33.900  1.00  0.00     0.041 A 
ATOM     68  F   UNL A   1      47.947  25.130  31.993  1.00  0.00    -0.206 F 
ATOM     69  C   UNL A   1      45.800  26.570  34.518  1.00  0.00     0.022 A 
BRANCH  66  70
ATOM     70  S   UNL A   1      43.250  27.657  34.601  1.00  0.00     0.124 S 
ATOM     71  O   UNL A   1      43.112  28.932  33.908  1.00  0.00    -0.237 OA
ATOM     72  O   UNL A   1      42.174  26.691  34.389  1.00  0.00    -0.237 OA
ATOM     73  O   UNL A   1      43.700  27.766  35.991  1.00  0.00    -0.744 OA
ENDBRANCH  66  70
ENDBRANCH  40  63
ENDBRANCH  14  15
ENDBRANCH   7   9
ENDBRANCH   6   7
ENDBRANCH   5   6
ENDBRANCH   4   5
ENDBRANCH   3   4
ENDBRANCH   2   3
ENDBRANCH   1   2
BRANCH   1  74
ATOM     74  O   UNL A   1      34.476  30.731  27.151  1.00  0.00    -0.376 OA
BRANCH  74  75
ATOM     75  C   UNL A   1      34.106  29.365  27.121  1.00  0.00     0.202 C 
BRANCH  75  76
ATOM     76  C   UNL A   1      32.608  29.069  27.001  1.00  0.00     0.261 C 
BRANCH  76  77
ATOM     77  O   UNL A   1      31.919  29.836  26.008  1.00  0.00    -0.460 OA
BRANCH  77  78
ATOM     78  C   UNL A   1      32.092  29.482  24.707  1.00  0.00     0.338 C 
ATOM     79  O   UNL A   1      33.133  29.324  24.110  1.00  0.00    -0.246 OA
BRANCH  78  80
ATOM     80  C   UNL A   1      30.744  29.214  24.138  1.00  0.00     0.068 A 
ATOM     81  C   UNL A   1      29.944  30.320  23.807  1.00  0.00     0.016 A 
ATOM     82  C   UNL A   1      30.299  27.904  23.887  1.00  0.00     0.021 A 
ATOM     83  C   UNL A   1      28.730  30.137  23.148  1.00  0.00     0.001 A 
ATOM     84  C   UNL A   1      29.092  27.750  23.186  1.00  0.00     0.010 A 
ATOM     85  C   UNL A   1      28.314  28.851  22.822  1.00  0.00     0.001 A 
BRANCH  82  86
ATOM     86  C   UNL A   1      31.024  26.683  24.420  1.00  0.00     0.300 C 
BRANCH  86  87
ATOM     87  N   UNL A   1      31.430  25.676  23.405  1.00  0.00    -0.329 N 
ATOM     88  C   UNL A   1      32.384  26.269  22.446  1.00  0.00     0.262 C 
ATOM     89  C   UNL A   1      31.914  24.383  23.955  1.00  0.00     0.186 C 
ATOM     90  H   UNL A   1      30.575  25.421  22.912  1.00  0.00     0.348 HD
ATOM     91  C   UNL A   1      32.720  25.352  21.280  1.00  0.00     0.062 C 
ATOM     92  C   UNL A   1      32.220  23.425  22.778  1.00  0.00     0.065 C 
ATOM     93  C   UNL A   1      33.217  24.013  21.788  1.00  0.00     0.012 C 
BRANCH  89  94
ATOM     94  C   UNL A   1      30.865  23.726  24.892  1.00  0.00     0.088 C 
BRANCH  94  95
ATOM     95  C   UNL A   1      31.420  22.885  26.049  1.00  0.00     0.150 C 
BRANCH  95  96
ATOM     96  N   UNL A   1      32.283  21.782  25.673  1.00  0.00    -0.273 N 
ATOM     97  C   UNL A   1      33.649  21.798  25.620  1.00  0.00     0.108 A 
ATOM     98  N   UNL A   1      31.758  20.622  25.242  1.00  0.00    -0.182 NA
ATOM     99  C   UNL A   1      34.030  20.549  25.187  1.00  0.00     0.042 A 
ATOM    100  C   UNL A   1      32.822  19.862  24.979  1.00  0.00     0.135 A 
ENDBRANCH  95  96
ENDBRANCH  94  95
ENDBRANCH  89  94
ENDBRANCH  86  87
ENDBRANCH  82  86
ENDBRANCH  78  80
ENDBRANCH  77  78
ENDBRANCH  76  77
ENDBRANCH  75  76
ENDBRANCH  74  75
ENDBRANCH   1  74
TORSDOF 25
ENDMDL
MODEL 2
REMARK VINA RESULT:     -10.5      3.567      8.711
REMARK SMILES O=C(OCCOCCOCCOC(=O)c1ccccc1C[N@H+]1CCCC[C@@H]1CCn1cccn1)c1ccc(-c2c3nc(c(-c4cc(S(=O)(=O)[O-])ccc4F)c4ccc([nH]4)c(-c4cc(S(=O)(=O)[O-])ccc4F)c4nc(c(-c5cc(S(=O)(=O)[O-])ccc5F)c5ccc2[nH]5)C=C4)C=C3)cc1
REMARK SMILES IDX 8 1 7 2 6 3 5 4 4 5 3 6 2 7 1 8 35 9 36 10 97 11 37 12 96 13
REMARK SMILES IDX 38 14 39 15 40 16 90 17 41 18 95 19 89 20 91 21 42 22 94 23
REMARK SMILES IDX 88 24 87 25 43 27 75 28 55 29 74 30 56 31 59 32 73 33 92 34
REMARK SMILES IDX 57 35 58 36 72 38 93 39 60 40 44 41 45 42 53 43 46 44 52 45
REMARK SMILES IDX 54 46 51 47 47 48 48 49 49 50 50 51 76 52 77 53 85 54 78 55
REMARK SMILES IDX 84 56 86 57 83 58 79 59 80 60 81 61 82 62 61 63 62 64 70 65
REMARK SMILES IDX 63 66 69 67 71 68 68 69 64 70 65 71 66 72 67 73 9 74 10 75
REMARK SMILES IDX 11 76 12 77 13 78 14 79 15 80 16 81 20 82 17 83 19 84 18 85
REMARK SMILES IDX 21 86 22 87 23 88 27 89 24 91 26 92 25 93 28 94 29 95 30 96
REMARK SMILES IDX 31 97 34 98 32 99 33 100
REMARK H PARENT 91 26 59 37 22 90
REMARK Flexibility Score: inf
ROOT
ATOM      1  C   UNL A   1      35.092  22.707  23.413  1.00  0.00     0.188 C 
ENDROOT
BRANCH   1   2
ATOM      2  C   UNL A   1      36.624  22.756  23.639  1.00  0.00     0.188 C 
BRANCH   2   3
ATOM      3  O   UNL A   1      37.195  21.496  23.930  1.00  0.00    -0.376 OA
BRANCH   3   4
ATOM      4  C   UNL A   1      37.770  21.303  25.205  1.00  0.00     0.202 C 
BRANCH   4   5
ATOM      5  C   UNL A   1      38.197  22.557  25.979  1.00  0.00     0.261 C 
BRANCH   5   6
ATOM      6  O   UNL A   1      39.437  22.473  26.700  1.00  0.00    -0.460 OA
BRANCH   6   7
ATOM      7  C   UNL A   1      40.451  23.334  26.903  1.00  0.00     0.338 C 
ATOM      8  O   UNL A   1      41.542  23.068  26.400  1.00  0.00    -0.246 OA
BRANCH   7   9
ATOM      9  C   UNL A   1      40.381  24.521  27.797  1.00  0.00     0.060 A 
ATOM     10  C   UNL A   1      39.254  25.306  28.034  1.00  0.00     0.016 A 
ATOM     11  C   UNL A   1      41.605  24.891  28.395  1.00  0.00     0.016 A 
ATOM     12  C   UNL A   1      39.390  26.530  28.670  1.00  0.00     0.010 A 
ATOM     13  C   UNL A   1      41.744  26.105  29.041  1.00  0.00     0.010 A 
ATOM     14  C   UNL A   1      40.654  26.960  29.079  1.00  0.00    -0.014 A 
BRANCH  14  15
ATOM     15  C   UNL A   1      40.794  28.337  29.523  1.00  0.00     0.031 A 
ATOM     16  C   UNL A   1      41.851  29.109  28.824  1.00  0.00     0.074 A 
ATOM     17  C   UNL A   1      40.001  28.858  30.483  1.00  0.00     0.049 A 
ATOM     18  N   UNL A   1      42.946  29.581  29.320  1.00  0.00    -0.248 NA
ATOM     19  C   UNL A   1      41.752  29.242  27.363  1.00  0.00     0.031 C 
ATOM     20  C   UNL A   1      38.805  28.274  31.098  1.00  0.00     0.029 A 
ATOM     21  N   UNL A   1      40.066  30.085  31.069  1.00  0.00    -0.354 N 
ATOM     22  C   UNL A   1      43.579  30.260  28.283  1.00  0.00     0.074 A 
ATOM     23  C   UNL A   1      42.890  29.879  27.078  1.00  0.00     0.031 C 
ATOM     24  C   UNL A   1      38.137  29.232  31.783  1.00  0.00     0.029 A 
ATOM     25  C   UNL A   1      38.929  30.450  31.783  1.00  0.00     0.049 A 
ATOM     26  H   UNL A   1      40.856  30.668  30.993  1.00  0.00     0.167 HD
ATOM     27  C   UNL A   1      44.490  31.240  28.528  1.00  0.00     0.034 A 
ATOM     28  C   UNL A   1      38.639  31.679  32.294  1.00  0.00     0.034 A 
ATOM     29  C   UNL A   1      45.033  31.125  29.862  1.00  0.00     0.049 A 
ATOM     30  C   UNL A   1      39.936  32.388  32.445  1.00  0.00     0.074 A 
ATOM     31  C   UNL A   1      45.754  30.145  30.519  1.00  0.00     0.029 A 
ATOM     32  N   UNL A   1      44.514  31.924  30.855  1.00  0.00    -0.354 N 
ATOM     33  N   UNL A   1      40.864  31.999  33.278  1.00  0.00    -0.248 NA
ATOM     34  C   UNL A   1      40.410  33.189  31.325  1.00  0.00     0.031 C 
ATOM     35  C   UNL A   1      45.194  30.097  31.829  1.00  0.00     0.029 A 
ATOM     36  C   UNL A   1      44.235  31.109  31.929  1.00  0.00     0.049 A 
ATOM     37  H   UNL A   1      44.370  32.897  30.807  1.00  0.00     0.167 HD
ATOM     38  C   UNL A   1      42.053  32.118  32.576  1.00  0.00     0.074 A 
ATOM     39  C   UNL A   1      41.720  32.936  31.408  1.00  0.00     0.031 C 
ATOM     40  C   UNL A   1      43.127  31.316  32.846  1.00  0.00     0.034 A 
BRANCH  27  41
ATOM     41  C   UNL A   1      44.657  32.478  27.678  1.00  0.00     0.023 A 
ATOM     42  C   UNL A   1      44.034  33.668  28.101  1.00  0.00     0.031 A 
ATOM     43  C   UNL A   1      45.156  32.483  26.353  1.00  0.00     0.131 A 
ATOM     44  C   UNL A   1      43.869  34.750  27.216  1.00  0.00     0.055 A 
ATOM     45  C   UNL A   1      45.045  33.583  25.500  1.00  0.00     0.041 A 
ATOM     46  F   UNL A   1      45.687  31.398  25.777  1.00  0.00    -0.206 F 
ATOM     47  C   UNL A   1      44.376  34.716  25.918  1.00  0.00     0.022 A 
BRANCH  44  48
ATOM     48  S   UNL A   1      42.832  36.145  27.729  1.00  0.00     0.124 S 
ATOM     49  O   UNL A   1      42.468  36.735  26.445  1.00  0.00    -0.237 OA
ATOM     50  O   UNL A   1      41.762  35.473  28.457  1.00  0.00    -0.237 OA
ATOM     51  O   UNL A   1      43.733  36.953  28.551  1.00  0.00    -0.744 OA
ENDBRANCH  44  48
ENDBRANCH  27  41
BRANCH  28  52
ATOM     52  C   UNL A   1      37.316  32.369  32.242  1.00  0.00     0.023 A 
ATOM     53  C   UNL A   1      36.685  32.760  31.038  1.00  0.00     0.031 A 
ATOM     54  C   UNL A   1      36.530  32.439  33.415  1.00  0.00     0.131 A 
ATOM     55  C   UNL A   1      35.336  33.199  31.050  1.00  0.00     0.055 A 
ATOM     56  C   UNL A   1      35.202  32.872  33.420  1.00  0.00     0.041 A 
ATOM     57  F   UNL A   1      37.001  32.005  34.595  1.00  0.00    -0.206 F 
ATOM     58  C   UNL A   1      34.596  33.247  32.233  1.00  0.00     0.022 A 
BRANCH  55  59
ATOM     59  S   UNL A   1      34.485  33.649  29.498  1.00  0.00     0.124 S 
ATOM     60  O   UNL A   1      35.510  34.405  28.787  1.00  0.00    -0.237 OA
ATOM     61  O   UNL A   1      34.135  32.348  28.942  1.00  0.00    -0.237 OA
ATOM     62  O   UNL A   1      33.342  34.445  29.952  1.00  0.00    -0.744 OA
ENDBRANCH  55  59
ENDBRANCH  28  52
BRANCH  40  63
ATOM     63  C   UNL A   1      43.076  30.432  34.082  1.00  0.00     0.023 A 
ATOM     64  C   UNL A   1      42.567  29.110  34.117  1.00  0.00     0.031 A 
ATOM     65  C   UNL A   1      43.687  30.918  35.251  1.00  0.00     0.131 A 
ATOM     66  C   UNL A   1      42.672  28.340  35.296  1.00  0.00     0.055 A 
ATOM     67  C   UNL A   1      43.809  30.147  36.408  1.00  0.00     0.041 A 
ATOM     68  F   UNL A   1      44.214  32.154  35.279  1.00  0.00    -0.206 F 
ATOM     69  C   UNL A   1      43.295  28.856  36.436  1.00  0.00     0.022 A 
BRANCH  66  70
ATOM     70  S   UNL A   1      41.987  26.651  35.379  1.00  0.00     0.124 S 
ATOM     71  O   UNL A   1      41.814  26.423  36.809  1.00  0.00    -0.237 OA
ATOM     72  O   UNL A   1      40.759  26.771  34.596  1.00  0.00    -0.237 OA
ATOM     73  O   UNL A   1      43.026  25.831  34.753  1.00  0.00    -0.744 OA
ENDBRANCH  66  70
ENDBRANCH  40  63
ENDBRANCH  14  15
ENDBRANCH   7   9
ENDBRANCH   6   7
ENDBRANCH   5   6
ENDBRANCH   4   5
ENDBRANCH   3   4
ENDBRANCH   2   3
ENDBRANCH   1   2
BRANCH   1  74
ATOM     74  O   UNL A   1      34.455  23.341  22.304  1.00  0.00    -0.376 OA
BRANCH  74  75
ATOM     75  C   UNL A   1      33.712  24.530  22.486  1.00  0.00     0.202 C 
BRANCH  75  76
ATOM     76  C   UNL A   1      34.464  25.717  23.095  1.00  0.00     0.261 C 
BRANCH  76  77
ATOM     77  O   UNL A   1      33.708  26.494  24.030  1.00  0.00    -0.460 OA
BRANCH  77  78
ATOM     78  C   UNL A   1      33.870  26.220  25.352  1.00  0.00     0.338 C 
ATOM     79  O   UNL A   1      34.391  25.249  25.852  1.00  0.00    -0.246 OA
BRANCH  78  80
ATOM     80  C   UNL A   1      33.369  27.396  26.113  1.00  0.00     0.068 A 
ATOM     81  C   UNL A   1      34.269  28.445  26.360  1.00  0.00     0.016 A 
ATOM     82  C   UNL A   1      32.028  27.485  26.529  1.00  0.00     0.021 A 
ATOM     83  C   UNL A   1      33.825  29.628  26.948  1.00  0.00     0.001 A 
ATOM     84  C   UNL A   1      31.600  28.702  27.082  1.00  0.00     0.010 A 
ATOM     85  C   UNL A   1      32.485  29.761  27.293  1.00  0.00     0.001 A 
BRANCH  82  86
ATOM     86  C   UNL A   1      31.082  26.301  26.482  1.00  0.00     0.300 C 
BRANCH  86  87
ATOM     87  N   UNL A   1      31.226  25.403  25.306  1.00  0.00    -0.329 N 
ATOM     88  C   UNL A   1      31.175  23.990  25.729  1.00  0.00     0.262 C 
ATOM     89  C   UNL A   1      30.304  25.687  24.176  1.00  0.00     0.186 C 
ATOM     90  H   UNL A   1      32.148  25.603  24.918  1.00  0.00     0.348 HD
ATOM     91  C   UNL A   1      31.481  23.009  24.607  1.00  0.00     0.062 C 
ATOM     92  C   UNL A   1      30.633  24.723  23.010  1.00  0.00     0.065 C 
ATOM     93  C   UNL A   1      30.566  23.258  23.425  1.00  0.00     0.012 C 
BRANCH  89  94
ATOM     94  C   UNL A   1      30.431  27.153  23.681  1.00  0.00     0.088 C 
BRANCH  94  95
ATOM     95  C   UNL A   1      29.202  28.049  23.884  1.00  0.00     0.150 C 
BRANCH  95  96
ATOM     96  N   UNL A   1      28.962  29.037  22.850  1.00  0.00    -0.273 N 
ATOM     97  C   UNL A   1      27.746  29.510  22.443  1.00  0.00     0.108 A 
ATOM     98  N   UNL A   1      29.982  29.520  22.120  1.00  0.00    -0.182 NA
ATOM     99  C   UNL A   1      28.004  30.402  21.428  1.00  0.00     0.042 A 
ATOM    100  C   UNL A   1      29.401  30.376  21.278  1.00  0.00     0.135 A 
ENDBRANCH  95  96
ENDBRANCH  94  95
ENDBRANCH  89  94
ENDBRANCH  86  87
ENDBRANCH  82  86
ENDBRANCH  78  80
ENDBRANCH  77  78
ENDBRANCH  76  77
ENDBRANCH  75  76
ENDBRANCH  74  75
ENDBRANCH   1  74
TORSDOF 25
ENDMDL
MODEL 3
REMARK VINA RESULT:     -10.1      2.188      7.249
REMARK SMILES O=C(OCCOCCOCCOC(=O)c1ccccc1C[N@H+]1CCCC[C@@H]1CCn1cccn1)c1ccc(-c2c3nc(c(-c4cc(S(=O)(=O)[O-])ccc4F)c4ccc([nH]4)c(-c4cc(S(=O)(=O)[O-])ccc4F)c4nc(c(-c5cc(S(=O)(=O)[O-])ccc5F)c5ccc2[nH]5)C=C4)C=C3)cc1
REMARK SMILES IDX 8 1 7 2 6 3 5 4 4 5 3 6 2 7 1 8 35 9 36 10 97 11 37 12 96 13
REMARK SMILES IDX 38 14 39 15 40 16 90 17 41 18 95 19 89 20 91 21 42 22 94 23
REMARK SMILES IDX 88 24 87 25 43 27 75 28 55 29 74 30 56 31 59 32 73 33 92 34
REMARK SMILES IDX 57 35 58 36 72 38 93 39 60 40 44 41 45 42 53 43 46 44 52 45
REMARK SMILES IDX 54 46 51 47 47 48 48 49 49 50 50 51 76 52 77 53 85 54 78 55
REMARK SMILES IDX 84 56 86 57 83 58 79 59 80 60 81 61 82 62 61 63 62 64 70 65
REMARK SMILES IDX 63 66 69 67 71 68 68 69 64 70 65 71 66 72 67 73 9 74 10 75
REMARK SMILES IDX 11 76 12 77 13 78 14 79 15 80 16 81 20 82 17 83 19 84 18 85
REMARK SMILES IDX 21 86 22 87 23 88 27 89 24 91 26 92 25 93 28 94 29 95 30 96
REMARK SMILES IDX 31 97 34 98 32 99 33 100
REMARK H PARENT 91 26 59 37 22 90
REMARK Flexibility Score: inf
ROOT
ATOM      1  C   UNL A   1      32.112  31.778  26.820  1.00  0.00     0.188 C 
ENDROOT
BRANCH   1   2
ATOM      2  C   UNL A   1      32.430  33.224  27.278  1.00  0.00     0.188 C 
BRANCH   2   3
ATOM      3  O   UNL A   1      33.282  33.288  28.404  1.00  0.00    -0.376 OA
BRANCH   3   4
ATOM      4  C   UNL A   1      34.086  34.437  28.568  1.00  0.00     0.202 C 
BRANCH   4   5
ATOM      5  C   UNL A   1      35.327  34.303  29.459  1.00  0.00     0.261 C 
BRANCH   5   6
ATOM      6  O   UNL A   1      35.795  32.968  29.709  1.00  0.00    -0.460 OA
BRANCH   6   7
ATOM      7  C   UNL A   1      36.620  32.136  29.046  1.00  0.00     0.338 C 
ATOM      8  O   UNL A   1      36.368  31.895  27.866  1.00  0.00    -0.246 OA
BRANCH   7   9
ATOM      9  C   UNL A   1      37.741  31.386  29.673  1.00  0.00     0.060 A 
ATOM     10  C   UNL A   1      39.046  31.846  29.837  1.00  0.00     0.016 A 
ATOM     11  C   UNL A   1      37.430  30.068  30.070  1.00  0.00     0.016 A 
ATOM     12  C   UNL A   1      40.050  30.956  30.187  1.00  0.00     0.010 A 
ATOM     13  C   UNL A   1      38.425  29.178  30.430  1.00  0.00     0.010 A 
ATOM     14  C   UNL A   1      39.741  29.608  30.383  1.00  0.00    -0.014 A 
BRANCH  14  15
ATOM     15  C   UNL A   1      40.844  28.669  30.513  1.00  0.00     0.031 A 
ATOM     16  C   UNL A   1      41.324  28.465  31.902  1.00  0.00     0.074 A 
ATOM     17  C   UNL A   1      41.361  28.029  29.442  1.00  0.00     0.049 A 
ATOM     18  N   UNL A   1      42.471  28.790  32.399  1.00  0.00    -0.248 NA
ATOM     19  C   UNL A   1      40.359  27.978  32.898  1.00  0.00     0.031 C 
ATOM     20  C   UNL A   1      40.852  27.987  28.068  1.00  0.00     0.029 A 
ATOM     21  N   UNL A   1      42.441  27.203  29.384  1.00  0.00    -0.354 N 
ATOM     22  C   UNL A   1      42.457  28.354  33.720  1.00  0.00     0.074 A 
ATOM     23  C   UNL A   1      41.089  28.020  34.014  1.00  0.00     0.031 C 
ATOM     24  C   UNL A   1      41.480  27.001  27.384  1.00  0.00     0.029 A 
ATOM     25  C   UNL A   1      42.533  26.448  28.219  1.00  0.00     0.049 A 
ATOM     26  H   UNL A   1      43.104  27.145  30.109  1.00  0.00     0.167 HD
ATOM     27  C   UNL A   1      43.611  28.112  34.400  1.00  0.00     0.034 A 
ATOM     28  C   UNL A   1      43.381  25.410  27.978  1.00  0.00     0.034 A 
ATOM     29  C   UNL A   1      44.728  28.797  33.793  1.00  0.00     0.049 A 
ATOM     30  C   UNL A   1      44.525  25.576  28.912  1.00  0.00     0.074 A 
ATOM     31  C   UNL A   1      45.021  30.128  33.560  1.00  0.00     0.029 A 
ATOM     32  N   UNL A   1      45.556  28.089  32.952  1.00  0.00    -0.354 N 
ATOM     33  N   UNL A   1      45.356  26.581  28.842  1.00  0.00    -0.248 NA
ATOM     34  C   UNL A   1      44.438  24.937  30.217  1.00  0.00     0.031 C 
ATOM     35  C   UNL A   1      45.591  30.153  32.254  1.00  0.00     0.029 A 
ATOM     36  C   UNL A   1      45.704  28.836  31.804  1.00  0.00     0.049 A 
ATOM     37  H   UNL A   1      45.965  27.213  33.136  1.00  0.00     0.167 HD
ATOM     38  C   UNL A   1      45.556  26.976  30.156  1.00  0.00     0.074 A 
ATOM     39  C   UNL A   1      45.031  25.873  30.964  1.00  0.00     0.031 C 
ATOM     40  C   UNL A   1      45.863  28.269  30.476  1.00  0.00     0.034 A 
BRANCH  27  41
ATOM     41  C   UNL A   1      43.779  27.012  35.423  1.00  0.00     0.023 A 
ATOM     42  C   UNL A   1      44.076  27.375  36.751  1.00  0.00     0.031 A 
ATOM     43  C   UNL A   1      43.935  25.641  35.110  1.00  0.00     0.131 A 
ATOM     44  C   UNL A   1      44.564  26.423  37.666  1.00  0.00     0.055 A 
ATOM     45  C   UNL A   1      44.359  24.689  36.040  1.00  0.00     0.041 A 
ATOM     46  F   UNL A   1      43.783  25.160  33.870  1.00  0.00    -0.206 F 
ATOM     47  C   UNL A   1      44.702  25.080  37.320  1.00  0.00     0.022 A 
BRANCH  44  48
ATOM     48  S   UNL A   1      45.176  26.995  39.274  1.00  0.00     0.124 S 
ATOM     49  O   UNL A   1      44.216  26.390  40.191  1.00  0.00    -0.237 OA
ATOM     50  O   UNL A   1      46.526  26.442  39.294  1.00  0.00    -0.237 OA
ATOM     51  O   UNL A   1      45.101  28.451  39.166  1.00  0.00    -0.744 OA
ENDBRANCH  44  48
ENDBRANCH  27  41
BRANCH  28  52
ATOM     52  C   UNL A   1      43.033  24.119  27.311  1.00  0.00     0.023 A 
ATOM     53  C   UNL A   1      43.865  23.480  26.363  1.00  0.00     0.031 A 
ATOM     54  C   UNL A   1      41.943  23.364  27.800  1.00  0.00     0.131 A 
ATOM     55  C   UNL A   1      43.583  22.154  25.945  1.00  0.00     0.055 A 
ATOM     56  C   UNL A   1      41.671  22.058  27.385  1.00  0.00     0.041 A 
ATOM     57  F   UNL A   1      41.146  23.841  28.770  1.00  0.00    -0.206 F 
ATOM     58  C   UNL A   1      42.497  21.444  26.460  1.00  0.00     0.022 A 
BRANCH  55  59
ATOM     59  S   UNL A   1      44.680  21.289  24.768  1.00  0.00     0.124 S 
ATOM     60  O   UNL A   1      45.968  21.334  25.451  1.00  0.00    -0.237 OA
ATOM     61  O   UNL A   1      44.051  19.980  24.655  1.00  0.00    -0.237 OA
ATOM     62  O   UNL A   1      44.600  22.111  23.559  1.00  0.00    -0.744 OA
ENDBRANCH  55  59
ENDBRANCH  28  52
BRANCH  40  63
ATOM     63  C   UNL A   1      46.202  29.231  29.347  1.00  0.00     0.023 A 
ATOM     64  C   UNL A   1      45.255  29.978  28.604  1.00  0.00     0.031 A 
ATOM     65  C   UNL A   1      47.562  29.488  29.103  1.00  0.00     0.131 A 
ATOM     66  C   UNL A   1      45.690  30.927  27.653  1.00  0.00     0.055 A 
ATOM     67  C   UNL A   1      47.988  30.442  28.178  1.00  0.00     0.041 A 
ATOM     68  F   UNL A   1      48.512  28.834  29.792  1.00  0.00    -0.206 F 
ATOM     69  C   UNL A   1      47.052  31.161  27.444  1.00  0.00     0.022 A 
BRANCH  66  70
ATOM     70  S   UNL A   1      44.491  31.871  26.652  1.00  0.00     0.124 S 
ATOM     71  O   UNL A   1      44.068  32.942  27.546  1.00  0.00    -0.237 OA
ATOM     72  O   UNL A   1      45.294  32.277  25.500  1.00  0.00    -0.237 OA
ATOM     73  O   UNL A   1      43.452  30.885  26.348  1.00  0.00    -0.744 OA
ENDBRANCH  66  70
ENDBRANCH  40  63
ENDBRANCH  14  15
ENDBRANCH   7   9
ENDBRANCH   6   7
ENDBRANCH   5   6
ENDBRANCH   4   5
ENDBRANCH   3   4
ENDBRANCH   2   3
ENDBRANCH   1   2
BRANCH   1  74
ATOM     74  O   UNL A   1      33.130  30.821  26.528  1.00  0.00    -0.376 OA
BRANCH  74  75
ATOM     75  C   UNL A   1      33.442  29.799  27.455  1.00  0.00     0.202 C 
BRANCH  75  76
ATOM     76  C   UNL A   1      32.726  28.460  27.260  1.00  0.00     0.261 C 
BRANCH  76  77
ATOM     77  O   UNL A   1      31.603  28.501  26.372  1.00  0.00    -0.460 OA
BRANCH  77  78
ATOM     78  C   UNL A   1      31.831  28.239  25.057  1.00  0.00     0.338 C 
ATOM     79  O   UNL A   1      32.793  27.696  24.562  1.00  0.00    -0.246 OA
BRANCH  78  80
ATOM     80  C   UNL A   1      30.619  28.658  24.305  1.00  0.00     0.068 A 
ATOM     81  C   UNL A   1      30.371  30.035  24.181  1.00  0.00     0.016 A 
ATOM     82  C   UNL A   1      29.773  27.717  23.691  1.00  0.00     0.021 A 
ATOM     83  C   UNL A   1      29.329  30.491  23.376  1.00  0.00     0.001 A 
ATOM     84  C   UNL A   1      28.756  28.205  22.855  1.00  0.00     0.010 A 
ATOM     85  C   UNL A   1      28.533  29.575  22.699  1.00  0.00     0.001 A 
BRANCH  82  86
ATOM     86  C   UNL A   1      29.870  26.231  23.974  1.00  0.00     0.300 C 
BRANCH  86  87
ATOM     87  N   UNL A   1      30.737  25.451  23.052  1.00  0.00    -0.329 N 
ATOM     88  C   UNL A   1      31.381  26.347  22.070  1.00  0.00     0.262 C 
ATOM     89  C   UNL A   1      31.712  24.546  23.713  1.00  0.00     0.186 C 
ATOM     90  H   UNL A   1      30.112  24.811  22.561  1.00  0.00     0.348 HD
ATOM     91  C   UNL A   1      32.153  25.607  20.988  1.00  0.00     0.062 C 
ATOM     92  C   UNL A   1      32.476  23.755  22.623  1.00  0.00     0.065 C 
ATOM     93  C   UNL A   1      33.163  24.665  21.612  1.00  0.00     0.012 C 
BRANCH  89  94
ATOM     94  C   UNL A   1      31.013  23.548  24.676  1.00  0.00     0.088 C 
BRANCH  94  95
ATOM     95  C   UNL A   1      31.292  23.738  26.172  1.00  0.00     0.150 C 
BRANCH  95  96
ATOM     96  N   UNL A   1      32.524  23.154  26.665  1.00  0.00    -0.273 N 
ATOM     97  C   UNL A   1      33.695  23.018  25.974  1.00  0.00     0.108 A 
ATOM     98  N   UNL A   1      32.572  22.596  27.887  1.00  0.00    -0.182 NA
ATOM     99  C   UNL A   1      34.572  22.388  26.826  1.00  0.00     0.042 A 
ATOM    100  C   UNL A   1      33.828  22.161  27.996  1.00  0.00     0.135 A 
ENDBRANCH  95  96
ENDBRANCH  94  95
ENDBRANCH  89  94
ENDBRANCH  86  87
ENDBRANCH  82  86
ENDBRANCH  78  80
ENDBRANCH  77  78
ENDBRANCH  76  77
ENDBRANCH  75  76
ENDBRANCH  74  75
ENDBRANCH   1  74
TORSDOF 25
ENDMDL
