MODEL 1
REMARK VINA RESULT:     -11.0      0.000      0.000
REMARK SMILES Cc1ccc(N2C(=O)C[C@H](Sc3ccccc3C(=O)OCCOCCOCCOC(=O)c3ccc(-c4c5nc(c(-c6cc(S(=O)(=O)[O-])ccc6F)c6ccc([nH]6)c(-c6cc(S(=O)(=O)[O-])ccc6F)c6nc(c(-c7cc(S(=O)(=O)[O-])ccc7F)c7ccc4[nH]7)C=C6)C=C5)cc3)C2=O)cc1
REMARK SMILES IDX 24 1 23 2 22 3 21 4 20 5 18 6 19 7 17 8 12 9 13 10 14 11
REMARK SMILES IDX 16 12 15 13 11 14 10 15 6 16 7 17 95 18 8 19 9 20 96 21 5 22
REMARK SMILES IDX 1 23 2 24 3 25 98 26 4 27 97 28 25 29 26 30 27 31 28 32
REMARK SMILES IDX 29 33 30 34 31 35 32 36 33 37 94 38 34 39 93 40 35 41 36 42
REMARK SMILES IDX 37 43 87 44 38 45 92 46 86 47 88 48 39 49 91 50 85 51 84 52
REMARK SMILES IDX 40 54 72 55 52 56 71 57 53 58 56 59 70 60 89 61 54 62 55 63
REMARK SMILES IDX 69 65 90 66 57 67 41 68 42 69 50 70 43 71 49 72 51 73 48 74
REMARK SMILES IDX 44 75 45 76 46 77 47 78 73 79 74 80 82 81 75 82 81 83 83 84
REMARK SMILES IDX 80 85 76 86 77 87 78 88 79 89 58 90 59 91 67 92 60 93 66 94
REMARK SMILES IDX 68 95 65 96 61 97 62 98 63 99 64 100
REMARK H PARENT 88 53 56 64
REMARK Flexibility Score: inf
ROOT
ATOM      1  C   UNL A   1      30.328  31.683  25.135  1.00  0.00     0.188 C 
ENDROOT
BRANCH   1   2
ATOM      2  O   UNL A   1      30.393  30.367  24.619  1.00  0.00    -0.376 OA
BRANCH   2   3
ATOM      3  C   UNL A   1      29.579  30.188  23.470  1.00  0.00     0.202 C 
BRANCH   3   4
ATOM      4  C   UNL A   1      29.492  28.780  22.847  1.00  0.00     0.261 C 
BRANCH   4   5
ATOM      5  O   UNL A   1      29.211  27.382  23.360  1.00  0.00    -0.460 OA
BRANCH   5   6
ATOM      6  C   UNL A   1      29.746  26.484  24.226  1.00  0.00     0.339 C 
ATOM      7  O   UNL A   1      29.123  25.599  24.740  1.00  0.00    -0.246 OA
BRANCH   6   8
ATOM      8  C   UNL A   1      31.163  26.722  24.619  1.00  0.00     0.073 A 
ATOM      9  C   UNL A   1      32.196  26.803  23.681  1.00  0.00     0.023 A 
ATOM     10  C   UNL A   1      33.482  27.182  24.114  1.00  0.00     0.016 A 
ATOM     11  C   UNL A   1      33.762  27.388  25.466  1.00  0.00     0.001 A 
ATOM     12  C   UNL A   1      31.513  26.713  25.980  1.00  0.00     0.017 A 
ATOM     13  C   UNL A   1      32.788  27.094  26.408  1.00  0.00     0.001 A 
BRANCH   9  14
ATOM     14  S   UNL A   1      32.100  26.088  22.043  1.00  0.00    -0.111 SA
BRANCH  14  15
ATOM     15  C   UNL A   1      32.859  24.474  22.242  1.00  0.00     0.151 C 
ATOM     16  N   UNL A   1      32.944  22.633  23.601  1.00  0.00    -0.250 N 
ATOM     17  C   UNL A   1      34.249  23.037  23.419  1.00  0.00     0.235 C 
ATOM     18  C   UNL A   1      32.030  23.471  23.009  1.00  0.00     0.247 C 
ATOM     19  O   UNL A   1      35.268  22.438  23.716  1.00  0.00    -0.274 OA
ATOM     20  C   UNL A   1      34.186  24.442  22.957  1.00  0.00     0.126 C 
ATOM     21  O   UNL A   1      30.814  23.353  22.980  1.00  0.00    -0.273 OA
BRANCH  16  22
ATOM     22  C   UNL A   1      32.661  21.405  24.190  1.00  0.00     0.052 A 
ATOM     23  C   UNL A   1      32.883  17.382  25.599  1.00  0.00     0.044 C 
ATOM     24  C   UNL A   1      32.734  18.800  25.146  1.00  0.00    -0.051 A 
ATOM     25  C   UNL A   1      32.420  19.041  23.807  1.00  0.00     0.005 A 
ATOM     26  C   UNL A   1      32.935  19.879  26.023  1.00  0.00     0.005 A 
ATOM     27  C   UNL A   1      32.397  20.338  23.330  1.00  0.00     0.027 A 
ATOM     28  C   UNL A   1      32.887  21.192  25.549  1.00  0.00     0.027 A 
ENDBRANCH  16  22
ENDBRANCH  14  15
ENDBRANCH   9  14
ENDBRANCH   6   8
ENDBRANCH   5   6
ENDBRANCH   4   5
ENDBRANCH   3   4
ENDBRANCH   2   3
ENDBRANCH   1   2
BRANCH   1  29
ATOM     29  C   UNL A   1      31.372  31.884  26.238  1.00  0.00     0.188 C 
BRANCH  29  30
ATOM     30  O   UNL A   1      32.250  30.758  26.349  1.00  0.00    -0.376 OA
BRANCH  30  31
ATOM     31  C   UNL A   1      32.960  30.585  27.548  1.00  0.00     0.202 C 
BRANCH  31  32
ATOM     32  C   UNL A   1      34.387  31.088  27.350  1.00  0.00     0.261 C 
BRANCH  32  33
ATOM     33  O   UNL A   1      34.375  32.538  27.354  1.00  0.00    -0.460 OA
BRANCH  33  34
ATOM     34  C   UNL A   1      34.196  33.117  28.573  1.00  0.00     0.338 C 
ATOM     35  O   UNL A   1      33.200  33.734  28.917  1.00  0.00    -0.246 OA
BRANCH  34  36
ATOM     36  C   UNL A   1      35.442  32.994  29.394  1.00  0.00     0.060 A 
ATOM     37  C   UNL A   1      36.641  33.511  28.906  1.00  0.00     0.016 A 
ATOM     38  C   UNL A   1      35.485  32.202  30.545  1.00  0.00     0.016 A 
ATOM     39  C   UNL A   1      37.863  33.107  29.481  1.00  0.00     0.010 A 
ATOM     40  C   UNL A   1      36.711  31.724  31.036  1.00  0.00     0.010 A 
ATOM     41  C   UNL A   1      37.930  32.067  30.428  1.00  0.00    -0.014 A 
BRANCH  41  42
ATOM     42  C   UNL A   1      39.162  31.286  30.893  1.00  0.00     0.031 A 
ATOM     43  C   UNL A   1      39.307  29.999  30.179  1.00  0.00     0.074 A 
ATOM     44  C   UNL A   1      40.181  31.572  31.803  1.00  0.00     0.049 A 
ATOM     45  N   UNL A   1      39.939  28.969  30.640  1.00  0.00    -0.248 NA
ATOM     46  C   UNL A   1      38.542  29.715  28.958  1.00  0.00     0.031 C 
ATOM     47  C   UNL A   1      41.606  31.323  31.560  1.00  0.00     0.029 A 
ATOM     48  N   UNL A   1      40.275  32.251  33.036  1.00  0.00    -0.354 N 
ATOM     49  C   UNL A   1      40.070  28.142  29.550  1.00  0.00     0.074 A 
ATOM     50  C   UNL A   1      38.941  28.467  28.721  1.00  0.00     0.031 C 
ATOM     51  C   UNL A   1      42.359  31.775  32.592  1.00  0.00     0.029 A 
ATOM     52  C   UNL A   1      41.503  32.251  33.684  1.00  0.00     0.049 A 
ATOM     53  H   UNL A   1      39.495  32.709  33.425  1.00  0.00     0.167 HD
ATOM     54  C   UNL A   1      41.297  27.614  29.269  1.00  0.00     0.034 A 
ATOM     55  C   UNL A   1      41.689  32.173  35.058  1.00  0.00     0.034 A 
ATOM     56  C   UNL A   1      42.253  27.835  30.372  1.00  0.00     0.049 A 
ATOM     57  C   UNL A   1      42.267  30.784  35.297  1.00  0.00     0.074 A 
ATOM     58  C   UNL A   1      43.408  28.599  30.470  1.00  0.00     0.029 A 
ATOM     59  N   UNL A   1      41.950  27.442  31.679  1.00  0.00    -0.354 N 
ATOM     60  N   UNL A   1      42.334  29.901  34.343  1.00  0.00    -0.248 NA
ATOM     61  C   UNL A   1      42.709  30.235  36.577  1.00  0.00     0.031 C 
ATOM     62  C   UNL A   1      43.791  28.664  31.831  1.00  0.00     0.029 A 
ATOM     63  C   UNL A   1      42.878  27.937  32.575  1.00  0.00     0.049 A 
ATOM     64  H   UNL A   1      41.176  26.884  31.928  1.00  0.00     0.167 HD
ATOM     65  C   UNL A   1      42.743  28.707  34.833  1.00  0.00     0.074 A 
ATOM     66  C   UNL A   1      42.958  28.954  36.247  1.00  0.00     0.031 C 
ATOM     67  C   UNL A   1      42.826  27.630  34.002  1.00  0.00     0.034 A 
BRANCH  54  68
ATOM     68  C   UNL A   1      41.745  27.297  27.837  1.00  0.00     0.023 A 
ATOM     69  C   UNL A   1      42.141  25.979  27.535  1.00  0.00     0.031 A 
ATOM     70  C   UNL A   1      41.895  28.204  26.764  1.00  0.00     0.131 A 
ATOM     71  C   UNL A   1      42.755  25.643  26.314  1.00  0.00     0.055 A 
ATOM     72  C   UNL A   1      42.529  27.880  25.555  1.00  0.00     0.041 A 
ATOM     73  F   UNL A   1      41.391  29.440  26.783  1.00  0.00    -0.206 F 
ATOM     74  C   UNL A   1      42.977  26.595  25.329  1.00  0.00     0.022 A 
BRANCH  71  75
ATOM     75  S   UNL A   1      43.249  23.925  26.026  1.00  0.00     0.124 S 
ATOM     76  O   UNL A   1      43.860  24.007  24.704  1.00  0.00    -0.237 OA
ATOM     77  O   UNL A   1      44.150  23.666  27.142  1.00  0.00    -0.237 OA
ATOM     78  O   UNL A   1      41.979  23.201  26.080  1.00  0.00    -0.744 OA
ENDBRANCH  71  75
ENDBRANCH  54  68
BRANCH  55  79
ATOM     79  C   UNL A   1      40.821  32.854  36.158  1.00  0.00     0.023 A 
ATOM     80  C   UNL A   1      39.602  32.297  36.644  1.00  0.00     0.031 A 
ATOM     81  C   UNL A   1      41.220  34.042  36.828  1.00  0.00     0.131 A 
ATOM     82  C   UNL A   1      38.956  32.808  37.809  1.00  0.00     0.055 A 
ATOM     83  C   UNL A   1      40.568  34.553  37.970  1.00  0.00     0.041 A 
ATOM     84  F   UNL A   1      42.337  34.693  36.473  1.00  0.00    -0.206 F 
ATOM     85  C   UNL A   1      39.455  33.917  38.487  1.00  0.00     0.022 A 
BRANCH  82  86
ATOM     86  S   UNL A   1      37.468  32.057  38.560  1.00  0.00     0.124 S 
ATOM     87  O   UNL A   1      37.401  30.761  37.891  1.00  0.00    -0.237 OA
ATOM     88  O   UNL A   1      37.774  32.005  39.983  1.00  0.00    -0.237 OA
ATOM     89  O   UNL A   1      36.417  32.995  38.164  1.00  0.00    -0.744 OA
ENDBRANCH  82  86
ENDBRANCH  55  79
BRANCH  67  90
ATOM     90  C   UNL A   1      43.049  26.234  34.484  1.00  0.00     0.023 A 
ATOM     91  C   UNL A   1      44.309  25.628  34.455  1.00  0.00     0.031 A 
ATOM     92  C   UNL A   1      41.989  25.470  35.014  1.00  0.00     0.131 A 
ATOM     93  C   UNL A   1      44.453  24.274  34.777  1.00  0.00     0.055 A 
ATOM     94  C   UNL A   1      42.157  24.153  35.435  1.00  0.00     0.041 A 
ATOM     95  F   UNL A   1      40.749  25.967  35.135  1.00  0.00    -0.206 F 
ATOM     96  C   UNL A   1      43.389  23.534  35.285  1.00  0.00     0.022 A 
BRANCH  93  97
ATOM     97  S   UNL A   1      46.025  23.477  34.371  1.00  0.00     0.124 S 
ATOM     98  O   UNL A   1      46.548  24.361  33.332  1.00  0.00    -0.237 OA
ATOM     99  O   UNL A   1      46.733  23.510  35.647  1.00  0.00    -0.237 OA
ATOM    100  O   UNL A   1      45.626  22.149  33.913  1.00  0.00    -0.744 OA
ENDBRANCH  93  97
ENDBRANCH  67  90
ENDBRANCH  41  42
ENDBRANCH  34  36
ENDBRANCH  33  34
ENDBRANCH  32  33
ENDBRANCH  31  32
ENDBRANCH  30  31
ENDBRANCH  29  30
ENDBRANCH   1  29
TORSDOF 23
ENDMDL
MODEL 2
REMARK VINA RESULT:     -10.1      6.063      7.867
REMARK SMILES Cc1ccc(N2C(=O)C[C@H](Sc3ccccc3C(=O)OCCOCCOCCOC(=O)c3ccc(-c4c5nc(c(-c6cc(S(=O)(=O)[O-])ccc6F)c6ccc([nH]6)c(-c6cc(S(=O)(=O)[O-])ccc6F)c6nc(c(-c7cc(S(=O)(=O)[O-])ccc7F)c7ccc4[nH]7)C=C6)C=C5)cc3)C2=O)cc1
REMARK SMILES IDX 24 1 23 2 22 3 21 4 20 5 18 6 19 7 17 8 12 9 13 10 14 11
REMARK SMILES IDX 16 12 15 13 11 14 10 15 6 16 7 17 95 18 8 19 9 20 96 21 5 22
REMARK SMILES IDX 1 23 2 24 3 25 98 26 4 27 97 28 25 29 26 30 27 31 28 32
REMARK SMILES IDX 29 33 30 34 31 35 32 36 33 37 94 38 34 39 93 40 35 41 36 42
REMARK SMILES IDX 37 43 87 44 38 45 92 46 86 47 88 48 39 49 91 50 85 51 84 52
REMARK SMILES IDX 40 54 72 55 52 56 71 57 53 58 56 59 70 60 89 61 54 62 55 63
REMARK SMILES IDX 69 65 90 66 57 67 41 68 42 69 50 70 43 71 49 72 51 73 48 74
REMARK SMILES IDX 44 75 45 76 46 77 47 78 73 79 74 80 82 81 75 82 81 83 83 84
REMARK SMILES IDX 80 85 76 86 77 87 78 88 79 89 58 90 59 91 67 92 60 93 66 94
REMARK SMILES IDX 68 95 65 96 61 97 62 98 63 99 64 100
REMARK H PARENT 88 53 56 64
REMARK Flexibility Score: inf
ROOT
ATOM      1  C   UNL A   1      36.052  30.042  28.983  1.00  0.00     0.188 C 
ENDROOT
BRANCH   1   2
ATOM      2  O   UNL A   1      35.523  31.351  28.899  1.00  0.00    -0.376 OA
BRANCH   2   3
ATOM      3  C   UNL A   1      34.326  31.410  28.139  1.00  0.00     0.202 C 
BRANCH   3   4
ATOM      4  C   UNL A   1      34.012  30.248  27.175  1.00  0.00     0.261 C 
BRANCH   4   5
ATOM      5  O   UNL A   1      32.837  29.844  26.308  1.00  0.00    -0.460 OA
BRANCH   5   6
ATOM      6  C   UNL A   1      31.861  28.900  26.284  1.00  0.00     0.339 C 
ATOM      7  O   UNL A   1      31.391  28.402  27.267  1.00  0.00    -0.246 OA
BRANCH   6   8
ATOM      8  C   UNL A   1      31.467  28.404  24.937  1.00  0.00     0.073 A 
ATOM      9  C   UNL A   1      31.964  27.212  24.403  1.00  0.00     0.023 A 
ATOM     10  C   UNL A   1      31.429  26.732  23.191  1.00  0.00     0.016 A 
ATOM     11  C   UNL A   1      30.483  27.465  22.474  1.00  0.00     0.001 A 
ATOM     12  C   UNL A   1      30.692  29.223  24.099  1.00  0.00     0.017 A 
ATOM     13  C   UNL A   1      30.157  28.744  22.899  1.00  0.00     0.001 A 
BRANCH   9  14
ATOM     14  S   UNL A   1      33.494  26.454  24.939  1.00  0.00    -0.111 SA
BRANCH  14  15
ATOM     15  C   UNL A   1      32.964  24.890  25.643  1.00  0.00     0.151 C 
ATOM     16  N   UNL A   1      32.316  22.757  25.116  1.00  0.00    -0.250 N 
ATOM     17  C   UNL A   1      31.332  23.267  25.935  1.00  0.00     0.235 C 
ATOM     18  C   UNL A   1      33.295  23.672  24.812  1.00  0.00     0.247 C 
ATOM     19  O   UNL A   1      30.415  22.666  26.469  1.00  0.00    -0.274 OA
ATOM     20  C   UNL A   1      31.486  24.738  25.901  1.00  0.00     0.126 C 
ATOM     21  O   UNL A   1      34.298  23.500  24.135  1.00  0.00    -0.273 OA
BRANCH  16  22
ATOM     22  C   UNL A   1      32.343  21.402  24.803  1.00  0.00     0.052 A 
ATOM     23  C   UNL A   1      33.395  17.572  23.240  1.00  0.00     0.044 C 
ATOM     24  C   UNL A   1      32.968  18.878  23.833  1.00  0.00    -0.051 A 
ATOM     25  C   UNL A   1      32.287  19.787  23.020  1.00  0.00     0.005 A 
ATOM     26  C   UNL A   1      33.265  19.215  25.163  1.00  0.00     0.005 A 
ATOM     27  C   UNL A   1      31.988  21.047  23.501  1.00  0.00     0.027 A 
ATOM     28  C   UNL A   1      32.941  20.480  25.661  1.00  0.00     0.027 A 
ENDBRANCH  16  22
ENDBRANCH  14  15
ENDBRANCH   9  14
ENDBRANCH   6   8
ENDBRANCH   5   6
ENDBRANCH   4   5
ENDBRANCH   3   4
ENDBRANCH   2   3
ENDBRANCH   1   2
BRANCH   1  29
ATOM     29  C   UNL A   1      37.138  29.965  30.061  1.00  0.00     0.188 C 
BRANCH  29  30
ATOM     30  O   UNL A   1      36.597  29.592  31.334  1.00  0.00    -0.376 OA
BRANCH  30  31
ATOM     31  C   UNL A   1      37.336  29.902  32.486  1.00  0.00     0.202 C 
BRANCH  31  32
ATOM     32  C   UNL A   1      36.812  31.212  33.068  1.00  0.00     0.261 C 
BRANCH  32  33
ATOM     33  O   UNL A   1      37.906  31.903  33.721  1.00  0.00    -0.460 OA
BRANCH  33  34
ATOM     34  C   UNL A   1      37.765  33.254  33.823  1.00  0.00     0.338 C 
ATOM     35  O   UNL A   1      36.954  33.822  34.538  1.00  0.00    -0.246 OA
BRANCH  34  36
ATOM     36  C   UNL A   1      38.662  33.945  32.843  1.00  0.00     0.060 A 
ATOM     37  C   UNL A   1      38.196  34.217  31.559  1.00  0.00     0.016 A 
ATOM     38  C   UNL A   1      40.020  34.147  33.110  1.00  0.00     0.016 A 
ATOM     39  C   UNL A   1      39.112  34.538  30.535  1.00  0.00     0.010 A 
ATOM     40  C   UNL A   1      40.928  34.357  32.061  1.00  0.00     0.010 A 
ATOM     41  C   UNL A   1      40.503  34.430  30.724  1.00  0.00    -0.014 A 
BRANCH  41  42
ATOM     42  C   UNL A   1      41.604  34.406  29.660  1.00  0.00     0.031 A 
ATOM     43  C   UNL A   1      42.241  33.076  29.549  1.00  0.00     0.074 A 
ATOM     44  C   UNL A   1      42.077  35.362  28.760  1.00  0.00     0.049 A 
ATOM     45  N   UNL A   1      43.437  32.867  29.102  1.00  0.00    -0.248 NA
ATOM     46  C   UNL A   1      41.630  31.886  30.155  1.00  0.00     0.031 C 
ATOM     47  C   UNL A   1      42.377  35.097  27.349  1.00  0.00     0.029 A 
ATOM     48  N   UNL A   1      42.266  36.760  28.776  1.00  0.00    -0.354 N 
ATOM     49  C   UNL A   1      43.487  31.509  28.902  1.00  0.00     0.074 A 
ATOM     50  C   UNL A   1      42.556  30.975  29.858  1.00  0.00     0.031 C 
ATOM     51  C   UNL A   1      42.743  36.235  26.711  1.00  0.00     0.029 A 
ATOM     52  C   UNL A   1      42.850  37.347  27.661  1.00  0.00     0.049 A 
ATOM     53  H   UNL A   1      41.994  37.301  29.552  1.00  0.00     0.167 HD
ATOM     54  C   UNL A   1      43.954  31.037  27.709  1.00  0.00     0.034 A 
ATOM     55  C   UNL A   1      43.740  38.413  27.686  1.00  0.00     0.034 A 
ATOM     56  C   UNL A   1      44.580  32.106  26.905  1.00  0.00     0.049 A 
ATOM     57  C   UNL A   1      45.084  37.810  27.297  1.00  0.00     0.074 A 
ATOM     58  C   UNL A   1      44.224  32.702  25.703  1.00  0.00     0.029 A 
ATOM     59  N   UNL A   1      45.599  32.904  27.434  1.00  0.00    -0.354 N 
ATOM     60  N   UNL A   1      45.247  36.524  27.185  1.00  0.00    -0.248 NA
ATOM     61  C   UNL A   1      46.339  38.536  27.105  1.00  0.00     0.031 C 
ATOM     62  C   UNL A   1      45.025  33.854  25.517  1.00  0.00     0.029 A 
ATOM     63  C   UNL A   1      45.881  33.968  26.599  1.00  0.00     0.049 A 
ATOM     64  H   UNL A   1      46.056  32.729  28.290  1.00  0.00     0.167 HD
ATOM     65  C   UNL A   1      46.552  36.229  26.978  1.00  0.00     0.074 A 
ATOM     66  C   UNL A   1      47.211  37.522  26.947  1.00  0.00     0.031 C 
ATOM     67  C   UNL A   1      46.943  34.927  26.889  1.00  0.00     0.034 A 
BRANCH  54  68
ATOM     68  C   UNL A   1      43.454  29.724  27.094  1.00  0.00     0.023 A 
ATOM     69  C   UNL A   1      44.401  28.738  26.757  1.00  0.00     0.031 A 
ATOM     70  C   UNL A   1      42.127  29.396  26.733  1.00  0.00     0.131 A 
ATOM     71  C   UNL A   1      44.060  27.596  26.007  1.00  0.00     0.055 A 
ATOM     72  C   UNL A   1      41.785  28.274  25.964  1.00  0.00     0.041 A 
ATOM     73  F   UNL A   1      41.069  30.100  27.143  1.00  0.00    -0.206 F 
ATOM     74  C   UNL A   1      42.757  27.371  25.584  1.00  0.00     0.022 A 
BRANCH  71  75
ATOM     75  S   UNL A   1      45.352  26.394  25.606  1.00  0.00     0.124 S 
ATOM     76  O   UNL A   1      44.575  25.176  25.400  1.00  0.00    -0.237 OA
ATOM     77  O   UNL A   1      45.967  26.979  24.420  1.00  0.00    -0.237 OA
ATOM     78  O   UNL A   1      46.194  26.399  26.802  1.00  0.00    -0.744 OA
ENDBRANCH  71  75
ENDBRANCH  54  68
BRANCH  55  79
ATOM     79  C   UNL A   1      43.687  39.652  28.628  1.00  0.00     0.023 A 
ATOM     80  C   UNL A   1      43.520  39.550  30.040  1.00  0.00     0.031 A 
ATOM     81  C   UNL A   1      43.888  40.981  28.165  1.00  0.00     0.131 A 
ATOM     82  C   UNL A   1      43.715  40.672  30.901  1.00  0.00     0.055 A 
ATOM     83  C   UNL A   1      44.064  42.089  29.020  1.00  0.00     0.041 A 
ATOM     84  F   UNL A   1      44.045  41.241  26.859  1.00  0.00    -0.206 F 
ATOM     85  C   UNL A   1      44.015  41.932  30.393  1.00  0.00     0.022 A 
BRANCH  82  86
ATOM     86  S   UNL A   1      43.649  40.578  32.726  1.00  0.00     0.124 S 
ATOM     87  O   UNL A   1      42.847  41.750  33.070  1.00  0.00    -0.237 OA
ATOM     88  O   UNL A   1      43.017  39.295  32.994  1.00  0.00    -0.237 OA
ATOM     89  O   UNL A   1      45.062  40.686  33.090  1.00  0.00    -0.744 OA
ENDBRANCH  82  86
ENDBRANCH  55  79
BRANCH  67  90
ATOM     90  C   UNL A   1      48.373  34.496  26.886  1.00  0.00     0.023 A 
ATOM     91  C   UNL A   1      48.978  33.911  28.002  1.00  0.00     0.031 A 
ATOM     92  C   UNL A   1      49.173  34.644  25.734  1.00  0.00     0.131 A 
ATOM     93  C   UNL A   1      50.354  33.654  28.011  1.00  0.00     0.055 A 
ATOM     94  C   UNL A   1      50.520  34.288  25.711  1.00  0.00     0.041 A 
ATOM     95  F   UNL A   1      48.684  35.147  24.591  1.00  0.00    -0.206 F 
ATOM     96  C   UNL A   1      51.129  33.822  26.867  1.00  0.00     0.022 A 
BRANCH  93  97
ATOM     97  S   UNL A   1      51.121  33.244  29.597  1.00  0.00     0.124 S 
ATOM     98  O   UNL A   1      52.540  33.434  29.301  1.00  0.00    -0.237 OA
ATOM     99  O   UNL A   1      50.525  34.225  30.498  1.00  0.00    -0.237 OA
ATOM    100  O   UNL A   1      50.715  31.860  29.825  1.00  0.00    -0.744 OA
ENDBRANCH  93  97
ENDBRANCH  67  90
ENDBRANCH  41  42
ENDBRANCH  34  36
ENDBRANCH  33  34
ENDBRANCH  32  33
ENDBRANCH  31  32
ENDBRANCH  30  31
ENDBRANCH  29  30
ENDBRANCH   1  29
TORSDOF 23
ENDMDL
MODEL 3
REMARK VINA RESULT:      -9.9      6.424      7.910
REMARK SMILES Cc1ccc(N2C(=O)C[C@H](Sc3ccccc3C(=O)OCCOCCOCCOC(=O)c3ccc(-c4c5nc(c(-c6cc(S(=O)(=O)[O-])ccc6F)c6ccc([nH]6)c(-c6cc(S(=O)(=O)[O-])ccc6F)c6nc(c(-c7cc(S(=O)(=O)[O-])ccc7F)c7ccc4[nH]7)C=C6)C=C5)cc3)C2=O)cc1
REMARK SMILES IDX 24 1 23 2 22 3 21 4 20 5 18 6 19 7 17 8 12 9 13 10 14 11
REMARK SMILES IDX 16 12 15 13 11 14 10 15 6 16 7 17 95 18 8 19 9 20 96 21 5 22
REMARK SMILES IDX 1 23 2 24 3 25 98 26 4 27 97 28 25 29 26 30 27 31 28 32
REMARK SMILES IDX 29 33 30 34 31 35 32 36 33 37 94 38 34 39 93 40 35 41 36 42
REMARK SMILES IDX 37 43 87 44 38 45 92 46 86 47 88 48 39 49 91 50 85 51 84 52
REMARK SMILES IDX 40 54 72 55 52 56 71 57 53 58 56 59 70 60 89 61 54 62 55 63
REMARK SMILES IDX 69 65 90 66 57 67 41 68 42 69 50 70 43 71 49 72 51 73 48 74
REMARK SMILES IDX 44 75 45 76 46 77 47 78 73 79 74 80 82 81 75 82 81 83 83 84
REMARK SMILES IDX 80 85 76 86 77 87 78 88 79 89 58 90 59 91 67 92 60 93 66 94
REMARK SMILES IDX 68 95 65 96 61 97 62 98 63 99 64 100
REMARK H PARENT 88 53 56 64
REMARK Flexibility Score: inf
ROOT
ATOM      1  C   UNL A   1      36.792  29.974  27.690  1.00  0.00     0.188 C 
ENDROOT
BRANCH   1   2
ATOM      2  O   UNL A   1      36.014  31.153  27.768  1.00  0.00    -0.376 OA
BRANCH   2   3
ATOM      3  C   UNL A   1      34.629  30.910  27.576  1.00  0.00     0.202 C 
BRANCH   3   4
ATOM      4  C   UNL A   1      34.116  29.461  27.701  1.00  0.00     0.261 C 
BRANCH   4   5
ATOM      5  O   UNL A   1      33.211  28.556  26.890  1.00  0.00    -0.460 OA
BRANCH   5   6
ATOM      6  C   UNL A   1      31.926  28.119  26.902  1.00  0.00     0.339 C 
ATOM      7  O   UNL A   1      31.317  27.865  27.902  1.00  0.00    -0.246 OA
BRANCH   6   8
ATOM      8  C   UNL A   1      31.318  27.845  25.571  1.00  0.00     0.073 A 
ATOM      9  C   UNL A   1      30.660  26.646  25.281  1.00  0.00     0.023 A 
ATOM     10  C   UNL A   1      29.979  26.521  24.055  1.00  0.00     0.016 A 
ATOM     11  C   UNL A   1      30.025  27.531  23.092  1.00  0.00     0.001 A 
ATOM     12  C   UNL A   1      31.536  28.743  24.513  1.00  0.00     0.017 A 
ATOM     13  C   UNL A   1      30.856  28.621  23.298  1.00  0.00     0.001 A 
BRANCH   9  14
ATOM     14  S   UNL A   1      30.941  25.124  26.180  1.00  0.00    -0.111 SA
BRANCH  14  15
ATOM     15  C   UNL A   1      31.532  23.992  24.918  1.00  0.00     0.151 C 
ATOM     16  N   UNL A   1      32.507  21.947  24.588  1.00  0.00    -0.250 N 
ATOM     17  C   UNL A   1      33.276  22.856  23.894  1.00  0.00     0.235 C 
ATOM     18  C   UNL A   1      31.490  22.532  25.302  1.00  0.00     0.247 C 
ATOM     19  O   UNL A   1      34.159  22.628  23.084  1.00  0.00    -0.274 OA
ATOM     20  C   UNL A   1      32.955  24.186  24.459  1.00  0.00     0.126 C 
ATOM     21  O   UNL A   1      30.639  21.980  25.984  1.00  0.00    -0.273 OA
BRANCH  16  22
ATOM     22  C   UNL A   1      32.694  20.580  24.407  1.00  0.00     0.052 A 
ATOM     23  C   UNL A   1      33.993  16.769  22.992  1.00  0.00     0.044 C 
ATOM     24  C   UNL A   1      33.500  18.066  23.549  1.00  0.00    -0.051 A 
ATOM     25  C   UNL A   1      32.497  18.749  22.858  1.00  0.00     0.005 A 
ATOM     26  C   UNL A   1      34.043  18.619  24.721  1.00  0.00     0.005 A 
ATOM     27  C   UNL A   1      32.106  20.006  23.279  1.00  0.00     0.027 A 
ATOM     28  C   UNL A   1      33.631  19.878  25.164  1.00  0.00     0.027 A 
ENDBRANCH  16  22
ENDBRANCH  14  15
ENDBRANCH   9  14
ENDBRANCH   6   8
ENDBRANCH   5   6
ENDBRANCH   4   5
ENDBRANCH   3   4
ENDBRANCH   2   3
ENDBRANCH   1   2
BRANCH   1  29
ATOM     29  C   UNL A   1      37.760  29.884  28.874  1.00  0.00     0.188 C 
BRANCH  29  30
ATOM     30  O   UNL A   1      37.203  29.131  29.959  1.00  0.00    -0.376 OA
BRANCH  30  31
ATOM     31  C   UNL A   1      37.484  29.548  31.269  1.00  0.00     0.202 C 
BRANCH  31  32
ATOM     32  C   UNL A   1      36.677  30.808  31.567  1.00  0.00     0.261 C 
BRANCH  32  33
ATOM     33  O   UNL A   1      37.466  31.678  32.416  1.00  0.00    -0.460 OA
BRANCH  33  34
ATOM     34  C   UNL A   1      37.134  32.998  32.366  1.00  0.00     0.338 C 
ATOM     35  O   UNL A   1      36.054  33.463  32.697  1.00  0.00    -0.246 OA
BRANCH  34  36
ATOM     36  C   UNL A   1      38.239  33.788  31.735  1.00  0.00     0.060 A 
ATOM     37  C   UNL A   1      38.113  34.211  30.413  1.00  0.00     0.016 A 
ATOM     38  C   UNL A   1      39.479  33.943  32.362  1.00  0.00     0.016 A 
ATOM     39  C   UNL A   1      39.254  34.637  29.702  1.00  0.00     0.010 A 
ATOM     40  C   UNL A   1      40.622  34.263  31.612  1.00  0.00     0.010 A 
ATOM     41  C   UNL A   1      40.552  34.492  30.228  1.00  0.00    -0.014 A 
BRANCH  41  42
ATOM     42  C   UNL A   1      41.889  34.579  29.487  1.00  0.00     0.031 A 
ATOM     43  C   UNL A   1      42.603  33.284  29.474  1.00  0.00     0.074 A 
ATOM     44  C   UNL A   1      42.526  35.608  28.792  1.00  0.00     0.049 A 
ATOM     45  N   UNL A   1      43.882  33.149  29.343  1.00  0.00    -0.248 NA
ATOM     46  C   UNL A   1      41.921  32.034  29.836  1.00  0.00     0.031 C 
ATOM     47  C   UNL A   1      43.192  35.447  27.496  1.00  0.00     0.029 A 
ATOM     48  N   UNL A   1      42.631  37.008  28.931  1.00  0.00    -0.354 N 
ATOM     49  C   UNL A   1      44.054  31.809  29.090  1.00  0.00     0.074 A 
ATOM     50  C   UNL A   1      42.938  31.181  29.742  1.00  0.00     0.031 C 
ATOM     51  C   UNL A   1      43.649  36.637  27.035  1.00  0.00     0.029 A 
ATOM     52  C   UNL A   1      43.450  37.688  28.038  1.00  0.00     0.049 A 
ATOM     53  H   UNL A   1      42.140  37.488  29.637  1.00  0.00     0.167 HD
ATOM     54  C   UNL A   1      44.836  31.434  28.036  1.00  0.00     0.034 A 
ATOM     55  C   UNL A   1      44.246  38.783  28.350  1.00  0.00     0.034 A 
ATOM     56  C   UNL A   1      45.590  32.575  27.480  1.00  0.00     0.049 A 
ATOM     57  C   UNL A   1      45.674  38.257  28.291  1.00  0.00     0.074 A 
ATOM     58  C   UNL A   1      45.524  33.235  26.261  1.00  0.00     0.029 A 
ATOM     59  N   UNL A   1      46.395  33.374  28.297  1.00  0.00    -0.354 N 
ATOM     60  N   UNL A   1      45.928  36.987  28.158  1.00  0.00    -0.248 NA
ATOM     61  C   UNL A   1      46.896  39.040  28.471  1.00  0.00     0.031 C 
ATOM     62  C   UNL A   1      46.284  34.425  26.350  1.00  0.00     0.029 A 
ATOM     63  C   UNL A   1      46.825  34.500  27.621  1.00  0.00     0.049 A 
ATOM     64  H   UNL A   1      46.625  33.162  29.231  1.00  0.00     0.167 HD
ATOM     65  C   UNL A   1      47.256  36.755  28.282  1.00  0.00     0.074 A 
ATOM     66  C   UNL A   1      47.832  38.072  28.491  1.00  0.00     0.031 C 
ATOM     67  C   UNL A   1      47.725  35.477  28.228  1.00  0.00     0.034 A 
BRANCH  54  68
ATOM     68  C   UNL A   1      44.580  30.146  27.243  1.00  0.00     0.023 A 
ATOM     69  C   UNL A   1      43.262  29.654  27.170  1.00  0.00     0.031 A 
ATOM     70  C   UNL A   1      45.541  29.316  26.622  1.00  0.00     0.131 A 
ATOM     71  C   UNL A   1      42.966  28.383  26.642  1.00  0.00     0.055 A 
ATOM     72  C   UNL A   1      45.255  28.038  26.118  1.00  0.00     0.041 A 
ATOM     73  F   UNL A   1      46.802  29.700  26.408  1.00  0.00    -0.206 F 
ATOM     74  C   UNL A   1      43.962  27.557  26.139  1.00  0.00     0.022 A 
BRANCH  71  75
ATOM     75  S   UNL A   1      41.243  27.829  26.610  1.00  0.00     0.124 S 
ATOM     76  O   UNL A   1      41.099  27.221  27.929  1.00  0.00    -0.237 OA
ATOM     77  O   UNL A   1      40.517  29.073  26.387  1.00  0.00    -0.237 OA
ATOM     78  O   UNL A   1      41.216  26.891  25.488  1.00  0.00    -0.744 OA
ENDBRANCH  71  75
ENDBRANCH  54  68
BRANCH  55  79
ATOM     79  C   UNL A   1      43.887  39.955  29.310  1.00  0.00     0.023 A 
ATOM     80  C   UNL A   1      43.518  39.760  30.673  1.00  0.00     0.031 A 
ATOM     81  C   UNL A   1      43.984  41.320  28.928  1.00  0.00     0.131 A 
ATOM     82  C   UNL A   1      43.430  40.851  31.590  1.00  0.00     0.055 A 
ATOM     83  C   UNL A   1      43.880  42.396  29.835  1.00  0.00     0.041 A 
ATOM     84  F   UNL A   1      44.306  41.665  27.674  1.00  0.00    -0.206 F 
ATOM     85  C   UNL A   1      43.639  42.163  31.177  1.00  0.00     0.022 A 
BRANCH  82  86
ATOM     86  S   UNL A   1      43.094  40.655  33.377  1.00  0.00     0.124 S 
ATOM     87  O   UNL A   1      42.926  39.210  33.506  1.00  0.00    -0.237 OA
ATOM     88  O   UNL A   1      44.278  41.201  34.024  1.00  0.00    -0.237 OA
ATOM     89  O   UNL A   1      41.860  41.423  33.543  1.00  0.00    -0.744 OA
ENDBRANCH  82  86
ENDBRANCH  55  79
BRANCH  67  90
ATOM     90  C   UNL A   1      49.129  35.101  28.573  1.00  0.00     0.023 A 
ATOM     91  C   UNL A   1      50.197  35.327  27.699  1.00  0.00     0.031 A 
ATOM     92  C   UNL A   1      49.439  34.515  29.817  1.00  0.00     0.131 A 
ATOM     93  C   UNL A   1      51.472  34.831  27.993  1.00  0.00     0.055 A 
ATOM     94  C   UNL A   1      50.732  34.118  30.153  1.00  0.00     0.041 A 
ATOM     95  F   UNL A   1      48.502  34.297  30.751  1.00  0.00    -0.206 F 
ATOM     96  C   UNL A   1      51.753  34.242  29.223  1.00  0.00     0.022 A 
BRANCH  93  97
ATOM     97  S   UNL A   1      52.704  34.842  26.669  1.00  0.00     0.124 S 
ATOM     98  O   UNL A   1      52.196  33.799  25.780  1.00  0.00    -0.237 OA
ATOM     99  O   UNL A   1      52.608  36.207  26.162  1.00  0.00    -0.237 OA
ATOM    100  O   UNL A   1      53.949  34.517  27.358  1.00  0.00    -0.744 OA
ENDBRANCH  93  97
ENDBRANCH  67  90
ENDBRANCH  41  42
ENDBRANCH  34  36
ENDBRANCH  33  34
ENDBRANCH  32  33
ENDBRANCH  31  32
ENDBRANCH  30  31
ENDBRANCH  29  30
ENDBRANCH   1  29
TORSDOF 23
ENDMDL
