MODEL 1
REMARK VINA RESULT:      -9.6      0.000      0.000
REMARK SMILES Cc1ccc([C@H]2CC(c3cccs3)=NN2C(=O)CCC(=O)OCCOCCOCCOC(=O)c2ccc(-c3c4nc(c(-c5cc(S(=O)(=O)[O-])ccc5F)c5ccc([nH]5)c(-c5cc(S(=O)(=O)[O-])ccc5F)c5nc(c(-c6cc(S(=O)(=O)[O-])ccc6F)c6ccc3[nH]6)C=C5)C=C4)cc2)o1
REMARK SMILES IDX 26 1 25 2 24 3 23 4 22 5 20 6 21 7 19 8 18 9 16 10 17 11
REMARK SMILES IDX 15 12 6 13 7 14 8 15 14 16 5 17 1 18 2 19 3 20 97 21 4 22
REMARK SMILES IDX 9 23 10 24 13 25 11 26 12 27 27 28 28 29 29 30 30 31 31 32
REMARK SMILES IDX 32 33 33 34 34 35 35 36 96 37 36 38 95 39 37 40 38 41 39 42
REMARK SMILES IDX 89 43 40 44 94 45 88 46 90 47 41 48 93 49 87 50 86 51 42 53
REMARK SMILES IDX 74 54 54 55 73 56 55 57 58 58 72 59 91 60 56 61 57 62 71 64
REMARK SMILES IDX 92 65 59 66 43 67 44 68 52 69 45 70 51 71 53 72 50 73 46 74
REMARK SMILES IDX 47 75 48 76 49 77 75 78 76 79 84 80 77 81 83 82 85 83 82 84
REMARK SMILES IDX 78 85 79 86 80 87 81 88 60 89 61 90 69 91 62 92 68 93 70 94
REMARK SMILES IDX 67 95 63 96 64 97 65 98 66 99
REMARK H PARENT 90 52 58 63
REMARK Flexibility Score: inf
ROOT
ATOM      1  C   UNL A   1      34.756  34.934  32.003  1.00  0.00     0.188 C 
ENDROOT
BRANCH   1   2
ATOM      2  O   UNL A   1      34.029  33.770  31.556  1.00  0.00    -0.376 OA
BRANCH   2   3
ATOM      3  C   UNL A   1      34.615  32.639  30.835  1.00  0.00     0.202 C 
BRANCH   3   4
ATOM      4  C   UNL A   1      34.921  32.730  29.089  1.00  0.00     0.261 C 
BRANCH   4   5
ATOM      5  O   UNL A   1      34.423  31.583  28.101  1.00  0.00    -0.463 OA
BRANCH   5   6
ATOM      6  C   UNL A   1      34.951  30.401  27.556  1.00  0.00     0.306 C 
ATOM      7  O   UNL A   1      36.029  29.953  27.949  1.00  0.00    -0.252 OA
BRANCH   6   8
ATOM      8  C   UNL A   1      33.924  29.381  26.675  1.00  0.00     0.132 C 
BRANCH   8   9
ATOM      9  C   UNL A   1      33.113  29.618  25.363  1.00  0.00     0.114 C 
BRANCH   9  10
ATOM     10  C   UNL A   1      33.442  28.531  24.426  1.00  0.00     0.243 C 
ATOM     11  O   UNL A   1      34.391  28.561  23.654  1.00  0.00    -0.273 OA
BRANCH  10  12
ATOM     12  N   UNL A   1      32.439  27.608  24.462  1.00  0.00    -0.222 N 
ATOM     13  C   UNL A   1      30.980  27.930  24.598  1.00  0.00     0.183 C 
ATOM     14  C   UNL A   1      30.514  26.489  25.022  1.00  0.00     0.095 C 
ATOM     15  C   UNL A   1      31.716  25.622  24.857  1.00  0.00     0.081 C 
ATOM     16  N   UNL A   1      32.802  26.273  24.623  1.00  0.00    -0.173 NA
BRANCH  13  17
ATOM     17  C   UNL A   1      30.146  29.031  23.420  1.00  0.00     0.129 A 
ATOM     18  C   UNL A   1      27.809  31.853  23.187  1.00  0.00     0.087 C 
ATOM     19  C   UNL A   1      28.774  30.781  22.903  1.00  0.00     0.101 A 
ATOM     20  C   UNL A   1      28.947  30.153  21.717  1.00  0.00     0.045 A 
ATOM     21  O   UNL A   1      29.551  30.219  23.904  1.00  0.00    -0.464 OA
ATOM     22  C   UNL A   1      29.796  29.093  22.029  1.00  0.00     0.048 A 
ENDBRANCH  13  17
BRANCH  15  23
ATOM     23  C   UNL A   1      31.603  24.179  24.951  1.00  0.00     0.050 A 
ATOM     24  C   UNL A   1      30.875  23.411  25.846  1.00  0.00     0.022 A 
ATOM     25  S   UNL A   1      32.549  23.194  23.922  1.00  0.00    -0.142 S 
ATOM     26  C   UNL A   1      31.109  22.008  25.688  1.00  0.00     0.012 A 
ATOM     27  C   UNL A   1      32.002  21.754  24.673  1.00  0.00     0.065 A 
ENDBRANCH  15  23
ENDBRANCH  10  12
ENDBRANCH   9  10
ENDBRANCH   8   9
ENDBRANCH   6   8
ENDBRANCH   5   6
ENDBRANCH   4   5
ENDBRANCH   3   4
ENDBRANCH   2   3
ENDBRANCH   1   2
BRANCH   1  28
ATOM     28  C   UNL A   1      34.966  35.031  33.560  1.00  0.00     0.188 C 
BRANCH  28  29
ATOM     29  O   UNL A   1      36.224  34.643  34.112  1.00  0.00    -0.376 OA
BRANCH  29  30
ATOM     30  C   UNL A   1      36.384  33.253  34.352  1.00  0.00     0.202 C 
BRANCH  30  31
ATOM     31  C   UNL A   1      37.204  32.490  33.299  1.00  0.00     0.261 C 
BRANCH  31  32
ATOM     32  O   UNL A   1      37.313  31.075  33.549  1.00  0.00    -0.460 OA
BRANCH  32  33
ATOM     33  C   UNL A   1      37.274  30.291  32.436  1.00  0.00     0.338 C 
ATOM     34  O   UNL A   1      36.280  29.741  31.967  1.00  0.00    -0.246 OA
BRANCH  33  35
ATOM     35  C   UNL A   1      38.574  30.345  31.725  1.00  0.00     0.060 A 
ATOM     36  C   UNL A   1      39.757  30.164  32.464  1.00  0.00     0.016 A 
ATOM     37  C   UNL A   1      38.635  30.588  30.353  1.00  0.00     0.016 A 
ATOM     38  C   UNL A   1      41.004  30.300  31.847  1.00  0.00     0.010 A 
ATOM     39  C   UNL A   1      39.883  30.752  29.742  1.00  0.00     0.010 A 
ATOM     40  C   UNL A   1      41.070  30.662  30.496  1.00  0.00    -0.014 A 
BRANCH  40  41
ATOM     41  C   UNL A   1      42.321  31.236  29.933  1.00  0.00     0.031 A 
ATOM     42  C   UNL A   1      43.358  30.268  29.438  1.00  0.00     0.074 A 
ATOM     43  C   UNL A   1      42.551  32.559  29.880  1.00  0.00     0.049 A 
ATOM     44  N   UNL A   1      44.592  30.486  29.071  1.00  0.00    -0.248 NA
ATOM     45  C   UNL A   1      42.945  28.858  29.369  1.00  0.00     0.031 C 
ATOM     46  C   UNL A   1      41.595  33.586  30.266  1.00  0.00     0.029 A 
ATOM     47  N   UNL A   1      43.663  33.269  29.502  1.00  0.00    -0.354 N 
ATOM     48  C   UNL A   1      45.111  29.239  28.746  1.00  0.00     0.074 A 
ATOM     49  C   UNL A   1      44.067  28.268  28.991  1.00  0.00     0.031 C 
ATOM     50  C   UNL A   1      42.156  34.798  30.119  1.00  0.00     0.029 A 
ATOM     51  C   UNL A   1      43.543  34.627  29.694  1.00  0.00     0.049 A 
ATOM     52  H   UNL A   1      44.471  32.846  29.128  1.00  0.00     0.167 HD
ATOM     53  C   UNL A   1      46.347  28.934  28.285  1.00  0.00     0.034 A 
ATOM     54  C   UNL A   1      44.461  35.608  29.585  1.00  0.00     0.034 A 
ATOM     55  C   UNL A   1      47.375  29.920  28.066  1.00  0.00     0.049 A 
ATOM     56  C   UNL A   1      45.866  35.236  29.171  1.00  0.00     0.074 A 
ATOM     57  C   UNL A   1      48.665  29.734  27.604  1.00  0.00     0.029 A 
ATOM     58  N   UNL A   1      47.232  31.283  28.304  1.00  0.00    -0.354 N 
ATOM     59  N   UNL A   1      46.356  34.051  28.884  1.00  0.00    -0.248 NA
ATOM     60  C   UNL A   1      46.839  36.330  29.062  1.00  0.00     0.031 C 
ATOM     61  C   UNL A   1      49.325  30.965  27.643  1.00  0.00     0.029 A 
ATOM     62  C   UNL A   1      48.420  31.941  28.035  1.00  0.00     0.049 A 
ATOM     63  H   UNL A   1      46.406  31.716  28.620  1.00  0.00     0.167 HD
ATOM     64  C   UNL A   1      47.684  34.264  28.525  1.00  0.00     0.074 A 
ATOM     65  C   UNL A   1      47.912  35.692  28.620  1.00  0.00     0.031 C 
ATOM     66  C   UNL A   1      48.630  33.366  28.143  1.00  0.00     0.034 A 
BRANCH  53  67
ATOM     67  C   UNL A   1      46.662  27.476  28.060  1.00  0.00     0.023 A 
ATOM     68  C   UNL A   1      46.442  26.850  26.820  1.00  0.00     0.031 A 
ATOM     69  C   UNL A   1      47.149  26.686  29.117  1.00  0.00     0.131 A 
ATOM     70  C   UNL A   1      46.637  25.467  26.690  1.00  0.00     0.055 A 
ATOM     71  C   UNL A   1      47.424  25.327  28.956  1.00  0.00     0.041 A 
ATOM     72  F   UNL A   1      47.348  27.219  30.333  1.00  0.00    -0.206 F 
ATOM     73  C   UNL A   1      47.152  24.706  27.741  1.00  0.00     0.022 A 
BRANCH  70  74
ATOM     74  S   UNL A   1      46.056  24.650  25.178  1.00  0.00     0.124 S 
ATOM     75  O   UNL A   1      45.771  23.302  25.662  1.00  0.00    -0.237 OA
ATOM     76  O   UNL A   1      44.898  25.456  24.809  1.00  0.00    -0.237 OA
ATOM     77  O   UNL A   1      47.201  24.750  24.274  1.00  0.00    -0.744 OA
ENDBRANCH  70  74
ENDBRANCH  53  67
BRANCH  54  78
ATOM     78  C   UNL A   1      44.114  37.021  29.924  1.00  0.00     0.023 A 
ATOM     79  C   UNL A   1      43.634  37.906  28.945  1.00  0.00     0.031 A 
ATOM     80  C   UNL A   1      44.314  37.528  31.222  1.00  0.00     0.131 A 
ATOM     81  C   UNL A   1      43.416  39.256  29.265  1.00  0.00     0.055 A 
ATOM     82  C   UNL A   1      44.038  38.857  31.549  1.00  0.00     0.041 A 
ATOM     83  F   UNL A   1      44.775  36.730  32.199  1.00  0.00    -0.206 F 
ATOM     84  C   UNL A   1      43.600  39.734  30.563  1.00  0.00     0.022 A 
BRANCH  81  85
ATOM     85  S   UNL A   1      42.981  40.404  27.929  1.00  0.00     0.124 S 
ATOM     86  O   UNL A   1      41.540  40.535  28.109  1.00  0.00    -0.237 OA
ATOM     87  O   UNL A   1      43.781  41.576  28.267  1.00  0.00    -0.237 OA
ATOM     88  O   UNL A   1      43.399  39.693  26.722  1.00  0.00    -0.744 OA
ENDBRANCH  81  85
ENDBRANCH  54  78
BRANCH  66  89
ATOM     89  C   UNL A   1      49.979  33.914  27.744  1.00  0.00     0.023 A 
ATOM     90  C   UNL A   1      50.254  34.329  26.430  1.00  0.00     0.031 A 
ATOM     91  C   UNL A   1      51.007  34.020  28.699  1.00  0.00     0.131 A 
ATOM     92  C   UNL A   1      51.540  34.775  26.093  1.00  0.00     0.055 A 
ATOM     93  C   UNL A   1      52.263  34.532  28.375  1.00  0.00     0.041 A 
ATOM     94  F   UNL A   1      50.802  33.634  29.969  1.00  0.00    -0.206 F 
ATOM     95  C   UNL A   1      52.540  34.900  27.062  1.00  0.00     0.022 A 
BRANCH  92  96
ATOM     96  S   UNL A   1      51.923  35.090  24.349  1.00  0.00     0.124 S 
ATOM     97  O   UNL A   1      53.286  35.607  24.427  1.00  0.00    -0.237 OA
ATOM     98  O   UNL A   1      51.777  33.766  23.753  1.00  0.00    -0.237 OA
ATOM     99  O   UNL A   1      50.912  36.066  23.947  1.00  0.00    -0.744 OA
ENDBRANCH  92  96
ENDBRANCH  66  89
ENDBRANCH  40  41
ENDBRANCH  33  35
ENDBRANCH  32  33
ENDBRANCH  31  32
ENDBRANCH  30  31
ENDBRANCH  29  30
ENDBRANCH  28  29
ENDBRANCH   1  28
TORSDOF 25
ENDMDL
MODEL 2
REMARK VINA RESULT:      -9.4      5.023     12.716
REMARK SMILES Cc1ccc([C@H]2CC(c3cccs3)=NN2C(=O)CCC(=O)OCCOCCOCCOC(=O)c2ccc(-c3c4nc(c(-c5cc(S(=O)(=O)[O-])ccc5F)c5ccc([nH]5)c(-c5cc(S(=O)(=O)[O-])ccc5F)c5nc(c(-c6cc(S(=O)(=O)[O-])ccc6F)c6ccc3[nH]6)C=C5)C=C4)cc2)o1
REMARK SMILES IDX 26 1 25 2 24 3 23 4 22 5 20 6 21 7 19 8 18 9 16 10 17 11
REMARK SMILES IDX 15 12 6 13 7 14 8 15 14 16 5 17 1 18 2 19 3 20 97 21 4 22
REMARK SMILES IDX 9 23 10 24 13 25 11 26 12 27 27 28 28 29 29 30 30 31 31 32
REMARK SMILES IDX 32 33 33 34 34 35 35 36 96 37 36 38 95 39 37 40 38 41 39 42
REMARK SMILES IDX 89 43 40 44 94 45 88 46 90 47 41 48 93 49 87 50 86 51 42 53
REMARK SMILES IDX 74 54 54 55 73 56 55 57 58 58 72 59 91 60 56 61 57 62 71 64
REMARK SMILES IDX 92 65 59 66 43 67 44 68 52 69 45 70 51 71 53 72 50 73 46 74
REMARK SMILES IDX 47 75 48 76 49 77 75 78 76 79 84 80 77 81 83 82 85 83 82 84
REMARK SMILES IDX 78 85 79 86 80 87 81 88 60 89 61 90 69 91 62 92 68 93 70 94
REMARK SMILES IDX 67 95 63 96 64 97 65 98 66 99
REMARK H PARENT 90 52 58 63
REMARK Flexibility Score: inf
ROOT
ATOM      1  C   UNL A   1      34.200  35.943  33.181  1.00  0.00     0.188 C 
ENDROOT
BRANCH   1   2
ATOM      2  O   UNL A   1      35.123  34.834  33.200  1.00  0.00    -0.376 OA
BRANCH   2   3
ATOM      3  C   UNL A   1      36.543  34.928  33.542  1.00  0.00     0.202 C 
BRANCH   3   4
ATOM      4  C   UNL A   1      37.791  34.887  32.280  1.00  0.00     0.261 C 
BRANCH   4   5
ATOM      5  O   UNL A   1      39.338  34.799  32.649  1.00  0.00    -0.463 OA
BRANCH   5   6
ATOM      6  C   UNL A   1      40.507  34.301  32.049  1.00  0.00     0.306 C 
ATOM      7  O   UNL A   1      41.227  33.498  32.644  1.00  0.00    -0.252 OA
BRANCH   6   8
ATOM      8  C   UNL A   1      40.700  34.474  30.375  1.00  0.00     0.132 C 
BRANCH   8   9
ATOM      9  C   UNL A   1      41.923  34.927  29.519  1.00  0.00     0.114 C 
BRANCH   9  10
ATOM     10  C   UNL A   1      42.791  33.755  29.316  1.00  0.00     0.243 C 
ATOM     11  O   UNL A   1      42.422  32.599  29.473  1.00  0.00    -0.273 OA
BRANCH  10  12
ATOM     12  N   UNL A   1      44.064  34.189  29.096  1.00  0.00    -0.222 N 
ATOM     13  C   UNL A   1      45.257  33.803  29.921  1.00  0.00     0.183 C 
ATOM     14  C   UNL A   1      46.201  34.962  29.430  1.00  0.00     0.095 C 
ATOM     15  C   UNL A   1      45.459  35.630  28.322  1.00  0.00     0.081 C 
ATOM     16  N   UNL A   1      44.238  35.242  28.201  1.00  0.00    -0.173 NA
BRANCH  13  17
ATOM     17  C   UNL A   1      45.716  32.063  30.154  1.00  0.00     0.129 A 
ATOM     18  C   UNL A   1      48.126  29.496  29.114  1.00  0.00     0.087 C 
ATOM     19  C   UNL A   1      47.046  30.247  29.769  1.00  0.00     0.101 A 
ATOM     20  C   UNL A   1      45.958  29.720  30.376  1.00  0.00     0.045 A 
ATOM     21  O   UNL A   1      46.991  31.632  29.722  1.00  0.00    -0.464 OA
ATOM     22  C   UNL A   1      45.153  30.829  30.625  1.00  0.00     0.048 A 
ENDBRANCH  13  17
BRANCH  15  23
ATOM     23  C   UNL A   1      46.117  36.614  27.483  1.00  0.00     0.050 A 
ATOM     24  C   UNL A   1      46.640  36.471  26.206  1.00  0.00     0.022 A 
ATOM     25  S   UNL A   1      46.436  38.172  28.108  1.00  0.00    -0.142 S 
ATOM     26  C   UNL A   1      47.315  37.648  25.751  1.00  0.00     0.012 A 
ATOM     27  C   UNL A   1      47.278  38.650  26.692  1.00  0.00     0.065 A 
ENDBRANCH  15  23
ENDBRANCH  10  12
ENDBRANCH   9  10
ENDBRANCH   8   9
ENDBRANCH   6   8
ENDBRANCH   5   6
ENDBRANCH   4   5
ENDBRANCH   3   4
ENDBRANCH   2   3
ENDBRANCH   1   2
BRANCH   1  28
ATOM     28  C   UNL A   1      32.705  35.562  32.870  1.00  0.00     0.188 C 
BRANCH  28  29
ATOM     29  O   UNL A   1      32.229  35.676  31.529  1.00  0.00    -0.376 OA
BRANCH  29  30
ATOM     30  C   UNL A   1      33.230  35.851  30.538  1.00  0.00     0.202 C 
BRANCH  30  31
ATOM     31  C   UNL A   1      33.876  34.558  30.015  1.00  0.00     0.261 C 
BRANCH  31  32
ATOM     32  O   UNL A   1      33.975  34.487  28.580  1.00  0.00    -0.460 OA
BRANCH  32  33
ATOM     33  C   UNL A   1      33.834  33.238  28.055  1.00  0.00     0.338 C 
ATOM     34  O   UNL A   1      32.930  32.857  27.314  1.00  0.00    -0.246 OA
BRANCH  33  35
ATOM     35  C   UNL A   1      35.042  32.426  28.332  1.00  0.00     0.060 A 
ATOM     36  C   UNL A   1      34.891  31.048  28.570  1.00  0.00     0.016 A 
ATOM     37  C   UNL A   1      36.308  33.009  28.377  1.00  0.00     0.016 A 
ATOM     38  C   UNL A   1      35.994  30.265  28.925  1.00  0.00     0.010 A 
ATOM     39  C   UNL A   1      37.407  32.232  28.761  1.00  0.00     0.010 A 
ATOM     40  C   UNL A   1      37.245  30.872  29.089  1.00  0.00    -0.014 A 
BRANCH  40  41
ATOM     41  C   UNL A   1      38.311  30.193  29.873  1.00  0.00     0.031 A 
ATOM     42  C   UNL A   1      38.473  30.602  31.310  1.00  0.00     0.074 A 
ATOM     43  C   UNL A   1      39.127  29.269  29.337  1.00  0.00     0.049 A 
ATOM     44  N   UNL A   1      39.421  30.307  32.157  1.00  0.00    -0.248 NA
ATOM     45  C   UNL A   1      37.426  31.480  31.853  1.00  0.00     0.031 C 
ATOM     46  C   UNL A   1      39.019  28.748  27.982  1.00  0.00     0.029 A 
ATOM     47  N   UNL A   1      40.218  28.617  29.855  1.00  0.00    -0.354 N 
ATOM     48  C   UNL A   1      39.097  30.980  33.329  1.00  0.00     0.074 A 
ATOM     49  C   UNL A   1      37.883  31.722  33.071  1.00  0.00     0.031 C 
ATOM     50  C   UNL A   1      40.007  27.866  27.762  1.00  0.00     0.029 A 
ATOM     51  C   UNL A   1      40.863  27.811  28.944  1.00  0.00     0.049 A 
ATOM     52  H   UNL A   1      40.511  28.717  30.791  1.00  0.00     0.167 HD
ATOM     53  C   UNL A   1      39.756  30.977  34.513  1.00  0.00     0.034 A 
ATOM     54  C   UNL A   1      42.034  27.148  29.040  1.00  0.00     0.034 A 
ATOM     55  C   UNL A   1      40.974  30.242  34.738  1.00  0.00     0.049 A 
ATOM     56  C   UNL A   1      42.809  27.242  30.335  1.00  0.00     0.074 A 
ATOM     57  C   UNL A   1      41.733  30.163  35.891  1.00  0.00     0.029 A 
ATOM     58  N   UNL A   1      41.621  29.465  33.783  1.00  0.00    -0.354 N 
ATOM     59  N   UNL A   1      42.507  27.897  31.433  1.00  0.00    -0.248 NA
ATOM     60  C   UNL A   1      44.078  26.507  30.404  1.00  0.00     0.031 C 
ATOM     61  C   UNL A   1      42.876  29.409  35.611  1.00  0.00     0.029 A 
ATOM     62  C   UNL A   1      42.786  28.934  34.311  1.00  0.00     0.049 A 
ATOM     63  H   UNL A   1      41.297  29.314  32.866  1.00  0.00     0.167 HD
ATOM     64  C   UNL A   1      43.530  27.620  32.335  1.00  0.00     0.074 A 
ATOM     65  C   UNL A   1      44.450  26.731  31.655  1.00  0.00     0.031 C 
ATOM     66  C   UNL A   1      43.695  28.054  33.613  1.00  0.00     0.034 A 
BRANCH  53  67
ATOM     67  C   UNL A   1      39.203  31.847  35.615  1.00  0.00     0.023 A 
ATOM     68  C   UNL A   1      39.551  33.203  35.737  1.00  0.00     0.031 A 
ATOM     69  C   UNL A   1      38.347  31.297  36.587  1.00  0.00     0.131 A 
ATOM     70  C   UNL A   1      39.108  33.942  36.844  1.00  0.00     0.055 A 
ATOM     71  C   UNL A   1      37.839  32.062  37.639  1.00  0.00     0.041 A 
ATOM     72  F   UNL A   1      38.005  30.000  36.543  1.00  0.00    -0.206 F 
ATOM     73  C   UNL A   1      38.233  33.389  37.781  1.00  0.00     0.022 A 
BRANCH  70  74
ATOM     74  S   UNL A   1      39.819  35.587  37.127  1.00  0.00     0.124 S 
ATOM     75  O   UNL A   1      38.981  36.086  38.215  1.00  0.00    -0.237 OA
ATOM     76  O   UNL A   1      41.201  35.277  37.474  1.00  0.00    -0.237 OA
ATOM     77  O   UNL A   1      39.634  36.265  35.846  1.00  0.00    -0.744 OA
ENDBRANCH  70  74
ENDBRANCH  53  67
BRANCH  54  78
ATOM     78  C   UNL A   1      42.580  26.389  27.876  1.00  0.00     0.023 A 
ATOM     79  C   UNL A   1      42.415  24.998  27.775  1.00  0.00     0.031 A 
ATOM     80  C   UNL A   1      43.329  27.034  26.874  1.00  0.00     0.131 A 
ATOM     81  C   UNL A   1      43.029  24.293  26.726  1.00  0.00     0.055 A 
ATOM     82  C   UNL A   1      43.888  26.336  25.801  1.00  0.00     0.041 A 
ATOM     83  F   UNL A   1      43.525  28.362  26.920  1.00  0.00    -0.206 F 
ATOM     84  C   UNL A   1      43.751  24.954  25.731  1.00  0.00     0.022 A 
BRANCH  81  85
ATOM     85  S   UNL A   1      42.952  22.480  26.738  1.00  0.00     0.124 S 
ATOM     86  O   UNL A   1      44.319  22.124  26.377  1.00  0.00    -0.237 OA
ATOM     87  O   UNL A   1      42.558  22.205  28.115  1.00  0.00    -0.237 OA
ATOM     88  O   UNL A   1      41.939  22.178  25.729  1.00  0.00    -0.744 OA
ENDBRANCH  81  85
ENDBRANCH  54  78
BRANCH  66  89
ATOM     89  C   UNL A   1      44.885  27.521  34.373  1.00  0.00     0.023 A 
ATOM     90  C   UNL A   1      44.813  26.347  35.141  1.00  0.00     0.031 A 
ATOM     91  C   UNL A   1      46.114  28.205  34.326  1.00  0.00     0.131 A 
ATOM     92  C   UNL A   1      45.929  25.923  35.877  1.00  0.00     0.055 A 
ATOM     93  C   UNL A   1      47.241  27.740  35.003  1.00  0.00     0.041 A 
ATOM     94  F   UNL A   1      46.241  29.335  33.612  1.00  0.00    -0.206 F 
ATOM     95  C   UNL A   1      47.149  26.601  35.797  1.00  0.00     0.022 A 
BRANCH  92  96
ATOM     96  S   UNL A   1      45.736  24.536  37.029  1.00  0.00     0.124 S 
ATOM     97  O   UNL A   1      44.516  24.901  37.741  1.00  0.00    -0.237 OA
ATOM     98  O   UNL A   1      45.629  23.394  36.127  1.00  0.00    -0.237 OA
ATOM     99  O   UNL A   1      46.958  24.582  37.829  1.00  0.00    -0.744 OA
ENDBRANCH  92  96
ENDBRANCH  66  89
ENDBRANCH  40  41
ENDBRANCH  33  35
ENDBRANCH  32  33
ENDBRANCH  31  32
ENDBRANCH  30  31
ENDBRANCH  29  30
ENDBRANCH  28  29
ENDBRANCH   1  28
TORSDOF 25
ENDMDL
MODEL 3
REMARK VINA RESULT:      -9.4      5.800     12.193
REMARK SMILES Cc1ccc([C@H]2CC(c3cccs3)=NN2C(=O)CCC(=O)OCCOCCOCCOC(=O)c2ccc(-c3c4nc(c(-c5cc(S(=O)(=O)[O-])ccc5F)c5ccc([nH]5)c(-c5cc(S(=O)(=O)[O-])ccc5F)c5nc(c(-c6cc(S(=O)(=O)[O-])ccc6F)c6ccc3[nH]6)C=C5)C=C4)cc2)o1
REMARK SMILES IDX 26 1 25 2 24 3 23 4 22 5 20 6 21 7 19 8 18 9 16 10 17 11
REMARK SMILES IDX 15 12 6 13 7 14 8 15 14 16 5 17 1 18 2 19 3 20 97 21 4 22
REMARK SMILES IDX 9 23 10 24 13 25 11 26 12 27 27 28 28 29 29 30 30 31 31 32
REMARK SMILES IDX 32 33 33 34 34 35 35 36 96 37 36 38 95 39 37 40 38 41 39 42
REMARK SMILES IDX 89 43 40 44 94 45 88 46 90 47 41 48 93 49 87 50 86 51 42 53
REMARK SMILES IDX 74 54 54 55 73 56 55 57 58 58 72 59 91 60 56 61 57 62 71 64
REMARK SMILES IDX 92 65 59 66 43 67 44 68 52 69 45 70 51 71 53 72 50 73 46 74
REMARK SMILES IDX 47 75 48 76 49 77 75 78 76 79 84 80 77 81 83 82 85 83 82 84
REMARK SMILES IDX 78 85 79 86 80 87 81 88 60 89 61 90 69 91 62 92 68 93 70 94
REMARK SMILES IDX 67 95 63 96 64 97 65 98 66 99
REMARK H PARENT 90 52 58 63
REMARK Flexibility Score: inf
ROOT
ATOM      1  C   UNL A   1      34.833  36.118  33.120  1.00  0.00     0.188 C 
ENDROOT
BRANCH   1   2
ATOM      2  O   UNL A   1      34.704  34.749  33.558  1.00  0.00    -0.376 OA
BRANCH   2   3
ATOM      3  C   UNL A   1      35.516  34.120  34.600  1.00  0.00     0.202 C 
BRANCH   3   4
ATOM      4  C   UNL A   1      36.627  32.790  34.214  1.00  0.00     0.261 C 
BRANCH   4   5
ATOM      5  O   UNL A   1      37.931  32.521  35.088  1.00  0.00    -0.463 OA
BRANCH   5   6
ATOM      6  C   UNL A   1      38.559  31.409  35.676  1.00  0.00     0.306 C 
ATOM      7  O   UNL A   1      38.010  30.783  36.582  1.00  0.00    -0.252 OA
BRANCH   6   8
ATOM      8  C   UNL A   1      39.860  30.688  34.865  1.00  0.00     0.132 C 
BRANCH   8   9
ATOM      9  C   UNL A   1      41.394  30.711  35.152  1.00  0.00     0.114 C 
BRANCH   9  10
ATOM     10  C   UNL A   1      41.730  29.493  35.907  1.00  0.00     0.243 C 
ATOM     11  O   UNL A   1      40.904  28.668  36.273  1.00  0.00    -0.273 OA
BRANCH  10  12
ATOM     12  N   UNL A   1      43.048  29.545  36.252  1.00  0.00    -0.222 N 
ATOM     13  C   UNL A   1      43.866  28.369  36.698  1.00  0.00     0.183 C 
ATOM     14  C   UNL A   1      45.042  29.196  37.337  1.00  0.00     0.095 C 
ATOM     15  C   UNL A   1      44.770  30.615  36.968  1.00  0.00     0.081 C 
ATOM     16  N   UNL A   1      43.615  30.805  36.434  1.00  0.00    -0.173 NA
BRANCH  13  17
ATOM     17  C   UNL A   1      44.027  26.888  35.661  1.00  0.00     0.129 A 
ATOM     18  C   UNL A   1      42.540  23.599  34.986  1.00  0.00     0.087 C 
ATOM     19  C   UNL A   1      43.351  24.825  34.953  1.00  0.00     0.101 A 
ATOM     20  C   UNL A   1      44.591  24.951  34.426  1.00  0.00     0.045 A 
ATOM     21  O   UNL A   1      42.941  25.986  35.591  1.00  0.00    -0.464 OA
ATOM     22  C   UNL A   1      44.998  26.215  34.845  1.00  0.00     0.048 A 
ENDBRANCH  13  17
BRANCH  15  23
ATOM     23  C   UNL A   1      45.768  31.642  37.204  1.00  0.00     0.050 A 
ATOM     24  C   UNL A   1      47.015  31.806  36.622  1.00  0.00     0.022 A 
ATOM     25  S   UNL A   1      45.505  32.800  38.434  1.00  0.00    -0.142 S 
ATOM     26  C   UNL A   1      47.758  32.883  37.202  1.00  0.00     0.012 A 
ATOM     27  C   UNL A   1      47.049  33.507  38.203  1.00  0.00     0.065 A 
ENDBRANCH  15  23
ENDBRANCH  10  12
ENDBRANCH   9  10
ENDBRANCH   8   9
ENDBRANCH   6   8
ENDBRANCH   5   6
ENDBRANCH   4   5
ENDBRANCH   3   4
ENDBRANCH   2   3
ENDBRANCH   1   2
BRANCH   1  28
ATOM     28  C   UNL A   1      33.473  36.892  32.945  1.00  0.00     0.188 C 
BRANCH  28  29
ATOM     29  O   UNL A   1      32.997  37.158  31.625  1.00  0.00    -0.376 OA
BRANCH  29  30
ATOM     30  C   UNL A   1      32.432  36.049  30.944  1.00  0.00     0.202 C 
BRANCH  30  31
ATOM     31  C   UNL A   1      33.210  35.562  29.711  1.00  0.00     0.261 C 
BRANCH  31  32
ATOM     32  O   UNL A   1      32.914  34.207  29.324  1.00  0.00    -0.460 OA
BRANCH  32  33
ATOM     33  C   UNL A   1      33.805  33.650  28.458  1.00  0.00     0.338 C 
ATOM     34  O   UNL A   1      33.650  33.503  27.247  1.00  0.00    -0.246 OA
BRANCH  33  35
ATOM     35  C   UNL A   1      35.103  33.417  29.135  1.00  0.00     0.060 A 
ATOM     36  C   UNL A   1      36.255  34.041  28.623  1.00  0.00     0.016 A 
ATOM     37  C   UNL A   1      35.196  32.583  30.249  1.00  0.00     0.016 A 
ATOM     38  C   UNL A   1      37.511  33.774  29.176  1.00  0.00     0.010 A 
ATOM     39  C   UNL A   1      36.456  32.293  30.784  1.00  0.00     0.010 A 
ATOM     40  C   UNL A   1      37.622  32.844  30.217  1.00  0.00    -0.014 A 
BRANCH  40  41
ATOM     41  C   UNL A   1      38.933  32.214  30.524  1.00  0.00     0.031 A 
ATOM     42  C   UNL A   1      39.816  32.917  31.517  1.00  0.00     0.074 A 
ATOM     43  C   UNL A   1      39.347  31.079  29.936  1.00  0.00     0.049 A 
ATOM     44  N   UNL A   1      41.063  32.688  31.829  1.00  0.00    -0.248 NA
ATOM     45  C   UNL A   1      39.207  34.044  32.239  1.00  0.00     0.031 C 
ATOM     46  C   UNL A   1      38.551  30.280  29.016  1.00  0.00     0.029 A 
ATOM     47  N   UNL A   1      40.543  30.409  30.005  1.00  0.00    -0.354 N 
ATOM     48  C   UNL A   1      41.396  33.656  32.769  1.00  0.00     0.074 A 
ATOM     49  C   UNL A   1      40.229  34.491  32.950  1.00  0.00     0.031 C 
ATOM     50  C   UNL A   1      39.276  29.232  28.591  1.00  0.00     0.029 A 
ATOM     51  C   UNL A   1      40.618  29.326  29.158  1.00  0.00     0.049 A 
ATOM     52  H   UNL A   1      41.277  30.679  30.604  1.00  0.00     0.167 HD
ATOM     53  C   UNL A   1      42.571  33.830  33.420  1.00  0.00     0.034 A 
ATOM     54  C   UNL A   1      41.664  28.536  28.843  1.00  0.00     0.034 A 
ATOM     55  C   UNL A   1      43.724  32.992  33.208  1.00  0.00     0.049 A 
ATOM     56  C   UNL A   1      42.997  28.810  29.502  1.00  0.00     0.074 A 
ATOM     57  C   UNL A   1      44.968  33.070  33.806  1.00  0.00     0.029 A 
ATOM     58  N   UNL A   1      43.779  31.926  32.317  1.00  0.00    -0.354 N 
ATOM     59  N   UNL A   1      43.311  29.740  30.375  1.00  0.00    -0.248 NA
ATOM     60  C   UNL A   1      44.113  27.930  29.135  1.00  0.00     0.031 C 
ATOM     61  C   UNL A   1      45.796  32.109  33.219  1.00  0.00     0.029 A 
ATOM     62  C   UNL A   1      45.044  31.364  32.323  1.00  0.00     0.049 A 
ATOM     63  H   UNL A   1      43.027  31.617  31.761  1.00  0.00     0.167 HD
ATOM     64  C   UNL A   1      44.651  29.531  30.690  1.00  0.00     0.074 A 
ATOM     65  C   UNL A   1      45.079  28.380  29.921  1.00  0.00     0.031 C 
ATOM     66  C   UNL A   1      45.455  30.220  31.542  1.00  0.00     0.034 A 
BRANCH  53  67
ATOM     67  C   UNL A   1      42.673  35.004  34.361  1.00  0.00     0.023 A 
ATOM     68  C   UNL A   1      43.064  36.280  33.918  1.00  0.00     0.031 A 
ATOM     69  C   UNL A   1      42.420  34.835  35.735  1.00  0.00     0.131 A 
ATOM     70  C   UNL A   1      43.261  37.313  34.847  1.00  0.00     0.055 A 
ATOM     71  C   UNL A   1      42.533  35.890  36.641  1.00  0.00     0.041 A 
ATOM     72  F   UNL A   1      42.076  33.633  36.223  1.00  0.00    -0.206 F 
ATOM     73  C   UNL A   1      42.972  37.135  36.201  1.00  0.00     0.022 A 
BRANCH  70  74
ATOM     74  S   UNL A   1      44.052  38.845  34.282  1.00  0.00     0.124 S 
ATOM     75  O   UNL A   1      44.625  38.427  33.005  1.00  0.00    -0.237 OA
ATOM     76  O   UNL A   1      42.928  39.770  34.206  1.00  0.00    -0.237 OA
ATOM     77  O   UNL A   1      45.029  39.133  35.330  1.00  0.00    -0.744 OA
ENDBRANCH  70  74
ENDBRANCH  53  67
BRANCH  54  78
ATOM     78  C   UNL A   1      41.525  27.454  27.823  1.00  0.00     0.023 A 
ATOM     79  C   UNL A   1      41.442  26.104  28.204  1.00  0.00     0.031 A 
ATOM     80  C   UNL A   1      41.534  27.746  26.446  1.00  0.00     0.131 A 
ATOM     81  C   UNL A   1      41.419  25.099  27.223  1.00  0.00     0.055 A 
ATOM     82  C   UNL A   1      41.450  26.745  25.476  1.00  0.00     0.041 A 
ATOM     83  F   UNL A   1      41.617  29.017  26.022  1.00  0.00    -0.206 F 
ATOM     84  C   UNL A   1      41.407  25.410  25.862  1.00  0.00     0.022 A 
BRANCH  81  85
ATOM     85  S   UNL A   1      41.504  23.366  27.756  1.00  0.00     0.124 S 
ATOM     86  O   UNL A   1      40.101  22.972  27.705  1.00  0.00    -0.237 OA
ATOM     87  O   UNL A   1      42.374  22.783  26.742  1.00  0.00    -0.237 OA
ATOM     88  O   UNL A   1      42.082  23.452  29.096  1.00  0.00    -0.744 OA
ENDBRANCH  81  85
ENDBRANCH  54  78
BRANCH  66  89
ATOM     89  C   UNL A   1      46.862  29.706  31.729  1.00  0.00     0.023 A 
ATOM     90  C   UNL A   1      47.189  28.783  32.737  1.00  0.00     0.031 A 
ATOM     91  C   UNL A   1      47.892  30.151  30.880  1.00  0.00     0.131 A 
ATOM     92  C   UNL A   1      48.522  28.380  32.908  1.00  0.00     0.055 A 
ATOM     93  C   UNL A   1      49.203  29.692  31.010  1.00  0.00     0.041 A 
ATOM     94  F   UNL A   1      47.638  31.036  29.902  1.00  0.00    -0.206 F 
ATOM     95  C   UNL A   1      49.527  28.812  32.038  1.00  0.00     0.022 A 
BRANCH  92  96
ATOM     96  S   UNL A   1      48.945  27.367  34.351  1.00  0.00     0.124 S 
ATOM     97  O   UNL A   1      47.951  27.802  35.328  1.00  0.00    -0.237 OA
ATOM     98  O   UNL A   1      48.783  26.011  33.840  1.00  0.00    -0.237 OA
ATOM     99  O   UNL A   1      50.321  27.756  34.652  1.00  0.00    -0.744 OA
ENDBRANCH  92  96
ENDBRANCH  66  89
ENDBRANCH  40  41
ENDBRANCH  33  35
ENDBRANCH  32  33
ENDBRANCH  31  32
ENDBRANCH  30  31
ENDBRANCH  29  30
ENDBRANCH  28  29
ENDBRANCH   1  28
TORSDOF 25
ENDMDL
