MODEL 1
REMARK VINA RESULT:     -10.0      0.000      0.000
REMARK SMILES Cc1ccn2c(CC(=O)OCCOCCOCCOC(=O)c3ccc(-c4c5nc(c(-c6cc(S(=O)(=O)[O-])ccc6F)c6ccc([nH]6)c(-c6cc(S(=O)(=O)[O-])ccc6F)c6nc(c(-c7cc(S(=O)(=O)[O-])ccc7F)c7ccc4[nH]7)C=C6)C=C5)cc3)nnc2c1
REMARK SMILES IDX 15 1 14 2 13 3 12 4 11 5 10 6 8 7 9 8 7 9 6 10 1 11 2 12
REMARK SMILES IDX 3 13 88 14 4 15 87 16 5 17 86 18 85 19 16 20 17 21 18 22
REMARK SMILES IDX 19 23 20 24 21 25 22 26 23 27 84 28 24 29 83 30 25 31 26 32
REMARK SMILES IDX 27 33 77 34 28 35 82 36 76 37 78 38 29 39 81 40 75 41 74 42
REMARK SMILES IDX 30 44 62 45 42 46 61 47 43 48 46 49 60 50 79 51 44 52 45 53
REMARK SMILES IDX 59 55 80 56 47 57 31 58 32 59 40 60 33 61 39 62 41 63 38 64
REMARK SMILES IDX 34 65 35 66 36 67 37 68 63 69 64 70 72 71 65 72 71 73 73 74
REMARK SMILES IDX 70 75 66 76 67 77 68 78 69 79 48 80 49 81 57 82 50 83 56 84
REMARK SMILES IDX 58 85 55 86 51 87 52 88 53 89 54 90
REMARK H PARENT 78 43 46 54
REMARK Flexibility Score: inf
ROOT
ATOM      1  C   UNL A   1      32.276  36.018  30.717  1.00  0.00     0.188 C 
ENDROOT
BRANCH   1   2
ATOM      2  C   UNL A   1      33.198  37.023  31.421  1.00  0.00     0.188 C 
BRANCH   2   3
ATOM      3  O   UNL A   1      32.935  37.365  32.769  1.00  0.00    -0.376 OA
BRANCH   3   4
ATOM      4  C   UNL A   1      33.840  36.912  33.762  1.00  0.00     0.202 C 
BRANCH   4   5
ATOM      5  C   UNL A   1      34.510  35.548  33.543  1.00  0.00     0.261 C 
BRANCH   5   6
ATOM      6  O   UNL A   1      35.866  35.648  33.045  1.00  0.00    -0.463 OA
BRANCH   6   7
ATOM      7  C   UNL A   1      36.650  34.569  33.275  1.00  0.00     0.313 C 
ATOM      8  O   UNL A   1      36.406  33.774  34.183  1.00  0.00    -0.252 OA
BRANCH   7   9
ATOM      9  C   UNL A   1      37.734  34.252  32.272  1.00  0.00     0.200 C 
BRANCH   9  10
ATOM     10  C   UNL A   1      39.181  34.198  32.558  1.00  0.00     0.148 A 
ATOM     11  C   UNL A   1      43.792  34.303  29.473  1.00  0.00     0.044 C 
ATOM     12  C   UNL A   1      42.529  34.399  30.260  1.00  0.00    -0.046 A 
ATOM     13  C   UNL A   1      41.260  34.399  29.533  1.00  0.00     0.022 A 
ATOM     14  C   UNL A   1      42.556  34.468  31.608  1.00  0.00     0.053 A 
ATOM     15  C   UNL A   1      40.110  34.341  30.223  1.00  0.00     0.095 A 
ATOM     16  C   UNL A   1      41.342  34.443  32.330  1.00  0.00     0.161 A 
ATOM     17  N   UNL A   1      40.164  34.314  31.609  1.00  0.00    -0.286 N 
ATOM     18  N   UNL A   1      41.081  34.504  33.613  1.00  0.00    -0.130 NA
ATOM     19  N   UNL A   1      39.731  34.394  33.745  1.00  0.00    -0.134 NA
ENDBRANCH   9  10
ENDBRANCH   7   9
ENDBRANCH   6   7
ENDBRANCH   5   6
ENDBRANCH   4   5
ENDBRANCH   3   4
ENDBRANCH   2   3
ENDBRANCH   1   2
BRANCH   1  20
ATOM     20  O   UNL A   1      32.804  35.009  29.899  1.00  0.00    -0.376 OA
BRANCH  20  21
ATOM     21  C   UNL A   1      34.129  34.595  30.139  1.00  0.00     0.202 C 
BRANCH  21  22
ATOM     22  C   UNL A   1      34.502  33.125  30.463  1.00  0.00     0.261 C 
BRANCH  22  23
ATOM     23  O   UNL A   1      34.391  32.179  29.378  1.00  0.00    -0.460 OA
BRANCH  23  24
ATOM     24  C   UNL A   1      35.100  32.460  28.233  1.00  0.00     0.338 C 
ATOM     25  O   UNL A   1      34.934  33.412  27.516  1.00  0.00    -0.246 OA
BRANCH  24  26
ATOM     26  C   UNL A   1      36.317  31.567  28.202  1.00  0.00     0.060 A 
ATOM     27  C   UNL A   1      36.274  30.227  27.807  1.00  0.00     0.016 A 
ATOM     28  C   UNL A   1      37.475  32.043  28.830  1.00  0.00     0.016 A 
ATOM     29  C   UNL A   1      37.329  29.353  28.154  1.00  0.00     0.010 A 
ATOM     30  C   UNL A   1      38.517  31.165  29.186  1.00  0.00     0.010 A 
ATOM     31  C   UNL A   1      38.442  29.794  28.902  1.00  0.00    -0.014 A 
BRANCH  31  32
ATOM     32  C   UNL A   1      39.673  28.955  28.993  1.00  0.00     0.031 A 
ATOM     33  C   UNL A   1      40.001  28.709  30.407  1.00  0.00     0.074 A 
ATOM     34  C   UNL A   1      40.507  28.365  28.097  1.00  0.00     0.049 A 
ATOM     35  N   UNL A   1      40.973  29.296  31.020  1.00  0.00    -0.248 NA
ATOM     36  C   UNL A   1      39.083  27.960  31.265  1.00  0.00     0.031 C 
ATOM     37  C   UNL A   1      40.550  28.503  26.661  1.00  0.00     0.029 A 
ATOM     38  N   UNL A   1      41.520  27.446  28.279  1.00  0.00    -0.354 N 
ATOM     39  C   UNL A   1      40.942  28.798  32.305  1.00  0.00     0.074 A 
ATOM     40  C   UNL A   1      39.649  28.172  32.455  1.00  0.00     0.031 C 
ATOM     41  C   UNL A   1      41.209  27.482  26.067  1.00  0.00     0.029 A 
ATOM     42  C   UNL A   1      41.890  26.751  27.120  1.00  0.00     0.049 A 
ATOM     43  H   UNL A   1      41.949  27.292  29.152  1.00  0.00     0.167 HD
ATOM     44  C   UNL A   1      42.091  28.712  33.029  1.00  0.00     0.034 A 
ATOM     45  C   UNL A   1      42.903  25.875  26.874  1.00  0.00     0.034 A 
ATOM     46  C   UNL A   1      43.148  29.500  32.439  1.00  0.00     0.049 A 
ATOM     47  C   UNL A   1      43.952  26.104  27.877  1.00  0.00     0.074 A 
ATOM     48  C   UNL A   1      43.299  30.832  32.101  1.00  0.00     0.029 A 
ATOM     49  N   UNL A   1      44.146  28.832  31.772  1.00  0.00    -0.354 N 
ATOM     50  N   UNL A   1      44.769  27.116  27.830  1.00  0.00    -0.248 NA
ATOM     51  C   UNL A   1      43.791  25.471  29.173  1.00  0.00     0.031 C 
ATOM     52  C   UNL A   1      44.090  30.837  30.918  1.00  0.00     0.029 A 
ATOM     53  C   UNL A   1      44.441  29.520  30.625  1.00  0.00     0.049 A 
ATOM     54  H   UNL A   1      44.576  27.997  32.068  1.00  0.00     0.167 HD
ATOM     55  C   UNL A   1      44.782  27.571  29.135  1.00  0.00     0.074 A 
ATOM     56  C   UNL A   1      44.267  26.459  29.934  1.00  0.00     0.031 C 
ATOM     57  C   UNL A   1      44.923  28.899  29.410  1.00  0.00     0.034 A 
BRANCH  44  58
ATOM     58  C   UNL A   1      42.343  27.602  34.016  1.00  0.00     0.023 A 
ATOM     59  C   UNL A   1      43.137  26.479  33.720  1.00  0.00     0.031 A 
ATOM     60  C   UNL A   1      41.977  27.757  35.365  1.00  0.00     0.131 A 
ATOM     61  C   UNL A   1      43.522  25.566  34.704  1.00  0.00     0.055 A 
ATOM     62  C   UNL A   1      42.425  26.889  36.365  1.00  0.00     0.041 A 
ATOM     63  F   UNL A   1      41.232  28.800  35.763  1.00  0.00    -0.206 F 
ATOM     64  C   UNL A   1      43.203  25.784  36.038  1.00  0.00     0.022 A 
BRANCH  61  65
ATOM     65  S   UNL A   1      44.467  24.087  34.249  1.00  0.00     0.124 S 
ATOM     66  O   UNL A   1      43.445  23.257  33.622  1.00  0.00    -0.237 OA
ATOM     67  O   UNL A   1      45.472  24.649  33.351  1.00  0.00    -0.237 OA
ATOM     68  O   UNL A   1      44.983  23.602  35.527  1.00  0.00    -0.744 OA
ENDBRANCH  61  65
ENDBRANCH  44  58
BRANCH  45  69
ATOM     69  C   UNL A   1      42.809  24.585  26.139  1.00  0.00     0.023 A 
ATOM     70  C   UNL A   1      41.881  23.612  26.540  1.00  0.00     0.031 A 
ATOM     71  C   UNL A   1      43.827  24.177  25.252  1.00  0.00     0.131 A 
ATOM     72  C   UNL A   1      42.052  22.271  26.161  1.00  0.00     0.055 A 
ATOM     73  C   UNL A   1      43.979  22.844  24.851  1.00  0.00     0.041 A 
ATOM     74  F   UNL A   1      44.749  25.051  24.817  1.00  0.00    -0.206 F 
ATOM     75  C   UNL A   1      43.102  21.877  25.328  1.00  0.00     0.022 A 
BRANCH  72  76
ATOM     76  S   UNL A   1      40.950  21.002  26.839  1.00  0.00     0.124 S 
ATOM     77  O   UNL A   1      41.771  19.795  26.770  1.00  0.00    -0.237 OA
ATOM     78  O   UNL A   1      40.698  21.516  28.180  1.00  0.00    -0.237 OA
ATOM     79  O   UNL A   1      39.813  21.021  25.923  1.00  0.00    -0.744 OA
ENDBRANCH  72  76
ENDBRANCH  45  69
BRANCH  57  80
ATOM     80  C   UNL A   1      45.392  29.838  28.319  1.00  0.00     0.023 A 
ATOM     81  C   UNL A   1      46.767  30.132  28.302  1.00  0.00     0.031 A 
ATOM     82  C   UNL A   1      44.555  30.598  27.480  1.00  0.00     0.131 A 
ATOM     83  C   UNL A   1      47.261  31.185  27.525  1.00  0.00     0.055 A 
ATOM     84  C   UNL A   1      45.063  31.604  26.648  1.00  0.00     0.041 A 
ATOM     85  F   UNL A   1      43.223  30.454  27.496  1.00  0.00    -0.206 F 
ATOM     86  C   UNL A   1      46.419  31.916  26.684  1.00  0.00     0.022 A 
BRANCH  83  87
ATOM     87  S   UNL A   1      48.975  31.732  27.731  1.00  0.00     0.124 S 
ATOM     88  O   UNL A   1      49.648  31.064  26.621  1.00  0.00    -0.237 OA
ATOM     89  O   UNL A   1      48.855  33.184  27.609  1.00  0.00    -0.237 OA
ATOM     90  O   UNL A   1      49.342  31.255  29.061  1.00  0.00    -0.744 OA
ENDBRANCH  83  87
ENDBRANCH  57  80
ENDBRANCH  31  32
ENDBRANCH  24  26
ENDBRANCH  23  24
ENDBRANCH  22  23
ENDBRANCH  21  22
ENDBRANCH  20  21
ENDBRANCH   1  20
TORSDOF 21
ENDMDL
MODEL 2
REMARK VINA RESULT:      -9.8      4.154      7.684
REMARK SMILES Cc1ccn2c(CC(=O)OCCOCCOCCOC(=O)c3ccc(-c4c5nc(c(-c6cc(S(=O)(=O)[O-])ccc6F)c6ccc([nH]6)c(-c6cc(S(=O)(=O)[O-])ccc6F)c6nc(c(-c7cc(S(=O)(=O)[O-])ccc7F)c7ccc4[nH]7)C=C6)C=C5)cc3)nnc2c1
REMARK SMILES IDX 15 1 14 2 13 3 12 4 11 5 10 6 8 7 9 8 7 9 6 10 1 11 2 12
REMARK SMILES IDX 3 13 88 14 4 15 87 16 5 17 86 18 85 19 16 20 17 21 18 22
REMARK SMILES IDX 19 23 20 24 21 25 22 26 23 27 84 28 24 29 83 30 25 31 26 32
REMARK SMILES IDX 27 33 77 34 28 35 82 36 76 37 78 38 29 39 81 40 75 41 74 42
REMARK SMILES IDX 30 44 62 45 42 46 61 47 43 48 46 49 60 50 79 51 44 52 45 53
REMARK SMILES IDX 59 55 80 56 47 57 31 58 32 59 40 60 33 61 39 62 41 63 38 64
REMARK SMILES IDX 34 65 35 66 36 67 37 68 63 69 64 70 72 71 65 72 71 73 73 74
REMARK SMILES IDX 70 75 66 76 67 77 68 78 69 79 48 80 49 81 57 82 50 83 56 84
REMARK SMILES IDX 58 85 55 86 51 87 52 88 53 89 54 90
REMARK H PARENT 78 43 46 54
REMARK Flexibility Score: inf
ROOT
ATOM      1  C   UNL A   1      31.442  29.076  24.487  1.00  0.00     0.188 C 
ENDROOT
BRANCH   1   2
ATOM      2  C   UNL A   1      32.777  28.730  23.815  1.00  0.00     0.188 C 
BRANCH   2   3
ATOM      3  O   UNL A   1      32.766  28.216  22.496  1.00  0.00    -0.376 OA
BRANCH   3   4
ATOM      4  C   UNL A   1      33.570  27.083  22.213  1.00  0.00     0.202 C 
BRANCH   4   5
ATOM      5  C   UNL A   1      32.881  25.857  21.601  1.00  0.00     0.261 C 
BRANCH   5   6
ATOM      6  O   UNL A   1      32.306  24.967  22.589  1.00  0.00    -0.463 OA
BRANCH   6   7
ATOM      7  C   UNL A   1      33.003  23.831  22.822  1.00  0.00     0.313 C 
ATOM      8  O   UNL A   1      33.770  23.359  21.982  1.00  0.00    -0.252 OA
BRANCH   7   9
ATOM      9  C   UNL A   1      32.963  23.246  24.214  1.00  0.00     0.200 C 
BRANCH   9  10
ATOM     10  C   UNL A   1      33.752  22.091  24.684  1.00  0.00     0.148 A 
ATOM     11  C   UNL A   1      33.498  16.601  23.916  1.00  0.00     0.044 C 
ATOM     12  C   UNL A   1      33.593  18.087  23.993  1.00  0.00    -0.046 A 
ATOM     13  C   UNL A   1      32.528  18.880  23.378  1.00  0.00     0.022 A 
ATOM     14  C   UNL A   1      34.625  18.685  24.626  1.00  0.00     0.053 A 
ATOM     15  C   UNL A   1      32.516  20.210  23.555  1.00  0.00     0.095 A 
ATOM     16  C   UNL A   1      34.627  20.089  24.780  1.00  0.00     0.161 A 
ATOM     17  N   UNL A   1      33.535  20.794  24.294  1.00  0.00    -0.286 N 
ATOM     18  N   UNL A   1      35.486  20.911  25.331  1.00  0.00    -0.130 NA
ATOM     19  N   UNL A   1      34.955  22.160  25.230  1.00  0.00    -0.134 NA
ENDBRANCH   9  10
ENDBRANCH   7   9
ENDBRANCH   6   7
ENDBRANCH   5   6
ENDBRANCH   4   5
ENDBRANCH   3   4
ENDBRANCH   2   3
ENDBRANCH   1   2
BRANCH   1  20
ATOM     20  O   UNL A   1      31.395  29.472  25.832  1.00  0.00    -0.376 OA
BRANCH  20  21
ATOM     21  C   UNL A   1      32.172  30.582  26.216  1.00  0.00     0.202 C 
BRANCH  21  22
ATOM     22  C   UNL A   1      33.160  30.540  27.410  1.00  0.00     0.261 C 
BRANCH  22  23
ATOM     23  O   UNL A   1      34.368  31.319  27.273  1.00  0.00    -0.460 OA
BRANCH  23  24
ATOM     24  C   UNL A   1      34.929  31.808  28.431  1.00  0.00     0.338 C 
ATOM     25  O   UNL A   1      34.404  32.568  29.202  1.00  0.00    -0.246 OA
BRANCH  24  26
ATOM     26  C   UNL A   1      36.163  30.995  28.735  1.00  0.00     0.060 A 
ATOM     27  C   UNL A   1      37.319  31.538  29.303  1.00  0.00     0.016 A 
ATOM     28  C   UNL A   1      36.226  29.703  28.196  1.00  0.00     0.016 A 
ATOM     29  C   UNL A   1      38.546  30.842  29.215  1.00  0.00     0.010 A 
ATOM     30  C   UNL A   1      37.454  29.020  28.098  1.00  0.00     0.010 A 
ATOM     31  C   UNL A   1      38.646  29.597  28.557  1.00  0.00    -0.014 A 
BRANCH  31  32
ATOM     32  C   UNL A   1      39.856  28.742  28.736  1.00  0.00     0.031 A 
ATOM     33  C   UNL A   1      40.109  28.536  30.172  1.00  0.00     0.074 A 
ATOM     34  C   UNL A   1      40.724  28.110  27.902  1.00  0.00     0.049 A 
ATOM     35  N   UNL A   1      41.059  29.127  30.815  1.00  0.00    -0.248 NA
ATOM     36  C   UNL A   1      39.136  27.830  31.005  1.00  0.00     0.031 C 
ATOM     37  C   UNL A   1      40.840  28.202  26.467  1.00  0.00     0.029 A 
ATOM     38  N   UNL A   1      41.710  27.182  28.164  1.00  0.00    -0.354 N 
ATOM     39  C   UNL A   1      40.955  28.670  32.112  1.00  0.00     0.074 A 
ATOM     40  C   UNL A   1      39.645  28.071  32.215  1.00  0.00     0.031 C 
ATOM     41  C   UNL A   1      41.510  27.152  25.939  1.00  0.00     0.029 A 
ATOM     42  C   UNL A   1      42.125  26.444  27.048  1.00  0.00     0.049 A 
ATOM     43  H   UNL A   1      42.092  27.049  29.062  1.00  0.00     0.167 HD
ATOM     44  C   UNL A   1      42.064  28.589  32.895  1.00  0.00     0.034 A 
ATOM     45  C   UNL A   1      43.133  25.544  26.881  1.00  0.00     0.034 A 
ATOM     46  C   UNL A   1      43.163  29.341  32.335  1.00  0.00     0.049 A 
ATOM     47  C   UNL A   1      44.135  25.788  27.928  1.00  0.00     0.074 A 
ATOM     48  C   UNL A   1      43.355  30.659  31.964  1.00  0.00     0.029 A 
ATOM     49  N   UNL A   1      44.182  28.636  31.741  1.00  0.00    -0.354 N 
ATOM     50  N   UNL A   1      44.971  26.785  27.891  1.00  0.00    -0.248 NA
ATOM     51  C   UNL A   1      43.898  25.200  29.232  1.00  0.00     0.031 C 
ATOM     52  C   UNL A   1      44.204  30.614  30.823  1.00  0.00     0.029 A 
ATOM     53  C   UNL A   1      44.545  29.282  30.589  1.00  0.00     0.049 A 
ATOM     54  H   UNL A   1      44.582  27.804  32.084  1.00  0.00     0.167 HD
ATOM     55  C   UNL A   1      44.926  27.281  29.180  1.00  0.00     0.074 A 
ATOM     56  C   UNL A   1      44.352  26.203  29.986  1.00  0.00     0.031 C 
ATOM     57  C   UNL A   1      45.077  28.615  29.420  1.00  0.00     0.034 A 
BRANCH  44  58
ATOM     58  C   UNL A   1      42.246  27.508  33.927  1.00  0.00     0.023 A 
ATOM     59  C   UNL A   1      43.023  26.356  33.702  1.00  0.00     0.031 A 
ATOM     60  C   UNL A   1      41.829  27.717  35.254  1.00  0.00     0.131 A 
ATOM     61  C   UNL A   1      43.344  25.468  34.731  1.00  0.00     0.055 A 
ATOM     62  C   UNL A   1      42.213  26.872  36.300  1.00  0.00     0.041 A 
ATOM     63  F   UNL A   1      41.094  28.790  35.586  1.00  0.00    -0.206 F 
ATOM     64  C   UNL A   1      42.975  25.739  36.043  1.00  0.00     0.022 A 
BRANCH  61  65
ATOM     65  S   UNL A   1      44.270  23.953  34.366  1.00  0.00     0.124 S 
ATOM     66  O   UNL A   1      43.527  22.955  35.128  1.00  0.00    -0.237 OA
ATOM     67  O   UNL A   1      44.138  23.874  32.913  1.00  0.00    -0.237 OA
ATOM     68  O   UNL A   1      45.616  24.247  34.849  1.00  0.00    -0.744 OA
ENDBRANCH  61  65
ENDBRANCH  44  58
BRANCH  45  69
ATOM     69  C   UNL A   1      43.053  24.233  26.182  1.00  0.00     0.023 A 
ATOM     70  C   UNL A   1      41.969  23.374  26.417  1.00  0.00     0.031 A 
ATOM     71  C   UNL A   1      44.179  23.684  25.532  1.00  0.00     0.131 A 
ATOM     72  C   UNL A   1      42.071  22.006  26.123  1.00  0.00     0.055 A 
ATOM     73  C   UNL A   1      44.268  22.324  25.212  1.00  0.00     0.041 A 
ATOM     74  F   UNL A   1      45.254  24.443  25.266  1.00  0.00    -0.206 F 
ATOM     75  C   UNL A   1      43.218  21.471  25.532  1.00  0.00     0.022 A 
BRANCH  72  76
ATOM     76  S   UNL A   1      40.731  20.884  26.603  1.00  0.00     0.124 S 
ATOM     77  O   UNL A   1      40.778  20.936  28.062  1.00  0.00    -0.237 OA
ATOM     78  O   UNL A   1      39.575  21.527  25.987  1.00  0.00    -0.237 OA
ATOM     79  O   UNL A   1      41.138  19.608  26.023  1.00  0.00    -0.744 OA
ENDBRANCH  72  76
ENDBRANCH  45  69
BRANCH  57  80
ATOM     80  C   UNL A   1      45.616  29.511  28.326  1.00  0.00     0.023 A 
ATOM     81  C   UNL A   1      46.996  29.780  28.368  1.00  0.00     0.031 A 
ATOM     82  C   UNL A   1      44.836  30.258  27.423  1.00  0.00     0.131 A 
ATOM     83  C   UNL A   1      47.547  30.799  27.584  1.00  0.00     0.055 A 
ATOM     84  C   UNL A   1      45.404  31.229  26.587  1.00  0.00     0.041 A 
ATOM     85  F   UNL A   1      43.502  30.139  27.378  1.00  0.00    -0.206 F 
ATOM     86  C   UNL A   1      46.762  31.518  26.681  1.00  0.00     0.022 A 
BRANCH  83  87
ATOM     87  S   UNL A   1      49.259  31.322  27.858  1.00  0.00     0.124 S 
ATOM     88  O   UNL A   1      49.769  31.440  26.495  1.00  0.00    -0.237 OA
ATOM     89  O   UNL A   1      49.088  32.585  28.574  1.00  0.00    -0.237 OA
ATOM     90  O   UNL A   1      49.838  30.241  28.649  1.00  0.00    -0.744 OA
ENDBRANCH  83  87
ENDBRANCH  57  80
ENDBRANCH  31  32
ENDBRANCH  24  26
ENDBRANCH  23  24
ENDBRANCH  22  23
ENDBRANCH  21  22
ENDBRANCH  20  21
ENDBRANCH   1  20
TORSDOF 21
ENDMDL
MODEL 3
REMARK VINA RESULT:      -9.7      4.065      7.021
REMARK SMILES Cc1ccn2c(CC(=O)OCCOCCOCCOC(=O)c3ccc(-c4c5nc(c(-c6cc(S(=O)(=O)[O-])ccc6F)c6ccc([nH]6)c(-c6cc(S(=O)(=O)[O-])ccc6F)c6nc(c(-c7cc(S(=O)(=O)[O-])ccc7F)c7ccc4[nH]7)C=C6)C=C5)cc3)nnc2c1
REMARK SMILES IDX 15 1 14 2 13 3 12 4 11 5 10 6 8 7 9 8 7 9 6 10 1 11 2 12
REMARK SMILES IDX 3 13 88 14 4 15 87 16 5 17 86 18 85 19 16 20 17 21 18 22
REMARK SMILES IDX 19 23 20 24 21 25 22 26 23 27 84 28 24 29 83 30 25 31 26 32
REMARK SMILES IDX 27 33 77 34 28 35 82 36 76 37 78 38 29 39 81 40 75 41 74 42
REMARK SMILES IDX 30 44 62 45 42 46 61 47 43 48 46 49 60 50 79 51 44 52 45 53
REMARK SMILES IDX 59 55 80 56 47 57 31 58 32 59 40 60 33 61 39 62 41 63 38 64
REMARK SMILES IDX 34 65 35 66 36 67 37 68 63 69 64 70 72 71 65 72 71 73 73 74
REMARK SMILES IDX 70 75 66 76 67 77 68 78 69 79 48 80 49 81 57 82 50 83 56 84
REMARK SMILES IDX 58 85 55 86 51 87 52 88 53 89 54 90
REMARK H PARENT 78 43 46 54
REMARK Flexibility Score: inf
ROOT
ATOM      1  C   UNL A   1      32.378  28.015  26.362  1.00  0.00     0.188 C 
ENDROOT
BRANCH   1   2
ATOM      2  C   UNL A   1      33.770  27.450  26.048  1.00  0.00     0.188 C 
BRANCH   2   3
ATOM      3  O   UNL A   1      33.903  26.489  25.018  1.00  0.00    -0.376 OA
BRANCH   3   4
ATOM      4  C   UNL A   1      34.355  25.192  25.368  1.00  0.00     0.202 C 
BRANCH   4   5
ATOM      5  C   UNL A   1      33.394  24.295  26.161  1.00  0.00     0.261 C 
BRANCH   5   6
ATOM      6  O   UNL A   1      32.830  23.219  25.373  1.00  0.00    -0.463 OA
BRANCH   6   7
ATOM      7  C   UNL A   1      31.520  23.351  25.063  1.00  0.00     0.313 C 
ATOM      8  O   UNL A   1      30.652  23.405  25.934  1.00  0.00    -0.252 OA
BRANCH   7   9
ATOM      9  C   UNL A   1      31.155  23.621  23.622  1.00  0.00     0.200 C 
BRANCH   9  10
ATOM     10  C   UNL A   1      31.364  24.894  22.905  1.00  0.00     0.148 A 
ATOM     11  C   UNL A   1      28.854  29.843  22.897  1.00  0.00     0.044 C 
ATOM     12  C   UNL A   1      29.562  28.537  23.025  1.00  0.00    -0.046 A 
ATOM     13  C   UNL A   1      28.956  27.501  23.862  1.00  0.00     0.022 A 
ATOM     14  C   UNL A   1      30.723  28.310  22.374  1.00  0.00     0.053 A 
ATOM     15  C   UNL A   1      29.498  26.274  23.881  1.00  0.00     0.095 A 
ATOM     16  C   UNL A   1      31.310  27.026  22.426  1.00  0.00     0.161 A 
ATOM     17  N   UNL A   1      30.637  26.036  23.126  1.00  0.00    -0.286 N 
ATOM     18  N   UNL A   1      32.412  26.543  21.906  1.00  0.00    -0.130 NA
ATOM     19  N   UNL A   1      32.461  25.225  22.245  1.00  0.00    -0.134 NA
ENDBRANCH   9  10
ENDBRANCH   7   9
ENDBRANCH   6   7
ENDBRANCH   5   6
ENDBRANCH   4   5
ENDBRANCH   3   4
ENDBRANCH   2   3
ENDBRANCH   1   2
BRANCH   1  20
ATOM     20  O   UNL A   1      31.850  29.081  25.619  1.00  0.00    -0.376 OA
BRANCH  20  21
ATOM     21  C   UNL A   1      32.058  30.386  26.105  1.00  0.00     0.202 C 
BRANCH  21  22
ATOM     22  C   UNL A   1      32.943  30.688  27.343  1.00  0.00     0.261 C 
BRANCH  22  23
ATOM     23  O   UNL A   1      34.013  31.638  27.152  1.00  0.00    -0.460 OA
BRANCH  23  24
ATOM     24  C   UNL A   1      34.766  31.958  28.259  1.00  0.00     0.338 C 
ATOM     25  O   UNL A   1      34.392  32.601  29.204  1.00  0.00    -0.246 OA
BRANCH  24  26
ATOM     26  C   UNL A   1      36.014  31.109  28.240  1.00  0.00     0.060 A 
ATOM     27  C   UNL A   1      36.007  29.740  27.957  1.00  0.00     0.016 A 
ATOM     28  C   UNL A   1      37.180  31.677  28.769  1.00  0.00     0.016 A 
ATOM     29  C   UNL A   1      37.111  28.937  28.321  1.00  0.00     0.010 A 
ATOM     30  C   UNL A   1      38.272  30.869  29.142  1.00  0.00     0.010 A 
ATOM     31  C   UNL A   1      38.239  29.478  28.974  1.00  0.00    -0.014 A 
BRANCH  31  32
ATOM     32  C   UNL A   1      39.505  28.694  29.072  1.00  0.00     0.031 A 
ATOM     33  C   UNL A   1      39.839  28.466  30.487  1.00  0.00     0.074 A 
ATOM     34  C   UNL A   1      40.368  28.139  28.180  1.00  0.00     0.049 A 
ATOM     35  N   UNL A   1      40.782  29.097  31.103  1.00  0.00    -0.248 NA
ATOM     36  C   UNL A   1      38.952  27.680  31.344  1.00  0.00     0.031 C 
ATOM     37  C   UNL A   1      40.409  28.276  26.744  1.00  0.00     0.029 A 
ATOM     38  N   UNL A   1      41.419  27.266  28.367  1.00  0.00    -0.354 N 
ATOM     39  C   UNL A   1      40.769  28.601  32.389  1.00  0.00     0.074 A 
ATOM     40  C   UNL A   1      39.504  27.919  32.536  1.00  0.00     0.031 C 
ATOM     41  C   UNL A   1      41.114  27.284  26.155  1.00  0.00     0.029 A 
ATOM     42  C   UNL A   1      41.824  26.585  27.212  1.00  0.00     0.049 A 
ATOM     43  H   UNL A   1      41.852  27.134  29.243  1.00  0.00     0.167 HD
ATOM     44  C   UNL A   1      41.917  28.567  33.116  1.00  0.00     0.034 A 
ATOM     45  C   UNL A   1      42.875  25.754  26.972  1.00  0.00     0.034 A 
ATOM     46  C   UNL A   1      42.941  29.400  32.528  1.00  0.00     0.049 A 
ATOM     47  C   UNL A   1      43.910  26.032  27.978  1.00  0.00     0.074 A 
ATOM     48  C   UNL A   1      43.034  30.736  32.187  1.00  0.00     0.029 A 
ATOM     49  N   UNL A   1      43.970  28.775  31.866  1.00  0.00    -0.354 N 
ATOM     50  N   UNL A   1      44.681  27.079  27.931  1.00  0.00    -0.248 NA
ATOM     51  C   UNL A   1      43.772  25.396  29.274  1.00  0.00     0.031 C 
ATOM     52  C   UNL A   1      43.828  30.774  31.007  1.00  0.00     0.029 A 
ATOM     53  C   UNL A   1      44.237  29.472  30.718  1.00  0.00     0.049 A 
ATOM     54  H   UNL A   1      44.435  27.961  32.166  1.00  0.00     0.167 HD
ATOM     55  C   UNL A   1      44.669  27.537  29.235  1.00  0.00     0.074 A 
ATOM     56  C   UNL A   1      44.201  26.405  30.034  1.00  0.00     0.031 C 
ATOM     57  C   UNL A   1      44.751  28.870  29.507  1.00  0.00     0.034 A 
BRANCH  44  58
ATOM     58  C   UNL A   1      42.214  27.472  34.107  1.00  0.00     0.023 A 
ATOM     59  C   UNL A   1      42.996  26.345  33.792  1.00  0.00     0.031 A 
ATOM     60  C   UNL A   1      41.909  27.646  35.469  1.00  0.00     0.131 A 
ATOM     61  C   UNL A   1      43.426  25.447  34.771  1.00  0.00     0.055 A 
ATOM     62  C   UNL A   1      42.402  26.792  36.460  1.00  0.00     0.041 A 
ATOM     63  F   UNL A   1      41.179  28.694  35.884  1.00  0.00    -0.206 F 
ATOM     64  C   UNL A   1      43.166  25.684  36.115  1.00  0.00     0.022 A 
BRANCH  61  65
ATOM     65  S   UNL A   1      44.353  23.963  34.296  1.00  0.00     0.124 S 
ATOM     66  O   UNL A   1      43.937  23.778  32.911  1.00  0.00    -0.237 OA
ATOM     67  O   UNL A   1      45.731  24.404  34.495  1.00  0.00    -0.237 OA
ATOM     68  O   UNL A   1      43.887  22.950  35.239  1.00  0.00    -0.744 OA
ENDBRANCH  61  65
ENDBRANCH  44  58
BRANCH  45  69
ATOM     69  C   UNL A   1      42.840  24.460  26.239  1.00  0.00     0.023 A 
ATOM     70  C   UNL A   1      41.796  23.551  26.464  1.00  0.00     0.031 A 
ATOM     71  C   UNL A   1      43.980  23.976  25.562  1.00  0.00     0.131 A 
ATOM     72  C   UNL A   1      41.951  22.196  26.132  1.00  0.00     0.055 A 
ATOM     73  C   UNL A   1      44.120  22.629  25.204  1.00  0.00     0.041 A 
ATOM     74  F   UNL A   1      45.019  24.786  25.303  1.00  0.00    -0.206 F 
ATOM     75  C   UNL A   1      43.111  21.725  25.514  1.00  0.00     0.022 A 
BRANCH  72  76
ATOM     76  S   UNL A   1      40.664  21.007  26.598  1.00  0.00     0.124 S 
ATOM     77  O   UNL A   1      39.445  21.649  26.111  1.00  0.00    -0.237 OA
ATOM     78  O   UNL A   1      41.084  19.817  25.866  1.00  0.00    -0.237 OA
ATOM     79  O   UNL A   1      40.781  20.939  28.051  1.00  0.00    -0.744 OA
ENDBRANCH  72  76
ENDBRANCH  45  69
BRANCH  57  80
ATOM     80  C   UNL A   1      45.182  29.827  28.415  1.00  0.00     0.023 A 
ATOM     81  C   UNL A   1      46.549  30.152  28.380  1.00  0.00     0.031 A 
ATOM     82  C   UNL A   1      44.315  30.572  27.593  1.00  0.00     0.131 A 
ATOM     83  C   UNL A   1      47.007  31.221  27.602  1.00  0.00     0.055 A 
ATOM     84  C   UNL A   1      44.788  31.594  26.760  1.00  0.00     0.041 A 
ATOM     85  F   UNL A   1      42.987  30.397  27.628  1.00  0.00    -0.206 F 
ATOM     86  C   UNL A   1      46.137  31.938  26.779  1.00  0.00     0.022 A 
BRANCH  83  87
ATOM     87  S   UNL A   1      48.711  31.806  27.786  1.00  0.00     0.124 S 
ATOM     88  O   UNL A   1      48.955  32.457  26.503  1.00  0.00    -0.237 OA
ATOM     89  O   UNL A   1      48.608  32.705  28.935  1.00  0.00    -0.237 OA
ATOM     90  O   UNL A   1      49.480  30.589  28.025  1.00  0.00    -0.744 OA
ENDBRANCH  83  87
ENDBRANCH  57  80
ENDBRANCH  31  32
ENDBRANCH  24  26
ENDBRANCH  23  24
ENDBRANCH  22  23
ENDBRANCH  21  22
ENDBRANCH  20  21
ENDBRANCH   1  20
TORSDOF 21
ENDMDL
