MODEL 1
REMARK VINA RESULT:     -10.8      0.000      0.000
REMARK SMILES O=C(C[C@H]1CN(C(=O)c2c(F)cccc2Cl)CCO1)OCCOCCOCCOC(=O)c1ccc(-c2c3nc(c(-c4cc(S(=O)(=O)[O-])ccc4F)c4ccc([nH]4)c(-c4cc(S(=O)(=O)[O-])ccc4F)c4nc(c(-c5cc(S(=O)(=O)[O-])ccc5F)c5ccc2[nH]5)C=C4)C=C3)cc1
REMARK SMILES IDX 24 1 23 2 22 3 21 4 20 5 2 6 1 7 3 8 4 9 5 10 19 11 6 12
REMARK SMILES IDX 18 13 17 14 7 15 8 16 9 17 10 18 15 19 11 20 12 21 14 22
REMARK SMILES IDX 16 23 13 24 25 25 26 26 27 27 28 28 29 29 30 30 31 31 32 32
REMARK SMILES IDX 33 33 94 34 34 35 93 36 35 37 36 38 37 39 87 40 38 41 92 42
REMARK SMILES IDX 86 43 88 44 39 45 91 46 85 47 84 48 40 50 72 51 52 52 71 53
REMARK SMILES IDX 53 54 56 55 70 56 89 57 54 58 55 59 69 61 90 62 57 63 41 64
REMARK SMILES IDX 42 65 50 66 43 67 49 68 51 69 48 70 44 71 45 72 46 73 47 74
REMARK SMILES IDX 73 75 74 76 82 77 75 78 81 79 83 80 80 81 76 82 77 83 78 84
REMARK SMILES IDX 79 85 58 86 59 87 67 88 60 89 66 90 68 91 65 92 61 93 62 94
REMARK SMILES IDX 63 95 64 96
REMARK H PARENT 88 49 56 60
REMARK Flexibility Score: inf
ROOT
ATOM      1  C   UNL A   1      30.129  29.215  22.478  1.00  0.00     0.188 C 
ENDROOT
BRANCH   1   2
ATOM      2  O   UNL A   1      30.075  27.850  22.084  1.00  0.00    -0.376 OA
BRANCH   2   3
ATOM      3  C   UNL A   1      31.178  27.006  22.353  1.00  0.00     0.202 C 
BRANCH   3   4
ATOM      4  C   UNL A   1      31.013  25.873  23.360  1.00  0.00     0.261 C 
BRANCH   4   5
ATOM      5  O   UNL A   1      31.170  26.169  24.767  1.00  0.00    -0.463 OA
BRANCH   5   6
ATOM      6  C   UNL A   1      31.051  25.400  25.867  1.00  0.00     0.308 C 
ATOM      7  O   UNL A   1      30.003  25.436  26.507  1.00  0.00    -0.252 OA
BRANCH   6   8
ATOM      8  C   UNL A   1      32.215  24.577  26.339  1.00  0.00     0.156 C 
BRANCH   8   9
ATOM      9  C   UNL A   1      31.879  23.088  26.413  1.00  0.00     0.148 C 
ATOM     10  C   UNL A   1      32.659  22.230  25.392  1.00  0.00     0.152 C 
ATOM     11  O   UNL A   1      32.080  22.560  27.738  1.00  0.00    -0.374 OA
ATOM     12  N   UNL A   1      34.073  22.136  25.736  1.00  0.00    -0.334 N 
ATOM     13  C   UNL A   1      33.465  22.502  28.127  1.00  0.00     0.182 C 
ATOM     14  C   UNL A   1      34.326  21.730  27.123  1.00  0.00     0.148 C 
BRANCH  12  15
ATOM     15  C   UNL A   1      35.145  22.155  24.850  1.00  0.00     0.258 C 
ATOM     16  O   UNL A   1      35.035  21.933  23.648  1.00  0.00    -0.269 OA
BRANCH  15  17
ATOM     17  C   UNL A   1      36.494  22.480  25.329  1.00  0.00     0.094 A 
ATOM     18  C   UNL A   1      36.765  23.770  25.776  1.00  0.00     0.137 A 
ATOM     19  C   UNL A   1      37.475  21.491  25.456  1.00  0.00     0.056 A 
ATOM     20  F   UNL A   1      35.842  24.737  25.676  1.00  0.00    -0.206 F 
ATOM     21  C   UNL A   1      38.011  24.095  26.313  1.00  0.00     0.040 A 
ATOM     22  C   UNL A   1      38.717  21.809  26.019  1.00  0.00     0.021 A 
ATOM     23  Cl  UNL A   1      37.240  19.875  24.900  1.00  0.00    -0.083 Cl
ATOM     24  C   UNL A   1      38.987  23.110  26.447  1.00  0.00     0.005 A 
ENDBRANCH  15  17
ENDBRANCH  12  15
ENDBRANCH   8   9
ENDBRANCH   6   8
ENDBRANCH   5   6
ENDBRANCH   4   5
ENDBRANCH   3   4
ENDBRANCH   2   3
ENDBRANCH   1   2
BRANCH   1  25
ATOM     25  C   UNL A   1      31.184  29.447  23.569  1.00  0.00     0.188 C 
BRANCH  25  26
ATOM     26  O   UNL A   1      30.835  30.388  24.584  1.00  0.00    -0.376 OA
BRANCH  26  27
ATOM     27  C   UNL A   1      31.644  30.403  25.761  1.00  0.00     0.202 C 
BRANCH  27  28
ATOM     28  C   UNL A   1      31.794  31.740  26.503  1.00  0.00     0.261 C 
BRANCH  28  29
ATOM     29  O   UNL A   1      32.572  31.684  27.719  1.00  0.00    -0.460 OA
BRANCH  29  30
ATOM     30  C   UNL A   1      33.518  32.655  27.824  1.00  0.00     0.338 C 
ATOM     31  O   UNL A   1      33.328  33.859  27.822  1.00  0.00    -0.246 OA
BRANCH  30  32
ATOM     32  C   UNL A   1      34.875  32.095  27.980  1.00  0.00     0.060 A 
ATOM     33  C   UNL A   1      35.030  30.707  28.053  1.00  0.00     0.016 A 
ATOM     34  C   UNL A   1      35.938  32.941  28.309  1.00  0.00     0.016 A 
ATOM     35  C   UNL A   1      36.237  30.164  28.509  1.00  0.00     0.010 A 
ATOM     36  C   UNL A   1      37.150  32.391  28.753  1.00  0.00     0.010 A 
ATOM     37  C   UNL A   1      37.291  31.001  28.906  1.00  0.00    -0.014 A 
BRANCH  37  38
ATOM     38  C   UNL A   1      38.461  30.423  29.627  1.00  0.00     0.031 A 
ATOM     39  C   UNL A   1      38.748  30.853  31.046  1.00  0.00     0.074 A 
ATOM     40  C   UNL A   1      39.239  29.489  29.049  1.00  0.00     0.049 A 
ATOM     41  N   UNL A   1      39.702  30.467  31.858  1.00  0.00    -0.248 NA
ATOM     42  C   UNL A   1      37.843  31.859  31.622  1.00  0.00     0.031 C 
ATOM     43  C   UNL A   1      39.077  28.982  27.689  1.00  0.00     0.029 A 
ATOM     44  N   UNL A   1      40.328  28.805  29.536  1.00  0.00    -0.354 N 
ATOM     45  C   UNL A   1      39.506  31.172  33.042  1.00  0.00     0.074 A 
ATOM     46  C   UNL A   1      38.371  32.045  32.823  1.00  0.00     0.031 C 
ATOM     47  C   UNL A   1      40.034  28.068  27.448  1.00  0.00     0.029 A 
ATOM     48  C   UNL A   1      40.891  27.944  28.624  1.00  0.00     0.049 A 
ATOM     49  H   UNL A   1      40.671  28.921  30.452  1.00  0.00     0.167 HD
ATOM     50  C   UNL A   1      40.194  31.092  34.209  1.00  0.00     0.034 A 
ATOM     51  C   UNL A   1      41.986  27.159  28.718  1.00  0.00     0.034 A 
ATOM     52  C   UNL A   1      41.337  30.235  34.424  1.00  0.00     0.049 A 
ATOM     53  C   UNL A   1      42.768  27.125  30.010  1.00  0.00     0.074 A 
ATOM     54  C   UNL A   1      42.098  30.081  35.570  1.00  0.00     0.029 A 
ATOM     55  N   UNL A   1      41.891  29.391  33.470  1.00  0.00    -0.354 N 
ATOM     56  N   UNL A   1      42.558  27.786  31.125  1.00  0.00    -0.248 NA
ATOM     57  C   UNL A   1      43.929  26.225  30.056  1.00  0.00     0.031 C 
ATOM     58  C   UNL A   1      43.144  29.191  35.293  1.00  0.00     0.029 A 
ATOM     59  C   UNL A   1      42.995  28.735  33.995  1.00  0.00     0.049 A 
ATOM     60  H   UNL A   1      41.548  29.275  32.554  1.00  0.00     0.167 HD
ATOM     61  C   UNL A   1      43.551  27.364  32.008  1.00  0.00     0.074 A 
ATOM     62  C   UNL A   1      44.338  26.373  31.307  1.00  0.00     0.031 C 
ATOM     63  C   UNL A   1      43.791  27.761  33.284  1.00  0.00     0.034 A 
BRANCH  50  64
ATOM     64  C   UNL A   1      39.746  31.987  35.339  1.00  0.00     0.023 A 
ATOM     65  C   UNL A   1      38.955  31.500  36.395  1.00  0.00     0.031 A 
ATOM     66  C   UNL A   1      40.104  33.347  35.357  1.00  0.00     0.131 A 
ATOM     67  C   UNL A   1      38.501  32.375  37.393  1.00  0.00     0.055 A 
ATOM     68  C   UNL A   1      39.706  34.199  36.390  1.00  0.00     0.041 A 
ATOM     69  F   UNL A   1      40.841  33.873  34.367  1.00  0.00    -0.206 F 
ATOM     70  C   UNL A   1      38.890  33.717  37.409  1.00  0.00     0.022 A 
BRANCH  67  71
ATOM     71  S   UNL A   1      37.300  31.765  38.607  1.00  0.00     0.124 S 
ATOM     72  O   UNL A   1      37.033  30.419  38.108  1.00  0.00    -0.237 OA
ATOM     73  O   UNL A   1      38.046  31.847  39.858  1.00  0.00    -0.237 OA
ATOM     74  O   UNL A   1      36.183  32.700  38.486  1.00  0.00    -0.744 OA
ENDBRANCH  67  71
ENDBRANCH  50  64
BRANCH  51  75
ATOM     75  C   UNL A   1      42.448  26.363  27.545  1.00  0.00     0.023 A 
ATOM     76  C   UNL A   1      42.317  24.965  27.513  1.00  0.00     0.031 A 
ATOM     77  C   UNL A   1      43.103  26.990  26.471  1.00  0.00     0.131 A 
ATOM     78  C   UNL A   1      42.883  24.235  26.456  1.00  0.00     0.055 A 
ATOM     79  C   UNL A   1      43.614  26.264  25.394  1.00  0.00     0.041 A 
ATOM     80  F   UNL A   1      43.261  28.322  26.456  1.00  0.00    -0.206 F 
ATOM     81  C   UNL A   1      43.520  24.876  25.391  1.00  0.00     0.022 A 
BRANCH  78  82
ATOM     82  S   UNL A   1      42.865  22.423  26.543  1.00  0.00     0.124 S 
ATOM     83  O   UNL A   1      42.065  22.188  27.739  1.00  0.00    -0.237 OA
ATOM     84  O   UNL A   1      42.240  22.067  25.274  1.00  0.00    -0.237 OA
ATOM     85  O   UNL A   1      44.279  22.073  26.659  1.00  0.00    -0.744 OA
ENDBRANCH  78  82
ENDBRANCH  51  75
BRANCH  63  86
ATOM     86  C   UNL A   1      44.938  27.092  34.006  1.00  0.00     0.023 A 
ATOM     87  C   UNL A   1      44.751  25.921  34.764  1.00  0.00     0.031 A 
ATOM     88  C   UNL A   1      46.225  27.655  33.969  1.00  0.00     0.131 A 
ATOM     89  C   UNL A   1      45.818  25.390  35.507  1.00  0.00     0.055 A 
ATOM     90  C   UNL A   1      47.296  27.089  34.663  1.00  0.00     0.041 A 
ATOM     91  F   UNL A   1      46.463  28.772  33.264  1.00  0.00    -0.206 F 
ATOM     92  C   UNL A   1      47.092  25.960  35.450  1.00  0.00     0.022 A 
BRANCH  89  93
ATOM     93  S   UNL A   1      45.492  24.007  36.636  1.00  0.00     0.124 S 
ATOM     94  O   UNL A   1      44.755  24.658  37.713  1.00  0.00    -0.237 OA
ATOM     95  O   UNL A   1      44.722  23.095  35.796  1.00  0.00    -0.237 OA
ATOM     96  O   UNL A   1      46.828  23.535  36.996  1.00  0.00    -0.744 OA
ENDBRANCH  89  93
ENDBRANCH  63  86
ENDBRANCH  37  38
ENDBRANCH  30  32
ENDBRANCH  29  30
ENDBRANCH  28  29
ENDBRANCH  27  28
ENDBRANCH  26  27
ENDBRANCH  25  26
ENDBRANCH   1  25
TORSDOF 23
ENDMDL
MODEL 2
REMARK VINA RESULT:     -10.8      4.802     10.409
REMARK SMILES O=C(C[C@H]1CN(C(=O)c2c(F)cccc2Cl)CCO1)OCCOCCOCCOC(=O)c1ccc(-c2c3nc(c(-c4cc(S(=O)(=O)[O-])ccc4F)c4ccc([nH]4)c(-c4cc(S(=O)(=O)[O-])ccc4F)c4nc(c(-c5cc(S(=O)(=O)[O-])ccc5F)c5ccc2[nH]5)C=C4)C=C3)cc1
REMARK SMILES IDX 24 1 23 2 22 3 21 4 20 5 2 6 1 7 3 8 4 9 5 10 19 11 6 12
REMARK SMILES IDX 18 13 17 14 7 15 8 16 9 17 10 18 15 19 11 20 12 21 14 22
REMARK SMILES IDX 16 23 13 24 25 25 26 26 27 27 28 28 29 29 30 30 31 31 32 32
REMARK SMILES IDX 33 33 94 34 34 35 93 36 35 37 36 38 37 39 87 40 38 41 92 42
REMARK SMILES IDX 86 43 88 44 39 45 91 46 85 47 84 48 40 50 72 51 52 52 71 53
REMARK SMILES IDX 53 54 56 55 70 56 89 57 54 58 55 59 69 61 90 62 57 63 41 64
REMARK SMILES IDX 42 65 50 66 43 67 49 68 51 69 48 70 44 71 45 72 46 73 47 74
REMARK SMILES IDX 73 75 74 76 82 77 75 78 81 79 83 80 80 81 76 82 77 83 78 84
REMARK SMILES IDX 79 85 58 86 59 87 67 88 60 89 66 90 68 91 65 92 61 93 62 94
REMARK SMILES IDX 63 95 64 96
REMARK H PARENT 88 49 56 60
REMARK Flexibility Score: inf
ROOT
ATOM      1  C   UNL A   1      33.210  18.852  25.416  1.00  0.00     0.188 C 
ENDROOT
BRANCH   1   2
ATOM      2  O   UNL A   1      32.182  19.685  24.898  1.00  0.00    -0.376 OA
BRANCH   2   3
ATOM      3  C   UNL A   1      32.027  20.995  25.410  1.00  0.00     0.202 C 
BRANCH   3   4
ATOM      4  C   UNL A   1      33.226  21.685  26.052  1.00  0.00     0.261 C 
BRANCH   4   5
ATOM      5  O   UNL A   1      33.027  22.968  26.690  1.00  0.00    -0.463 OA
BRANCH   5   6
ATOM      6  C   UNL A   1      31.919  23.702  26.907  1.00  0.00     0.308 C 
ATOM      7  O   UNL A   1      31.025  23.235  27.609  1.00  0.00    -0.252 OA
BRANCH   6   8
ATOM      8  C   UNL A   1      31.756  25.035  26.236  1.00  0.00     0.156 C 
BRANCH   8   9
ATOM      9  C   UNL A   1      30.785  24.975  25.057  1.00  0.00     0.148 C 
ATOM     10  C   UNL A   1      30.578  26.338  24.360  1.00  0.00     0.152 C 
ATOM     11  O   UNL A   1      31.188  23.993  24.084  1.00  0.00    -0.374 OA
ATOM     12  N   UNL A   1      31.767  26.753  23.623  1.00  0.00    -0.334 N 
ATOM     13  C   UNL A   1      32.389  24.351  23.373  1.00  0.00     0.182 C 
ATOM     14  C   UNL A   1      32.294  25.730  22.714  1.00  0.00     0.148 C 
BRANCH  12  15
ATOM     15  C   UNL A   1      32.273  28.044  23.525  1.00  0.00     0.258 C 
ATOM     16  O   UNL A   1      32.803  28.490  22.512  1.00  0.00    -0.269 OA
BRANCH  15  17
ATOM     17  C   UNL A   1      32.164  28.969  24.660  1.00  0.00     0.094 A 
ATOM     18  C   UNL A   1      33.179  29.002  25.612  1.00  0.00     0.137 A 
ATOM     19  C   UNL A   1      31.121  29.898  24.738  1.00  0.00     0.056 A 
ATOM     20  F   UNL A   1      34.195  28.130  25.558  1.00  0.00    -0.206 F 
ATOM     21  C   UNL A   1      33.149  29.923  26.659  1.00  0.00     0.040 A 
ATOM     22  C   UNL A   1      31.103  30.841  25.774  1.00  0.00     0.021 A 
ATOM     23  Cl  UNL A   1      29.804  29.911  23.623  1.00  0.00    -0.083 Cl
ATOM     24  C   UNL A   1      32.116  30.854  26.735  1.00  0.00     0.005 A 
ENDBRANCH  15  17
ENDBRANCH  12  15
ENDBRANCH   8   9
ENDBRANCH   6   8
ENDBRANCH   5   6
ENDBRANCH   4   5
ENDBRANCH   3   4
ENDBRANCH   2   3
ENDBRANCH   1   2
BRANCH   1  25
ATOM     25  C   UNL A   1      34.237  18.483  24.335  1.00  0.00     0.188 C 
BRANCH  25  26
ATOM     26  O   UNL A   1      35.606  18.510  24.740  1.00  0.00    -0.376 OA
BRANCH  26  27
ATOM     27  C   UNL A   1      36.203  19.795  24.927  1.00  0.00     0.202 C 
BRANCH  27  28
ATOM     28  C   UNL A   1      37.736  19.860  25.007  1.00  0.00     0.261 C 
BRANCH  28  29
ATOM     29  O   UNL A   1      38.277  21.148  25.375  1.00  0.00    -0.460 OA
BRANCH  29  30
ATOM     30  C   UNL A   1      39.448  21.087  26.064  1.00  0.00     0.338 C 
ATOM     31  O   UNL A   1      40.252  20.170  26.053  1.00  0.00    -0.246 OA
BRANCH  30  32
ATOM     32  C   UNL A   1      39.694  22.311  26.851  1.00  0.00     0.060 A 
ATOM     33  C   UNL A   1      39.043  23.494  26.485  1.00  0.00     0.016 A 
ATOM     34  C   UNL A   1      40.748  22.343  27.770  1.00  0.00     0.016 A 
ATOM     35  C   UNL A   1      39.484  24.719  26.999  1.00  0.00     0.010 A 
ATOM     36  C   UNL A   1      41.177  23.572  28.292  1.00  0.00     0.010 A 
ATOM     37  C   UNL A   1      40.583  24.774  27.870  1.00  0.00    -0.014 A 
BRANCH  37  38
ATOM     38  C   UNL A   1      41.198  26.091  28.200  1.00  0.00     0.031 A 
ATOM     39  C   UNL A   1      42.614  26.382  27.763  1.00  0.00     0.074 A 
ATOM     40  C   UNL A   1      40.496  27.043  28.843  1.00  0.00     0.049 A 
ATOM     41  N   UNL A   1      43.333  27.465  27.932  1.00  0.00    -0.248 NA
ATOM     42  C   UNL A   1      43.312  25.306  27.044  1.00  0.00     0.031 C 
ATOM     43  C   UNL A   1      39.123  26.898  29.322  1.00  0.00     0.029 A 
ATOM     44  N   UNL A   1      40.847  28.320  29.209  1.00  0.00    -0.354 N 
ATOM     45  C   UNL A   1      44.563  27.205  27.334  1.00  0.00     0.074 A 
ATOM     46  C   UNL A   1      44.506  25.844  26.841  1.00  0.00     0.031 C 
ATOM     47  C   UNL A   1      38.748  28.042  29.921  1.00  0.00     0.029 A 
ATOM     48  C   UNL A   1      39.859  28.990  29.893  1.00  0.00     0.049 A 
ATOM     49  H   UNL A   1      41.723  28.719  28.999  1.00  0.00     0.167 HD
ATOM     50  C   UNL A   1      45.636  28.024  27.192  1.00  0.00     0.034 A 
ATOM     51  C   UNL A   1      39.857  30.219  30.451  1.00  0.00     0.034 A 
ATOM     52  C   UNL A   1      45.701  29.375  27.699  1.00  0.00     0.049 A 
ATOM     53  C   UNL A   1      41.082  31.095  30.327  1.00  0.00     0.074 A 
ATOM     54  C   UNL A   1      46.742  30.284  27.604  1.00  0.00     0.029 A 
ATOM     55  N   UNL A   1      44.688  30.012  28.404  1.00  0.00    -0.354 N 
ATOM     56  N   UNL A   1      42.230  30.839  29.742  1.00  0.00    -0.248 NA
ATOM     57  C   UNL A   1      41.001  32.433  30.929  1.00  0.00     0.031 C 
ATOM     58  C   UNL A   1      46.382  31.445  28.299  1.00  0.00     0.029 A 
ATOM     59  C   UNL A   1      45.089  31.289  28.769  1.00  0.00     0.049 A 
ATOM     60  H   UNL A   1      43.812  29.614  28.615  1.00  0.00     0.167 HD
ATOM     61  C   UNL A   1      42.997  31.993  29.892  1.00  0.00     0.074 A 
ATOM     62  C   UNL A   1      42.172  32.953  30.593  1.00  0.00     0.031 C 
ATOM     63  C   UNL A   1      44.270  32.237  29.488  1.00  0.00     0.034 A 
BRANCH  50  64
ATOM     64  C   UNL A   1      46.847  27.463  26.486  1.00  0.00     0.023 A 
ATOM     65  C   UNL A   1      47.142  27.799  25.153  1.00  0.00     0.031 A 
ATOM     66  C   UNL A   1      47.711  26.573  27.149  1.00  0.00     0.131 A 
ATOM     67  C   UNL A   1      48.238  27.206  24.507  1.00  0.00     0.055 A 
ATOM     68  C   UNL A   1      48.839  26.040  26.523  1.00  0.00     0.041 A 
ATOM     69  F   UNL A   1      47.468  26.201  28.415  1.00  0.00    -0.206 F 
ATOM     70  C   UNL A   1      49.101  26.346  25.190  1.00  0.00     0.022 A 
BRANCH  67  71
ATOM     71  S   UNL A   1      48.455  27.483  22.728  1.00  0.00     0.124 S 
ATOM     72  O   UNL A   1      48.405  26.119  22.208  1.00  0.00    -0.237 OA
ATOM     73  O   UNL A   1      47.318  28.335  22.399  1.00  0.00    -0.237 OA
ATOM     74  O   UNL A   1      49.764  28.129  22.638  1.00  0.00    -0.744 OA
ENDBRANCH  67  71
ENDBRANCH  50  64
BRANCH  51  75
ATOM     75  C   UNL A   1      38.673  30.697  31.222  1.00  0.00     0.023 A 
ATOM     76  C   UNL A   1      37.589  31.321  30.584  1.00  0.00     0.031 A 
ATOM     77  C   UNL A   1      38.651  30.605  32.624  1.00  0.00     0.131 A 
ATOM     78  C   UNL A   1      36.555  31.878  31.351  1.00  0.00     0.055 A 
ATOM     79  C   UNL A   1      37.593  31.111  33.380  1.00  0.00     0.041 A 
ATOM     80  F   UNL A   1      39.666  30.025  33.283  1.00  0.00    -0.206 F 
ATOM     81  C   UNL A   1      36.543  31.767  32.744  1.00  0.00     0.022 A 
BRANCH  78  82
ATOM     82  S   UNL A   1      35.270  32.844  30.510  1.00  0.00     0.124 S 
ATOM     83  O   UNL A   1      34.825  31.915  29.477  1.00  0.00    -0.237 OA
ATOM     84  O   UNL A   1      34.326  33.098  31.593  1.00  0.00    -0.237 OA
ATOM     85  O   UNL A   1      35.990  34.019  30.024  1.00  0.00    -0.744 OA
ENDBRANCH  78  82
ENDBRANCH  51  75
BRANCH  63  86
ATOM     86  C   UNL A   1      44.828  33.613  29.771  1.00  0.00     0.023 A 
ATOM     87  C   UNL A   1      44.562  34.707  28.927  1.00  0.00     0.031 A 
ATOM     88  C   UNL A   1      45.668  33.824  30.878  1.00  0.00     0.131 A 
ATOM     89  C   UNL A   1      45.185  35.943  29.164  1.00  0.00     0.055 A 
ATOM     90  C   UNL A   1      46.238  35.070  31.143  1.00  0.00     0.041 A 
ATOM     91  F   UNL A   1      45.958  32.817  31.719  1.00  0.00    -0.206 F 
ATOM     92  C   UNL A   1      46.011  36.134  30.275  1.00  0.00     0.022 A 
BRANCH  89  93
ATOM     93  S   UNL A   1      44.989  37.269  27.941  1.00  0.00     0.124 S 
ATOM     94  O   UNL A   1      45.939  38.267  28.417  1.00  0.00    -0.237 OA
ATOM     95  O   UNL A   1      45.340  36.596  26.694  1.00  0.00    -0.237 OA
ATOM     96  O   UNL A   1      43.581  37.644  28.064  1.00  0.00    -0.744 OA
ENDBRANCH  89  93
ENDBRANCH  63  86
ENDBRANCH  37  38
ENDBRANCH  30  32
ENDBRANCH  29  30
ENDBRANCH  28  29
ENDBRANCH  27  28
ENDBRANCH  26  27
ENDBRANCH  25  26
ENDBRANCH   1  25
TORSDOF 23
ENDMDL
MODEL 3
REMARK VINA RESULT:     -10.7      4.895      8.124
REMARK SMILES O=C(C[C@H]1CN(C(=O)c2c(F)cccc2Cl)CCO1)OCCOCCOCCOC(=O)c1ccc(-c2c3nc(c(-c4cc(S(=O)(=O)[O-])ccc4F)c4ccc([nH]4)c(-c4cc(S(=O)(=O)[O-])ccc4F)c4nc(c(-c5cc(S(=O)(=O)[O-])ccc5F)c5ccc2[nH]5)C=C4)C=C3)cc1
REMARK SMILES IDX 24 1 23 2 22 3 21 4 20 5 2 6 1 7 3 8 4 9 5 10 19 11 6 12
REMARK SMILES IDX 18 13 17 14 7 15 8 16 9 17 10 18 15 19 11 20 12 21 14 22
REMARK SMILES IDX 16 23 13 24 25 25 26 26 27 27 28 28 29 29 30 30 31 31 32 32
REMARK SMILES IDX 33 33 94 34 34 35 93 36 35 37 36 38 37 39 87 40 38 41 92 42
REMARK SMILES IDX 86 43 88 44 39 45 91 46 85 47 84 48 40 50 72 51 52 52 71 53
REMARK SMILES IDX 53 54 56 55 70 56 89 57 54 58 55 59 69 61 90 62 57 63 41 64
REMARK SMILES IDX 42 65 50 66 43 67 49 68 51 69 48 70 44 71 45 72 46 73 47 74
REMARK SMILES IDX 73 75 74 76 82 77 75 78 81 79 83 80 80 81 76 82 77 83 78 84
REMARK SMILES IDX 79 85 58 86 59 87 67 88 60 89 66 90 68 91 65 92 61 93 62 94
REMARK SMILES IDX 63 95 64 96
REMARK H PARENT 88 49 56 60
REMARK Flexibility Score: inf
ROOT
ATOM      1  C   UNL A   1      33.227  18.709  25.051  1.00  0.00     0.188 C 
ENDROOT
BRANCH   1   2
ATOM      2  O   UNL A   1      32.429  19.629  24.320  1.00  0.00    -0.376 OA
BRANCH   2   3
ATOM      3  C   UNL A   1      32.163  20.906  24.870  1.00  0.00     0.202 C 
BRANCH   3   4
ATOM      4  C   UNL A   1      33.037  21.416  26.012  1.00  0.00     0.261 C 
BRANCH   4   5
ATOM      5  O   UNL A   1      32.914  22.800  26.412  1.00  0.00    -0.463 OA
BRANCH   5   6
ATOM      6  C   UNL A   1      31.851  23.536  26.792  1.00  0.00     0.308 C 
ATOM      7  O   UNL A   1      31.044  23.052  27.581  1.00  0.00    -0.252 OA
BRANCH   6   8
ATOM      8  C   UNL A   1      31.624  24.894  26.193  1.00  0.00     0.156 C 
BRANCH   8   9
ATOM      9  C   UNL A   1      30.439  24.912  25.228  1.00  0.00     0.148 C 
ATOM     10  C   UNL A   1      30.130  26.313  24.658  1.00  0.00     0.152 C 
ATOM     11  O   UNL A   1      30.619  23.980  24.144  1.00  0.00    -0.374 OA
ATOM     12  N   UNL A   1      31.159  26.754  23.723  1.00  0.00    -0.334 N 
ATOM     13  C   UNL A   1      31.664  24.362  23.229  1.00  0.00     0.182 C 
ATOM     14  C   UNL A   1      31.472  25.777  22.675  1.00  0.00     0.148 C 
BRANCH  12  15
ATOM     15  C   UNL A   1      31.665  28.043  23.593  1.00  0.00     0.258 C 
ATOM     16  O   UNL A   1      31.722  28.645  22.525  1.00  0.00    -0.269 OA
BRANCH  15  17
ATOM     17  C   UNL A   1      32.141  28.771  24.775  1.00  0.00     0.094 A 
ATOM     18  C   UNL A   1      31.430  29.881  25.224  1.00  0.00     0.137 A 
ATOM     19  C   UNL A   1      33.223  28.302  25.527  1.00  0.00     0.056 A 
ATOM     20  F   UNL A   1      30.383  30.347  24.530  1.00  0.00    -0.206 F 
ATOM     21  C   UNL A   1      31.805  30.548  26.390  1.00  0.00     0.040 A 
ATOM     22  C   UNL A   1      33.586  28.956  26.712  1.00  0.00     0.021 A 
ATOM     23  Cl  UNL A   1      34.183  26.956  25.032  1.00  0.00    -0.083 Cl
ATOM     24  C   UNL A   1      32.879  30.080  27.143  1.00  0.00     0.005 A 
ENDBRANCH  15  17
ENDBRANCH  12  15
ENDBRANCH   8   9
ENDBRANCH   6   8
ENDBRANCH   5   6
ENDBRANCH   4   5
ENDBRANCH   3   4
ENDBRANCH   2   3
ENDBRANCH   1   2
BRANCH   1  25
ATOM     25  C   UNL A   1      34.394  18.178  24.206  1.00  0.00     0.188 C 
BRANCH  25  26
ATOM     26  O   UNL A   1      35.696  18.334  24.771  1.00  0.00    -0.376 OA
BRANCH  26  27
ATOM     27  C   UNL A   1      36.270  19.641  24.728  1.00  0.00     0.202 C 
BRANCH  27  28
ATOM     28  C   UNL A   1      37.788  19.757  24.940  1.00  0.00     0.261 C 
BRANCH  28  29
ATOM     29  O   UNL A   1      38.238  21.022  25.472  1.00  0.00    -0.460 OA
BRANCH  29  30
ATOM     30  C   UNL A   1      39.454  20.973  26.081  1.00  0.00     0.338 C 
ATOM     31  O   UNL A   1      40.250  20.050  26.042  1.00  0.00    -0.246 OA
BRANCH  30  32
ATOM     32  C   UNL A   1      39.759  22.218  26.812  1.00  0.00     0.060 A 
ATOM     33  C   UNL A   1      39.148  23.409  26.406  1.00  0.00     0.016 A 
ATOM     34  C   UNL A   1      40.828  22.246  27.712  1.00  0.00     0.016 A 
ATOM     35  C   UNL A   1      39.644  24.637  26.860  1.00  0.00     0.010 A 
ATOM     36  C   UNL A   1      41.313  23.478  28.176  1.00  0.00     0.010 A 
ATOM     37  C   UNL A   1      40.759  24.685  27.712  1.00  0.00    -0.014 A 
BRANCH  37  38
ATOM     38  C   UNL A   1      41.430  25.989  27.978  1.00  0.00     0.031 A 
ATOM     39  C   UNL A   1      40.674  27.084  28.692  1.00  0.00     0.074 A 
ATOM     40  C   UNL A   1      42.715  26.190  27.631  1.00  0.00     0.049 A 
ATOM     41  N   UNL A   1      41.071  28.285  29.036  1.00  0.00    -0.248 NA
ATOM     42  C   UNL A   1      39.283  26.785  29.063  1.00  0.00     0.031 C 
ATOM     43  C   UNL A   1      43.562  25.223  26.938  1.00  0.00     0.029 A 
ATOM     44  N   UNL A   1      43.530  27.283  27.811  1.00  0.00    -0.354 N 
ATOM     45  C   UNL A   1      39.985  28.881  29.670  1.00  0.00     0.074 A 
ATOM     46  C   UNL A   1      38.899  27.925  29.620  1.00  0.00     0.031 C 
ATOM     47  C   UNL A   1      44.778  25.765  26.749  1.00  0.00     0.029 A 
ATOM     48  C   UNL A   1      44.789  27.126  27.282  1.00  0.00     0.049 A 
ATOM     49  H   UNL A   1      43.239  28.101  28.277  1.00  0.00     0.167 HD
ATOM     50  C   UNL A   1      39.901  30.104  30.255  1.00  0.00     0.034 A 
ATOM     51  C   UNL A   1      45.827  27.986  27.216  1.00  0.00     0.034 A 
ATOM     52  C   UNL A   1      40.979  31.065  30.290  1.00  0.00     0.049 A 
ATOM     53  C   UNL A   1      45.694  29.362  27.827  1.00  0.00     0.074 A 
ATOM     54  C   UNL A   1      40.992  32.327  30.860  1.00  0.00     0.029 A 
ATOM     55  N   UNL A   1      42.234  30.877  29.726  1.00  0.00    -0.354 N 
ATOM     56  N   UNL A   1      44.665  29.902  28.438  1.00  0.00    -0.248 NA
ATOM     57  C   UNL A   1      46.872  30.236  27.748  1.00  0.00     0.031 C 
ATOM     58  C   UNL A   1      42.230  32.923  30.591  1.00  0.00     0.029 A 
ATOM     59  C   UNL A   1      43.017  32.007  29.914  1.00  0.00     0.049 A 
ATOM     60  H   UNL A   1      42.525  30.060  29.260  1.00  0.00     0.167 HD
ATOM     61  C   UNL A   1      45.082  31.172  28.832  1.00  0.00     0.074 A 
ATOM     62  C   UNL A   1      46.462  31.303  28.417  1.00  0.00     0.031 C 
ATOM     63  C   UNL A   1      44.387  32.143  29.479  1.00  0.00     0.034 A 
BRANCH  50  64
ATOM     64  C   UNL A   1      38.579  30.483  30.876  1.00  0.00     0.023 A 
ATOM     65  C   UNL A   1      37.631  31.250  30.177  1.00  0.00     0.031 A 
ATOM     66  C   UNL A   1      38.265  30.081  32.187  1.00  0.00     0.131 A 
ATOM     67  C   UNL A   1      36.441  31.641  30.809  1.00  0.00     0.055 A 
ATOM     68  C   UNL A   1      37.049  30.415  32.787  1.00  0.00     0.041 A 
ATOM     69  F   UNL A   1      39.139  29.364  32.909  1.00  0.00    -0.206 F 
ATOM     70  C   UNL A   1      36.134  31.209  32.103  1.00  0.00     0.022 A 
BRANCH  67  71
ATOM     71  S   UNL A   1      35.349  32.816  29.964  1.00  0.00     0.124 S 
ATOM     72  O   UNL A   1      36.251  33.941  29.729  1.00  0.00    -0.237 OA
ATOM     73  O   UNL A   1      34.935  32.070  28.781  1.00  0.00    -0.237 OA
ATOM     74  O   UNL A   1      34.292  33.069  30.942  1.00  0.00    -0.744 OA
ENDBRANCH  67  71
ENDBRANCH  50  64
BRANCH  51  75
ATOM     75  C   UNL A   1      47.083  27.603  26.508  1.00  0.00     0.023 A 
ATOM     76  C   UNL A   1      47.271  27.891  25.147  1.00  0.00     0.031 A 
ATOM     77  C   UNL A   1      48.080  26.868  27.172  1.00  0.00     0.131 A 
ATOM     78  C   UNL A   1      48.404  27.399  24.480  1.00  0.00     0.055 A 
ATOM     79  C   UNL A   1      49.231  26.428  26.518  1.00  0.00     0.041 A 
ATOM     80  F   UNL A   1      47.944  26.559  28.471  1.00  0.00    -0.206 F 
ATOM     81  C   UNL A   1      49.391  26.680  25.159  1.00  0.00     0.022 A 
BRANCH  78  82
ATOM     82  S   UNL A   1      48.522  27.624  22.684  1.00  0.00     0.124 S 
ATOM     83  O   UNL A   1      48.344  26.260  22.199  1.00  0.00    -0.237 OA
ATOM     84  O   UNL A   1      47.422  28.545  22.422  1.00  0.00    -0.237 OA
ATOM     85  O   UNL A   1      49.859  28.184  22.497  1.00  0.00    -0.744 OA
ENDBRANCH  78  82
ENDBRANCH  51  75
BRANCH  63  86
ATOM     86  C   UNL A   1      45.130  33.419  29.800  1.00  0.00     0.023 A 
ATOM     87  C   UNL A   1      45.056  34.548  28.962  1.00  0.00     0.031 A 
ATOM     88  C   UNL A   1      45.953  33.495  30.936  1.00  0.00     0.131 A 
ATOM     89  C   UNL A   1      45.844  35.677  29.237  1.00  0.00     0.055 A 
ATOM     90  C   UNL A   1      46.690  34.642  31.237  1.00  0.00     0.041 A 
ATOM     91  F   UNL A   1      46.064  32.450  31.772  1.00  0.00    -0.206 F 
ATOM     92  C   UNL A   1      46.650  35.736  30.377  1.00  0.00     0.022 A 
BRANCH  89  93
ATOM     93  S   UNL A   1      45.886  37.028  28.026  1.00  0.00     0.124 S 
ATOM     94  O   UNL A   1      46.524  36.392  26.879  1.00  0.00    -0.237 OA
ATOM     95  O   UNL A   1      44.471  37.351  27.871  1.00  0.00    -0.237 OA
ATOM     96  O   UNL A   1      46.685  38.058  28.688  1.00  0.00    -0.744 OA
ENDBRANCH  89  93
ENDBRANCH  63  86
ENDBRANCH  37  38
ENDBRANCH  30  32
ENDBRANCH  29  30
ENDBRANCH  28  29
ENDBRANCH  27  28
ENDBRANCH  26  27
ENDBRANCH  25  26
ENDBRANCH   1  25
TORSDOF 23
ENDMDL
