MODEL 1
REMARK VINA RESULT:     -10.1      0.000      0.000
REMARK SMILES C/C=C/C[C@]1(C(=O)OCCOCCOCCOC(=O)c2ccc(-c3c4nc(c(-c5cc(S(=O)(=O)[O-])ccc5F)c5ccc([nH]5)c(-c5cc(S(=O)(=O)[O-])ccc5F)c5nc(c(-c6cc(S(=O)(=O)[O-])ccc6F)c6ccc3[nH]6)C=C5)C=C4)cc2)CCN(C(=O)OC(C)(C)C)C1
REMARK SMILES IDX 12 1 11 2 10 3 9 4 8 5 6 6 7 7 5 8 83 9 93 10 84 11 85 12
REMARK SMILES IDX 4 13 3 14 1 15 2 16 86 17 87 18 88 19 89 20 90 21 91 22
REMARK SMILES IDX 92 23 13 24 14 25 15 26 16 27 17 28 18 29 19 30 20 31 21 32
REMARK SMILES IDX 82 33 22 34 81 35 23 36 24 37 25 38 75 39 26 40 80 41 74 42
REMARK SMILES IDX 76 43 27 44 79 45 73 46 72 47 28 49 60 50 40 51 59 52 41 53
REMARK SMILES IDX 44 54 58 55 77 56 42 57 43 58 57 60 78 61 45 62 29 63 30 64
REMARK SMILES IDX 38 65 31 66 37 67 39 68 36 69 32 70 33 71 34 72 35 73 61 74
REMARK SMILES IDX 62 75 70 76 63 77 69 78 71 79 68 80 64 81 65 82 66 83 67 84
REMARK SMILES IDX 46 85 47 86 55 87 48 88 54 89 56 90 53 91 49 92 50 93 51 94
REMARK SMILES IDX 52 95
REMARK H PARENT 76 48 44 59
REMARK Flexibility Score: inf
ROOT
ATOM      1  C   UNL A   1      32.806  22.958  27.658  1.00  0.00     0.188 C 
ENDROOT
BRANCH   1   2
ATOM      2  O   UNL A   1      31.628  22.718  26.914  1.00  0.00    -0.376 OA
BRANCH   2   3
ATOM      3  C   UNL A   1      31.263  23.617  25.881  1.00  0.00     0.202 C 
BRANCH   3   4
ATOM      4  C   UNL A   1      31.038  25.106  26.168  1.00  0.00     0.261 C 
BRANCH   4   5
ATOM      5  O   UNL A   1      32.227  25.867  26.462  1.00  0.00    -0.463 OA
BRANCH   5   6
ATOM      6  C   UNL A   1      32.027  27.156  26.847  1.00  0.00     0.314 C 
ATOM      7  O   UNL A   1      31.370  27.472  27.833  1.00  0.00    -0.252 OA
BRANCH   6   8
ATOM      8  C   UNL A   1      32.610  28.196  25.892  1.00  0.00     0.091 C 
ATOM      9  C   UNL A   1      33.459  27.720  24.683  1.00  0.00     0.042 C 
ATOM     10  C   UNL A   1      31.355  28.737  25.175  1.00  0.00     0.142 C 
ATOM     11  C   UNL A   1      33.175  28.761  23.617  1.00  0.00     0.124 C 
ATOM     12  N   UNL A   1      31.769  29.013  23.814  1.00  0.00    -0.307 N 
BRANCH   8  13
ATOM     13  C   UNL A   1      33.310  29.331  26.700  1.00  0.00     0.047 C 
BRANCH  13  14
ATOM     14  C   UNL A   1      34.777  29.109  26.993  1.00  0.00    -0.030 C 
ATOM     15  C   UNL A   1      37.070  29.993  27.614  1.00  0.00     0.035 C 
ATOM     16  C   UNL A   1      35.602  30.109  27.349  1.00  0.00    -0.035 C 
ENDBRANCH  13  14
ENDBRANCH   8  13
BRANCH  12  17
ATOM     17  C   UNL A   1      30.855  29.264  22.830  1.00  0.00     0.410 C 
ATOM     18  O   UNL A   1      31.169  29.596  21.698  1.00  0.00    -0.224 OA
BRANCH  17  19
ATOM     19  O   UNL A   1      29.583  29.123  23.284  1.00  0.00    -0.444 OA
BRANCH  19  20
ATOM     20  C   UNL A   1      28.567  30.066  22.872  1.00  0.00     0.106 C 
ATOM     21  C   UNL A   1      28.784  30.475  21.410  1.00  0.00     0.056 C 
ATOM     22  C   UNL A   1      27.158  29.520  23.130  1.00  0.00     0.056 C 
ATOM     23  C   UNL A   1      28.781  31.296  23.765  1.00  0.00     0.056 C 
ENDBRANCH  19  20
ENDBRANCH  17  19
ENDBRANCH  12  17
ENDBRANCH   6   8
ENDBRANCH   5   6
ENDBRANCH   4   5
ENDBRANCH   3   4
ENDBRANCH   2   3
ENDBRANCH   1   2
BRANCH   1  24
ATOM     24  C   UNL A   1      34.161  22.466  27.116  1.00  0.00     0.188 C 
BRANCH  24  25
ATOM     25  O   UNL A   1      34.345  22.243  25.740  1.00  0.00    -0.376 OA
BRANCH  25  26
ATOM     26  C   UNL A   1      35.091  21.107  25.336  1.00  0.00     0.202 C 
BRANCH  26  27
ATOM     27  C   UNL A   1      36.589  21.150  24.967  1.00  0.00     0.261 C 
BRANCH  27  28
ATOM     28  O   UNL A   1      37.383  22.191  25.559  1.00  0.00    -0.460 OA
BRANCH  28  29
ATOM     29  C   UNL A   1      38.627  21.826  25.978  1.00  0.00     0.338 C 
ATOM     30  O   UNL A   1      39.185  20.763  25.772  1.00  0.00    -0.246 OA
BRANCH  29  31
ATOM     31  C   UNL A   1      39.296  22.976  26.624  1.00  0.00     0.060 A 
ATOM     32  C   UNL A   1      38.899  24.272  26.285  1.00  0.00     0.016 A 
ATOM     33  C   UNL A   1      40.370  22.792  27.491  1.00  0.00     0.016 A 
ATOM     34  C   UNL A   1      39.520  25.383  26.849  1.00  0.00     0.010 A 
ATOM     35  C   UNL A   1      41.019  23.916  28.033  1.00  0.00     0.010 A 
ATOM     36  C   UNL A   1      40.595  25.221  27.718  1.00  0.00    -0.014 A 
BRANCH  36  37
ATOM     37  C   UNL A   1      41.344  26.419  28.178  1.00  0.00     0.031 A 
ATOM     38  C   UNL A   1      40.621  27.460  28.983  1.00  0.00     0.074 A 
ATOM     39  C   UNL A   1      42.667  26.550  27.962  1.00  0.00     0.049 A 
ATOM     40  N   UNL A   1      40.992  28.674  29.296  1.00  0.00    -0.248 NA
ATOM     41  C   UNL A   1      39.308  27.070  29.518  1.00  0.00     0.031 C 
ATOM     42  C   UNL A   1      43.534  25.535  27.362  1.00  0.00     0.029 A 
ATOM     43  N   UNL A   1      43.514  27.601  28.220  1.00  0.00    -0.354 N 
ATOM     44  C   UNL A   1      39.939  29.213  30.026  1.00  0.00     0.074 A 
ATOM     45  C   UNL A   1      38.921  28.187  30.115  1.00  0.00     0.031 C 
ATOM     46  C   UNL A   1      44.782  26.022  27.279  1.00  0.00     0.029 A 
ATOM     47  C   UNL A   1      44.785  27.413  27.725  1.00  0.00     0.049 A 
ATOM     48  H   UNL A   1      43.239  28.409  28.710  1.00  0.00     0.167 HD
ATOM     49  C   UNL A   1      39.834  30.458  30.552  1.00  0.00     0.034 A 
ATOM     50  C   UNL A   1      45.805  28.285  27.573  1.00  0.00     0.034 A 
ATOM     51  C   UNL A   1      40.872  31.455  30.459  1.00  0.00     0.049 A 
ATOM     52  C   UNL A   1      45.605  29.720  28.003  1.00  0.00     0.074 A 
ATOM     53  C   UNL A   1      40.865  32.754  30.935  1.00  0.00     0.029 A 
ATOM     54  N   UNL A   1      42.103  31.269  29.842  1.00  0.00    -0.354 N 
ATOM     55  N   UNL A   1      44.570  30.268  28.598  1.00  0.00    -0.248 NA
ATOM     56  C   UNL A   1      46.698  30.660  27.720  1.00  0.00     0.031 C 
ATOM     57  C   UNL A   1      42.049  33.378  30.530  1.00  0.00     0.029 A 
ATOM     58  C   UNL A   1      42.839  32.442  29.881  1.00  0.00     0.049 A 
ATOM     59  H   UNL A   1      42.407  30.423  29.437  1.00  0.00     0.167 HD
ATOM     60  C   UNL A   1      44.899  31.610  28.778  1.00  0.00     0.074 A 
ATOM     61  C   UNL A   1      46.235  31.784  28.245  1.00  0.00     0.031 C 
ATOM     62  C   UNL A   1      44.165  32.608  29.333  1.00  0.00     0.034 A 
BRANCH  49  63
ATOM     63  C   UNL A   1      38.516  30.840  31.180  1.00  0.00     0.023 A 
ATOM     64  C   UNL A   1      37.547  31.595  30.499  1.00  0.00     0.031 A 
ATOM     65  C   UNL A   1      38.242  30.455  32.506  1.00  0.00     0.131 A 
ATOM     66  C   UNL A   1      36.379  31.994  31.169  1.00  0.00     0.055 A 
ATOM     67  C   UNL A   1      37.043  30.786  33.138  1.00  0.00     0.041 A 
ATOM     68  F   UNL A   1      39.144  29.759  33.216  1.00  0.00    -0.206 F 
ATOM     69  C   UNL A   1      36.108  31.572  32.473  1.00  0.00     0.022 A 
BRANCH  66  70
ATOM     70  S   UNL A   1      35.285  33.196  30.363  1.00  0.00     0.124 S 
ATOM     71  O   UNL A   1      36.173  33.779  29.360  1.00  0.00    -0.237 OA
ATOM     72  O   UNL A   1      34.211  32.352  29.851  1.00  0.00    -0.237 OA
ATOM     73  O   UNL A   1      34.907  34.098  31.449  1.00  0.00    -0.744 OA
ENDBRANCH  66  70
ENDBRANCH  49  63
BRANCH  50  74
ATOM     74  C   UNL A   1      47.060  27.872  26.873  1.00  0.00     0.023 A 
ATOM     75  C   UNL A   1      47.184  27.965  25.479  1.00  0.00     0.031 A 
ATOM     76  C   UNL A   1      48.131  27.305  27.590  1.00  0.00     0.131 A 
ATOM     77  C   UNL A   1      48.333  27.464  24.843  1.00  0.00     0.055 A 
ATOM     78  C   UNL A   1      49.298  26.870  26.961  1.00  0.00     0.041 A 
ATOM     79  F   UNL A   1      48.060  27.165  28.924  1.00  0.00    -0.206 F 
ATOM     80  C   UNL A   1      49.398  26.936  25.576  1.00  0.00     0.022 A 
BRANCH  77  81
ATOM     81  S   UNL A   1      48.372  27.412  23.029  1.00  0.00     0.124 S 
ATOM     82  O   UNL A   1      47.181  28.180  22.686  1.00  0.00    -0.237 OA
ATOM     83  O   UNL A   1      49.652  28.047  22.735  1.00  0.00    -0.237 OA
ATOM     84  O   UNL A   1      48.303  25.984  22.728  1.00  0.00    -0.744 OA
ENDBRANCH  77  81
ENDBRANCH  50  74
BRANCH  62  85
ATOM     85  C   UNL A   1      44.805  33.972  29.423  1.00  0.00     0.023 A 
ATOM     86  C   UNL A   1      44.618  34.945  28.427  1.00  0.00     0.031 A 
ATOM     87  C   UNL A   1      45.604  34.308  30.532  1.00  0.00     0.131 A 
ATOM     88  C   UNL A   1      45.256  36.190  28.536  1.00  0.00     0.055 A 
ATOM     89  C   UNL A   1      46.185  35.570  30.666  1.00  0.00     0.041 A 
ATOM     90  F   UNL A   1      45.822  33.416  31.513  1.00  0.00    -0.206 F 
ATOM     91  C   UNL A   1      46.021  36.517  29.660  1.00  0.00     0.022 A 
BRANCH  88  92
ATOM     92  S   UNL A   1      45.138  37.357  27.152  1.00  0.00     0.124 S 
ATOM     93  O   UNL A   1      43.705  37.348  26.872  1.00  0.00    -0.237 OA
ATOM     94  O   UNL A   1      45.668  38.586  27.732  1.00  0.00    -0.237 OA
ATOM     95  O   UNL A   1      45.974  36.749  26.118  1.00  0.00    -0.744 OA
ENDBRANCH  88  92
ENDBRANCH  62  85
ENDBRANCH  36  37
ENDBRANCH  29  31
ENDBRANCH  28  29
ENDBRANCH  27  28
ENDBRANCH  26  27
ENDBRANCH  25  26
ENDBRANCH  24  25
ENDBRANCH   1  24
TORSDOF 25
ENDMDL
MODEL 2
REMARK VINA RESULT:     -10.1      2.146      8.281
REMARK SMILES C/C=C/C[C@]1(C(=O)OCCOCCOCCOC(=O)c2ccc(-c3c4nc(c(-c5cc(S(=O)(=O)[O-])ccc5F)c5ccc([nH]5)c(-c5cc(S(=O)(=O)[O-])ccc5F)c5nc(c(-c6cc(S(=O)(=O)[O-])ccc6F)c6ccc3[nH]6)C=C5)C=C4)cc2)CCN(C(=O)OC(C)(C)C)C1
REMARK SMILES IDX 12 1 11 2 10 3 9 4 8 5 6 6 7 7 5 8 83 9 93 10 84 11 85 12
REMARK SMILES IDX 4 13 3 14 1 15 2 16 86 17 87 18 88 19 89 20 90 21 91 22
REMARK SMILES IDX 92 23 13 24 14 25 15 26 16 27 17 28 18 29 19 30 20 31 21 32
REMARK SMILES IDX 82 33 22 34 81 35 23 36 24 37 25 38 75 39 26 40 80 41 74 42
REMARK SMILES IDX 76 43 27 44 79 45 73 46 72 47 28 49 60 50 40 51 59 52 41 53
REMARK SMILES IDX 44 54 58 55 77 56 42 57 43 58 57 60 78 61 45 62 29 63 30 64
REMARK SMILES IDX 38 65 31 66 37 67 39 68 36 69 32 70 33 71 34 72 35 73 61 74
REMARK SMILES IDX 62 75 70 76 63 77 69 78 71 79 68 80 64 81 65 82 66 83 67 84
REMARK SMILES IDX 46 85 47 86 55 87 48 88 54 89 56 90 53 91 49 92 50 93 51 94
REMARK SMILES IDX 52 95
REMARK H PARENT 76 48 44 59
REMARK Flexibility Score: inf
ROOT
ATOM      1  C   UNL A   1      32.753  32.288  27.355  1.00  0.00     0.188 C 
ENDROOT
BRANCH   1   2
ATOM      2  O   UNL A   1      33.155  30.992  27.753  1.00  0.00    -0.376 OA
BRANCH   2   3
ATOM      3  C   UNL A   1      33.578  30.064  26.770  1.00  0.00     0.202 C 
BRANCH   3   4
ATOM      4  C   UNL A   1      32.774  29.851  25.482  1.00  0.00     0.261 C 
BRANCH   4   5
ATOM      5  O   UNL A   1      32.082  28.591  25.384  1.00  0.00    -0.463 OA
BRANCH   5   6
ATOM      6  C   UNL A   1      32.351  27.849  24.276  1.00  0.00     0.314 C 
ATOM      7  O   UNL A   1      33.487  27.560  23.915  1.00  0.00    -0.252 OA
BRANCH   6   8
ATOM      8  C   UNL A   1      31.118  27.482  23.451  1.00  0.00     0.091 C 
ATOM      9  C   UNL A   1      29.734  27.413  24.149  1.00  0.00     0.042 C 
ATOM     10  C   UNL A   1      30.933  28.722  22.551  1.00  0.00     0.142 C 
ATOM     11  C   UNL A   1      28.766  27.837  23.061  1.00  0.00     0.124 C 
ATOM     12  N   UNL A   1      29.501  28.886  22.400  1.00  0.00    -0.307 N 
BRANCH   8  13
ATOM     13  C   UNL A   1      31.412  26.219  22.585  1.00  0.00     0.047 C 
BRANCH  13  14
ATOM     14  C   UNL A   1      31.105  24.894  23.247  1.00  0.00    -0.030 C 
ATOM     15  C   UNL A   1      31.483  23.202  25.096  1.00  0.00     0.035 C 
ATOM     16  C   UNL A   1      31.689  24.506  24.395  1.00  0.00    -0.035 C 
ENDBRANCH  13  14
ENDBRANCH   8  13
BRANCH  12  17
ATOM     17  C   UNL A   1      28.968  30.031  21.877  1.00  0.00     0.410 C 
ATOM     18  O   UNL A   1      28.084  30.030  21.035  1.00  0.00    -0.224 OA
BRANCH  17  19
ATOM     19  O   UNL A   1      29.563  31.137  22.390  1.00  0.00    -0.444 OA
BRANCH  19  20
ATOM     20  C   UNL A   1      28.872  31.928  23.384  1.00  0.00     0.106 C 
ATOM     21  C   UNL A   1      27.538  31.269  23.752  1.00  0.00     0.056 C 
ATOM     22  C   UNL A   1      29.757  32.193  24.606  1.00  0.00     0.056 C 
ATOM     23  C   UNL A   1      28.585  33.269  22.694  1.00  0.00     0.056 C 
ENDBRANCH  19  20
ENDBRANCH  17  19
ENDBRANCH  12  17
ENDBRANCH   6   8
ENDBRANCH   5   6
ENDBRANCH   4   5
ENDBRANCH   3   4
ENDBRANCH   2   3
ENDBRANCH   1   2
BRANCH   1  24
ATOM     24  C   UNL A   1      33.479  33.519  27.927  1.00  0.00     0.188 C 
BRANCH  24  25
ATOM     25  O   UNL A   1      32.795  34.446  28.734  1.00  0.00    -0.376 OA
BRANCH  25  26
ATOM     26  C   UNL A   1      33.522  35.124  29.744  1.00  0.00     0.202 C 
BRANCH  26  27
ATOM     27  C   UNL A   1      34.342  34.409  30.839  1.00  0.00     0.261 C 
BRANCH  27  28
ATOM     28  O   UNL A   1      34.574  33.000  30.673  1.00  0.00    -0.460 OA
BRANCH  28  29
ATOM     29  C   UNL A   1      35.292  32.396  31.660  1.00  0.00     0.338 C 
ATOM     30  O   UNL A   1      35.003  32.332  32.842  1.00  0.00    -0.246 OA
BRANCH  29  31
ATOM     31  C   UNL A   1      36.448  31.682  31.074  1.00  0.00     0.060 A 
ATOM     32  C   UNL A   1      37.274  30.926  31.909  1.00  0.00     0.016 A 
ATOM     33  C   UNL A   1      36.776  31.822  29.728  1.00  0.00     0.016 A 
ATOM     34  C   UNL A   1      38.388  30.260  31.403  1.00  0.00     0.010 A 
ATOM     35  C   UNL A   1      37.920  31.178  29.226  1.00  0.00     0.010 A 
ATOM     36  C   UNL A   1      38.733  30.388  30.061  1.00  0.00    -0.014 A 
BRANCH  36  37
ATOM     37  C   UNL A   1      40.012  29.803  29.582  1.00  0.00     0.031 A 
ATOM     38  C   UNL A   1      41.238  30.668  29.550  1.00  0.00     0.074 A 
ATOM     39  C   UNL A   1      40.114  28.499  29.259  1.00  0.00     0.049 A 
ATOM     40  N   UNL A   1      42.391  30.455  28.972  1.00  0.00    -0.248 NA
ATOM     41  C   UNL A   1      41.153  31.940  30.283  1.00  0.00     0.031 C 
ATOM     42  C   UNL A   1      39.057  27.499  29.421  1.00  0.00     0.029 A 
ATOM     43  N   UNL A   1      41.161  27.792  28.718  1.00  0.00    -0.354 N 
ATOM     44  C   UNL A   1      43.156  31.587  29.230  1.00  0.00     0.074 A 
ATOM     45  C   UNL A   1      42.337  32.476  30.025  1.00  0.00     0.031 C 
ATOM     46  C   UNL A   1      39.504  26.316  28.968  1.00  0.00     0.029 A 
ATOM     47  C   UNL A   1      40.836  26.494  28.395  1.00  0.00     0.049 A 
ATOM     48  H   UNL A   1      42.055  28.176  28.575  1.00  0.00     0.167 HD
ATOM     49  C   UNL A   1      44.420  31.856  28.819  1.00  0.00     0.034 A 
ATOM     50  C   UNL A   1      41.499  25.582  27.653  1.00  0.00     0.034 A 
ATOM     51  C   UNL A   1      45.219  30.942  28.038  1.00  0.00     0.049 A 
ATOM     52  C   UNL A   1      42.832  25.965  27.050  1.00  0.00     0.074 A 
ATOM     53  C   UNL A   1      46.500  31.119  27.548  1.00  0.00     0.029 A 
ATOM     54  N   UNL A   1      44.810  29.680  27.625  1.00  0.00    -0.354 N 
ATOM     55  N   UNL A   1      43.518  27.075  27.200  1.00  0.00    -0.248 NA
ATOM     56  C   UNL A   1      43.468  24.984  26.161  1.00  0.00     0.031 C 
ATOM     57  C   UNL A   1      46.830  30.007  26.768  1.00  0.00     0.029 A 
ATOM     58  C   UNL A   1      45.792  29.091  26.845  1.00  0.00     0.049 A 
ATOM     59  H   UNL A   1      43.946  29.265  27.854  1.00  0.00     0.167 HD
ATOM     60  C   UNL A   1      44.673  26.915  26.440  1.00  0.00     0.074 A 
ATOM     61  C   UNL A   1      44.601  25.595  25.848  1.00  0.00     0.031 C 
ATOM     62  C   UNL A   1      45.703  27.780  26.248  1.00  0.00     0.034 A 
BRANCH  49  63
ATOM     63  C   UNL A   1      44.972  33.227  29.118  1.00  0.00     0.023 A 
ATOM     64  C   UNL A   1      44.786  34.320  28.255  1.00  0.00     0.031 A 
ATOM     65  C   UNL A   1      45.728  33.432  30.288  1.00  0.00     0.131 A 
ATOM     66  C   UNL A   1      45.400  35.549  28.545  1.00  0.00     0.055 A 
ATOM     67  C   UNL A   1      46.266  34.677  30.611  1.00  0.00     0.041 A 
ATOM     68  F   UNL A   1      45.965  32.417  31.134  1.00  0.00    -0.206 F 
ATOM     69  C   UNL A   1      46.116  35.742  29.730  1.00  0.00     0.022 A 
BRANCH  66  70
ATOM     70  S   UNL A   1      45.377  36.850  27.281  1.00  0.00     0.124 S 
ATOM     71  O   UNL A   1      46.422  36.394  26.367  1.00  0.00    -0.237 OA
ATOM     72  O   UNL A   1      44.010  36.775  26.776  1.00  0.00    -0.237 OA
ATOM     73  O   UNL A   1      45.700  38.063  28.030  1.00  0.00    -0.744 OA
ENDBRANCH  66  70
ENDBRANCH  49  63
BRANCH  50  74
ATOM     74  C   UNL A   1      40.870  24.266  27.323  1.00  0.00     0.023 A 
ATOM     75  C   UNL A   1      39.691  24.188  26.567  1.00  0.00     0.031 A 
ATOM     76  C   UNL A   1      41.404  23.066  27.829  1.00  0.00     0.131 A 
ATOM     77  C   UNL A   1      39.065  22.945  26.371  1.00  0.00     0.055 A 
ATOM     78  C   UNL A   1      40.816  21.826  27.576  1.00  0.00     0.041 A 
ATOM     79  F   UNL A   1      42.516  23.079  28.583  1.00  0.00    -0.206 F 
ATOM     80  C   UNL A   1      39.630  21.762  26.853  1.00  0.00     0.022 A 
BRANCH  77  81
ATOM     81  S   UNL A   1      37.438  22.906  25.567  1.00  0.00     0.124 S 
ATOM     82  O   UNL A   1      37.206  21.472  25.440  1.00  0.00    -0.237 OA
ATOM     83  O   UNL A   1      36.605  23.609  26.536  1.00  0.00    -0.237 OA
ATOM     84  O   UNL A   1      37.663  23.615  24.310  1.00  0.00    -0.744 OA
ENDBRANCH  77  81
ENDBRANCH  50  74
BRANCH  62  85
ATOM     85  C   UNL A   1      46.852  27.310  25.388  1.00  0.00     0.023 A 
ATOM     86  C   UNL A   1      47.052  27.805  24.087  1.00  0.00     0.031 A 
ATOM     87  C   UNL A   1      47.768  26.365  25.884  1.00  0.00     0.131 A 
ATOM     88  C   UNL A   1      48.116  27.319  23.312  1.00  0.00     0.055 A 
ATOM     89  C   UNL A   1      48.860  25.933  25.131  1.00  0.00     0.041 A 
ATOM     90  F   UNL A   1      47.623  25.855  27.118  1.00  0.00    -0.206 F 
ATOM     91  C   UNL A   1      49.034  26.402  23.833  1.00  0.00     0.022 A 
BRANCH  88  92
ATOM     92  S   UNL A   1      48.244  27.843  21.579  1.00  0.00     0.124 S 
ATOM     93  O   UNL A   1      48.773  26.642  20.940  1.00  0.00    -0.237 OA
ATOM     94  O   UNL A   1      46.865  28.187  21.253  1.00  0.00    -0.237 OA
ATOM     95  O   UNL A   1      49.168  28.975  21.631  1.00  0.00    -0.744 OA
ENDBRANCH  88  92
ENDBRANCH  62  85
ENDBRANCH  36  37
ENDBRANCH  29  31
ENDBRANCH  28  29
ENDBRANCH  27  28
ENDBRANCH  26  27
ENDBRANCH  25  26
ENDBRANCH  24  25
ENDBRANCH   1  24
TORSDOF 25
ENDMDL
MODEL 3
REMARK VINA RESULT:      -9.7      1.571      2.408
REMARK SMILES C/C=C/C[C@]1(C(=O)OCCOCCOCCOC(=O)c2ccc(-c3c4nc(c(-c5cc(S(=O)(=O)[O-])ccc5F)c5ccc([nH]5)c(-c5cc(S(=O)(=O)[O-])ccc5F)c5nc(c(-c6cc(S(=O)(=O)[O-])ccc6F)c6ccc3[nH]6)C=C5)C=C4)cc2)CCN(C(=O)OC(C)(C)C)C1
REMARK SMILES IDX 12 1 11 2 10 3 9 4 8 5 6 6 7 7 5 8 83 9 93 10 84 11 85 12
REMARK SMILES IDX 4 13 3 14 1 15 2 16 86 17 87 18 88 19 89 20 90 21 91 22
REMARK SMILES IDX 92 23 13 24 14 25 15 26 16 27 17 28 18 29 19 30 20 31 21 32
REMARK SMILES IDX 82 33 22 34 81 35 23 36 24 37 25 38 75 39 26 40 80 41 74 42
REMARK SMILES IDX 76 43 27 44 79 45 73 46 72 47 28 49 60 50 40 51 59 52 41 53
REMARK SMILES IDX 44 54 58 55 77 56 42 57 43 58 57 60 78 61 45 62 29 63 30 64
REMARK SMILES IDX 38 65 31 66 37 67 39 68 36 69 32 70 33 71 34 72 35 73 61 74
REMARK SMILES IDX 62 75 70 76 63 77 69 78 71 79 68 80 64 81 65 82 66 83 67 84
REMARK SMILES IDX 46 85 47 86 55 87 48 88 54 89 56 90 53 91 49 92 50 93 51 94
REMARK SMILES IDX 52 95
REMARK H PARENT 76 48 44 59
REMARK Flexibility Score: inf
ROOT
ATOM      1  C   UNL A   1      33.568  22.111  27.278  1.00  0.00     0.188 C 
ENDROOT
BRANCH   1   2
ATOM      2  O   UNL A   1      32.639  21.525  26.388  1.00  0.00    -0.376 OA
BRANCH   2   3
ATOM      3  C   UNL A   1      31.564  22.304  25.896  1.00  0.00     0.202 C 
BRANCH   3   4
ATOM      4  C   UNL A   1      30.672  23.116  26.844  1.00  0.00     0.261 C 
BRANCH   4   5
ATOM      5  O   UNL A   1      31.200  24.395  27.247  1.00  0.00    -0.463 OA
BRANCH   5   6
ATOM      6  C   UNL A   1      30.734  25.473  26.560  1.00  0.00     0.314 C 
ATOM      7  O   UNL A   1      29.541  25.732  26.438  1.00  0.00    -0.252 OA
BRANCH   6   8
ATOM      8  C   UNL A   1      31.819  26.292  25.864  1.00  0.00     0.091 C 
ATOM      9  C   UNL A   1      33.245  25.695  25.725  1.00  0.00     0.042 C 
ATOM     10  C   UNL A   1      31.353  26.288  24.392  1.00  0.00     0.142 C 
ATOM     11  C   UNL A   1      33.749  26.280  24.420  1.00  0.00     0.124 C 
ATOM     12  N   UNL A   1      32.565  26.240  23.598  1.00  0.00    -0.307 N 
BRANCH   8  13
ATOM     13  C   UNL A   1      31.835  27.746  26.427  1.00  0.00     0.047 C 
BRANCH  13  14
ATOM     14  C   UNL A   1      33.052  28.111  27.248  1.00  0.00    -0.030 C 
ATOM     15  C   UNL A   1      35.225  29.382  27.543  1.00  0.00     0.035 C 
ATOM     16  C   UNL A   1      33.972  28.994  26.824  1.00  0.00    -0.035 C 
ENDBRANCH  13  14
ENDBRANCH   8  13
BRANCH  12  17
ATOM     17  C   UNL A   1      32.527  25.968  22.260  1.00  0.00     0.410 C 
ATOM     18  O   UNL A   1      31.697  26.450  21.505  1.00  0.00    -0.224 OA
BRANCH  17  19
ATOM     19  O   UNL A   1      33.496  25.087  21.903  1.00  0.00    -0.444 OA
BRANCH  19  20
ATOM     20  C   UNL A   1      33.207  23.670  21.890  1.00  0.00     0.106 C 
ATOM     21  C   UNL A   1      31.909  23.386  22.654  1.00  0.00     0.056 C 
ATOM     22  C   UNL A   1      33.187  23.115  20.462  1.00  0.00     0.056 C 
ATOM     23  C   UNL A   1      34.376  23.021  22.646  1.00  0.00     0.056 C 
ENDBRANCH  19  20
ENDBRANCH  17  19
ENDBRANCH  12  17
ENDBRANCH   6   8
ENDBRANCH   5   6
ENDBRANCH   4   5
ENDBRANCH   3   4
ENDBRANCH   2   3
ENDBRANCH   1   2
BRANCH   1  24
ATOM     24  C   UNL A   1      35.050  22.212  26.874  1.00  0.00     0.188 C 
BRANCH  24  25
ATOM     25  O   UNL A   1      35.442  22.037  25.534  1.00  0.00    -0.376 OA
BRANCH  25  26
ATOM     26  C   UNL A   1      36.111  20.839  25.179  1.00  0.00     0.202 C 
BRANCH  26  27
ATOM     27  C   UNL A   1      37.629  20.749  24.916  1.00  0.00     0.261 C 
BRANCH  27  28
ATOM     28  O   UNL A   1      38.442  21.844  25.370  1.00  0.00    -0.460 OA
BRANCH  28  29
ATOM     29  C   UNL A   1      39.395  21.534  26.292  1.00  0.00     0.338 C 
ATOM     30  O   UNL A   1      39.841  20.428  26.541  1.00  0.00    -0.246 OA
BRANCH  29  31
ATOM     31  C   UNL A   1      39.941  22.775  26.885  1.00  0.00     0.060 A 
ATOM     32  C   UNL A   1      39.538  24.009  26.368  1.00  0.00     0.016 A 
ATOM     33  C   UNL A   1      40.911  22.732  27.883  1.00  0.00     0.016 A 
ATOM     34  C   UNL A   1      40.047  25.200  26.879  1.00  0.00     0.010 A 
ATOM     35  C   UNL A   1      41.449  23.935  28.373  1.00  0.00     0.010 A 
ATOM     36  C   UNL A   1      41.018  25.179  27.876  1.00  0.00    -0.014 A 
BRANCH  36  37
ATOM     37  C   UNL A   1      41.662  26.453  28.288  1.00  0.00     0.031 A 
ATOM     38  C   UNL A   1      40.858  27.453  29.069  1.00  0.00     0.074 A 
ATOM     39  C   UNL A   1      42.966  26.692  28.052  1.00  0.00     0.049 A 
ATOM     40  N   UNL A   1      41.124  28.703  29.338  1.00  0.00    -0.248 NA
ATOM     41  C   UNL A   1      39.590  26.966  29.632  1.00  0.00     0.031 C 
ATOM     42  C   UNL A   1      43.913  25.739  27.475  1.00  0.00     0.029 A 
ATOM     43  N   UNL A   1      43.720  27.822  28.266  1.00  0.00    -0.354 N 
ATOM     44  C   UNL A   1      40.034  29.172  30.064  1.00  0.00     0.074 A 
ATOM     45  C   UNL A   1      39.111  28.064  30.198  1.00  0.00     0.031 C 
ATOM     46  C   UNL A   1      45.114  26.331  27.360  1.00  0.00     0.029 A 
ATOM     47  C   UNL A   1      44.998  27.730  27.762  1.00  0.00     0.049 A 
ATOM     48  H   UNL A   1      43.380  28.618  28.734  1.00  0.00     0.167 HD
ATOM     49  C   UNL A   1      39.824  30.419  30.552  1.00  0.00     0.034 A 
ATOM     50  C   UNL A   1      45.935  28.682  27.570  1.00  0.00     0.034 A 
ATOM     51  C   UNL A   1      40.770  31.500  30.415  1.00  0.00     0.049 A 
ATOM     52  C   UNL A   1      45.613  30.108  27.957  1.00  0.00     0.074 A 
ATOM     53  C   UNL A   1      40.652  32.808  30.849  1.00  0.00     0.029 A 
ATOM     54  N   UNL A   1      42.006  31.402  29.789  1.00  0.00    -0.354 N 
ATOM     55  N   UNL A   1      44.541  30.582  28.547  1.00  0.00    -0.248 NA
ATOM     56  C   UNL A   1      46.618  31.130  27.631  1.00  0.00     0.031 C 
ATOM     57  C   UNL A   1      41.773  33.520  30.410  1.00  0.00     0.029 A 
ATOM     58  C   UNL A   1      42.637  32.636  29.781  1.00  0.00     0.049 A 
ATOM     59  H   UNL A   1      42.380  30.574  29.407  1.00  0.00     0.167 HD
ATOM     60  C   UNL A   1      44.751  31.952  28.680  1.00  0.00     0.074 A 
ATOM     61  C   UNL A   1      46.062  32.226  28.125  1.00  0.00     0.031 C 
ATOM     62  C   UNL A   1      43.937  32.900  29.212  1.00  0.00     0.034 A 
BRANCH  49  63
ATOM     63  C   UNL A   1      38.484  30.704  31.183  1.00  0.00     0.023 A 
ATOM     64  C   UNL A   1      37.461  31.386  30.505  1.00  0.00     0.031 A 
ATOM     65  C   UNL A   1      38.243  30.301  32.510  1.00  0.00     0.131 A 
ATOM     66  C   UNL A   1      36.269  31.699  31.178  1.00  0.00     0.055 A 
ATOM     67  C   UNL A   1      37.025  30.543  33.145  1.00  0.00     0.041 A 
ATOM     68  F   UNL A   1      39.195  29.672  33.218  1.00  0.00    -0.206 F 
ATOM     69  C   UNL A   1      36.033  31.259  32.483  1.00  0.00     0.022 A 
BRANCH  66  70
ATOM     70  S   UNL A   1      35.088  32.819  30.375  1.00  0.00     0.124 S 
ATOM     71  O   UNL A   1      34.082  32.987  31.421  1.00  0.00    -0.237 OA
ATOM     72  O   UNL A   1      35.909  33.989  30.086  1.00  0.00    -0.237 OA
ATOM     73  O   UNL A   1      34.640  32.065  29.206  1.00  0.00    -0.744 OA
ENDBRANCH  66  70
ENDBRANCH  49  63
BRANCH  50  74
ATOM     74  C   UNL A   1      47.216  28.359  26.868  1.00  0.00     0.023 A 
ATOM     75  C   UNL A   1      47.271  28.227  25.473  1.00  0.00     0.031 A 
ATOM     76  C   UNL A   1      48.392  28.103  27.598  1.00  0.00     0.131 A 
ATOM     77  C   UNL A   1      48.464  27.812  24.856  1.00  0.00     0.055 A 
ATOM     78  C   UNL A   1      49.592  27.756  26.975  1.00  0.00     0.041 A 
ATOM     79  F   UNL A   1      48.394  28.187  28.938  1.00  0.00    -0.206 F 
ATOM     80  C   UNL A   1      49.628  27.595  25.595  1.00  0.00     0.022 A 
BRANCH  77  81
ATOM     81  S   UNL A   1      48.444  27.452  23.077  1.00  0.00     0.124 S 
ATOM     82  O   UNL A   1      48.324  25.998  23.071  1.00  0.00    -0.237 OA
ATOM     83  O   UNL A   1      47.271  28.194  22.630  1.00  0.00    -0.237 OA
ATOM     84  O   UNL A   1      49.726  27.974  22.610  1.00  0.00    -0.744 OA
ENDBRANCH  77  81
ENDBRANCH  50  74
BRANCH  62  85
ATOM     85  C   UNL A   1      44.456  34.318  29.251  1.00  0.00     0.023 A 
ATOM     86  C   UNL A   1      43.903  35.330  28.449  1.00  0.00     0.031 A 
ATOM     87  C   UNL A   1      45.511  34.663  30.117  1.00  0.00     0.131 A 
ATOM     88  C   UNL A   1      44.435  36.628  28.495  1.00  0.00     0.055 A 
ATOM     89  C   UNL A   1      45.994  35.969  30.204  1.00  0.00     0.041 A 
ATOM     90  F   UNL A   1      46.081  33.735  30.903  1.00  0.00    -0.206 F 
ATOM     91  C   UNL A   1      45.463  36.959  29.384  1.00  0.00     0.022 A 
BRANCH  88  92
ATOM     92  S   UNL A   1      43.819  37.867  27.322  1.00  0.00     0.124 S 
ATOM     93  O   UNL A   1      45.058  38.472  26.844  1.00  0.00    -0.237 OA
ATOM     94  O   UNL A   1      43.093  37.050  26.356  1.00  0.00    -0.237 OA
ATOM     95  O   UNL A   1      42.983  38.737  28.149  1.00  0.00    -0.744 OA
ENDBRANCH  88  92
ENDBRANCH  62  85
ENDBRANCH  36  37
ENDBRANCH  29  31
ENDBRANCH  28  29
ENDBRANCH  27  28
ENDBRANCH  26  27
ENDBRANCH  25  26
ENDBRANCH  24  25
ENDBRANCH   1  24
TORSDOF 25
ENDMDL
