MODEL 1
REMARK VINA RESULT:     -11.3      0.000      0.000
REMARK SMILES O=C(OCCOCCOCCOC(=O)c1ccc2c(c1)[C@@H]1C=CC[C@@H]1[C@H](c1ccncc1)N2)c1ccc(-c2c3nc(c(-c4cc(S(=O)(=O)[O-])ccc4F)c4ccc([nH]4)c(-c4cc(S(=O)(=O)[O-])ccc4F)c4nc(c(-c5cc(S(=O)(=O)[O-])ccc5F)c5ccc2[nH]5)C=C4)C=C3)cc1
REMARK SMILES IDX 7 1 6 2 5 3 4 4 3 5 2 6 1 7 34 8 35 9 96 10 36 11 95 12
REMARK SMILES IDX 37 13 38 14 39 15 89 16 40 17 94 18 88 19 90 20 41 21 93 22
REMARK SMILES IDX 87 23 86 24 42 26 74 27 54 28 73 29 55 30 58 31 72 32 91 33
REMARK SMILES IDX 56 34 57 35 71 37 92 38 59 39 43 40 44 41 52 42 45 43 51 44
REMARK SMILES IDX 53 45 50 46 46 47 47 48 48 49 49 50 75 51 76 52 84 53 77 54
REMARK SMILES IDX 83 55 85 56 82 57 78 58 79 59 80 60 81 61 60 62 61 63 69 64
REMARK SMILES IDX 62 65 68 66 70 67 67 68 63 69 64 70 65 71 66 72 8 73 9 74
REMARK SMILES IDX 10 75 11 76 12 77 13 78 14 79 15 80 16 81 20 82 17 83 19 84
REMARK SMILES IDX 18 85 21 86 33 87 22 88 25 89 26 90 23 92 24 93 27 94 28 95
REMARK SMILES IDX 32 96 29 97 31 98 30 99
REMARK H PARENT 90 25 58 36 33 91
REMARK Flexibility Score: inf
ROOT
ATOM      1  C   UNL A   1      37.792  21.502  24.790  1.00  0.00     0.188 C 
ENDROOT
BRANCH   1   2
ATOM      2  O   UNL A   1      37.326  20.226  24.343  1.00  0.00    -0.376 OA
BRANCH   2   3
ATOM      3  C   UNL A   1      38.039  19.122  24.907  1.00  0.00     0.202 C 
BRANCH   3   4
ATOM      4  C   UNL A   1      38.995  19.483  26.057  1.00  0.00     0.261 C 
BRANCH   4   5
ATOM      5  O   UNL A   1      40.379  19.227  25.745  1.00  0.00    -0.460 OA
BRANCH   5   6
ATOM      6  C   UNL A   1      41.478  19.752  26.349  1.00  0.00     0.338 C 
ATOM      7  O   UNL A   1      42.451  19.027  26.553  1.00  0.00    -0.246 OA
BRANCH   6   8
ATOM      8  C   UNL A   1      41.568  21.187  26.748  1.00  0.00     0.060 A 
ATOM      9  C   UNL A   1      41.152  22.238  25.936  1.00  0.00     0.016 A 
ATOM     10  C   UNL A   1      42.051  21.501  28.028  1.00  0.00     0.016 A 
ATOM     11  C   UNL A   1      41.384  23.559  26.289  1.00  0.00     0.010 A 
ATOM     12  C   UNL A   1      42.183  22.838  28.436  1.00  0.00     0.010 A 
ATOM     13  C   UNL A   1      41.901  23.883  27.543  1.00  0.00    -0.014 A 
BRANCH  13  14
ATOM     14  C   UNL A   1      42.257  25.301  27.815  1.00  0.00     0.031 A 
ATOM     15  C   UNL A   1      43.603  25.810  27.371  1.00  0.00     0.074 A 
ATOM     16  C   UNL A   1      41.335  26.174  28.277  1.00  0.00     0.049 A 
ATOM     17  N   UNL A   1      44.156  26.979  27.566  1.00  0.00    -0.248 NA
ATOM     18  C   UNL A   1      44.427  24.883  26.578  1.00  0.00     0.031 C 
ATOM     19  C   UNL A   1      39.939  25.855  28.595  1.00  0.00     0.029 A 
ATOM     20  N   UNL A   1      41.422  27.523  28.522  1.00  0.00    -0.354 N 
ATOM     21  C   UNL A   1      45.376  26.936  26.900  1.00  0.00     0.074 A 
ATOM     22  C   UNL A   1      45.515  25.601  26.359  1.00  0.00     0.031 C 
ATOM     23  C   UNL A   1      39.307  26.980  28.964  1.00  0.00     0.029 A 
ATOM     24  C   UNL A   1      40.273  28.057  29.062  1.00  0.00     0.049 A 
ATOM     25  H   UNL A   1      42.228  28.056  28.332  1.00  0.00     0.167 HD
ATOM     26  C   UNL A   1      46.281  27.929  26.722  1.00  0.00     0.034 A 
ATOM     27  C   UNL A   1      40.065  29.249  29.653  1.00  0.00     0.034 A 
ATOM     28  C   UNL A   1      46.139  29.251  27.277  1.00  0.00     0.049 A 
ATOM     29  C   UNL A   1      41.177  30.248  29.654  1.00  0.00     0.074 A 
ATOM     30  C   UNL A   1      47.013  30.322  27.214  1.00  0.00     0.029 A 
ATOM     31  N   UNL A   1      45.036  29.685  28.001  1.00  0.00    -0.354 N 
ATOM     32  N   UNL A   1      42.392  30.138  29.182  1.00  0.00    -0.248 NA
ATOM     33  C   UNL A   1      40.861  31.546  30.263  1.00  0.00     0.031 C 
ATOM     34  C   UNL A   1      46.462  31.386  27.940  1.00  0.00     0.029 A 
ATOM     35  C   UNL A   1      45.216  30.999  28.405  1.00  0.00     0.049 A 
ATOM     36  H   UNL A   1      44.242  29.138  28.200  1.00  0.00     0.167 HD
ATOM     37  C   UNL A   1      42.996  31.358  29.444  1.00  0.00     0.074 A 
ATOM     38  C   UNL A   1      42.006  32.186  30.108  1.00  0.00     0.031 C 
ATOM     39  C   UNL A   1      44.251  31.770  29.141  1.00  0.00     0.034 A 
BRANCH  26  40
ATOM     40  C   UNL A   1      47.516  27.587  25.928  1.00  0.00     0.023 A 
ATOM     41  C   UNL A   1      47.592  27.837  24.545  1.00  0.00     0.031 A 
ATOM     42  C   UNL A   1      48.604  26.949  26.546  1.00  0.00     0.131 A 
ATOM     43  C   UNL A   1      48.701  27.385  23.814  1.00  0.00     0.055 A 
ATOM     44  C   UNL A   1      49.737  26.568  25.825  1.00  0.00     0.041 A 
ATOM     45  F   UNL A   1      48.573  26.664  27.856  1.00  0.00    -0.206 F 
ATOM     46  C   UNL A   1      49.785  26.773  24.448  1.00  0.00     0.022 A 
BRANCH  43  47
ATOM     47  S   UNL A   1      48.653  27.494  22.003  1.00  0.00     0.124 S 
ATOM     48  O   UNL A   1      49.782  28.383  21.732  1.00  0.00    -0.237 OA
ATOM     49  O   UNL A   1      48.822  26.105  21.595  1.00  0.00    -0.237 OA
ATOM     50  O   UNL A   1      47.337  28.068  21.730  1.00  0.00    -0.744 OA
ENDBRANCH  43  47
ENDBRANCH  26  40
BRANCH  27  51
ATOM     51  C   UNL A   1      38.879  29.531  30.506  1.00  0.00     0.023 A 
ATOM     52  C   UNL A   1      37.879  30.448  30.160  1.00  0.00     0.031 A 
ATOM     53  C   UNL A   1      38.844  28.953  31.793  1.00  0.00     0.131 A 
ATOM     54  C   UNL A   1      36.881  30.759  31.102  1.00  0.00     0.055 A 
ATOM     55  C   UNL A   1      37.821  29.225  32.700  1.00  0.00     0.041 A 
ATOM     56  F   UNL A   1      39.790  28.075  32.159  1.00  0.00    -0.206 F 
ATOM     57  C   UNL A   1      36.830  30.135  32.355  1.00  0.00     0.022 A 
BRANCH  54  58
ATOM     58  S   UNL A   1      35.657  32.039  30.706  1.00  0.00     0.124 S 
ATOM     59  O   UNL A   1      35.142  31.567  29.426  1.00  0.00    -0.237 OA
ATOM     60  O   UNL A   1      34.737  31.956  31.837  1.00  0.00    -0.237 OA
ATOM     61  O   UNL A   1      36.453  33.264  30.651  1.00  0.00    -0.744 OA
ENDBRANCH  54  58
ENDBRANCH  27  51
BRANCH  39  62
ATOM     62  C   UNL A   1      44.565  33.184  29.529  1.00  0.00     0.023 A 
ATOM     63  C   UNL A   1      44.347  34.247  28.636  1.00  0.00     0.031 A 
ATOM     64  C   UNL A   1      45.232  33.446  30.737  1.00  0.00     0.131 A 
ATOM     65  C   UNL A   1      44.879  35.510  28.924  1.00  0.00     0.055 A 
ATOM     66  C   UNL A   1      45.698  34.721  31.049  1.00  0.00     0.041 A 
ATOM     67  F   UNL A   1      45.482  32.455  31.607  1.00  0.00    -0.206 F 
ATOM     68  C   UNL A   1      45.540  35.757  30.131  1.00  0.00     0.022 A 
BRANCH  65  69
ATOM     69  S   UNL A   1      44.828  36.783  27.635  1.00  0.00     0.124 S 
ATOM     70  O   UNL A   1      43.395  37.039  27.522  1.00  0.00    -0.237 OA
ATOM     71  O   UNL A   1      45.623  37.856  28.223  1.00  0.00    -0.237 OA
ATOM     72  O   UNL A   1      45.432  36.123  26.480  1.00  0.00    -0.744 OA
ENDBRANCH  65  69
ENDBRANCH  39  62
ENDBRANCH  13  14
ENDBRANCH   6   8
ENDBRANCH   5   6
ENDBRANCH   4   5
ENDBRANCH   3   4
ENDBRANCH   2   3
ENDBRANCH   1   2
BRANCH   1  73
ATOM     73  C   UNL A   1      36.812  22.618  24.424  1.00  0.00     0.188 C 
BRANCH  73  74
ATOM     74  O   UNL A   1      35.456  22.394  24.807  1.00  0.00    -0.376 OA
BRANCH  74  75
ATOM     75  C   UNL A   1      35.232  21.945  26.142  1.00  0.00     0.202 C 
BRANCH  75  76
ATOM     76  C   UNL A   1      34.036  21.012  26.374  1.00  0.00     0.261 C 
BRANCH  76  77
ATOM     77  O   UNL A   1      32.740  21.631  26.297  1.00  0.00    -0.460 OA
BRANCH  77  78
ATOM     78  C   UNL A   1      32.507  22.561  27.257  1.00  0.00     0.338 C 
ATOM     79  O   UNL A   1      32.788  22.489  28.441  1.00  0.00    -0.246 OA
BRANCH  78  80
ATOM     80  C   UNL A   1      31.743  23.696  26.718  1.00  0.00     0.060 A 
ATOM     81  C   UNL A   1      30.350  23.732  26.738  1.00  0.00     0.018 A 
ATOM     82  C   UNL A   1      32.454  24.664  26.019  1.00  0.00     0.022 A 
ATOM     83  C   UNL A   1      29.673  24.718  25.999  1.00  0.00     0.027 A 
ATOM     84  C   UNL A   1      31.774  25.667  25.307  1.00  0.00    -0.017 A 
ATOM     85  C   UNL A   1      30.370  25.658  25.224  1.00  0.00     0.038 A 
ATOM     86  C   UNL A   1      32.583  26.759  24.655  1.00  0.00     0.049 C 
ATOM     87  N   UNL A   1      29.678  26.597  24.461  1.00  0.00    -0.378 N 
ATOM     88  C   UNL A   1      33.399  27.507  25.666  1.00  0.00    -0.023 C 
ATOM     89  C   UNL A   1      31.723  27.903  24.099  1.00  0.00     0.031 C 
ATOM     90  C   UNL A   1      30.417  27.408  23.494  1.00  0.00     0.114 C 
ATOM     91  H   UNL A   1      28.706  26.712  24.570  1.00  0.00     0.161 HD
ATOM     92  C   UNL A   1      32.799  28.650  25.998  1.00  0.00    -0.030 C 
ATOM     93  C   UNL A   1      31.542  28.893  25.256  1.00  0.00     0.034 C 
BRANCH  90  94
ATOM     94  C   UNL A   1      29.641  28.604  22.954  1.00  0.00    -0.022 A 
ATOM     95  C   UNL A   1      28.251  28.656  23.170  1.00  0.00     0.026 A 
ATOM     96  C   UNL A   1      30.201  29.578  22.124  1.00  0.00     0.026 A 
ATOM     97  C   UNL A   1      27.503  29.648  22.554  1.00  0.00     0.111 A 
ATOM     98  C   UNL A   1      29.369  30.541  21.567  1.00  0.00     0.111 A 
ATOM     99  N   UNL A   1      28.036  30.606  21.774  1.00  0.00    -0.265 NA
ENDBRANCH  90  94
ENDBRANCH  78  80
ENDBRANCH  77  78
ENDBRANCH  76  77
ENDBRANCH  75  76
ENDBRANCH  74  75
ENDBRANCH  73  74
ENDBRANCH   1  73
TORSDOF 21
ENDMDL
MODEL 2
REMARK VINA RESULT:     -10.9      1.967      7.536
REMARK SMILES O=C(OCCOCCOCCOC(=O)c1ccc2c(c1)[C@@H]1C=CC[C@@H]1[C@H](c1ccncc1)N2)c1ccc(-c2c3nc(c(-c4cc(S(=O)(=O)[O-])ccc4F)c4ccc([nH]4)c(-c4cc(S(=O)(=O)[O-])ccc4F)c4nc(c(-c5cc(S(=O)(=O)[O-])ccc5F)c5ccc2[nH]5)C=C4)C=C3)cc1
REMARK SMILES IDX 7 1 6 2 5 3 4 4 3 5 2 6 1 7 34 8 35 9 96 10 36 11 95 12
REMARK SMILES IDX 37 13 38 14 39 15 89 16 40 17 94 18 88 19 90 20 41 21 93 22
REMARK SMILES IDX 87 23 86 24 42 26 74 27 54 28 73 29 55 30 58 31 72 32 91 33
REMARK SMILES IDX 56 34 57 35 71 37 92 38 59 39 43 40 44 41 52 42 45 43 51 44
REMARK SMILES IDX 53 45 50 46 46 47 47 48 48 49 49 50 75 51 76 52 84 53 77 54
REMARK SMILES IDX 83 55 85 56 82 57 78 58 79 59 80 60 81 61 60 62 61 63 69 64
REMARK SMILES IDX 62 65 68 66 70 67 67 68 63 69 64 70 65 71 66 72 8 73 9 74
REMARK SMILES IDX 10 75 11 76 12 77 13 78 14 79 15 80 16 81 20 82 17 83 19 84
REMARK SMILES IDX 18 85 21 86 33 87 22 88 25 89 26 90 23 92 24 93 27 94 28 95
REMARK SMILES IDX 32 96 29 97 31 98 30 99
REMARK H PARENT 90 25 58 36 33 91
REMARK Flexibility Score: inf
ROOT
ATOM      1  C   UNL A   1      37.802  22.709  25.455  1.00  0.00     0.188 C 
ENDROOT
BRANCH   1   2
ATOM      2  O   UNL A   1      37.483  21.596  24.617  1.00  0.00    -0.376 OA
BRANCH   2   3
ATOM      3  C   UNL A   1      38.097  20.371  25.026  1.00  0.00     0.202 C 
BRANCH   3   4
ATOM      4  C   UNL A   1      39.329  20.531  25.933  1.00  0.00     0.261 C 
BRANCH   4   5
ATOM      5  O   UNL A   1      40.310  19.492  25.747  1.00  0.00    -0.460 OA
BRANCH   5   6
ATOM      6  C   UNL A   1      41.616  19.503  26.128  1.00  0.00     0.338 C 
ATOM      7  O   UNL A   1      42.229  18.439  26.190  1.00  0.00    -0.246 OA
BRANCH   6   8
ATOM      8  C   UNL A   1      42.350  20.764  26.443  1.00  0.00     0.060 A 
ATOM      9  C   UNL A   1      42.507  21.259  27.734  1.00  0.00     0.016 A 
ATOM     10  C   UNL A   1      42.960  21.467  25.394  1.00  0.00     0.016 A 
ATOM     11  C   UNL A   1      43.074  22.504  27.966  1.00  0.00     0.010 A 
ATOM     12  C   UNL A   1      43.636  22.675  25.637  1.00  0.00     0.010 A 
ATOM     13  C   UNL A   1      43.649  23.232  26.924  1.00  0.00    -0.014 A 
BRANCH  13  14
ATOM     14  C   UNL A   1      44.118  24.615  27.205  1.00  0.00     0.031 A 
ATOM     15  C   UNL A   1      43.112  25.648  27.643  1.00  0.00     0.074 A 
ATOM     16  C   UNL A   1      45.436  24.907  27.253  1.00  0.00     0.049 A 
ATOM     17  N   UNL A   1      43.277  26.925  27.868  1.00  0.00    -0.248 NA
ATOM     18  C   UNL A   1      41.741  25.168  27.884  1.00  0.00     0.031 C 
ATOM     19  C   UNL A   1      46.531  23.961  27.013  1.00  0.00     0.029 A 
ATOM     20  N   UNL A   1      46.083  26.079  27.565  1.00  0.00    -0.354 N 
ATOM     21  C   UNL A   1      42.041  27.395  28.301  1.00  0.00     0.074 A 
ATOM     22  C   UNL A   1      41.119  26.281  28.235  1.00  0.00     0.031 C 
ATOM     23  C   UNL A   1      47.701  24.589  27.211  1.00  0.00     0.029 A 
ATOM     24  C   UNL A   1      47.452  25.999  27.435  1.00  0.00     0.049 A 
ATOM     25  H   UNL A   1      45.614  26.896  27.851  1.00  0.00     0.167 HD
ATOM     26  C   UNL A   1      41.713  28.632  28.748  1.00  0.00     0.034 A 
ATOM     27  C   UNL A   1      48.378  26.976  27.405  1.00  0.00     0.034 A 
ATOM     28  C   UNL A   1      42.635  29.737  28.797  1.00  0.00     0.049 A 
ATOM     29  C   UNL A   1      47.942  28.382  27.668  1.00  0.00     0.074 A 
ATOM     30  C   UNL A   1      42.406  31.048  29.175  1.00  0.00     0.029 A 
ATOM     31  N   UNL A   1      43.979  29.654  28.454  1.00  0.00    -0.354 N 
ATOM     32  N   UNL A   1      46.741  28.848  27.899  1.00  0.00    -0.248 NA
ATOM     33  C   UNL A   1      49.012  29.385  27.679  1.00  0.00     0.031 C 
ATOM     34  C   UNL A   1      43.597  31.769  29.015  1.00  0.00     0.029 A 
ATOM     35  C   UNL A   1      44.584  30.894  28.595  1.00  0.00     0.049 A 
ATOM     36  H   UNL A   1      44.434  28.836  28.153  1.00  0.00     0.167 HD
ATOM     37  C   UNL A   1      46.909  30.212  28.076  1.00  0.00     0.074 A 
ATOM     38  C   UNL A   1      48.327  30.486  27.933  1.00  0.00     0.031 C 
ATOM     39  C   UNL A   1      45.979  31.156  28.359  1.00  0.00     0.034 A 
BRANCH  26  40
ATOM     40  C   UNL A   1      40.282  28.841  29.175  1.00  0.00     0.023 A 
ATOM     41  C   UNL A   1      39.911  28.824  30.533  1.00  0.00     0.031 A 
ATOM     42  C   UNL A   1      39.269  28.995  28.214  1.00  0.00     0.131 A 
ATOM     43  C   UNL A   1      38.555  28.889  30.887  1.00  0.00     0.055 A 
ATOM     44  C   UNL A   1      37.929  29.132  28.577  1.00  0.00     0.041 A 
ATOM     45  F   UNL A   1      39.564  28.991  26.905  1.00  0.00    -0.206 F 
ATOM     46  C   UNL A   1      37.563  29.066  29.919  1.00  0.00     0.022 A 
BRANCH  43  47
ATOM     47  S   UNL A   1      38.093  28.611  32.619  1.00  0.00     0.124 S 
ATOM     48  O   UNL A   1      39.139  29.349  33.325  1.00  0.00    -0.237 OA
ATOM     49  O   UNL A   1      36.753  29.179  32.687  1.00  0.00    -0.237 OA
ATOM     50  O   UNL A   1      38.162  27.158  32.762  1.00  0.00    -0.744 OA
ENDBRANCH  43  47
ENDBRANCH  26  40
BRANCH  27  51
ATOM     51  C   UNL A   1      49.759  26.763  26.896  1.00  0.00     0.023 A 
ATOM     52  C   UNL A   1      50.174  27.132  25.610  1.00  0.00     0.031 A 
ATOM     53  C   UNL A   1      50.647  26.016  27.698  1.00  0.00     0.131 A 
ATOM     54  C   UNL A   1      51.453  26.747  25.167  1.00  0.00     0.055 A 
ATOM     55  C   UNL A   1      51.933  25.686  27.272  1.00  0.00     0.041 A 
ATOM     56  F   UNL A   1      50.279  25.640  28.933  1.00  0.00    -0.206 F 
ATOM     57  C   UNL A   1      52.342  26.053  25.997  1.00  0.00     0.022 A 
BRANCH  54  58
ATOM     58  S   UNL A   1      51.947  27.114  23.460  1.00  0.00     0.124 S 
ATOM     59  O   UNL A   1      52.922  26.060  23.204  1.00  0.00    -0.237 OA
ATOM     60  O   UNL A   1      50.683  27.006  22.736  1.00  0.00    -0.237 OA
ATOM     61  O   UNL A   1      52.492  28.467  23.548  1.00  0.00    -0.744 OA
ENDBRANCH  54  58
ENDBRANCH  27  51
BRANCH  39  62
ATOM     62  C   UNL A   1      46.518  32.544  28.538  1.00  0.00     0.023 A 
ATOM     63  C   UNL A   1      46.844  33.343  27.429  1.00  0.00     0.031 A 
ATOM     64  C   UNL A   1      46.853  33.004  29.822  1.00  0.00     0.131 A 
ATOM     65  C   UNL A   1      47.574  34.523  27.621  1.00  0.00     0.055 A 
ATOM     66  C   UNL A   1      47.520  34.213  30.010  1.00  0.00     0.041 A 
ATOM     67  F   UNL A   1      46.582  32.260  30.906  1.00  0.00    -0.206 F 
ATOM     68  C   UNL A   1      47.901  34.970  28.905  1.00  0.00     0.022 A 
BRANCH  65  69
ATOM     69  S   UNL A   1      48.222  35.384  26.163  1.00  0.00     0.124 S 
ATOM     70  O   UNL A   1      47.369  34.859  25.101  1.00  0.00    -0.237 OA
ATOM     71  O   UNL A   1      48.017  36.787  26.511  1.00  0.00    -0.237 OA
ATOM     72  O   UNL A   1      49.618  34.957  26.107  1.00  0.00    -0.744 OA
ENDBRANCH  65  69
ENDBRANCH  39  62
ENDBRANCH  13  14
ENDBRANCH   6   8
ENDBRANCH   5   6
ENDBRANCH   4   5
ENDBRANCH   3   4
ENDBRANCH   2   3
ENDBRANCH   1   2
BRANCH   1  73
ATOM     73  C   UNL A   1      36.680  23.747  25.464  1.00  0.00     0.188 C 
BRANCH  73  74
ATOM     74  O   UNL A   1      35.356  23.220  25.558  1.00  0.00    -0.376 OA
BRANCH  74  75
ATOM     75  C   UNL A   1      35.109  22.295  26.614  1.00  0.00     0.202 C 
BRANCH  75  76
ATOM     76  C   UNL A   1      34.000  21.257  26.388  1.00  0.00     0.261 C 
BRANCH  76  77
ATOM     77  O   UNL A   1      32.668  21.786  26.271  1.00  0.00    -0.460 OA
BRANCH  77  78
ATOM     78  C   UNL A   1      32.320  22.648  27.260  1.00  0.00     0.338 C 
ATOM     79  O   UNL A   1      32.485  22.505  28.459  1.00  0.00    -0.246 OA
BRANCH  78  80
ATOM     80  C   UNL A   1      31.588  23.803  26.718  1.00  0.00     0.060 A 
ATOM     81  C   UNL A   1      30.196  23.877  26.738  1.00  0.00     0.018 A 
ATOM     82  C   UNL A   1      32.326  24.750  26.019  1.00  0.00     0.022 A 
ATOM     83  C   UNL A   1      29.547  24.880  25.997  1.00  0.00     0.027 A 
ATOM     84  C   UNL A   1      31.674  25.770  25.305  1.00  0.00    -0.017 A 
ATOM     85  C   UNL A   1      30.271  25.799  25.221  1.00  0.00     0.038 A 
ATOM     86  C   UNL A   1      32.513  26.840  24.652  1.00  0.00     0.049 C 
ATOM     87  N   UNL A   1      29.605  26.756  24.456  1.00  0.00    -0.378 N 
ATOM     88  C   UNL A   1      33.348  27.565  25.663  1.00  0.00    -0.023 C 
ATOM     89  C   UNL A   1      31.685  28.005  24.095  1.00  0.00     0.031 C 
ATOM     90  C   UNL A   1      30.367  27.545  23.489  1.00  0.00     0.114 C 
ATOM     91  H   UNL A   1      28.636  26.898  24.564  1.00  0.00     0.161 HD
ATOM     92  C   UNL A   1      32.780  28.726  25.993  1.00  0.00    -0.030 C 
ATOM     93  C   UNL A   1      31.530  29.002  25.250  1.00  0.00     0.034 C 
BRANCH  90  94
ATOM     94  C   UNL A   1      29.623  28.761  22.947  1.00  0.00    -0.022 A 
ATOM     95  C   UNL A   1      28.281  28.951  23.322  1.00  0.00     0.026 A 
ATOM     96  C   UNL A   1      30.148  29.618  21.977  1.00  0.00     0.026 A 
ATOM     97  C   UNL A   1      27.540  29.956  22.719  1.00  0.00     0.111 A 
ATOM     98  C   UNL A   1      29.330  30.607  21.444  1.00  0.00     0.111 A 
ATOM     99  N   UNL A   1      28.043  30.803  21.803  1.00  0.00    -0.265 NA
ENDBRANCH  90  94
ENDBRANCH  78  80
ENDBRANCH  77  78
ENDBRANCH  76  77
ENDBRANCH  75  76
ENDBRANCH  74  75
ENDBRANCH  73  74
ENDBRANCH   1  73
TORSDOF 21
ENDMDL
MODEL 3
REMARK VINA RESULT:     -10.8      4.665      6.570
REMARK SMILES O=C(OCCOCCOCCOC(=O)c1ccc2c(c1)[C@@H]1C=CC[C@@H]1[C@H](c1ccncc1)N2)c1ccc(-c2c3nc(c(-c4cc(S(=O)(=O)[O-])ccc4F)c4ccc([nH]4)c(-c4cc(S(=O)(=O)[O-])ccc4F)c4nc(c(-c5cc(S(=O)(=O)[O-])ccc5F)c5ccc2[nH]5)C=C4)C=C3)cc1
REMARK SMILES IDX 7 1 6 2 5 3 4 4 3 5 2 6 1 7 34 8 35 9 96 10 36 11 95 12
REMARK SMILES IDX 37 13 38 14 39 15 89 16 40 17 94 18 88 19 90 20 41 21 93 22
REMARK SMILES IDX 87 23 86 24 42 26 74 27 54 28 73 29 55 30 58 31 72 32 91 33
REMARK SMILES IDX 56 34 57 35 71 37 92 38 59 39 43 40 44 41 52 42 45 43 51 44
REMARK SMILES IDX 53 45 50 46 46 47 47 48 48 49 49 50 75 51 76 52 84 53 77 54
REMARK SMILES IDX 83 55 85 56 82 57 78 58 79 59 80 60 81 61 60 62 61 63 69 64
REMARK SMILES IDX 62 65 68 66 70 67 67 68 63 69 64 70 65 71 66 72 8 73 9 74
REMARK SMILES IDX 10 75 11 76 12 77 13 78 14 79 15 80 16 81 20 82 17 83 19 84
REMARK SMILES IDX 18 85 21 86 33 87 22 88 25 89 26 90 23 92 24 93 27 94 28 95
REMARK SMILES IDX 32 96 29 97 31 98 30 99
REMARK H PARENT 90 25 58 36 33 91
REMARK Flexibility Score: inf
ROOT
ATOM      1  C   UNL A   1      40.340  19.788  26.102  1.00  0.00     0.188 C 
ENDROOT
BRANCH   1   2
ATOM      2  O   UNL A   1      41.356  20.473  26.839  1.00  0.00    -0.376 OA
BRANCH   2   3
ATOM      3  C   UNL A   1      42.684  20.043  26.526  1.00  0.00     0.202 C 
BRANCH   3   4
ATOM      4  C   UNL A   1      43.440  20.938  25.528  1.00  0.00     0.261 C 
BRANCH   4   5
ATOM      5  O   UNL A   1      42.720  22.137  25.182  1.00  0.00    -0.460 OA
BRANCH   5   6
ATOM      6  C   UNL A   1      43.169  23.419  25.227  1.00  0.00     0.338 C 
ATOM      7  O   UNL A   1      43.776  23.874  24.259  1.00  0.00    -0.246 OA
BRANCH   6   8
ATOM      8  C   UNL A   1      42.926  24.316  26.395  1.00  0.00     0.060 A 
ATOM      9  C   UNL A   1      42.167  23.947  27.501  1.00  0.00     0.016 A 
ATOM     10  C   UNL A   1      43.531  25.581  26.410  1.00  0.00     0.016 A 
ATOM     11  C   UNL A   1      41.851  24.859  28.498  1.00  0.00     0.010 A 
ATOM     12  C   UNL A   1      43.306  26.472  27.473  1.00  0.00     0.010 A 
ATOM     13  C   UNL A   1      42.414  26.135  28.502  1.00  0.00    -0.014 A 
BRANCH  13  14
ATOM     14  C   UNL A   1      41.935  27.115  29.513  1.00  0.00     0.031 A 
ATOM     15  C   UNL A   1      42.680  27.235  30.817  1.00  0.00     0.074 A 
ATOM     16  C   UNL A   1      40.974  28.014  29.210  1.00  0.00     0.049 A 
ATOM     17  N   UNL A   1      42.404  27.960  31.869  1.00  0.00    -0.248 NA
ATOM     18  C   UNL A   1      43.919  26.448  30.940  1.00  0.00     0.031 C 
ATOM     19  C   UNL A   1      40.278  28.123  27.924  1.00  0.00     0.029 A 
ATOM     20  N   UNL A   1      40.444  29.042  29.953  1.00  0.00    -0.354 N 
ATOM     21  C   UNL A   1      43.443  27.739  32.765  1.00  0.00     0.074 A 
ATOM     22  C   UNL A   1      44.317  26.754  32.164  1.00  0.00     0.031 C 
ATOM     23  C   UNL A   1      39.439  29.169  27.968  1.00  0.00     0.029 A 
ATOM     24  C   UNL A   1      39.418  29.705  29.315  1.00  0.00     0.049 A 
ATOM     25  H   UNL A   1      40.764  29.280  30.853  1.00  0.00     0.167 HD
ATOM     26  C   UNL A   1      43.671  28.329  33.964  1.00  0.00     0.034 A 
ATOM     27  C   UNL A   1      38.511  30.573  29.803  1.00  0.00     0.034 A 
ATOM     28  C   UNL A   1      42.787  29.298  34.560  1.00  0.00     0.049 A 
ATOM     29  C   UNL A   1      38.649  31.027  31.220  1.00  0.00     0.074 A 
ATOM     30  C   UNL A   1      42.881  29.922  35.791  1.00  0.00     0.029 A 
ATOM     31  N   UNL A   1      41.638  29.789  33.955  1.00  0.00    -0.354 N 
ATOM     32  N   UNL A   1      39.529  30.676  32.122  1.00  0.00    -0.248 NA
ATOM     33  C   UNL A   1      37.662  32.017  31.666  1.00  0.00     0.031 C 
ATOM     34  C   UNL A   1      41.764  30.753  35.952  1.00  0.00     0.029 A 
ATOM     35  C   UNL A   1      41.005  30.693  34.795  1.00  0.00     0.049 A 
ATOM     36  H   UNL A   1      41.317  29.532  33.061  1.00  0.00     0.167 HD
ATOM     37  C   UNL A   1      39.197  31.401  33.256  1.00  0.00     0.074 A 
ATOM     38  C   UNL A   1      38.042  32.211  32.917  1.00  0.00     0.031 C 
ATOM     39  C   UNL A   1      39.807  31.418  34.466  1.00  0.00     0.034 A 
BRANCH  26  40
ATOM     40  C   UNL A   1      44.907  27.895  34.710  1.00  0.00     0.023 A 
ATOM     41  C   UNL A   1      44.878  26.815  35.613  1.00  0.00     0.031 A 
ATOM     42  C   UNL A   1      46.110  28.605  34.566  1.00  0.00     0.131 A 
ATOM     43  C   UNL A   1      46.011  26.523  36.388  1.00  0.00     0.055 A 
ATOM     44  C   UNL A   1      47.255  28.263  35.288  1.00  0.00     0.041 A 
ATOM     45  F   UNL A   1      46.185  29.659  33.739  1.00  0.00    -0.206 F 
ATOM     46  C   UNL A   1      47.206  27.225  36.215  1.00  0.00     0.022 A 
BRANCH  43  47
ATOM     47  S   UNL A   1      45.863  25.297  37.717  1.00  0.00     0.124 S 
ATOM     48  O   UNL A   1      44.818  24.418  37.192  1.00  0.00    -0.237 OA
ATOM     49  O   UNL A   1      47.204  24.729  37.777  1.00  0.00    -0.237 OA
ATOM     50  O   UNL A   1      45.472  26.094  38.877  1.00  0.00    -0.744 OA
ENDBRANCH  43  47
ENDBRANCH  26  40
BRANCH  27  51
ATOM     51  C   UNL A   1      37.255  30.915  29.084  1.00  0.00     0.023 A 
ATOM     52  C   UNL A   1      36.762  32.221  28.969  1.00  0.00     0.031 A 
ATOM     53  C   UNL A   1      36.449  29.851  28.627  1.00  0.00     0.131 A 
ATOM     54  C   UNL A   1      35.488  32.424  28.406  1.00  0.00     0.055 A 
ATOM     55  C   UNL A   1      35.212  30.065  28.021  1.00  0.00     0.041 A 
ATOM     56  F   UNL A   1      36.888  28.587  28.728  1.00  0.00    -0.206 F 
ATOM     57  C   UNL A   1      34.725  31.360  27.908  1.00  0.00     0.022 A 
BRANCH  54  58
ATOM     58  S   UNL A   1      34.792  34.099  28.370  1.00  0.00     0.124 S 
ATOM     59  O   UNL A   1      33.478  33.884  28.964  1.00  0.00    -0.237 OA
ATOM     60  O   UNL A   1      35.744  34.854  29.179  1.00  0.00    -0.237 OA
ATOM     61  O   UNL A   1      34.792  34.435  26.947  1.00  0.00    -0.744 OA
ENDBRANCH  54  58
ENDBRANCH  27  51
BRANCH  39  62
ATOM     62  C   UNL A   1      39.210  32.366  35.464  1.00  0.00     0.023 A 
ATOM     63  C   UNL A   1      39.700  33.675  35.603  1.00  0.00     0.031 A 
ATOM     64  C   UNL A   1      38.257  31.902  36.385  1.00  0.00     0.131 A 
ATOM     65  C   UNL A   1      39.301  34.447  36.701  1.00  0.00     0.055 A 
ATOM     66  C   UNL A   1      37.813  32.700  37.436  1.00  0.00     0.041 A 
ATOM     67  F   UNL A   1      37.782  30.649  36.302  1.00  0.00    -0.206 F 
ATOM     68  C   UNL A   1      38.350  33.973  37.611  1.00  0.00     0.022 A 
BRANCH  65  69
ATOM     69  S   UNL A   1      40.156  36.016  37.010  1.00  0.00     0.124 S 
ATOM     70  O   UNL A   1      39.242  36.678  37.935  1.00  0.00    -0.237 OA
ATOM     71  O   UNL A   1      41.427  35.574  37.575  1.00  0.00    -0.237 OA
ATOM     72  O   UNL A   1      40.244  36.623  35.684  1.00  0.00    -0.744 OA
ENDBRANCH  65  69
ENDBRANCH  39  62
ENDBRANCH  13  14
ENDBRANCH   6   8
ENDBRANCH   5   6
ENDBRANCH   4   5
ENDBRANCH   3   4
ENDBRANCH   2   3
ENDBRANCH   1   2
BRANCH   1  73
ATOM     73  C   UNL A   1      39.177  20.717  25.753  1.00  0.00     0.188 C 
BRANCH  73  74
ATOM     74  O   UNL A   1      39.452  22.114  25.860  1.00  0.00    -0.376 OA
BRANCH  74  75
ATOM     75  C   UNL A   1      38.329  22.977  26.017  1.00  0.00     0.202 C 
BRANCH  75  76
ATOM     76  C   UNL A   1      36.937  22.352  25.845  1.00  0.00     0.261 C 
BRANCH  76  77
ATOM     77  O   UNL A   1      35.826  23.240  26.057  1.00  0.00    -0.460 OA
BRANCH  77  78
ATOM     78  C   UNL A   1      34.657  22.613  26.345  1.00  0.00     0.338 C 
ATOM     79  O   UNL A   1      34.508  21.471  26.742  1.00  0.00    -0.246 OA
BRANCH  78  80
ATOM     80  C   UNL A   1      33.506  23.468  26.015  1.00  0.00     0.060 A 
ATOM     81  C   UNL A   1      32.193  23.005  26.081  1.00  0.00     0.018 A 
ATOM     82  C   UNL A   1      33.778  24.712  25.459  1.00  0.00     0.022 A 
ATOM     83  C   UNL A   1      31.158  23.779  25.528  1.00  0.00     0.027 A 
ATOM     84  C   UNL A   1      32.736  25.497  24.935  1.00  0.00    -0.017 A 
ATOM     85  C   UNL A   1      31.421  25.002  24.893  1.00  0.00     0.038 A 
ATOM     86  C   UNL A   1      33.061  26.884  24.442  1.00  0.00     0.049 C 
ATOM     87  N   UNL A   1      30.386  25.731  24.309  1.00  0.00    -0.378 N 
ATOM     88  C   UNL A   1      33.649  27.724  25.535  1.00  0.00    -0.023 C 
ATOM     89  C   UNL A   1      31.816  27.714  24.101  1.00  0.00     0.031 C 
ATOM     90  C   UNL A   1      30.716  26.877  23.462  1.00  0.00     0.114 C 
ATOM     91  H   UNL A   1      29.447  25.479  24.463  1.00  0.00     0.161 HD
ATOM     92  C   UNL A   1      32.721  28.523  26.062  1.00  0.00    -0.030 C 
ATOM     93  C   UNL A   1      31.401  28.405  25.405  1.00  0.00     0.034 C 
BRANCH  90  94
ATOM     94  C   UNL A   1      29.532  27.783  23.142  1.00  0.00    -0.022 A 
ATOM     95  C   UNL A   1      29.786  29.051  22.589  1.00  0.00     0.026 A 
ATOM     96  C   UNL A   1      28.215  27.491  23.506  1.00  0.00     0.026 A 
ATOM     97  C   UNL A   1      28.741  29.951  22.438  1.00  0.00     0.111 A 
ATOM     98  C   UNL A   1      27.235  28.453  23.299  1.00  0.00     0.111 A 
ATOM     99  N   UNL A   1      27.466  29.670  22.760  1.00  0.00    -0.265 NA
ENDBRANCH  90  94
ENDBRANCH  78  80
ENDBRANCH  77  78
ENDBRANCH  76  77
ENDBRANCH  75  76
ENDBRANCH  74  75
ENDBRANCH  73  74
ENDBRANCH   1  73
TORSDOF 21
ENDMDL
