MODEL 1
REMARK VINA RESULT:     -10.7      0.000      0.000
REMARK SMILES CC1(C)CC[C@@]2(C(=O)OCCOCCOCCOC(=O)c3ccc(-c4c5nc(c(-c6cc(S(=O)(=O)[O-])ccc6F)c6ccc([nH]6)c(-c6cc(S(=O)(=O)[O-])ccc6F)c6nc(c(-c7cc(S(=O)(=O)[O-])ccc7F)c7ccc4[nH]7)C=C6)C=C5)cc3)CC[C@@]3(C)C(=CC[C@H]4[C@@]5(C)CC[C@H](O)C(C)(C)[C@@H]5CC[C@]43C)[C@@H]2C1
REMARK SMILES IDX 14 1 13 2 12 3 11 4 10 5 9 6 7 7 8 8 6 9 1 10 2 11 3 12 4 13
REMARK SMILES IDX 107 14 5 15 106 16 88 17 84 18 86 19 89 20 85 21 87 22
REMARK SMILES IDX 104 23 90 24 91 25 103 26 105 27 92 28 102 29 93 30 94 31
REMARK SMILES IDX 101 32 95 33 98 34 96 35 99 36 100 37 97 38 15 40 16 41
REMARK SMILES IDX 17 42 18 43 19 44 20 45 21 46 22 47 83 48 23 49 82 50 24 51
REMARK SMILES IDX 25 52 26 53 76 54 27 55 81 56 75 57 77 58 28 59 80 60 74 61
REMARK SMILES IDX 73 62 29 64 61 65 41 66 60 67 42 68 45 69 59 70 78 71 43 72
REMARK SMILES IDX 44 73 58 75 79 76 46 77 30 78 31 79 39 80 32 81 38 82 40 83
REMARK SMILES IDX 37 84 33 85 34 86 35 87 36 88 62 89 63 90 71 91 64 92 70 93
REMARK SMILES IDX 72 94 69 95 65 96 66 97 67 98 68 99 47 100 48 101 56 102
REMARK SMILES IDX 49 103 55 104 57 105 54 106 50 107 51 108 52 109 53 110
REMARK H PARENT 97 39 77 63 45 74
REMARK Flexibility Score: inf
ROOT
ATOM      1  C   UNL A   1      39.673  21.858  26.832  1.00  0.00     0.188 C 
ENDROOT
BRANCH   1   2
ATOM      2  C   UNL A   1      39.151  23.243  26.442  1.00  0.00     0.188 C 
BRANCH   2   3
ATOM      3  O   UNL A   1      37.930  23.164  25.738  1.00  0.00    -0.376 OA
BRANCH   3   4
ATOM      4  C   UNL A   1      36.991  24.149  26.125  1.00  0.00     0.202 C 
BRANCH   4   5
ATOM      5  C   UNL A   1      35.588  23.667  26.501  1.00  0.00     0.261 C 
BRANCH   5   6
ATOM      6  O   UNL A   1      34.625  24.185  25.588  1.00  0.00    -0.463 OA
BRANCH   6   7
ATOM      7  C   UNL A   1      33.930  23.225  24.980  1.00  0.00     0.312 C 
ATOM      8  O   UNL A   1      32.903  22.789  25.479  1.00  0.00    -0.252 OA
BRANCH   7   9
ATOM      9  C   UNL A   1      34.527  22.570  23.790  1.00  0.00     0.075 C 
ATOM     10  C   UNL A   1      33.479  18.428  24.233  1.00  0.00     0.011 C 
ATOM     11  C   UNL A   1      33.418  19.889  24.732  1.00  0.00    -0.035 C 
ATOM     12  C   UNL A   1      32.520  19.771  26.022  1.00  0.00     0.011 C 
ATOM     13  C   UNL A   1      34.854  20.314  25.108  1.00  0.00     0.007 C 
ATOM     14  C   UNL A   1      32.673  20.816  23.681  1.00  0.00     0.015 C 
ATOM     15  C   UNL A   1      35.471  21.405  24.208  1.00  0.00     0.020 C 
ATOM     16  C   UNL A   1      33.306  22.123  22.971  1.00  0.00     0.033 C 
ATOM     17  C   UNL A   1      32.333  23.441  22.808  1.00  0.00    -0.063 C 
ATOM     18  C   UNL A   1      35.260  23.709  23.005  1.00  0.00     0.020 C 
ATOM     19  C   UNL A   1      32.863  24.948  22.360  1.00  0.00    -0.006 C 
ATOM     20  C   UNL A   1      31.229  23.386  23.585  1.00  0.00    -0.027 C 
ATOM     21  C   UNL A   1      34.434  25.056  22.732  1.00  0.00     0.013 C 
ATOM     22  C   UNL A   1      32.973  24.990  20.809  1.00  0.00     0.017 C 
ATOM     23  C   UNL A   1      31.555  26.149  22.855  1.00  0.00    -0.020 C 
ATOM     24  C   UNL A   1      30.766  24.469  24.529  1.00  0.00     0.032 C 
ATOM     25  C   UNL A   1      31.252  25.934  24.344  1.00  0.00     0.006 C 
ATOM     26  C   UNL A   1      31.260  27.782  22.781  1.00  0.00     0.008 C 
ATOM     27  C   UNL A   1      30.346  25.689  21.913  1.00  0.00     0.012 C 
ATOM     28  C   UNL A   1      32.101  26.987  25.421  1.00  0.00    -0.025 C 
ATOM     29  C   UNL A   1      30.637  28.563  24.149  1.00  0.00     0.005 C 
ATOM     30  C   UNL A   1      31.587  26.624  26.829  1.00  0.00     0.012 C 
ATOM     31  C   UNL A   1      33.659  27.195  25.211  1.00  0.00     0.010 C 
ATOM     32  C   UNL A   1      31.738  28.508  25.186  1.00  0.00     0.003 C 
ATOM     33  C   UNL A   1      34.382  28.298  26.032  1.00  0.00     0.033 C 
ATOM     34  C   UNL A   1      32.184  29.574  26.340  1.00  0.00    -0.006 C 
ATOM     35  C   UNL A   1      33.727  29.695  26.073  1.00  0.00     0.120 C 
ATOM     36  C   UNL A   1      32.040  29.288  27.872  1.00  0.00     0.014 C 
ATOM     37  C   UNL A   1      31.513  30.948  26.173  1.00  0.00     0.014 C 
BRANCH  35  38
ATOM     38  O   UNL A   1      34.386  30.536  27.017  1.00  0.00    -0.393 OA
ATOM     39  H   UNL A   1      35.102  30.042  27.447  1.00  0.00     0.210 HD
ENDBRANCH  35  38
ENDBRANCH   7   9
ENDBRANCH   6   7
ENDBRANCH   5   6
ENDBRANCH   4   5
ENDBRANCH   3   4
ENDBRANCH   2   3
ENDBRANCH   1   2
BRANCH   1  40
ATOM     40  O   UNL A   1      39.910  20.909  25.796  1.00  0.00    -0.376 OA
BRANCH  40  41
ATOM     41  C   UNL A   1      40.427  19.593  26.065  1.00  0.00     0.202 C 
BRANCH  41  42
ATOM     42  C   UNL A   1      41.897  19.137  25.806  1.00  0.00     0.261 C 
BRANCH  42  43
ATOM     43  O   UNL A   1      42.977  19.891  26.418  1.00  0.00    -0.460 OA
BRANCH  43  44
ATOM     44  C   UNL A   1      43.501  20.907  25.666  1.00  0.00     0.338 C 
ATOM     45  O   UNL A   1      44.008  20.776  24.564  1.00  0.00    -0.246 OA
BRANCH  44  46
ATOM     46  C   UNL A   1      43.132  22.236  26.229  1.00  0.00     0.060 A 
ATOM     47  C   UNL A   1      42.922  23.322  25.367  1.00  0.00     0.016 A 
ATOM     48  C   UNL A   1      43.095  22.453  27.601  1.00  0.00     0.016 A 
ATOM     49  C   UNL A   1      42.608  24.597  25.860  1.00  0.00     0.010 A 
ATOM     50  C   UNL A   1      42.800  23.736  28.105  1.00  0.00     0.010 A 
ATOM     51  C   UNL A   1      42.577  24.830  27.240  1.00  0.00    -0.014 A 
BRANCH  51  52
ATOM     52  C   UNL A   1      42.713  26.236  27.742  1.00  0.00     0.031 A 
ATOM     53  C   UNL A   1      44.106  26.822  27.727  1.00  0.00     0.074 A 
ATOM     54  C   UNL A   1      41.685  27.013  28.143  1.00  0.00     0.049 A 
ATOM     55  N   UNL A   1      44.532  27.996  28.116  1.00  0.00    -0.248 NA
ATOM     56  C   UNL A   1      45.167  25.945  27.201  1.00  0.00     0.031 C 
ATOM     57  C   UNL A   1      40.275  26.628  28.164  1.00  0.00     0.029 A 
ATOM     58  N   UNL A   1      41.679  28.311  28.618  1.00  0.00    -0.354 N 
ATOM     59  C   UNL A   1      45.905  27.992  27.893  1.00  0.00     0.074 A 
ATOM     60  C   UNL A   1      46.247  26.682  27.386  1.00  0.00     0.031 C 
ATOM     61  C   UNL A   1      39.546  27.661  28.634  1.00  0.00     0.029 A 
ATOM     62  C   UNL A   1      40.432  28.777  28.979  1.00  0.00     0.049 A 
ATOM     63  H   UNL A   1      42.495  28.856  28.692  1.00  0.00     0.167 HD
ATOM     64  C   UNL A   1      46.808  28.985  28.073  1.00  0.00     0.034 A 
ATOM     65  C   UNL A   1      40.052  29.953  29.536  1.00  0.00     0.034 A 
ATOM     66  C   UNL A   1      46.483  30.291  28.583  1.00  0.00     0.049 A 
ATOM     67  C   UNL A   1      41.099  31.014  29.838  1.00  0.00     0.074 A 
ATOM     68  C   UNL A   1      47.328  31.367  28.781  1.00  0.00     0.029 A 
ATOM     69  N   UNL A   1      45.222  30.691  28.999  1.00  0.00    -0.354 N 
ATOM     70  N   UNL A   1      42.390  31.004  29.592  1.00  0.00    -0.248 NA
ATOM     71  C   UNL A   1      40.634  32.249  30.492  1.00  0.00     0.031 C 
ATOM     72  C   UNL A   1      46.600  32.387  29.399  1.00  0.00     0.029 A 
ATOM     73  C   UNL A   1      45.278  31.984  29.498  1.00  0.00     0.049 A 
ATOM     74  H   UNL A   1      44.407  30.140  28.947  1.00  0.00     0.167 HD
ATOM     75  C   UNL A   1      42.875  32.239  30.029  1.00  0.00     0.074 A 
ATOM     76  C   UNL A   1      41.741  32.976  30.537  1.00  0.00     0.031 C 
ATOM     77  C   UNL A   1      44.146  32.719  30.010  1.00  0.00     0.034 A 
BRANCH  64  78
ATOM     78  C   UNL A   1      48.249  28.667  27.761  1.00  0.00     0.023 A 
ATOM     79  C   UNL A   1      48.739  28.667  26.444  1.00  0.00     0.031 A 
ATOM     80  C   UNL A   1      49.132  28.311  28.795  1.00  0.00     0.131 A 
ATOM     81  C   UNL A   1      50.049  28.240  26.188  1.00  0.00     0.055 A 
ATOM     82  C   UNL A   1      50.461  27.976  28.542  1.00  0.00     0.041 A 
ATOM     83  F   UNL A   1      48.710  28.266  30.069  1.00  0.00    -0.206 F 
ATOM     84  C   UNL A   1      50.923  27.923  27.229  1.00  0.00     0.022 A 
BRANCH  81  85
ATOM     85  S   UNL A   1      50.540  27.945  24.467  1.00  0.00     0.124 S 
ATOM     86  O   UNL A   1      49.244  27.884  23.796  1.00  0.00    -0.237 OA
ATOM     87  O   UNL A   1      51.358  29.114  24.167  1.00  0.00    -0.237 OA
ATOM     88  O   UNL A   1      51.262  26.676  24.530  1.00  0.00    -0.744 OA
ENDBRANCH  81  85
ENDBRANCH  64  78
BRANCH  65  89
ATOM     89  C   UNL A   1      38.624  30.208  29.922  1.00  0.00     0.023 A 
ATOM     90  C   UNL A   1      37.840  31.174  29.264  1.00  0.00     0.031 A 
ATOM     91  C   UNL A   1      38.059  29.569  31.042  1.00  0.00     0.131 A 
ATOM     92  C   UNL A   1      36.566  31.508  29.761  1.00  0.00     0.055 A 
ATOM     93  C   UNL A   1      36.769  29.860  31.493  1.00  0.00     0.041 A 
ATOM     94  F   UNL A   1      38.764  28.657  31.730  1.00  0.00    -0.206 F 
ATOM     95  C   UNL A   1      36.019  30.846  30.860  1.00  0.00     0.022 A 
BRANCH  92  96
ATOM     96  S   UNL A   1      35.671  32.907  29.020  1.00  0.00     0.124 S 
ATOM     97  O   UNL A   1      36.226  34.037  29.755  1.00  0.00    -0.237 OA
ATOM     98  O   UNL A   1      36.053  32.803  27.616  1.00  0.00    -0.237 OA
ATOM     99  O   UNL A   1      34.269  32.605  29.305  1.00  0.00    -0.744 OA
ENDBRANCH  92  96
ENDBRANCH  65  89
BRANCH  77 100
ATOM    100  C   UNL A   1      44.382  34.128  30.509  1.00  0.00     0.023 A 
ATOM    101  C   UNL A   1      44.294  35.246  29.660  1.00  0.00     0.031 A 
ATOM    102  C   UNL A   1      44.672  34.359  31.868  1.00  0.00     0.131 A 
ATOM    103  C   UNL A   1      44.539  36.533  30.166  1.00  0.00     0.055 A 
ATOM    104  C   UNL A   1      44.847  35.646  32.379  1.00  0.00     0.041 A 
ATOM    105  F   UNL A   1      44.771  33.333  32.730  1.00  0.00    -0.206 F 
ATOM    106  C   UNL A   1      44.792  36.741  31.524  1.00  0.00     0.022 A 
BRANCH 103 107
ATOM    107  S   UNL A   1      44.610  37.929  29.010  1.00  0.00     0.124 S 
ATOM    108  O   UNL A   1      44.110  37.328  27.777  1.00  0.00    -0.237 OA
ATOM    109  O   UNL A   1      43.732  38.906  29.645  1.00  0.00    -0.237 OA
ATOM    110  O   UNL A   1      46.026  38.289  28.993  1.00  0.00    -0.744 OA
ENDBRANCH 103 107
ENDBRANCH  77 100
ENDBRANCH  51  52
ENDBRANCH  44  46
ENDBRANCH  43  44
ENDBRANCH  42  43
ENDBRANCH  41  42
ENDBRANCH  40  41
ENDBRANCH   1  40
TORSDOF 21
ENDMDL
MODEL 2
REMARK VINA RESULT:     -10.5      4.955     10.378
REMARK SMILES CC1(C)CC[C@@]2(C(=O)OCCOCCOCCOC(=O)c3ccc(-c4c5nc(c(-c6cc(S(=O)(=O)[O-])ccc6F)c6ccc([nH]6)c(-c6cc(S(=O)(=O)[O-])ccc6F)c6nc(c(-c7cc(S(=O)(=O)[O-])ccc7F)c7ccc4[nH]7)C=C6)C=C5)cc3)CC[C@@]3(C)C(=CC[C@H]4[C@@]5(C)CC[C@H](O)C(C)(C)[C@@H]5CC[C@]43C)[C@@H]2C1
REMARK SMILES IDX 14 1 13 2 12 3 11 4 10 5 9 6 7 7 8 8 6 9 1 10 2 11 3 12 4 13
REMARK SMILES IDX 107 14 5 15 106 16 88 17 84 18 86 19 89 20 85 21 87 22
REMARK SMILES IDX 104 23 90 24 91 25 103 26 105 27 92 28 102 29 93 30 94 31
REMARK SMILES IDX 101 32 95 33 98 34 96 35 99 36 100 37 97 38 15 40 16 41
REMARK SMILES IDX 17 42 18 43 19 44 20 45 21 46 22 47 83 48 23 49 82 50 24 51
REMARK SMILES IDX 25 52 26 53 76 54 27 55 81 56 75 57 77 58 28 59 80 60 74 61
REMARK SMILES IDX 73 62 29 64 61 65 41 66 60 67 42 68 45 69 59 70 78 71 43 72
REMARK SMILES IDX 44 73 58 75 79 76 46 77 30 78 31 79 39 80 32 81 38 82 40 83
REMARK SMILES IDX 37 84 33 85 34 86 35 87 36 88 62 89 63 90 71 91 64 92 70 93
REMARK SMILES IDX 72 94 69 95 65 96 66 97 67 98 68 99 47 100 48 101 56 102
REMARK SMILES IDX 49 103 55 104 57 105 54 106 50 107 51 108 52 109 53 110
REMARK H PARENT 97 39 77 63 45 74
REMARK Flexibility Score: inf
ROOT
ATOM      1  C   UNL A   1      34.462  31.533  27.658  1.00  0.00     0.188 C 
ENDROOT
BRANCH   1   2
ATOM      2  C   UNL A   1      33.695  30.463  26.879  1.00  0.00     0.188 C 
BRANCH   2   3
ATOM      3  O   UNL A   1      33.953  29.167  27.374  1.00  0.00    -0.376 OA
BRANCH   3   4
ATOM      4  C   UNL A   1      34.727  28.371  26.498  1.00  0.00     0.202 C 
BRANCH   4   5
ATOM      5  C   UNL A   1      34.144  28.086  25.112  1.00  0.00     0.261 C 
BRANCH   5   6
ATOM      6  O   UNL A   1      33.492  26.819  25.100  1.00  0.00    -0.463 OA
BRANCH   6   7
ATOM      7  C   UNL A   1      32.257  26.885  24.605  1.00  0.00     0.312 C 
ATOM      8  O   UNL A   1      32.060  26.757  23.406  1.00  0.00    -0.252 OA
BRANCH   7   9
ATOM      9  C   UNL A   1      31.158  27.305  25.509  1.00  0.00     0.075 C 
ATOM     10  C   UNL A   1      28.594  29.685  23.017  1.00  0.00     0.011 C 
ATOM     11  C   UNL A   1      29.849  28.801  23.196  1.00  0.00    -0.035 C 
ATOM     12  C   UNL A   1      30.451  28.766  21.740  1.00  0.00     0.011 C 
ATOM     13  C   UNL A   1      30.804  29.538  24.160  1.00  0.00     0.007 C 
ATOM     14  C   UNL A   1      29.447  27.324  23.612  1.00  0.00     0.015 C 
ATOM     15  C   UNL A   1      31.009  28.854  25.528  1.00  0.00     0.020 C 
ATOM     16  C   UNL A   1      29.930  26.565  24.955  1.00  0.00     0.033 C 
ATOM     17  C   UNL A   1      30.350  24.979  24.819  1.00  0.00    -0.063 C 
ATOM     18  C   UNL A   1      31.511  26.700  26.910  1.00  0.00     0.020 C 
ATOM     19  C   UNL A   1      31.118  24.107  26.003  1.00  0.00    -0.006 C 
ATOM     20  C   UNL A   1      30.560  24.593  23.542  1.00  0.00    -0.027 C 
ATOM     21  C   UNL A   1      31.912  25.148  26.955  1.00  0.00     0.013 C 
ATOM     22  C   UNL A   1      30.050  23.610  27.019  1.00  0.00     0.017 C 
ATOM     23  C   UNL A   1      31.846  22.621  25.193  1.00  0.00    -0.020 C 
ATOM     24  C   UNL A   1      31.786  23.875  23.032  1.00  0.00     0.032 C 
ATOM     25  C   UNL A   1      32.706  23.095  24.013  1.00  0.00     0.006 C 
ATOM     26  C   UNL A   1      32.725  21.272  25.605  1.00  0.00     0.008 C 
ATOM     27  C   UNL A   1      30.525  21.855  24.716  1.00  0.00     0.012 C 
ATOM     28  C   UNL A   1      34.390  23.269  24.361  1.00  0.00    -0.025 C 
ATOM     29  C   UNL A   1      34.024  20.811  24.621  1.00  0.00     0.005 C 
ATOM     30  C   UNL A   1      35.038  23.686  23.025  1.00  0.00     0.012 C 
ATOM     31  C   UNL A   1      34.820  24.031  25.684  1.00  0.00     0.010 C 
ATOM     32  C   UNL A   1      35.062  21.900  24.779  1.00  0.00     0.003 C 
ATOM     33  C   UNL A   1      36.314  24.000  26.111  1.00  0.00     0.033 C 
ATOM     34  C   UNL A   1      36.694  21.838  24.795  1.00  0.00    -0.006 C 
ATOM     35  C   UNL A   1      37.024  22.630  26.111  1.00  0.00     0.120 C 
ATOM     36  C   UNL A   1      37.587  22.477  23.680  1.00  0.00     0.014 C 
ATOM     37  C   UNL A   1      37.235  20.401  24.899  1.00  0.00     0.014 C 
BRANCH  35  38
ATOM     38  O   UNL A   1      38.425  22.786  26.325  1.00  0.00    -0.393 OA
ATOM     39  H   UNL A   1      38.647  23.730  26.345  1.00  0.00     0.210 HD
ENDBRANCH  35  38
ENDBRANCH   7   9
ENDBRANCH   6   7
ENDBRANCH   5   6
ENDBRANCH   4   5
ENDBRANCH   3   4
ENDBRANCH   2   3
ENDBRANCH   1   2
BRANCH   1  40
ATOM     40  O   UNL A   1      33.720  32.451  28.456  1.00  0.00    -0.376 OA
BRANCH  40  41
ATOM     41  C   UNL A   1      33.115  33.633  27.903  1.00  0.00     0.202 C 
BRANCH  41  42
ATOM     42  C   UNL A   1      32.961  34.995  28.651  1.00  0.00     0.261 C 
BRANCH  42  43
ATOM     43  O   UNL A   1      32.523  34.982  30.036  1.00  0.00    -0.460 OA
BRANCH  43  44
ATOM     44  C   UNL A   1      33.470  35.307  30.968  1.00  0.00     0.338 C 
ATOM     45  O   UNL A   1      33.338  36.155  31.836  1.00  0.00    -0.246 OA
BRANCH  44  46
ATOM     46  C   UNL A   1      34.578  34.313  30.978  1.00  0.00     0.060 A 
ATOM     47  C   UNL A   1      34.444  33.129  31.718  1.00  0.00     0.016 A 
ATOM     48  C   UNL A   1      35.791  34.578  30.354  1.00  0.00     0.016 A 
ATOM     49  C   UNL A   1      35.479  32.185  31.781  1.00  0.00     0.010 A 
ATOM     50  C   UNL A   1      36.843  33.643  30.428  1.00  0.00     0.010 A 
ATOM     51  C   UNL A   1      36.709  32.445  31.164  1.00  0.00    -0.014 A 
BRANCH  51  52
ATOM     52  C   UNL A   1      37.922  31.690  31.616  1.00  0.00     0.031 A 
ATOM     53  C   UNL A   1      38.463  32.046  32.982  1.00  0.00     0.074 A 
ATOM     54  C   UNL A   1      38.514  30.696  30.921  1.00  0.00     0.049 A 
ATOM     55  N   UNL A   1      39.504  31.581  33.625  1.00  0.00    -0.248 NA
ATOM     56  C   UNL A   1      37.720  33.084  33.718  1.00  0.00     0.031 C 
ATOM     57  C   UNL A   1      38.087  30.187  29.620  1.00  0.00     0.029 A 
ATOM     58  N   UNL A   1      39.622  29.929  31.227  1.00  0.00    -0.354 N 
ATOM     59  C   UNL A   1      39.543  32.276  34.829  1.00  0.00     0.074 A 
ATOM     60  C   UNL A   1      38.458  33.230  34.804  1.00  0.00     0.031 C 
ATOM     61  C   UNL A   1      38.925  29.202  29.238  1.00  0.00     0.029 A 
ATOM     62  C   UNL A   1      39.972  29.022  30.249  1.00  0.00     0.049 A 
ATOM     63  H   UNL A   1      40.119  30.023  32.072  1.00  0.00     0.167 HD
ATOM     64  C   UNL A   1      40.390  32.132  35.876  1.00  0.00     0.034 A 
ATOM     65  C   UNL A   1      41.018  28.164  30.169  1.00  0.00     0.034 A 
ATOM     66  C   UNL A   1      41.479  31.193  35.913  1.00  0.00     0.049 A 
ATOM     67  C   UNL A   1      42.026  28.099  31.306  1.00  0.00     0.074 A 
ATOM     68  C   UNL A   1      42.377  30.962  36.938  1.00  0.00     0.029 A 
ATOM     69  N   UNL A   1      41.835  30.347  34.873  1.00  0.00    -0.354 N 
ATOM     70  N   UNL A   1      42.030  28.743  32.452  1.00  0.00    -0.248 NA
ATOM     71  C   UNL A   1      43.170  27.188  31.139  1.00  0.00     0.031 C 
ATOM     72  C   UNL A   1      43.330  30.044  36.488  1.00  0.00     0.029 A 
ATOM     73  C   UNL A   1      42.970  29.628  35.217  1.00  0.00     0.049 A 
ATOM     74  H   UNL A   1      41.353  30.267  34.018  1.00  0.00     0.167 HD
ATOM     75  C   UNL A   1      43.153  28.286  33.146  1.00  0.00     0.074 A 
ATOM     76  C   UNL A   1      43.791  27.301  32.303  1.00  0.00     0.031 C 
ATOM     77  C   UNL A   1      43.611  28.648  34.373  1.00  0.00     0.034 A 
BRANCH  64  78
ATOM     78  C   UNL A   1      40.194  33.060  37.050  1.00  0.00     0.023 A 
ATOM     79  C   UNL A   1      41.048  34.153  37.279  1.00  0.00     0.031 A 
ATOM     80  C   UNL A   1      39.167  32.816  37.978  1.00  0.00     0.131 A 
ATOM     81  C   UNL A   1      40.910  34.911  38.450  1.00  0.00     0.055 A 
ATOM     82  C   UNL A   1      38.978  33.632  39.093  1.00  0.00     0.041 A 
ATOM     83  F   UNL A   1      38.341  31.770  37.824  1.00  0.00    -0.206 F 
ATOM     84  C   UNL A   1      39.863  34.677  39.343  1.00  0.00     0.022 A 
BRANCH  81  85
ATOM     85  S   UNL A   1      42.216  36.097  38.869  1.00  0.00     0.124 S 
ATOM     86  O   UNL A   1      43.186  35.857  37.803  1.00  0.00    -0.237 OA
ATOM     87  O   UNL A   1      41.513  37.373  38.816  1.00  0.00    -0.237 OA
ATOM     88  O   UNL A   1      42.647  35.675  40.200  1.00  0.00    -0.744 OA
ENDBRANCH  81  85
ENDBRANCH  64  78
BRANCH  65  89
ATOM     89  C   UNL A   1      41.242  27.318  28.948  1.00  0.00     0.023 A 
ATOM     90  C   UNL A   1      42.236  27.631  28.002  1.00  0.00     0.031 A 
ATOM     91  C   UNL A   1      40.377  26.249  28.650  1.00  0.00     0.131 A 
ATOM     92  C   UNL A   1      42.305  26.921  26.789  1.00  0.00     0.055 A 
ATOM     93  C   UNL A   1      40.490  25.507  27.472  1.00  0.00     0.041 A 
ATOM     94  F   UNL A   1      39.391  25.916  29.498  1.00  0.00    -0.206 F 
ATOM     95  C   UNL A   1      41.450  25.850  26.525  1.00  0.00     0.022 A 
BRANCH  92  96
ATOM     96  S   UNL A   1      43.456  27.489  25.501  1.00  0.00     0.124 S 
ATOM     97  O   UNL A   1      44.062  28.653  26.136  1.00  0.00    -0.237 OA
ATOM     98  O   UNL A   1      44.320  26.326  25.332  1.00  0.00    -0.237 OA
ATOM     99  O   UNL A   1      42.582  27.781  24.366  1.00  0.00    -0.744 OA
ENDBRANCH  92  96
ENDBRANCH  65  89
BRANCH  77 100
ATOM    100  C   UNL A   1      44.841  27.947  34.908  1.00  0.00     0.023 A 
ATOM    101  C   UNL A   1      44.758  26.752  35.646  1.00  0.00     0.031 A 
ATOM    102  C   UNL A   1      46.124  28.468  34.649  1.00  0.00     0.131 A 
ATOM    103  C   UNL A   1      45.926  26.147  36.137  1.00  0.00     0.055 A 
ATOM    104  C   UNL A   1      47.284  27.826  35.082  1.00  0.00     0.041 A 
ATOM    105  F   UNL A   1      46.270  29.607  33.952  1.00  0.00    -0.206 F 
ATOM    106  C   UNL A   1      47.189  26.664  35.841  1.00  0.00     0.022 A 
BRANCH 103 107
ATOM    107  S   UNL A   1      45.772  24.720  37.247  1.00  0.00     0.124 S 
ATOM    108  O   UNL A   1      44.326  24.615  37.408  1.00  0.00    -0.237 OA
ATOM    109  O   UNL A   1      46.407  23.655  36.477  1.00  0.00    -0.237 OA
ATOM    110  O   UNL A   1      46.500  25.136  38.444  1.00  0.00    -0.744 OA
ENDBRANCH 103 107
ENDBRANCH  77 100
ENDBRANCH  51  52
ENDBRANCH  44  46
ENDBRANCH  43  44
ENDBRANCH  42  43
ENDBRANCH  41  42
ENDBRANCH  40  41
ENDBRANCH   1  40
TORSDOF 21
ENDMDL
MODEL 3
REMARK VINA RESULT:     -10.5      1.723      2.028
REMARK SMILES CC1(C)CC[C@@]2(C(=O)OCCOCCOCCOC(=O)c3ccc(-c4c5nc(c(-c6cc(S(=O)(=O)[O-])ccc6F)c6ccc([nH]6)c(-c6cc(S(=O)(=O)[O-])ccc6F)c6nc(c(-c7cc(S(=O)(=O)[O-])ccc7F)c7ccc4[nH]7)C=C6)C=C5)cc3)CC[C@@]3(C)C(=CC[C@H]4[C@@]5(C)CC[C@H](O)C(C)(C)[C@@H]5CC[C@]43C)[C@@H]2C1
REMARK SMILES IDX 14 1 13 2 12 3 11 4 10 5 9 6 7 7 8 8 6 9 1 10 2 11 3 12 4 13
REMARK SMILES IDX 107 14 5 15 106 16 88 17 84 18 86 19 89 20 85 21 87 22
REMARK SMILES IDX 104 23 90 24 91 25 103 26 105 27 92 28 102 29 93 30 94 31
REMARK SMILES IDX 101 32 95 33 98 34 96 35 99 36 100 37 97 38 15 40 16 41
REMARK SMILES IDX 17 42 18 43 19 44 20 45 21 46 22 47 83 48 23 49 82 50 24 51
REMARK SMILES IDX 25 52 26 53 76 54 27 55 81 56 75 57 77 58 28 59 80 60 74 61
REMARK SMILES IDX 73 62 29 64 61 65 41 66 60 67 42 68 45 69 59 70 78 71 43 72
REMARK SMILES IDX 44 73 58 75 79 76 46 77 30 78 31 79 39 80 32 81 38 82 40 83
REMARK SMILES IDX 37 84 33 85 34 86 35 87 36 88 62 89 63 90 71 91 64 92 70 93
REMARK SMILES IDX 72 94 69 95 65 96 66 97 67 98 68 99 47 100 48 101 56 102
REMARK SMILES IDX 49 103 55 104 57 105 54 106 50 107 51 108 52 109 53 110
REMARK H PARENT 97 39 77 63 45 74
REMARK Flexibility Score: inf
ROOT
ATOM      1  C   UNL A   1      39.277  22.223  26.458  1.00  0.00     0.188 C 
ENDROOT
BRANCH   1   2
ATOM      2  C   UNL A   1      39.300  23.750  26.554  1.00  0.00     0.188 C 
BRANCH   2   3
ATOM      3  O   UNL A   1      38.044  24.270  26.936  1.00  0.00    -0.376 OA
BRANCH   3   4
ATOM      4  C   UNL A   1      37.032  24.071  25.968  1.00  0.00     0.202 C 
BRANCH   4   5
ATOM      5  C   UNL A   1      35.625  23.756  26.481  1.00  0.00     0.261 C 
BRANCH   5   6
ATOM      6  O   UNL A   1      34.645  24.239  25.567  1.00  0.00    -0.463 OA
BRANCH   6   7
ATOM      7  C   UNL A   1      33.950  23.256  24.997  1.00  0.00     0.312 C 
ATOM      8  O   UNL A   1      32.947  22.811  25.534  1.00  0.00    -0.252 OA
BRANCH   7   9
ATOM      9  C   UNL A   1      34.524  22.590  23.801  1.00  0.00     0.075 C 
ATOM     10  C   UNL A   1      33.486  18.452  24.301  1.00  0.00     0.011 C 
ATOM     11  C   UNL A   1      33.434  19.917  24.788  1.00  0.00    -0.035 C 
ATOM     12  C   UNL A   1      32.562  19.811  26.096  1.00  0.00     0.011 C 
ATOM     13  C   UNL A   1      34.878  20.346  25.132  1.00  0.00     0.007 C 
ATOM     14  C   UNL A   1      32.669  20.835  23.744  1.00  0.00     0.015 C 
ATOM     15  C   UNL A   1      35.476  21.429  24.210  1.00  0.00     0.020 C 
ATOM     16  C   UNL A   1      33.287  22.137  23.011  1.00  0.00     0.033 C 
ATOM     17  C   UNL A   1      32.310  23.453  22.855  1.00  0.00    -0.063 C 
ATOM     18  C   UNL A   1      35.241  23.723  22.992  1.00  0.00     0.020 C 
ATOM     19  C   UNL A   1      32.831  24.955  22.384  1.00  0.00    -0.006 C 
ATOM     20  C   UNL A   1      31.223  23.405  23.654  1.00  0.00    -0.027 C 
ATOM     21  C   UNL A   1      34.410  25.067  22.724  1.00  0.00     0.013 C 
ATOM     22  C   UNL A   1      32.910  24.984  20.830  1.00  0.00     0.017 C 
ATOM     23  C   UNL A   1      31.533  26.161  22.893  1.00  0.00    -0.020 C 
ATOM     24  C   UNL A   1      30.778  24.496  24.598  1.00  0.00     0.032 C 
ATOM     25  C   UNL A   1      31.259  25.959  24.390  1.00  0.00     0.006 C 
ATOM     26  C   UNL A   1      31.236  27.793  22.811  1.00  0.00     0.008 C 
ATOM     27  C   UNL A   1      30.306  25.692  21.980  1.00  0.00     0.012 C 
ATOM     28  C   UNL A   1      32.129  27.021  25.441  1.00  0.00    -0.025 C 
ATOM     29  C   UNL A   1      30.640  28.586  24.184  1.00  0.00     0.005 C 
ATOM     30  C   UNL A   1      31.643  26.671  26.862  1.00  0.00     0.012 C 
ATOM     31  C   UNL A   1      33.683  27.227  25.199  1.00  0.00     0.010 C 
ATOM     32  C   UNL A   1      31.761  28.540  25.200  1.00  0.00     0.003 C 
ATOM     33  C   UNL A   1      34.421  28.338  25.995  1.00  0.00     0.033 C 
ATOM     34  C   UNL A   1      32.229  29.616  26.335  1.00  0.00    -0.006 C 
ATOM     35  C   UNL A   1      33.766  29.735  26.037  1.00  0.00     0.120 C 
ATOM     36  C   UNL A   1      32.116  29.344  27.872  1.00  0.00     0.014 C 
ATOM     37  C   UNL A   1      31.554  30.989  26.170  1.00  0.00     0.014 C 
BRANCH  35  38
ATOM     38  O   UNL A   1      34.444  30.585  26.961  1.00  0.00    -0.393 OA
ATOM     39  H   UNL A   1      35.281  30.883  26.573  1.00  0.00     0.210 HD
ENDBRANCH  35  38
ENDBRANCH   7   9
ENDBRANCH   6   7
ENDBRANCH   5   6
ENDBRANCH   4   5
ENDBRANCH   3   4
ENDBRANCH   2   3
ENDBRANCH   1   2
BRANCH   1  40
ATOM     40  O   UNL A   1      40.031  21.474  27.406  1.00  0.00    -0.376 OA
BRANCH  40  41
ATOM     41  C   UNL A   1      40.861  20.363  27.022  1.00  0.00     0.202 C 
BRANCH  41  42
ATOM     42  C   UNL A   1      42.127  20.462  26.113  1.00  0.00     0.261 C 
BRANCH  42  43
ATOM     43  O   UNL A   1      42.359  21.692  25.376  1.00  0.00    -0.460 OA
BRANCH  43  44
ATOM     44  C   UNL A   1      43.430  22.441  25.781  1.00  0.00     0.338 C 
ATOM     45  O   UNL A   1      44.594  22.216  25.492  1.00  0.00    -0.246 OA
BRANCH  44  46
ATOM     46  C   UNL A   1      42.986  23.726  26.389  1.00  0.00     0.060 A 
ATOM     47  C   UNL A   1      42.815  24.857  25.578  1.00  0.00     0.016 A 
ATOM     48  C   UNL A   1      42.841  23.861  27.765  1.00  0.00     0.016 A 
ATOM     49  C   UNL A   1      42.433  26.094  26.118  1.00  0.00     0.010 A 
ATOM     50  C   UNL A   1      42.476  25.105  28.318  1.00  0.00     0.010 A 
ATOM     51  C   UNL A   1      42.292  26.244  27.503  1.00  0.00    -0.014 A 
BRANCH  51  52
ATOM     52  C   UNL A   1      42.354  27.620  28.093  1.00  0.00     0.031 A 
ATOM     53  C   UNL A   1      43.729  28.241  28.204  1.00  0.00     0.074 A 
ATOM     54  C   UNL A   1      41.281  28.346  28.471  1.00  0.00     0.049 A 
ATOM     55  N   UNL A   1      44.094  29.400  28.689  1.00  0.00    -0.248 NA
ATOM     56  C   UNL A   1      44.846  27.425  27.699  1.00  0.00     0.031 C 
ATOM     57  C   UNL A   1      39.885  27.925  28.377  1.00  0.00     0.029 A 
ATOM     58  N   UNL A   1      41.206  29.612  29.020  1.00  0.00    -0.354 N 
ATOM     59  C   UNL A   1      45.478  29.444  28.556  1.00  0.00     0.074 A 
ATOM     60  C   UNL A   1      45.890  28.176  27.998  1.00  0.00     0.031 C 
ATOM     61  C   UNL A   1      39.097  28.909  28.857  1.00  0.00     0.029 A 
ATOM     62  C   UNL A   1      39.926  30.024  29.324  1.00  0.00     0.049 A 
ATOM     63  H   UNL A   1      42.000  30.172  29.179  1.00  0.00     0.167 HD
ATOM     64  C   UNL A   1      46.338  30.447  28.853  1.00  0.00     0.034 A 
ATOM     65  C   UNL A   1      39.477  31.154  29.923  1.00  0.00     0.034 A 
ATOM     66  C   UNL A   1      45.943  31.711  29.416  1.00  0.00     0.049 A 
ATOM     67  C   UNL A   1      40.471  32.221  30.355  1.00  0.00     0.074 A 
ATOM     68  C   UNL A   1      46.742  32.795  29.732  1.00  0.00     0.029 A 
ATOM     69  N   UNL A   1      44.647  32.053  29.771  1.00  0.00    -0.354 N 
ATOM     70  N   UNL A   1      41.775  32.258  30.194  1.00  0.00    -0.248 NA
ATOM     71  C   UNL A   1      39.930  33.402  31.048  1.00  0.00     0.031 C 
ATOM     72  C   UNL A   1      45.946  33.756  30.360  1.00  0.00     0.029 A 
ATOM     73  C   UNL A   1      44.633  33.315  30.347  1.00  0.00     0.049 A 
ATOM     74  H   UNL A   1      43.854  31.486  29.634  1.00  0.00     0.167 HD
ATOM     75  C   UNL A   1      42.195  33.477  30.733  1.00  0.00     0.074 A 
ATOM     76  C   UNL A   1      41.009  34.153  31.207  1.00  0.00     0.031 C 
ATOM     77  C   UNL A   1      43.450  33.989  30.826  1.00  0.00     0.034 A 
BRANCH  64  78
ATOM     78  C   UNL A   1      47.805  30.185  28.619  1.00  0.00     0.023 A 
ATOM     79  C   UNL A   1      48.592  29.495  29.557  1.00  0.00     0.031 A 
ATOM     80  C   UNL A   1      48.433  30.676  27.461  1.00  0.00     0.131 A 
ATOM     81  C   UNL A   1      49.976  29.387  29.360  1.00  0.00     0.055 A 
ATOM     82  C   UNL A   1      49.794  30.484  27.228  1.00  0.00     0.041 A 
ATOM     83  F   UNL A   1      47.736  31.367  26.546  1.00  0.00    -0.206 F 
ATOM     84  C   UNL A   1      50.578  29.850  28.189  1.00  0.00     0.022 A 
BRANCH  81  85
ATOM     85  S   UNL A   1      50.998  28.783  30.730  1.00  0.00     0.124 S 
ATOM     86  O   UNL A   1      49.992  28.195  31.612  1.00  0.00    -0.237 OA
ATOM     87  O   UNL A   1      51.892  27.841  30.067  1.00  0.00    -0.237 OA
ATOM     88  O   UNL A   1      51.635  29.995  31.243  1.00  0.00    -0.744 OA
ENDBRANCH  81  85
ENDBRANCH  64  78
BRANCH  65  89
ATOM     89  C   UNL A   1      38.020  31.349  30.229  1.00  0.00     0.023 A 
ATOM     90  C   UNL A   1      37.168  32.051  29.356  1.00  0.00     0.031 A 
ATOM     91  C   UNL A   1      37.486  30.938  31.465  1.00  0.00     0.131 A 
ATOM     92  C   UNL A   1      35.854  32.364  29.751  1.00  0.00     0.055 A 
ATOM     93  C   UNL A   1      36.161  31.197  31.825  1.00  0.00     0.041 A 
ATOM     94  F   UNL A   1      38.253  30.287  32.353  1.00  0.00    -0.206 F 
ATOM     95  C   UNL A   1      35.340  31.927  30.973  1.00  0.00     0.022 A 
BRANCH  92  96
ATOM     96  S   UNL A   1      34.852  33.454  28.695  1.00  0.00     0.124 S 
ATOM     97  O   UNL A   1      35.625  33.459  27.458  1.00  0.00    -0.237 OA
ATOM     98  O   UNL A   1      33.577  32.749  28.653  1.00  0.00    -0.237 OA
ATOM     99  O   UNL A   1      34.837  34.720  29.427  1.00  0.00    -0.744 OA
ENDBRANCH  92  96
ENDBRANCH  65  89
BRANCH  77 100
ATOM    100  C   UNL A   1      43.613  35.370  31.421  1.00  0.00     0.023 A 
ATOM    101  C   UNL A   1      43.716  36.522  30.620  1.00  0.00     0.031 A 
ATOM    102  C   UNL A   1      43.635  35.542  32.819  1.00  0.00     0.131 A 
ATOM    103  C   UNL A   1      43.883  37.781  31.218  1.00  0.00     0.055 A 
ATOM    104  C   UNL A   1      43.733  36.803  33.408  1.00  0.00     0.041 A 
ATOM    105  F   UNL A   1      43.543  34.482  33.639  1.00  0.00    -0.206 F 
ATOM    106  C   UNL A   1      43.869  37.931  32.607  1.00  0.00     0.022 A 
BRANCH 103 107
ATOM    107  S   UNL A   1      44.208  39.218  30.158  1.00  0.00     0.124 S 
ATOM    108  O   UNL A   1      43.095  40.100  30.493  1.00  0.00    -0.237 OA
ATOM    109  O   UNL A   1      45.525  39.651  30.614  1.00  0.00    -0.237 OA
ATOM    110  O   UNL A   1      44.174  38.662  28.807  1.00  0.00    -0.744 OA
ENDBRANCH 103 107
ENDBRANCH  77 100
ENDBRANCH  51  52
ENDBRANCH  44  46
ENDBRANCH  43  44
ENDBRANCH  42  43
ENDBRANCH  41  42
ENDBRANCH  40  41
ENDBRANCH   1  40
TORSDOF 21
ENDMDL
