MODEL 1
REMARK VINA RESULT:     -10.5      0.000      0.000
REMARK SMILES Cc1ccc([C@H](CC(=O)OCCOCCOCCOC(=O)c2ccc(-c3c4nc(c(-c5cc(S(=O)(=O)[O-])ccc5F)c5ccc([nH]5)c(-c5cc(S(=O)(=O)[O-])ccc5F)c5nc(c(-c6cc(S(=O)(=O)[O-])ccc6F)c6ccc3[nH]6)C=C5)C=C4)cc2)NC(=O)C(F)(F)F)cc1
REMARK SMILES IDX 14 1 13 2 12 3 11 4 10 5 8 6 9 7 7 8 6 9 5 10 1 11 2 12 3 13
REMARK SMILES IDX 93 14 4 15 92 16 85 17 86 18 87 20 88 21 89 22 90 23 91 24
REMARK SMILES IDX 15 25 16 26 17 27 18 28 19 29 20 30 21 31 22 32 23 33 84 34
REMARK SMILES IDX 24 35 83 36 25 37 26 38 27 39 77 40 28 41 82 42 76 43 78 44
REMARK SMILES IDX 29 45 81 46 75 47 74 48 30 50 62 51 42 52 61 53 43 54 46 55
REMARK SMILES IDX 60 56 79 57 44 58 45 59 59 61 80 62 47 63 31 64 32 65 40 66
REMARK SMILES IDX 33 67 39 68 41 69 38 70 34 71 35 72 36 73 37 74 63 75 64 76
REMARK SMILES IDX 72 77 65 78 71 79 73 80 70 81 66 82 67 83 68 84 69 85 48 86
REMARK SMILES IDX 49 87 57 88 50 89 56 90 58 91 55 92 51 93 52 94 53 95 54 96
REMARK H PARENT 85 19 78 49 46 60
REMARK Flexibility Score: inf
ROOT
ATOM      1  C   UNL A   1      37.678  21.907  25.692  1.00  0.00     0.188 C 
ENDROOT
BRANCH   1   2
ATOM      2  O   UNL A   1      37.314  22.337  24.355  1.00  0.00    -0.376 OA
BRANCH   2   3
ATOM      3  C   UNL A   1      36.315  23.332  24.045  1.00  0.00     0.202 C 
BRANCH   3   4
ATOM      4  C   UNL A   1      35.393  24.060  25.222  1.00  0.00     0.261 C 
BRANCH   4   5
ATOM      5  O   UNL A   1      34.813  23.508  26.706  1.00  0.00    -0.463 OA
BRANCH   5   6
ATOM      6  C   UNL A   1      33.761  22.651  27.116  1.00  0.00     0.308 C 
ATOM      7  O   UNL A   1      33.739  21.798  28.002  1.00  0.00    -0.252 OA
BRANCH   6   8
ATOM      8  C   UNL A   1      32.574  22.392  26.294  1.00  0.00     0.152 C 
BRANCH   8   9
ATOM      9  C   UNL A   1      32.678  21.424  25.163  1.00  0.00     0.123 C 
BRANCH   9  10
ATOM     10  C   UNL A   1      32.444  22.327  23.954  1.00  0.00    -0.025 A 
ATOM     11  C   UNL A   1      32.541  25.666  21.234  1.00  0.00     0.044 C 
ATOM     12  C   UNL A   1      32.473  24.472  22.136  1.00  0.00    -0.051 A 
ATOM     13  C   UNL A   1      31.670  24.525  23.277  1.00  0.00     0.004 A 
ATOM     14  C   UNL A   1      33.250  23.334  21.894  1.00  0.00     0.004 A 
ATOM     15  C   UNL A   1      31.641  23.459  24.166  1.00  0.00     0.006 A 
ATOM     16  C   UNL A   1      33.242  22.268  22.797  1.00  0.00     0.006 A 
ENDBRANCH   9  10
BRANCH   9  17
ATOM     17  N   UNL A   1      33.955  20.733  25.100  1.00  0.00    -0.341 N 
ATOM     18  C   UNL A   1      34.174  19.406  24.815  1.00  0.00     0.326 C 
ATOM     19  H   UNL A   1      34.755  21.277  25.283  1.00  0.00     0.164 HD
ATOM     20  O   UNL A   1      35.327  19.080  24.512  1.00  0.00    -0.265 OA
BRANCH  18  21
ATOM     21  C   UNL A   1      33.004  18.395  24.825  1.00  0.00     0.471 C 
ATOM     22  F   UNL A   1      32.176  18.590  25.892  1.00  0.00    -0.162 F 
ATOM     23  F   UNL A   1      33.392  17.088  24.887  1.00  0.00    -0.162 F 
ATOM     24  F   UNL A   1      32.223  18.478  23.713  1.00  0.00    -0.162 F 
ENDBRANCH  18  21
ENDBRANCH   9  17
ENDBRANCH   8   9
ENDBRANCH   6   8
ENDBRANCH   5   6
ENDBRANCH   4   5
ENDBRANCH   3   4
ENDBRANCH   2   3
ENDBRANCH   1   2
BRANCH   1  25
ATOM     25  C   UNL A   1      38.946  22.388  26.405  1.00  0.00     0.188 C 
BRANCH  25  26
ATOM     26  O   UNL A   1      39.700  21.280  26.879  1.00  0.00    -0.376 OA
BRANCH  26  27
ATOM     27  C   UNL A   1      41.037  21.551  27.262  1.00  0.00     0.202 C 
BRANCH  27  28
ATOM     28  C   UNL A   1      42.062  21.482  26.105  1.00  0.00     0.261 C 
BRANCH  28  29
ATOM     29  O   UNL A   1      42.157  22.720  25.346  1.00  0.00    -0.460 OA
BRANCH  29  30
ATOM     30  C   UNL A   1      42.947  23.734  25.856  1.00  0.00     0.338 C 
ATOM     31  O   UNL A   1      44.156  23.789  25.667  1.00  0.00    -0.246 OA
BRANCH  30  32
ATOM     32  C   UNL A   1      42.111  24.811  26.483  1.00  0.00     0.060 A 
ATOM     33  C   UNL A   1      41.248  25.749  25.893  1.00  0.00     0.016 A 
ATOM     34  C   UNL A   1      42.305  24.981  27.807  1.00  0.00     0.016 A 
ATOM     35  C   UNL A   1      40.749  26.925  26.619  1.00  0.00     0.010 A 
ATOM     36  C   UNL A   1      42.008  26.222  28.342  1.00  0.00     0.010 A 
ATOM     37  C   UNL A   1      41.189  27.255  27.902  1.00  0.00    -0.014 A 
BRANCH  37  38
ATOM     38  C   UNL A   1      40.914  28.563  28.830  1.00  0.00     0.031 A 
ATOM     39  C   UNL A   1      39.685  29.699  28.909  1.00  0.00     0.074 A 
ATOM     40  C   UNL A   1      41.927  28.814  29.683  1.00  0.00     0.049 A 
ATOM     41  N   UNL A   1      39.866  30.987  29.133  1.00  0.00    -0.248 NA
ATOM     42  C   UNL A   1      38.200  29.546  28.762  1.00  0.00     0.031 C 
ATOM     43  C   UNL A   1      42.024  29.812  30.737  1.00  0.00     0.029 A 
ATOM     44  N   UNL A   1      43.217  28.301  29.574  1.00  0.00    -0.354 N 
ATOM     45  C   UNL A   1      38.614  31.612  29.332  1.00  0.00     0.074 A 
ATOM     46  C   UNL A   1      37.628  30.723  28.888  1.00  0.00     0.031 C 
ATOM     47  C   UNL A   1      43.328  30.066  30.947  1.00  0.00     0.029 A 
ATOM     48  C   UNL A   1      44.079  29.335  29.938  1.00  0.00     0.049 A 
ATOM     49  H   UNL A   1      43.470  27.390  29.294  1.00  0.00     0.167 HD
ATOM     50  C   UNL A   1      38.393  32.719  30.093  1.00  0.00     0.034 A 
ATOM     51  C   UNL A   1      44.928  29.848  29.003  1.00  0.00     0.034 A 
ATOM     52  C   UNL A   1      39.649  33.212  30.571  1.00  0.00     0.049 A 
ATOM     53  C   UNL A   1      44.720  31.337  28.808  1.00  0.00     0.074 A 
ATOM     54  C   UNL A   1      40.332  33.118  31.766  1.00  0.00     0.029 A 
ATOM     55  N   UNL A   1      40.565  33.582  29.610  1.00  0.00    -0.354 N 
ATOM     56  N   UNL A   1      43.690  32.011  29.252  1.00  0.00    -0.248 NA
ATOM     57  C   UNL A   1      45.664  32.192  28.107  1.00  0.00     0.031 C 
ATOM     58  C   UNL A   1      41.695  33.433  31.499  1.00  0.00     0.029 A 
ATOM     59  C   UNL A   1      41.809  33.759  30.159  1.00  0.00     0.049 A 
ATOM     60  H   UNL A   1      40.354  33.702  28.656  1.00  0.00     0.167 HD
ATOM     61  C   UNL A   1      43.809  33.342  28.929  1.00  0.00     0.074 A 
ATOM     62  C   UNL A   1      45.066  33.393  28.200  1.00  0.00     0.031 C 
ATOM     63  C   UNL A   1      42.853  34.260  29.288  1.00  0.00     0.034 A 
BRANCH  50  64
ATOM     64  C   UNL A   1      37.012  33.079  30.643  1.00  0.00     0.023 A 
ATOM     65  C   UNL A   1      36.058  33.674  29.795  1.00  0.00     0.031 A 
ATOM     66  C   UNL A   1      36.607  32.944  31.993  1.00  0.00     0.131 A 
ATOM     67  C   UNL A   1      34.855  34.213  30.299  1.00  0.00     0.055 A 
ATOM     68  C   UNL A   1      35.445  33.547  32.510  1.00  0.00     0.041 A 
ATOM     69  F   UNL A   1      37.330  32.228  32.869  1.00  0.00    -0.206 F 
ATOM     70  C   UNL A   1      34.569  34.206  31.661  1.00  0.00     0.022 A 
BRANCH  67  71
ATOM     71  S   UNL A   1      33.644  34.903  29.136  1.00  0.00     0.124 S 
ATOM     72  O   UNL A   1      33.643  33.912  28.066  1.00  0.00    -0.237 OA
ATOM     73  O   UNL A   1      32.439  34.973  29.954  1.00  0.00    -0.237 OA
ATOM     74  O   UNL A   1      34.218  36.200  28.776  1.00  0.00    -0.744 OA
ENDBRANCH  67  71
ENDBRANCH  50  64
BRANCH  51  75
ATOM     75  C   UNL A   1      45.426  28.835  28.000  1.00  0.00     0.023 A 
ATOM     76  C   UNL A   1      46.549  28.046  28.373  1.00  0.00     0.031 A 
ATOM     77  C   UNL A   1      44.710  28.409  26.875  1.00  0.00     0.131 A 
ATOM     78  C   UNL A   1      46.813  26.811  27.762  1.00  0.00     0.055 A 
ATOM     79  C   UNL A   1      45.038  27.217  26.197  1.00  0.00     0.041 A 
ATOM     80  F   UNL A   1      43.607  29.060  26.477  1.00  0.00    -0.206 F 
ATOM     81  C   UNL A   1      46.071  26.396  26.660  1.00  0.00     0.022 A 
BRANCH  78  82
ATOM     82  S   UNL A   1      47.952  25.628  28.558  1.00  0.00     0.124 S 
ATOM     83  O   UNL A   1      47.816  24.452  27.706  1.00  0.00    -0.237 OA
ATOM     84  O   UNL A   1      49.248  26.302  28.502  1.00  0.00    -0.237 OA
ATOM     85  O   UNL A   1      47.407  25.503  29.908  1.00  0.00    -0.744 OA
ENDBRANCH  78  82
ENDBRANCH  51  75
BRANCH  63  86
ATOM     86  C   UNL A   1      42.722  35.715  28.845  1.00  0.00     0.023 A 
ATOM     87  C   UNL A   1      43.258  36.782  29.559  1.00  0.00     0.031 A 
ATOM     88  C   UNL A   1      42.042  36.088  27.646  1.00  0.00     0.131 A 
ATOM     89  C   UNL A   1      43.164  38.106  29.090  1.00  0.00     0.055 A 
ATOM     90  C   UNL A   1      41.977  37.396  27.161  1.00  0.00     0.041 A 
ATOM     91  F   UNL A   1      41.390  35.208  26.873  1.00  0.00    -0.206 F 
ATOM     92  C   UNL A   1      42.548  38.421  27.884  1.00  0.00     0.022 A 
BRANCH  89  93
ATOM     93  S   UNL A   1      43.832  39.413  30.143  1.00  0.00     0.124 S 
ATOM     94  O   UNL A   1      44.801  40.051  29.259  1.00  0.00    -0.237 OA
ATOM     95  O   UNL A   1      42.639  40.197  30.447  1.00  0.00    -0.237 OA
ATOM     96  O   UNL A   1      44.404  38.684  31.273  1.00  0.00    -0.744 OA
ENDBRANCH  89  93
ENDBRANCH  63  86
ENDBRANCH  37  38
ENDBRANCH  30  32
ENDBRANCH  29  30
ENDBRANCH  28  29
ENDBRANCH  27  28
ENDBRANCH  26  27
ENDBRANCH  25  26
ENDBRANCH   1  25
TORSDOF 24
ENDMDL
MODEL 2
REMARK VINA RESULT:     -10.4      2.877      3.645
REMARK SMILES Cc1ccc([C@H](CC(=O)OCCOCCOCCOC(=O)c2ccc(-c3c4nc(c(-c5cc(S(=O)(=O)[O-])ccc5F)c5ccc([nH]5)c(-c5cc(S(=O)(=O)[O-])ccc5F)c5nc(c(-c6cc(S(=O)(=O)[O-])ccc6F)c6ccc3[nH]6)C=C5)C=C4)cc2)NC(=O)C(F)(F)F)cc1
REMARK SMILES IDX 14 1 13 2 12 3 11 4 10 5 8 6 9 7 7 8 6 9 5 10 1 11 2 12 3 13
REMARK SMILES IDX 93 14 4 15 92 16 85 17 86 18 87 20 88 21 89 22 90 23 91 24
REMARK SMILES IDX 15 25 16 26 17 27 18 28 19 29 20 30 21 31 22 32 23 33 84 34
REMARK SMILES IDX 24 35 83 36 25 37 26 38 27 39 77 40 28 41 82 42 76 43 78 44
REMARK SMILES IDX 29 45 81 46 75 47 74 48 30 50 62 51 42 52 61 53 43 54 46 55
REMARK SMILES IDX 60 56 79 57 44 58 45 59 59 61 80 62 47 63 31 64 32 65 40 66
REMARK SMILES IDX 33 67 39 68 41 69 38 70 34 71 35 72 36 73 37 74 63 75 64 76
REMARK SMILES IDX 72 77 65 78 71 79 73 80 70 81 66 82 67 83 68 84 69 85 48 86
REMARK SMILES IDX 49 87 57 88 50 89 56 90 58 91 55 92 51 93 52 94 53 95 54 96
REMARK H PARENT 85 19 78 49 46 60
REMARK Flexibility Score: inf
ROOT
ATOM      1  C   UNL A   1      37.268  22.308  25.437  1.00  0.00     0.188 C 
ENDROOT
BRANCH   1   2
ATOM      2  O   UNL A   1      36.109  21.640  25.999  1.00  0.00    -0.376 OA
BRANCH   2   3
ATOM      3  C   UNL A   1      34.971  21.172  25.244  1.00  0.00     0.202 C 
BRANCH   3   4
ATOM      4  C   UNL A   1      33.820  22.210  24.642  1.00  0.00     0.261 C 
BRANCH   4   5
ATOM      5  O   UNL A   1      32.426  22.870  25.324  1.00  0.00    -0.463 OA
BRANCH   5   6
ATOM      6  C   UNL A   1      32.153  23.721  26.425  1.00  0.00     0.308 C 
ATOM      7  O   UNL A   1      31.450  23.528  27.415  1.00  0.00    -0.252 OA
BRANCH   6   8
ATOM      8  C   UNL A   1      32.407  25.166  26.401  1.00  0.00     0.152 C 
BRANCH   8   9
ATOM      9  C   UNL A   1      32.239  25.905  25.115  1.00  0.00     0.123 C 
BRANCH   9  10
ATOM     10  C   UNL A   1      32.322  27.359  25.575  1.00  0.00    -0.025 A 
ATOM     11  C   UNL A   1      33.509  30.970  27.601  1.00  0.00     0.044 C 
ATOM     12  C   UNL A   1      33.054  29.749  26.862  1.00  0.00    -0.051 A 
ATOM     13  C   UNL A   1      32.285  28.795  27.531  1.00  0.00     0.004 A 
ATOM     14  C   UNL A   1      33.443  29.515  25.538  1.00  0.00     0.004 A 
ATOM     15  C   UNL A   1      31.907  27.622  26.890  1.00  0.00     0.006 A 
ATOM     16  C   UNL A   1      33.085  28.327  24.897  1.00  0.00     0.006 A 
ENDBRANCH   9  10
BRANCH   9  17
ATOM     17  N   UNL A   1      33.246  25.580  24.118  1.00  0.00    -0.341 N 
ATOM     18  C   UNL A   1      33.097  25.572  22.752  1.00  0.00     0.326 C 
ATOM     19  H   UNL A   1      34.137  25.338  24.460  1.00  0.00     0.164 HD
ATOM     20  O   UNL A   1      34.130  25.569  22.074  1.00  0.00    -0.265 OA
BRANCH  18  21
ATOM     21  C   UNL A   1      31.690  25.620  22.113  1.00  0.00     0.471 C 
ATOM     22  F   UNL A   1      30.952  26.664  22.591  1.00  0.00    -0.162 F 
ATOM     23  F   UNL A   1      30.936  24.503  22.329  1.00  0.00    -0.162 F 
ATOM     24  F   UNL A   1      31.727  25.764  20.760  1.00  0.00    -0.162 F 
ENDBRANCH  18  21
ENDBRANCH   9  17
ENDBRANCH   8   9
ENDBRANCH   6   8
ENDBRANCH   5   6
ENDBRANCH   4   5
ENDBRANCH   3   4
ENDBRANCH   2   3
ENDBRANCH   1   2
BRANCH   1  25
ATOM     25  C   UNL A   1      38.703  21.984  25.861  1.00  0.00     0.188 C 
BRANCH  25  26
ATOM     26  O   UNL A   1      38.998  20.615  25.614  1.00  0.00    -0.376 OA
BRANCH  26  27
ATOM     27  C   UNL A   1      40.232  20.138  26.121  1.00  0.00     0.202 C 
BRANCH  27  28
ATOM     28  C   UNL A   1      40.991  21.150  27.013  1.00  0.00     0.261 C 
BRANCH  28  29
ATOM     29  O   UNL A   1      42.382  21.329  26.625  1.00  0.00    -0.460 OA
BRANCH  29  30
ATOM     30  C   UNL A   1      42.712  22.457  25.897  1.00  0.00     0.338 C 
ATOM     31  O   UNL A   1      43.427  22.417  24.904  1.00  0.00    -0.246 OA
BRANCH  30  32
ATOM     32  C   UNL A   1      41.941  23.655  26.370  1.00  0.00     0.060 A 
ATOM     33  C   UNL A   1      41.600  24.839  25.696  1.00  0.00     0.016 A 
ATOM     34  C   UNL A   1      41.624  23.643  27.682  1.00  0.00     0.016 A 
ATOM     35  C   UNL A   1      41.111  26.032  26.401  1.00  0.00     0.010 A 
ATOM     36  C   UNL A   1      41.406  24.863  28.297  1.00  0.00     0.010 A 
ATOM     37  C   UNL A   1      41.065  26.113  27.794  1.00  0.00    -0.014 A 
BRANCH  37  38
ATOM     38  C   UNL A   1      40.724  27.354  28.789  1.00  0.00     0.031 A 
ATOM     39  C   UNL A   1      39.624  28.617  28.742  1.00  0.00     0.074 A 
ATOM     40  C   UNL A   1      41.548  27.405  29.853  1.00  0.00     0.049 A 
ATOM     41  N   UNL A   1      39.876  29.849  29.144  1.00  0.00    -0.248 NA
ATOM     42  C   UNL A   1      38.197  28.656  28.278  1.00  0.00     0.031 C 
ATOM     43  C   UNL A   1      41.511  28.285  31.011  1.00  0.00     0.029 A 
ATOM     44  N   UNL A   1      42.775  26.754  29.953  1.00  0.00    -0.354 N 
ATOM     45  C   UNL A   1      38.676  30.598  29.152  1.00  0.00     0.074 A 
ATOM     46  C   UNL A   1      37.729  29.876  28.418  1.00  0.00     0.031 C 
ATOM     47  C   UNL A   1      42.758  28.361  31.512  1.00  0.00     0.029 A 
ATOM     48  C   UNL A   1      43.634  27.641  30.601  1.00  0.00     0.049 A 
ATOM     49  H   UNL A   1      42.993  25.849  29.630  1.00  0.00     0.167 HD
ATOM     50  C   UNL A   1      38.405  31.650  29.973  1.00  0.00     0.034 A 
ATOM     51  C   UNL A   1      44.711  28.133  29.924  1.00  0.00     0.034 A 
ATOM     52  C   UNL A   1      39.570  31.944  30.751  1.00  0.00     0.049 A 
ATOM     53  C   UNL A   1      44.695  29.647  29.861  1.00  0.00     0.074 A 
ATOM     54  C   UNL A   1      39.967  31.662  32.041  1.00  0.00     0.029 A 
ATOM     55  N   UNL A   1      40.703  32.288  30.046  1.00  0.00    -0.354 N 
ATOM     56  N   UNL A   1      43.664  30.396  30.159  1.00  0.00    -0.248 NA
ATOM     57  C   UNL A   1      45.847  30.443  29.471  1.00  0.00     0.031 C 
ATOM     58  C   UNL A   1      41.379  31.835  32.097  1.00  0.00     0.029 A 
ATOM     59  C   UNL A   1      41.810  32.265  30.855  1.00  0.00     0.049 A 
ATOM     60  H   UNL A   1      40.717  32.519  29.089  1.00  0.00     0.167 HD
ATOM     61  C   UNL A   1      43.979  31.727  30.021  1.00  0.00     0.074 A 
ATOM     62  C   UNL A   1      45.362  31.693  29.576  1.00  0.00     0.031 C 
ATOM     63  C   UNL A   1      43.062  32.715  30.278  1.00  0.00     0.034 A 
BRANCH  50  64
ATOM     64  C   UNL A   1      36.979  32.120  30.265  1.00  0.00     0.023 A 
ATOM     65  C   UNL A   1      36.337  32.996  29.369  1.00  0.00     0.031 A 
ATOM     66  C   UNL A   1      36.240  31.817  31.435  1.00  0.00     0.131 A 
ATOM     67  C   UNL A   1      35.114  33.620  29.695  1.00  0.00     0.055 A 
ATOM     68  C   UNL A   1      35.061  32.495  31.795  1.00  0.00     0.041 A 
ATOM     69  F   UNL A   1      36.641  30.854  32.281  1.00  0.00    -0.206 F 
ATOM     70  C   UNL A   1      34.501  33.420  30.928  1.00  0.00     0.022 A 
BRANCH  67  71
ATOM     71  S   UNL A   1      34.313  34.684  28.460  1.00  0.00     0.124 S 
ATOM     72  O   UNL A   1      34.810  36.006  28.822  1.00  0.00    -0.237 OA
ATOM     73  O   UNL A   1      34.809  34.126  27.207  1.00  0.00    -0.237 OA
ATOM     74  O   UNL A   1      32.886  34.473  28.704  1.00  0.00    -0.744 OA
ENDBRANCH  67  71
ENDBRANCH  50  64
BRANCH  51  75
ATOM     75  C   UNL A   1      45.313  27.163  28.936  1.00  0.00     0.023 A 
ATOM     76  C   UNL A   1      45.439  27.597  27.588  1.00  0.00     0.031 A 
ATOM     77  C   UNL A   1      46.018  26.004  29.287  1.00  0.00     0.131 A 
ATOM     78  C   UNL A   1      46.360  27.008  26.709  1.00  0.00     0.055 A 
ATOM     79  C   UNL A   1      46.868  25.351  28.371  1.00  0.00     0.041 A 
ATOM     80  F   UNL A   1      46.002  25.546  30.547  1.00  0.00    -0.206 F 
ATOM     81  C   UNL A   1      47.068  25.871  27.088  1.00  0.00     0.022 A 
BRANCH  78  82
ATOM     82  S   UNL A   1      46.825  27.867  25.169  1.00  0.00     0.124 S 
ATOM     83  O   UNL A   1      45.820  28.923  25.092  1.00  0.00    -0.237 OA
ATOM     84  O   UNL A   1      48.193  28.315  25.419  1.00  0.00    -0.237 OA
ATOM     85  O   UNL A   1      46.720  26.815  24.160  1.00  0.00    -0.744 OA
ENDBRANCH  78  82
ENDBRANCH  51  75
BRANCH  63  86
ATOM     86  C   UNL A   1      43.171  34.210  29.987  1.00  0.00     0.023 A 
ATOM     87  C   UNL A   1      43.133  34.743  28.702  1.00  0.00     0.031 A 
ATOM     88  C   UNL A   1      43.310  35.181  31.026  1.00  0.00     0.131 A 
ATOM     89  C   UNL A   1      43.181  36.131  28.477  1.00  0.00     0.055 A 
ATOM     90  C   UNL A   1      43.323  36.560  30.807  1.00  0.00     0.041 A 
ATOM     91  F   UNL A   1      43.449  34.852  32.317  1.00  0.00    -0.206 F 
ATOM     92  C   UNL A   1      43.252  37.048  29.520  1.00  0.00     0.022 A 
BRANCH  89  93
ATOM     93  S   UNL A   1      43.201  36.697  26.762  1.00  0.00     0.124 S 
ATOM     94  O   UNL A   1      42.332  37.868  26.817  1.00  0.00    -0.237 OA
ATOM     95  O   UNL A   1      44.619  36.971  26.549  1.00  0.00    -0.237 OA
ATOM     96  O   UNL A   1      42.666  35.559  26.018  1.00  0.00    -0.744 OA
ENDBRANCH  89  93
ENDBRANCH  63  86
ENDBRANCH  37  38
ENDBRANCH  30  32
ENDBRANCH  29  30
ENDBRANCH  28  29
ENDBRANCH  27  28
ENDBRANCH  26  27
ENDBRANCH  25  26
ENDBRANCH   1  25
TORSDOF 24
ENDMDL
MODEL 3
REMARK VINA RESULT:      -9.5      6.038     10.010
REMARK SMILES Cc1ccc([C@H](CC(=O)OCCOCCOCCOC(=O)c2ccc(-c3c4nc(c(-c5cc(S(=O)(=O)[O-])ccc5F)c5ccc([nH]5)c(-c5cc(S(=O)(=O)[O-])ccc5F)c5nc(c(-c6cc(S(=O)(=O)[O-])ccc6F)c6ccc3[nH]6)C=C5)C=C4)cc2)NC(=O)C(F)(F)F)cc1
REMARK SMILES IDX 14 1 13 2 12 3 11 4 10 5 8 6 9 7 7 8 6 9 5 10 1 11 2 12 3 13
REMARK SMILES IDX 93 14 4 15 92 16 85 17 86 18 87 20 88 21 89 22 90 23 91 24
REMARK SMILES IDX 15 25 16 26 17 27 18 28 19 29 20 30 21 31 22 32 23 33 84 34
REMARK SMILES IDX 24 35 83 36 25 37 26 38 27 39 77 40 28 41 82 42 76 43 78 44
REMARK SMILES IDX 29 45 81 46 75 47 74 48 30 50 62 51 42 52 61 53 43 54 46 55
REMARK SMILES IDX 60 56 79 57 44 58 45 59 59 61 80 62 47 63 31 64 32 65 40 66
REMARK SMILES IDX 33 67 39 68 41 69 38 70 34 71 35 72 36 73 37 74 63 75 64 76
REMARK SMILES IDX 72 77 65 78 71 79 73 80 70 81 66 82 67 83 68 84 69 85 48 86
REMARK SMILES IDX 49 87 57 88 50 89 56 90 58 91 55 92 51 93 52 94 53 95 54 96
REMARK H PARENT 85 19 78 49 46 60
REMARK Flexibility Score: inf
ROOT
ATOM      1  C   UNL A   1      38.350  21.765  25.705  1.00  0.00     0.188 C 
ENDROOT
BRANCH   1   2
ATOM      2  O   UNL A   1      37.723  23.047  25.443  1.00  0.00    -0.376 OA
BRANCH   2   3
ATOM      3  C   UNL A   1      36.384  23.228  24.934  1.00  0.00     0.202 C 
BRANCH   3   4
ATOM      4  C   UNL A   1      36.001  22.974  23.337  1.00  0.00     0.261 C 
BRANCH   4   5
ATOM      5  O   UNL A   1      34.725  23.522  22.380  1.00  0.00    -0.463 OA
BRANCH   5   6
ATOM      6  C   UNL A   1      33.320  23.333  22.375  1.00  0.00     0.308 C 
ATOM      7  O   UNL A   1      32.412  24.155  22.485  1.00  0.00    -0.252 OA
BRANCH   6   8
ATOM      8  C   UNL A   1      32.689  22.024  22.584  1.00  0.00     0.152 C 
BRANCH   8   9
ATOM      9  C   UNL A   1      32.211  21.666  23.951  1.00  0.00     0.123 C 
BRANCH   9  10
ATOM     10  C   UNL A   1      32.526  20.173  24.013  1.00  0.00    -0.025 A 
ATOM     11  C   UNL A   1      34.238  16.296  23.244  1.00  0.00     0.044 C 
ATOM     12  C   UNL A   1      33.609  17.617  23.559  1.00  0.00    -0.051 A 
ATOM     13  C   UNL A   1      32.658  18.147  22.684  1.00  0.00     0.004 A 
ATOM     14  C   UNL A   1      34.006  18.362  24.676  1.00  0.00     0.004 A 
ATOM     15  C   UNL A   1      32.110  19.401  22.917  1.00  0.00     0.006 A 
ATOM     16  C   UNL A   1      33.474  19.633  24.902  1.00  0.00     0.006 A 
ENDBRANCH   9  10
BRANCH   9  17
ATOM     17  N   UNL A   1      32.862  22.415  25.013  1.00  0.00    -0.341 N 
ATOM     18  C   UNL A   1      32.260  23.079  26.056  1.00  0.00     0.326 C 
ATOM     19  H   UNL A   1      33.845  22.451  24.983  1.00  0.00     0.164 HD
ATOM     20  O   UNL A   1      32.980  23.392  27.011  1.00  0.00    -0.265 OA
BRANCH  18  21
ATOM     21  C   UNL A   1      30.741  23.362  26.038  1.00  0.00     0.471 C 
ATOM     22  F   UNL A   1      30.361  24.012  24.899  1.00  0.00    -0.162 F 
ATOM     23  F   UNL A   1      30.301  24.137  27.072  1.00  0.00    -0.162 F 
ATOM     24  F   UNL A   1      29.990  22.229  26.103  1.00  0.00    -0.162 F 
ENDBRANCH  18  21
ENDBRANCH   9  17
ENDBRANCH   8   9
ENDBRANCH   6   8
ENDBRANCH   5   6
ENDBRANCH   4   5
ENDBRANCH   3   4
ENDBRANCH   2   3
ENDBRANCH   1   2
BRANCH   1  25
ATOM     25  C   UNL A   1      39.693  21.629  26.431  1.00  0.00     0.188 C 
BRANCH  25  26
ATOM     26  O   UNL A   1      40.295  20.376  26.131  1.00  0.00    -0.376 OA
BRANCH  26  27
ATOM     27  C   UNL A   1      41.393  19.999  26.943  1.00  0.00     0.202 C 
BRANCH  27  28
ATOM     28  C   UNL A   1      42.646  19.548  26.155  1.00  0.00     0.261 C 
BRANCH  28  29
ATOM     29  O   UNL A   1      43.041  20.486  25.115  1.00  0.00    -0.460 OA
BRANCH  29  30
ATOM     30  C   UNL A   1      44.383  20.797  24.996  1.00  0.00     0.338 C 
ATOM     31  O   UNL A   1      45.208  20.005  24.559  1.00  0.00    -0.246 OA
BRANCH  30  32
ATOM     32  C   UNL A   1      44.633  22.248  25.288  1.00  0.00     0.060 A 
ATOM     33  C   UNL A   1      44.134  23.400  24.657  1.00  0.00     0.016 A 
ATOM     34  C   UNL A   1      45.572  22.484  26.228  1.00  0.00     0.016 A 
ATOM     35  C   UNL A   1      44.719  24.730  24.872  1.00  0.00     0.010 A 
ATOM     36  C   UNL A   1      46.224  23.703  26.187  1.00  0.00     0.010 A 
ATOM     37  C   UNL A   1      45.881  24.925  25.621  1.00  0.00    -0.014 A 
BRANCH  37  38
ATOM     38  C   UNL A   1      46.794  26.249  25.864  1.00  0.00     0.031 A 
ATOM     39  C   UNL A   1      48.440  26.558  25.800  1.00  0.00     0.074 A 
ATOM     40  C   UNL A   1      46.067  27.313  26.256  1.00  0.00     0.049 A 
ATOM     41  N   UNL A   1      49.089  27.349  26.634  1.00  0.00    -0.248 NA
ATOM     42  C   UNL A   1      49.494  26.059  24.855  1.00  0.00     0.031 C 
ATOM     43  C   UNL A   1      46.485  28.691  26.472  1.00  0.00     0.029 A 
ATOM     44  N   UNL A   1      44.775  27.259  26.771  1.00  0.00    -0.354 N 
ATOM     45  C   UNL A   1      50.412  27.538  26.172  1.00  0.00     0.074 A 
ATOM     46  C   UNL A   1      50.659  26.563  25.200  1.00  0.00     0.031 C 
ATOM     47  C   UNL A   1      45.624  29.252  27.340  1.00  0.00     0.029 A 
ATOM     48  C   UNL A   1      44.725  28.203  27.797  1.00  0.00     0.049 A 
ATOM     49  H   UNL A   1      44.043  26.672  26.472  1.00  0.00     0.167 HD
ATOM     50  C   UNL A   1      51.179  28.641  26.396  1.00  0.00     0.034 A 
ATOM     51  C   UNL A   1      44.531  27.778  29.077  1.00  0.00     0.034 A 
ATOM     52  C   UNL A   1      50.471  29.531  27.266  1.00  0.00     0.049 A 
ATOM     53  C   UNL A   1      45.660  28.208  29.993  1.00  0.00     0.074 A 
ATOM     54  C   UNL A   1      49.730  30.679  27.077  1.00  0.00     0.029 A 
ATOM     55  N   UNL A   1      50.138  29.034  28.507  1.00  0.00    -0.354 N 
ATOM     56  N   UNL A   1      46.811  28.679  29.588  1.00  0.00    -0.248 NA
ATOM     57  C   UNL A   1      45.577  28.156  31.444  1.00  0.00     0.031 C 
ATOM     58  C   UNL A   1      48.928  30.859  28.240  1.00  0.00     0.029 A 
ATOM     59  C   UNL A   1      49.229  29.847  29.134  1.00  0.00     0.049 A 
ATOM     60  H   UNL A   1      50.503  28.206  28.893  1.00  0.00     0.167 HD
ATOM     61  C   UNL A   1      47.608  28.996  30.662  1.00  0.00     0.074 A 
ATOM     62  C   UNL A   1      46.782  28.635  31.802  1.00  0.00     0.031 C 
ATOM     63  C   UNL A   1      48.869  29.512  30.497  1.00  0.00     0.034 A 
BRANCH  50  64
ATOM     64  C   UNL A   1      52.385  28.997  25.525  1.00  0.00     0.023 A 
ATOM     65  C   UNL A   1      52.209  29.821  24.397  1.00  0.00     0.031 A 
ATOM     66  C   UNL A   1      53.698  28.494  25.697  1.00  0.00     0.131 A 
ATOM     67  C   UNL A   1      53.239  30.005  23.449  1.00  0.00     0.055 A 
ATOM     68  C   UNL A   1      54.701  28.615  24.717  1.00  0.00     0.041 A 
ATOM     69  F   UNL A   1      54.056  27.857  26.823  1.00  0.00    -0.206 F 
ATOM     70  C   UNL A   1      54.466  29.360  23.572  1.00  0.00     0.022 A 
BRANCH  67  71
ATOM     71  S   UNL A   1      52.961  31.136  22.057  1.00  0.00     0.124 S 
ATOM     72  O   UNL A   1      51.514  31.064  21.883  1.00  0.00    -0.237 OA
ATOM     73  O   UNL A   1      53.488  32.394  22.573  1.00  0.00    -0.237 OA
ATOM     74  O   UNL A   1      53.743  30.542  20.973  1.00  0.00    -0.744 OA
ENDBRANCH  67  71
ENDBRANCH  50  64
BRANCH  51  75
ATOM     75  C   UNL A   1      43.644  26.561  29.195  1.00  0.00     0.023 A 
ATOM     76  C   UNL A   1      42.238  26.770  29.142  1.00  0.00     0.031 A 
ATOM     77  C   UNL A   1      44.085  25.239  29.058  1.00  0.00     0.131 A 
ATOM     78  C   UNL A   1      41.356  25.739  28.787  1.00  0.00     0.055 A 
ATOM     79  C   UNL A   1      43.185  24.183  28.801  1.00  0.00     0.041 A 
ATOM     80  F   UNL A   1      45.394  24.949  29.045  1.00  0.00    -0.206 F 
ATOM     81  C   UNL A   1      41.820  24.435  28.631  1.00  0.00     0.022 A 
BRANCH  78  82
ATOM     82  S   UNL A   1      39.650  26.137  28.278  1.00  0.00     0.124 S 
ATOM     83  O   UNL A   1      39.300  24.986  27.453  1.00  0.00    -0.237 OA
ATOM     84  O   UNL A   1      38.927  26.250  29.543  1.00  0.00    -0.237 OA
ATOM     85  O   UNL A   1      39.806  27.405  27.569  1.00  0.00    -0.744 OA
ENDBRANCH  78  82
ENDBRANCH  51  75
BRANCH  63  86
ATOM     86  C   UNL A   1      49.952  29.727  31.553  1.00  0.00     0.023 A 
ATOM     87  C   UNL A   1      50.884  28.753  31.900  1.00  0.00     0.031 A 
ATOM     88  C   UNL A   1      50.094  30.960  32.258  1.00  0.00     0.131 A 
ATOM     89  C   UNL A   1      51.902  29.008  32.838  1.00  0.00     0.055 A 
ATOM     90  C   UNL A   1      51.124  31.226  33.164  1.00  0.00     0.041 A 
ATOM     91  F   UNL A   1      49.239  31.983  32.120  1.00  0.00    -0.206 F 
ATOM     92  C   UNL A   1      52.045  30.244  33.457  1.00  0.00     0.022 A 
BRANCH  89  93
ATOM     93  S   UNL A   1      53.004  27.641  33.262  1.00  0.00     0.124 S 
ATOM     94  O   UNL A   1      54.298  28.310  33.350  1.00  0.00    -0.237 OA
ATOM     95  O   UNL A   1      52.443  27.179  34.528  1.00  0.00    -0.237 OA
ATOM     96  O   UNL A   1      52.856  26.719  32.138  1.00  0.00    -0.744 OA
ENDBRANCH  89  93
ENDBRANCH  63  86
ENDBRANCH  37  38
ENDBRANCH  30  32
ENDBRANCH  29  30
ENDBRANCH  28  29
ENDBRANCH  27  28
ENDBRANCH  26  27
ENDBRANCH  25  26
ENDBRANCH   1  25
TORSDOF 24
ENDMDL
