MODEL 1
REMARK VINA RESULT:      -8.2      0.000      0.000
REMARK SMILES COc1ccc(-c2nc(NCC(=O)OCCOCCOCCOC(=O)c3ccc(-c4c5nc(c(-c6cc(S(=O)(=O)[O-])ccc6F)c6ccc([nH]6)c(-c6cc(S(=O)(=O)[O-])ccc6F)c6nc(c(-c7cc(S(=O)(=O)[O-])ccc7F)c7ccc4[nH]7)C=C6)C=C5)cc3)sc2-c2ccc(OC)cc2)cc1
REMARK SMILES IDX 18 1 17 2 16 3 15 4 14 5 12 6 13 7 11 8 10 9 9 11 7 12 8 13
REMARK SMILES IDX 90 14 89 15 6 16 3 17 4 18 100 19 5 20 99 21 2 22 1 23 91 24
REMARK SMILES IDX 92 25 98 26 93 27 97 28 94 29 95 30 96 31 19 32 20 33 21 34
REMARK SMILES IDX 22 35 23 36 24 37 25 38 26 39 27 40 88 41 28 42 87 43 29 44
REMARK SMILES IDX 30 45 31 46 81 47 32 48 86 49 80 50 82 51 33 52 85 53 79 54
REMARK SMILES IDX 78 55 34 57 66 58 46 59 65 60 47 61 50 62 64 63 83 64 48 65
REMARK SMILES IDX 49 66 63 68 84 69 51 70 35 71 36 72 44 73 37 74 43 75 45 76
REMARK SMILES IDX 42 77 38 78 39 79 40 80 41 81 67 82 68 83 76 84 69 85 75 86
REMARK SMILES IDX 77 87 74 88 70 89 71 90 72 91 73 92 52 93 53 94 61 95 54 96
REMARK SMILES IDX 60 97 62 98 59 99 55 100 56 101 57 102 58 103
REMARK H PARENT 10 10 82 56 50 67
REMARK Flexibility Score: inf
ROOT
ATOM      1  C   UNL A   1      37.707  31.716  34.886  1.00  0.00     0.188 C 
ENDROOT
BRANCH   1   2
ATOM      2  O   UNL A   1      37.747  32.470  33.677  1.00  0.00    -0.376 OA
BRANCH   2   3
ATOM      3  C   UNL A   1      36.669  33.355  33.387  1.00  0.00     0.202 C 
BRANCH   3   4
ATOM      4  C   UNL A   1      35.254  32.760  33.259  1.00  0.00     0.261 C 
BRANCH   4   5
ATOM      5  O   UNL A   1      34.748  32.717  31.908  1.00  0.00    -0.462 OA
BRANCH   5   6
ATOM      6  C   UNL A   1      35.306  31.800  31.070  1.00  0.00     0.325 C 
ATOM      7  O   UNL A   1      35.908  30.802  31.458  1.00  0.00    -0.250 OA
BRANCH   6   8
ATOM      8  C   UNL A   1      34.966  32.016  29.587  1.00  0.00     0.238 C 
BRANCH   8   9
ATOM      9  N   UNL A   1      35.210  30.902  28.676  1.00  0.00    -0.351 N 
ATOM     10  H   UNL A   1      36.125  30.539  28.652  1.00  0.00     0.163 HD
BRANCH   9  11
ATOM     11  C   UNL A   1      34.304  30.325  27.867  1.00  0.00     0.184 A 
ATOM     12  C   UNL A   1      33.351  28.685  26.713  1.00  0.00     0.091 A 
ATOM     13  N   UNL A   1      34.272  29.020  27.692  1.00  0.00    -0.220 NA
ATOM     14  C   UNL A   1      32.673  29.762  26.167  1.00  0.00     0.064 A 
ATOM     15  S   UNL A   1      33.145  31.201  26.958  1.00  0.00    -0.096 S 
BRANCH  12  16
ATOM     16  C   UNL A   1      33.071  27.304  26.328  1.00  0.00     0.002 A 
ATOM     17  C   UNL A   1      32.290  24.835  25.236  1.00  0.00     0.118 A 
ATOM     18  C   UNL A   1      33.523  25.390  24.899  1.00  0.00     0.047 A 
ATOM     19  C   UNL A   1      31.486  25.466  26.187  1.00  0.00     0.047 A 
ATOM     20  C   UNL A   1      33.912  26.622  25.438  1.00  0.00     0.014 A 
ATOM     21  C   UNL A   1      31.878  26.694  26.735  1.00  0.00     0.014 A 
BRANCH  17  22
ATOM     22  O   UNL A   1      31.969  23.654  24.624  1.00  0.00    -0.497 OA
ATOM     23  C   UNL A   1      31.247  22.750  25.457  1.00  0.00     0.278 C 
ENDBRANCH  17  22
ENDBRANCH  12  16
BRANCH  14  24
ATOM     24  C   UNL A   1      31.641  29.833  25.146  1.00  0.00    -0.006 A 
ATOM     25  C   UNL A   1      31.545  28.841  24.163  1.00  0.00     0.013 A 
ATOM     26  C   UNL A   1      30.736  30.899  25.141  1.00  0.00     0.013 A 
ATOM     27  C   UNL A   1      30.566  28.932  23.176  1.00  0.00     0.047 A 
ATOM     28  C   UNL A   1      29.754  30.982  24.153  1.00  0.00     0.047 A 
ATOM     29  C   UNL A   1      29.668  30.001  23.166  1.00  0.00     0.118 A 
BRANCH  29  30
ATOM     30  O   UNL A   1      28.762  29.979  22.141  1.00  0.00    -0.497 OA
ATOM     31  C   UNL A   1      27.854  31.070  22.086  1.00  0.00     0.278 C 
ENDBRANCH  29  30
ENDBRANCH  14  24
ENDBRANCH   9  11
ENDBRANCH   8   9
ENDBRANCH   6   8
ENDBRANCH   5   6
ENDBRANCH   4   5
ENDBRANCH   3   4
ENDBRANCH   2   3
ENDBRANCH   1   2
BRANCH   1  32
ATOM     32  C   UNL A   1      37.760  32.465  36.230  1.00  0.00     0.188 C 
BRANCH  32  33
ATOM     33  O   UNL A   1      38.121  31.656  37.329  1.00  0.00    -0.376 OA
BRANCH  33  34
ATOM     34  C   UNL A   1      37.529  31.965  38.575  1.00  0.00     0.202 C 
BRANCH  34  35
ATOM     35  C   UNL A   1      37.848  33.359  39.140  1.00  0.00     0.261 C 
BRANCH  35  36
ATOM     36  O   UNL A   1      38.678  33.395  40.315  1.00  0.00    -0.460 OA
BRANCH  36  37
ATOM     37  C   UNL A   1      39.197  34.597  40.652  1.00  0.00     0.338 C 
ATOM     38  O   UNL A   1      39.151  35.120  41.759  1.00  0.00    -0.246 OA
BRANCH  37  39
ATOM     39  C   UNL A   1      40.052  35.067  39.537  1.00  0.00     0.060 A 
ATOM     40  C   UNL A   1      39.628  36.166  38.774  1.00  0.00     0.016 A 
ATOM     41  C   UNL A   1      41.257  34.428  39.234  1.00  0.00     0.016 A 
ATOM     42  C   UNL A   1      40.377  36.594  37.677  1.00  0.00     0.010 A 
ATOM     43  C   UNL A   1      41.996  34.844  38.119  1.00  0.00     0.010 A 
ATOM     44  C   UNL A   1      41.535  35.897  37.307  1.00  0.00    -0.014 A 
BRANCH  44  45
ATOM     45  C   UNL A   1      42.098  36.099  35.946  1.00  0.00     0.031 A 
ATOM     46  C   UNL A   1      43.183  37.131  35.777  1.00  0.00     0.074 A 
ATOM     47  C   UNL A   1      41.704  35.364  34.891  1.00  0.00     0.049 A 
ATOM     48  N   UNL A   1      43.819  37.512  34.700  1.00  0.00    -0.248 NA
ATOM     49  C   UNL A   1      43.593  37.837  37.000  1.00  0.00     0.031 C 
ATOM     50  C   UNL A   1      40.697  34.306  34.926  1.00  0.00     0.029 A 
ATOM     51  N   UNL A   1      42.106  35.404  33.578  1.00  0.00    -0.354 N 
ATOM     52  C   UNL A   1      44.699  38.507  35.113  1.00  0.00     0.074 A 
ATOM     53  C   UNL A   1      44.470  38.706  36.529  1.00  0.00     0.031 C 
ATOM     54  C   UNL A   1      40.552  33.803  33.687  1.00  0.00     0.029 A 
ATOM     55  C   UNL A   1      41.429  34.525  32.766  1.00  0.00     0.049 A 
ATOM     56  H   UNL A   1      42.812  36.005  33.250  1.00  0.00     0.167 HD
ATOM     57  C   UNL A   1      45.624  39.184  34.386  1.00  0.00     0.034 A 
ATOM     58  C   UNL A   1      41.494  34.341  31.430  1.00  0.00     0.034 A 
ATOM     59  C   UNL A   1      45.826  38.990  32.971  1.00  0.00     0.049 A 
ATOM     60  C   UNL A   1      42.472  35.159  30.619  1.00  0.00     0.074 A 
ATOM     61  C   UNL A   1      46.735  39.616  32.135  1.00  0.00     0.029 A 
ATOM     62  N   UNL A   1      45.095  38.116  32.174  1.00  0.00    -0.354 N 
ATOM     63  N   UNL A   1      43.306  36.092  31.018  1.00  0.00    -0.248 NA
ATOM     64  C   UNL A   1      42.527  34.882  29.177  1.00  0.00     0.031 C 
ATOM     65  C   UNL A   1      46.495  39.186  30.825  1.00  0.00     0.029 A 
ATOM     66  C   UNL A   1      45.508  38.213  30.852  1.00  0.00     0.049 A 
ATOM     67  H   UNL A   1      44.386  37.516  32.500  1.00  0.00     0.167 HD
ATOM     68  C   UNL A   1      44.012  36.485  29.880  1.00  0.00     0.074 A 
ATOM     69  C   UNL A   1      43.510  35.679  28.787  1.00  0.00     0.031 C 
ATOM     70  C   UNL A   1      44.993  37.418  29.758  1.00  0.00     0.034 A 
BRANCH  57  71
ATOM     71  C   UNL A   1      46.427  40.242  35.114  1.00  0.00     0.023 A 
ATOM     72  C   UNL A   1      46.013  41.586  35.164  1.00  0.00     0.031 A 
ATOM     73  C   UNL A   1      47.666  39.918  35.693  1.00  0.00     0.131 A 
ATOM     74  C   UNL A   1      46.876  42.567  35.677  1.00  0.00     0.055 A 
ATOM     75  C   UNL A   1      48.474  40.885  36.297  1.00  0.00     0.041 A 
ATOM     76  F   UNL A   1      48.132  38.660  35.656  1.00  0.00    -0.206 F 
ATOM     77  C   UNL A   1      48.092  42.222  36.270  1.00  0.00     0.022 A 
BRANCH  74  78
ATOM     78  S   UNL A   1      46.481  44.312  35.368  1.00  0.00     0.124 S 
ATOM     79  O   UNL A   1      46.560  44.874  36.715  1.00  0.00    -0.237 OA
ATOM     80  O   UNL A   1      47.534  44.714  34.444  1.00  0.00    -0.237 OA
ATOM     81  O   UNL A   1      45.134  44.263  34.801  1.00  0.00    -0.744 OA
ENDBRANCH  74  78
ENDBRANCH  57  71
BRANCH  58  82
ATOM     82  C   UNL A   1      40.582  33.364  30.767  1.00  0.00     0.023 A 
ATOM     83  C   UNL A   1      40.913  32.004  30.656  1.00  0.00     0.031 A 
ATOM     84  C   UNL A   1      39.364  33.793  30.207  1.00  0.00     0.131 A 
ATOM     85  C   UNL A   1      40.051  31.127  29.977  1.00  0.00     0.055 A 
ATOM     86  C   UNL A   1      38.488  32.908  29.576  1.00  0.00     0.041 A 
ATOM     87  F   UNL A   1      39.002  35.083  30.279  1.00  0.00    -0.206 F 
ATOM     88  C   UNL A   1      38.835  31.567  29.451  1.00  0.00     0.022 A 
BRANCH  85  89
ATOM     89  S   UNL A   1      40.569  29.405  29.735  1.00  0.00     0.124 S 
ATOM     90  O   UNL A   1      41.036  29.044  31.069  1.00  0.00    -0.237 OA
ATOM     91  O   UNL A   1      39.329  28.773  29.296  1.00  0.00    -0.237 OA
ATOM     92  O   UNL A   1      41.610  29.502  28.714  1.00  0.00    -0.744 OA
ENDBRANCH  85  89
ENDBRANCH  58  82
BRANCH  70  93
ATOM     93  C   UNL A   1      45.636  37.573  28.395  1.00  0.00     0.023 A 
ATOM     94  C   UNL A   1      46.658  36.718  27.946  1.00  0.00     0.031 A 
ATOM     95  C   UNL A   1      45.235  38.618  27.542  1.00  0.00     0.131 A 
ATOM     96  C   UNL A   1      47.296  36.970  26.720  1.00  0.00     0.055 A 
ATOM     97  C   UNL A   1      45.818  38.815  26.289  1.00  0.00     0.041 A 
ATOM     98  F   UNL A   1      44.268  39.472  27.914  1.00  0.00    -0.206 F 
ATOM     99  C   UNL A   1      46.868  38.001  25.880  1.00  0.00     0.022 A 
BRANCH  96 100
ATOM    100  S   UNL A   1      48.786  36.022  26.302  1.00  0.00     0.124 S 
ATOM    101  O   UNL A   1      49.124  35.409  27.581  1.00  0.00    -0.237 OA
ATOM    102  O   UNL A   1      48.299  35.116  25.268  1.00  0.00    -0.237 OA
ATOM    103  O   UNL A   1      49.723  37.045  25.838  1.00  0.00    -0.744 OA
ENDBRANCH  96 100
ENDBRANCH  70  93
ENDBRANCH  44  45
ENDBRANCH  37  39
ENDBRANCH  36  37
ENDBRANCH  35  36
ENDBRANCH  34  35
ENDBRANCH  33  34
ENDBRANCH  32  33
ENDBRANCH   1  32
TORSDOF 26
ENDMDL
MODEL 2
REMARK VINA RESULT:      -8.0      6.664     11.863
REMARK SMILES COc1ccc(-c2nc(NCC(=O)OCCOCCOCCOC(=O)c3ccc(-c4c5nc(c(-c6cc(S(=O)(=O)[O-])ccc6F)c6ccc([nH]6)c(-c6cc(S(=O)(=O)[O-])ccc6F)c6nc(c(-c7cc(S(=O)(=O)[O-])ccc7F)c7ccc4[nH]7)C=C6)C=C5)cc3)sc2-c2ccc(OC)cc2)cc1
REMARK SMILES IDX 18 1 17 2 16 3 15 4 14 5 12 6 13 7 11 8 10 9 9 11 7 12 8 13
REMARK SMILES IDX 90 14 89 15 6 16 3 17 4 18 100 19 5 20 99 21 2 22 1 23 91 24
REMARK SMILES IDX 92 25 98 26 93 27 97 28 94 29 95 30 96 31 19 32 20 33 21 34
REMARK SMILES IDX 22 35 23 36 24 37 25 38 26 39 27 40 88 41 28 42 87 43 29 44
REMARK SMILES IDX 30 45 31 46 81 47 32 48 86 49 80 50 82 51 33 52 85 53 79 54
REMARK SMILES IDX 78 55 34 57 66 58 46 59 65 60 47 61 50 62 64 63 83 64 48 65
REMARK SMILES IDX 49 66 63 68 84 69 51 70 35 71 36 72 44 73 37 74 43 75 45 76
REMARK SMILES IDX 42 77 38 78 39 79 40 80 41 81 67 82 68 83 76 84 69 85 75 86
REMARK SMILES IDX 77 87 74 88 70 89 71 90 72 91 73 92 52 93 53 94 61 95 54 96
REMARK SMILES IDX 60 97 62 98 59 99 55 100 56 101 57 102 58 103
REMARK H PARENT 10 10 82 56 50 67
REMARK Flexibility Score: inf
ROOT
ATOM      1  C   UNL A   1      36.223  22.500  25.714  1.00  0.00     0.188 C 
ENDROOT
BRANCH   1   2
ATOM      2  O   UNL A   1      35.500  23.470  24.961  1.00  0.00    -0.376 OA
BRANCH   2   3
ATOM      3  C   UNL A   1      34.833  24.518  25.659  1.00  0.00     0.202 C 
BRANCH   3   4
ATOM      4  C   UNL A   1      34.349  25.737  24.850  1.00  0.00     0.261 C 
BRANCH   4   5
ATOM      5  O   UNL A   1      32.915  25.903  24.827  1.00  0.00    -0.462 OA
BRANCH   5   6
ATOM      6  C   UNL A   1      32.442  27.135  24.491  1.00  0.00     0.325 C 
ATOM      7  O   UNL A   1      32.053  27.430  23.364  1.00  0.00    -0.250 OA
BRANCH   6   8
ATOM      8  C   UNL A   1      32.262  28.085  25.686  1.00  0.00     0.238 C 
BRANCH   8   9
ATOM      9  N   UNL A   1      33.110  29.272  25.729  1.00  0.00    -0.351 N 
ATOM     10  H   UNL A   1      32.972  29.943  25.022  1.00  0.00     0.163 HD
BRANCH   9  11
ATOM     11  C   UNL A   1      34.062  29.535  26.642  1.00  0.00     0.184 A 
ATOM     12  C   UNL A   1      35.244  30.769  28.058  1.00  0.00     0.091 A 
ATOM     13  N   UNL A   1      34.100  30.685  27.283  1.00  0.00    -0.220 NA
ATOM     14  C   UNL A   1      36.060  29.652  28.007  1.00  0.00     0.064 A 
ATOM     15  S   UNL A   1      35.330  28.450  27.034  1.00  0.00    -0.096 S 
BRANCH  12  16
ATOM     16  C   UNL A   1      35.540  31.918  28.911  1.00  0.00     0.002 A 
ATOM     17  C   UNL A   1      36.373  33.830  30.795  1.00  0.00     0.118 A 
ATOM     18  C   UNL A   1      37.052  33.698  29.585  1.00  0.00     0.047 A 
ATOM     19  C   UNL A   1      35.224  33.072  31.027  1.00  0.00     0.047 A 
ATOM     20  C   UNL A   1      36.642  32.743  28.648  1.00  0.00     0.014 A 
ATOM     21  C   UNL A   1      34.806  32.123  30.085  1.00  0.00     0.014 A 
BRANCH  17  22
ATOM     22  O   UNL A   1      36.873  34.753  31.673  1.00  0.00    -0.497 OA
ATOM     23  C   UNL A   1      38.205  34.478  32.102  1.00  0.00     0.278 C 
ENDBRANCH  17  22
ENDBRANCH  12  16
BRANCH  14  24
ATOM     24  C   UNL A   1      37.317  29.344  28.669  1.00  0.00    -0.006 A 
ATOM     25  C   UNL A   1      37.337  28.983  30.020  1.00  0.00     0.013 A 
ATOM     26  C   UNL A   1      38.516  29.408  27.954  1.00  0.00     0.013 A 
ATOM     27  C   UNL A   1      38.550  28.712  30.650  1.00  0.00     0.047 A 
ATOM     28  C   UNL A   1      39.728  29.131  28.587  1.00  0.00     0.047 A 
ATOM     29  C   UNL A   1      39.749  28.785  29.938  1.00  0.00     0.118 A 
BRANCH  29  30
ATOM     30  O   UNL A   1      40.869  28.506  30.672  1.00  0.00    -0.497 OA
ATOM     31  C   UNL A   1      41.863  29.520  30.706  1.00  0.00     0.278 C 
ENDBRANCH  29  30
ENDBRANCH  14  24
ENDBRANCH   9  11
ENDBRANCH   8   9
ENDBRANCH   6   8
ENDBRANCH   5   6
ENDBRANCH   4   5
ENDBRANCH   3   4
ENDBRANCH   2   3
ENDBRANCH   1   2
BRANCH   1  32
ATOM     32  C   UNL A   1      37.242  21.604  24.986  1.00  0.00     0.188 C 
BRANCH  32  33
ATOM     33  O   UNL A   1      38.497  21.518  25.625  1.00  0.00    -0.376 OA
BRANCH  33  34
ATOM     34  C   UNL A   1      38.972  22.684  26.267  1.00  0.00     0.202 C 
BRANCH  34  35
ATOM     35  C   UNL A   1      40.404  22.606  26.822  1.00  0.00     0.261 C 
BRANCH  35  36
ATOM     36  O   UNL A   1      41.268  23.715  26.511  1.00  0.00    -0.460 OA
BRANCH  36  37
ATOM     37  C   UNL A   1      42.592  23.449  26.442  1.00  0.00     0.338 C 
ATOM     38  O   UNL A   1      43.097  22.372  26.150  1.00  0.00    -0.246 OA
BRANCH  37  39
ATOM     39  C   UNL A   1      43.333  24.729  26.525  1.00  0.00     0.060 A 
ATOM     40  C   UNL A   1      43.542  25.468  25.351  1.00  0.00     0.016 A 
ATOM     41  C   UNL A   1      43.829  25.197  27.744  1.00  0.00     0.016 A 
ATOM     42  C   UNL A   1      44.292  26.645  25.383  1.00  0.00     0.010 A 
ATOM     43  C   UNL A   1      44.600  26.366  27.771  1.00  0.00     0.010 A 
ATOM     44  C   UNL A   1      44.876  27.069  26.584  1.00  0.00    -0.014 A 
BRANCH  44  45
ATOM     45  C   UNL A   1      45.972  28.073  26.542  1.00  0.00     0.031 A 
ATOM     46  C   UNL A   1      45.608  29.523  26.729  1.00  0.00     0.074 A 
ATOM     47  C   UNL A   1      47.261  27.720  26.391  1.00  0.00     0.049 A 
ATOM     48  N   UNL A   1      46.367  30.588  26.713  1.00  0.00    -0.248 NA
ATOM     49  C   UNL A   1      44.182  29.803  26.953  1.00  0.00     0.031 C 
ATOM     50  C   UNL A   1      47.752  26.353  26.243  1.00  0.00     0.029 A 
ATOM     51  N   UNL A   1      48.394  28.495  26.331  1.00  0.00    -0.354 N 
ATOM     52  C   UNL A   1      45.510  31.665  26.916  1.00  0.00     0.074 A 
ATOM     53  C   UNL A   1      44.170  31.124  26.996  1.00  0.00     0.031 C 
ATOM     54  C   UNL A   1      49.090  26.384  26.101  1.00  0.00     0.029 A 
ATOM     55  C   UNL A   1      49.544  27.775  26.112  1.00  0.00     0.049 A 
ATOM     56  H   UNL A   1      48.384  29.473  26.438  1.00  0.00     0.167 HD
ATOM     57  C   UNL A   1      45.810  32.983  27.041  1.00  0.00     0.034 A 
ATOM     58  C   UNL A   1      50.814  28.191  25.918  1.00  0.00     0.034 A 
ATOM     59  C   UNL A   1      47.149  33.510  26.938  1.00  0.00     0.049 A 
ATOM     60  C   UNL A   1      51.124  29.669  25.980  1.00  0.00     0.074 A 
ATOM     61  C   UNL A   1      47.571  34.824  27.052  1.00  0.00     0.029 A 
ATOM     62  N   UNL A   1      48.286  32.753  26.677  1.00  0.00    -0.354 N 
ATOM     63  N   UNL A   1      50.310  30.680  26.181  1.00  0.00    -0.248 NA
ATOM     64  C   UNL A   1      52.530  30.056  25.805  1.00  0.00     0.031 C 
ATOM     65  C   UNL A   1      48.942  34.870  26.774  1.00  0.00     0.029 A 
ATOM     66  C   UNL A   1      49.402  33.576  26.591  1.00  0.00     0.049 A 
ATOM     67  H   UNL A   1      48.299  31.774  26.568  1.00  0.00     0.167 HD
ATOM     68  C   UNL A   1      51.113  31.821  26.195  1.00  0.00     0.074 A 
ATOM     69  C   UNL A   1      52.474  31.366  25.993  1.00  0.00     0.031 C 
ATOM     70  C   UNL A   1      50.758  33.121  26.372  1.00  0.00     0.034 A 
BRANCH  57  71
ATOM     71  C   UNL A   1      44.649  33.935  27.231  1.00  0.00     0.023 A 
ATOM     72  C   UNL A   1      43.890  33.954  28.417  1.00  0.00     0.031 A 
ATOM     73  C   UNL A   1      44.242  34.777  26.182  1.00  0.00     0.131 A 
ATOM     74  C   UNL A   1      42.708  34.709  28.481  1.00  0.00     0.055 A 
ATOM     75  C   UNL A   1      43.123  35.606  26.292  1.00  0.00     0.041 A 
ATOM     76  F   UNL A   1      44.906  34.788  25.016  1.00  0.00    -0.206 F 
ATOM     77  C   UNL A   1      42.335  35.558  27.437  1.00  0.00     0.022 A 
BRANCH  74  78
ATOM     78  S   UNL A   1      41.563  34.405  29.856  1.00  0.00     0.124 S 
ATOM     79  O   UNL A   1      41.517  32.945  29.883  1.00  0.00    -0.237 OA
ATOM     80  O   UNL A   1      42.240  35.046  30.977  1.00  0.00    -0.237 OA
ATOM     81  O   UNL A   1      40.326  35.051  29.420  1.00  0.00    -0.744 OA
ENDBRANCH  74  78
ENDBRANCH  57  71
BRANCH  58  82
ATOM     82  C   UNL A   1      51.886  27.199  25.614  1.00  0.00     0.023 A 
ATOM     83  C   UNL A   1      52.841  26.827  26.574  1.00  0.00     0.031 A 
ATOM     84  C   UNL A   1      51.982  26.625  24.333  1.00  0.00     0.131 A 
ATOM     85  C   UNL A   1      53.867  25.930  26.230  1.00  0.00     0.055 A 
ATOM     86  C   UNL A   1      52.973  25.696  24.011  1.00  0.00     0.041 A 
ATOM     87  F   UNL A   1      51.099  26.950  23.376  1.00  0.00    -0.206 F 
ATOM     88  C   UNL A   1      53.928  25.351  24.961  1.00  0.00     0.022 A 
BRANCH  85  89
ATOM     89  S   UNL A   1      55.160  25.573  27.451  1.00  0.00     0.124 S 
ATOM     90  O   UNL A   1      54.585  26.134  28.668  1.00  0.00    -0.237 OA
ATOM     91  O   UNL A   1      55.240  24.116  27.391  1.00  0.00    -0.237 OA
ATOM     92  O   UNL A   1      56.327  26.280  26.927  1.00  0.00    -0.744 OA
ENDBRANCH  85  89
ENDBRANCH  58  82
BRANCH  70  93
ATOM     93  C   UNL A   1      51.873  34.144  26.419  1.00  0.00     0.023 A 
ATOM     94  C   UNL A   1      52.403  34.732  25.256  1.00  0.00     0.031 A 
ATOM     95  C   UNL A   1      52.436  34.516  27.655  1.00  0.00     0.131 A 
ATOM     96  C   UNL A   1      53.508  35.594  25.347  1.00  0.00     0.055 A 
ATOM     97  C   UNL A   1      53.483  35.434  27.744  1.00  0.00     0.041 A 
ATOM     98  F   UNL A   1      51.978  33.988  28.801  1.00  0.00    -0.206 F 
ATOM     99  C   UNL A   1      54.038  35.964  26.585  1.00  0.00     0.022 A 
BRANCH  96 100
ATOM    100  S   UNL A   1      54.337  36.111  23.817  1.00  0.00     0.124 S 
ATOM    101  O   UNL A   1      53.298  35.887  22.819  1.00  0.00    -0.237 OA
ATOM    102  O   UNL A   1      54.664  37.505  24.097  1.00  0.00    -0.237 OA
ATOM    103  O   UNL A   1      55.486  35.211  23.729  1.00  0.00    -0.744 OA
ENDBRANCH  96 100
ENDBRANCH  70  93
ENDBRANCH  44  45
ENDBRANCH  37  39
ENDBRANCH  36  37
ENDBRANCH  35  36
ENDBRANCH  34  35
ENDBRANCH  33  34
ENDBRANCH  32  33
ENDBRANCH   1  32
TORSDOF 26
ENDMDL
MODEL 3
REMARK VINA RESULT:      -7.9      2.042      2.627
REMARK SMILES COc1ccc(-c2nc(NCC(=O)OCCOCCOCCOC(=O)c3ccc(-c4c5nc(c(-c6cc(S(=O)(=O)[O-])ccc6F)c6ccc([nH]6)c(-c6cc(S(=O)(=O)[O-])ccc6F)c6nc(c(-c7cc(S(=O)(=O)[O-])ccc7F)c7ccc4[nH]7)C=C6)C=C5)cc3)sc2-c2ccc(OC)cc2)cc1
REMARK SMILES IDX 18 1 17 2 16 3 15 4 14 5 12 6 13 7 11 8 10 9 9 11 7 12 8 13
REMARK SMILES IDX 90 14 89 15 6 16 3 17 4 18 100 19 5 20 99 21 2 22 1 23 91 24
REMARK SMILES IDX 92 25 98 26 93 27 97 28 94 29 95 30 96 31 19 32 20 33 21 34
REMARK SMILES IDX 22 35 23 36 24 37 25 38 26 39 27 40 88 41 28 42 87 43 29 44
REMARK SMILES IDX 30 45 31 46 81 47 32 48 86 49 80 50 82 51 33 52 85 53 79 54
REMARK SMILES IDX 78 55 34 57 66 58 46 59 65 60 47 61 50 62 64 63 83 64 48 65
REMARK SMILES IDX 49 66 63 68 84 69 51 70 35 71 36 72 44 73 37 74 43 75 45 76
REMARK SMILES IDX 42 77 38 78 39 79 40 80 41 81 67 82 68 83 76 84 69 85 75 86
REMARK SMILES IDX 77 87 74 88 70 89 71 90 72 91 73 92 52 93 53 94 61 95 54 96
REMARK SMILES IDX 60 97 62 98 59 99 55 100 56 101 57 102 58 103
REMARK H PARENT 10 10 82 56 50 67
REMARK Flexibility Score: inf
ROOT
ATOM      1  C   UNL A   1      37.936  31.375  34.436  1.00  0.00     0.188 C 
ENDROOT
BRANCH   1   2
ATOM      2  O   UNL A   1      38.207  32.274  33.364  1.00  0.00    -0.376 OA
BRANCH   2   3
ATOM      3  C   UNL A   1      37.257  33.295  33.072  1.00  0.00     0.202 C 
BRANCH   3   4
ATOM      4  C   UNL A   1      35.761  32.929  33.109  1.00  0.00     0.261 C 
BRANCH   4   5
ATOM      5  O   UNL A   1      35.162  32.746  31.808  1.00  0.00    -0.462 OA
BRANCH   5   6
ATOM      6  C   UNL A   1      35.593  31.683  31.075  1.00  0.00     0.325 C 
ATOM      7  O   UNL A   1      35.870  30.589  31.560  1.00  0.00    -0.250 OA
BRANCH   6   8
ATOM      8  C   UNL A   1      35.534  31.903  29.555  1.00  0.00     0.238 C 
BRANCH   8   9
ATOM      9  N   UNL A   1      35.606  30.719  28.705  1.00  0.00    -0.351 N 
ATOM     10  H   UNL A   1      36.458  30.226  28.700  1.00  0.00     0.163 HD
BRANCH   9  11
ATOM     11  C   UNL A   1      34.619  30.238  27.928  1.00  0.00     0.184 A 
ATOM     12  C   UNL A   1      33.498  28.717  26.763  1.00  0.00     0.091 A 
ATOM     13  N   UNL A   1      34.493  28.947  27.697  1.00  0.00    -0.220 NA
ATOM     14  C   UNL A   1      32.859  29.858  26.307  1.00  0.00     0.064 A 
ATOM     15  S   UNL A   1      33.467  31.227  27.131  1.00  0.00    -0.096 S 
BRANCH  12  16
ATOM     16  C   UNL A   1      33.108  27.376  26.335  1.00  0.00     0.002 A 
ATOM     17  C   UNL A   1      32.563  24.652  25.907  1.00  0.00     0.118 A 
ATOM     18  C   UNL A   1      31.606  25.472  26.503  1.00  0.00     0.047 A 
ATOM     19  C   UNL A   1      33.755  25.209  25.441  1.00  0.00     0.047 A 
ATOM     20  C   UNL A   1      31.878  26.827  26.722  1.00  0.00     0.014 A 
ATOM     21  C   UNL A   1      34.025  26.568  25.650  1.00  0.00     0.014 A 
BRANCH  17  22
ATOM     22  O   UNL A   1      32.233  23.330  25.778  1.00  0.00    -0.497 OA
ATOM     23  C   UNL A   1      31.047  22.961  26.480  1.00  0.00     0.278 C 
ENDBRANCH  17  22
ENDBRANCH  12  16
BRANCH  14  24
ATOM     24  C   UNL A   1      31.776  30.042  25.355  1.00  0.00    -0.006 A 
ATOM     25  C   UNL A   1      31.613  29.154  24.286  1.00  0.00     0.013 A 
ATOM     26  C   UNL A   1      30.889  31.112  25.504  1.00  0.00     0.013 A 
ATOM     27  C   UNL A   1      30.585  29.352  23.367  1.00  0.00     0.047 A 
ATOM     28  C   UNL A   1      29.858  31.304  24.585  1.00  0.00     0.047 A 
ATOM     29  C   UNL A   1      29.705  30.426  23.511  1.00  0.00     0.118 A 
BRANCH  29  30
ATOM     30  O   UNL A   1      28.746  30.516  22.539  1.00  0.00    -0.497 OA
ATOM     31  C   UNL A   1      27.631  31.344  22.836  1.00  0.00     0.278 C 
ENDBRANCH  29  30
ENDBRANCH  14  24
ENDBRANCH   9  11
ENDBRANCH   8   9
ENDBRANCH   6   8
ENDBRANCH   5   6
ENDBRANCH   4   5
ENDBRANCH   3   4
ENDBRANCH   2   3
ENDBRANCH   1   2
BRANCH   1  32
ATOM     32  C   UNL A   1      37.764  31.943  35.857  1.00  0.00     0.188 C 
BRANCH  32  33
ATOM     33  O   UNL A   1      37.825  30.972  36.879  1.00  0.00    -0.376 OA
BRANCH  33  34
ATOM     34  C   UNL A   1      37.390  31.365  38.165  1.00  0.00     0.202 C 
BRANCH  34  35
ATOM     35  C   UNL A   1      37.514  32.864  38.484  1.00  0.00     0.261 C 
BRANCH  35  36
ATOM     36  O   UNL A   1      38.436  33.217  39.532  1.00  0.00    -0.460 OA
BRANCH  36  37
ATOM     37  C   UNL A   1      38.817  34.513  39.590  1.00  0.00     0.338 C 
ATOM     38  O   UNL A   1      38.630  35.279  40.528  1.00  0.00    -0.246 OA
BRANCH  37  39
ATOM     39  C   UNL A   1      39.722  34.787  38.449  1.00  0.00     0.060 A 
ATOM     40  C   UNL A   1      39.237  35.536  37.365  1.00  0.00     0.016 A 
ATOM     41  C   UNL A   1      41.032  34.304  38.436  1.00  0.00     0.016 A 
ATOM     42  C   UNL A   1      40.041  35.757  36.246  1.00  0.00     0.010 A 
ATOM     43  C   UNL A   1      41.830  34.507  37.303  1.00  0.00     0.010 A 
ATOM     44  C   UNL A   1      41.322  35.192  36.184  1.00  0.00    -0.014 A 
BRANCH  44  45
ATOM     45  C   UNL A   1      42.007  35.094  34.867  1.00  0.00     0.031 A 
ATOM     46  C   UNL A   1      42.748  36.307  34.365  1.00  0.00     0.074 A 
ATOM     47  C   UNL A   1      42.021  33.956  34.150  1.00  0.00     0.049 A 
ATOM     48  N   UNL A   1      43.403  36.486  33.247  1.00  0.00    -0.248 NA
ATOM     49  C   UNL A   1      42.730  37.481  35.249  1.00  0.00     0.031 C 
ATOM     50  C   UNL A   1      41.382  32.702  34.541  1.00  0.00     0.029 A 
ATOM     51  N   UNL A   1      42.594  33.678  32.933  1.00  0.00    -0.354 N 
ATOM     52  C   UNL A   1      43.869  37.796  33.290  1.00  0.00     0.074 A 
ATOM     53  C   UNL A   1      43.371  38.377  34.519  1.00  0.00     0.031 C 
ATOM     54  C   UNL A   1      41.591  31.789  33.576  1.00  0.00     0.029 A 
ATOM     55  C   UNL A   1      42.347  32.403  32.484  1.00  0.00     0.049 A 
ATOM     56  H   UNL A   1      43.132  34.331  32.430  1.00  0.00     0.167 HD
ATOM     57  C   UNL A   1      44.653  38.453  32.397  1.00  0.00     0.034 A 
ATOM     58  C   UNL A   1      42.673  31.807  31.318  1.00  0.00     0.034 A 
ATOM     59  C   UNL A   1      45.124  37.868  31.166  1.00  0.00     0.049 A 
ATOM     60  C   UNL A   1      43.478  32.576  30.296  1.00  0.00     0.074 A 
ATOM     61  C   UNL A   1      45.925  38.436  30.191  1.00  0.00     0.029 A 
ATOM     62  N   UNL A   1      44.821  36.583  30.727  1.00  0.00    -0.354 N 
ATOM     63  N   UNL A   1      43.922  33.811  30.347  1.00  0.00    -0.248 NA
ATOM     64  C   UNL A   1      43.839  31.859  29.066  1.00  0.00     0.031 C 
ATOM     65  C   UNL A   1      46.033  37.531  29.128  1.00  0.00     0.029 A 
ATOM     66  C   UNL A   1      45.389  36.355  29.481  1.00  0.00     0.049 A 
ATOM     67  H   UNL A   1      44.281  35.929  31.228  1.00  0.00     0.167 HD
ATOM     68  C   UNL A   1      44.649  34.005  29.172  1.00  0.00     0.074 A 
ATOM     69  C   UNL A   1      44.588  32.756  28.442  1.00  0.00     0.031 C 
ATOM     70  C   UNL A   1      45.314  35.111  28.745  1.00  0.00     0.034 A 
BRANCH  57  71
ATOM     71  C   UNL A   1      44.979  39.899  32.705  1.00  0.00     0.023 A 
ATOM     72  C   UNL A   1      44.153  40.955  32.276  1.00  0.00     0.031 A 
ATOM     73  C   UNL A   1      46.175  40.232  33.364  1.00  0.00     0.131 A 
ATOM     74  C   UNL A   1      44.587  42.283  32.411  1.00  0.00     0.055 A 
ATOM     75  C   UNL A   1      46.550  41.558  33.589  1.00  0.00     0.041 A 
ATOM     76  F   UNL A   1      47.020  39.273  33.776  1.00  0.00    -0.206 F 
ATOM     77  C   UNL A   1      45.766  42.594  33.090  1.00  0.00     0.022 A 
BRANCH  74  78
ATOM     78  S   UNL A   1      43.695  43.579  31.504  1.00  0.00     0.124 S 
ATOM     79  O   UNL A   1      42.305  43.197  31.738  1.00  0.00    -0.237 OA
ATOM     80  O   UNL A   1      44.146  44.796  32.170  1.00  0.00    -0.237 OA
ATOM     81  O   UNL A   1      44.156  43.412  30.127  1.00  0.00    -0.744 OA
ENDBRANCH  74  78
ENDBRANCH  57  71
BRANCH  58  82
ATOM     82  C   UNL A   1      42.210  30.417  31.036  1.00  0.00     0.023 A 
ATOM     83  C   UNL A   1      40.946  30.159  30.481  1.00  0.00     0.031 A 
ATOM     84  C   UNL A   1      43.029  29.316  31.347  1.00  0.00     0.131 A 
ATOM     85  C   UNL A   1      40.526  28.833  30.281  1.00  0.00     0.055 A 
ATOM     86  C   UNL A   1      42.628  28.002  31.101  1.00  0.00     0.041 A 
ATOM     87  F   UNL A   1      44.244  29.506  31.885  1.00  0.00    -0.206 F 
ATOM     88  C   UNL A   1      41.366  27.755  30.572  1.00  0.00     0.022 A 
BRANCH  85  89
ATOM     89  S   UNL A   1      38.839  28.530  29.688  1.00  0.00     0.124 S 
ATOM     90  O   UNL A   1      39.042  27.415  28.770  1.00  0.00    -0.237 OA
ATOM     91  O   UNL A   1      38.132  28.222  30.927  1.00  0.00    -0.237 OA
ATOM     92  O   UNL A   1      38.467  29.796  29.060  1.00  0.00    -0.744 OA
ENDBRANCH  85  89
ENDBRANCH  58  82
BRANCH  70  93
ATOM     93  C   UNL A   1      46.088  34.998  27.449  1.00  0.00     0.023 A 
ATOM     94  C   UNL A   1      47.401  34.498  27.399  1.00  0.00     0.031 A 
ATOM     95  C   UNL A   1      45.505  35.427  26.241  1.00  0.00     0.131 A 
ATOM     96  C   UNL A   1      48.113  34.514  26.189  1.00  0.00     0.055 A 
ATOM     97  C   UNL A   1      46.190  35.367  25.027  1.00  0.00     0.041 A 
ATOM     98  F   UNL A   1      44.256  35.919  26.221  1.00  0.00    -0.206 F 
ATOM     99  C   UNL A   1      47.509  34.927  24.999  1.00  0.00     0.022 A 
BRANCH  96 100
ATOM    100  S   UNL A   1      49.886  34.125  26.215  1.00  0.00     0.124 S 
ATOM    101  O   UNL A   1      50.365  34.813  25.021  1.00  0.00    -0.237 OA
ATOM    102  O   UNL A   1      50.310  34.692  27.491  1.00  0.00    -0.237 OA
ATOM    103  O   UNL A   1      49.918  32.665  26.145  1.00  0.00    -0.744 OA
ENDBRANCH  96 100
ENDBRANCH  70  93
ENDBRANCH  44  45
ENDBRANCH  37  39
ENDBRANCH  36  37
ENDBRANCH  35  36
ENDBRANCH  34  35
ENDBRANCH  33  34
ENDBRANCH  32  33
ENDBRANCH   1  32
TORSDOF 26
ENDMDL
