MODEL 1
REMARK VINA RESULT:     -10.9      0.000      0.000
REMARK SMILES C[C@@H](C(=O)OCCOCCOCCOC(=O)c1ccc(-c2c3nc(c(-c4cc(S(=O)(=O)[O-])ccc4F)c4ccc([nH]4)c(-c4cc(S(=O)(=O)[O-])ccc4F)c4nc(c(-c5cc(S(=O)(=O)[O-])ccc5F)c5ccc2[nH]5)C=C4)C=C3)cc1)c1ccc(C[C@H]2CCCC2=O)cc1
REMARK SMILES IDX 9 1 8 2 7 3 6 4 5 5 3 6 4 7 2 8 1 9 80 10 81 11 92 12 82 13
REMARK SMILES IDX 91 14 83 15 84 16 85 17 86 18 89 19 87 20 88 21 90 22 10 23
REMARK SMILES IDX 11 24 12 25 13 26 14 27 15 28 16 29 17 30 18 31 79 32 19 33
REMARK SMILES IDX 78 34 20 35 21 36 22 37 72 38 23 39 77 40 71 41 73 42 24 43
REMARK SMILES IDX 76 44 70 45 69 46 25 48 57 49 37 50 56 51 38 52 41 53 55 54
REMARK SMILES IDX 74 55 39 56 40 57 54 59 75 60 42 61 26 62 27 63 35 64 28 65
REMARK SMILES IDX 34 66 36 67 33 68 29 69 30 70 31 71 32 72 58 73 59 74 67 75
REMARK SMILES IDX 60 76 66 77 68 78 65 79 61 80 62 81 63 82 64 83 43 84 44 85
REMARK SMILES IDX 52 86 45 87 51 88 53 89 50 90 46 91 47 92 48 93 49 94
REMARK H PARENT 73 47 41 58
REMARK Flexibility Score: inf
ROOT
ATOM      1  C   UNL A   1      33.279  21.502  23.735  1.00  0.00     0.188 C 
ENDROOT
BRANCH   1   2
ATOM      2  O   UNL A   1      33.059  22.895  23.944  1.00  0.00    -0.376 OA
BRANCH   2   3
ATOM      3  C   UNL A   1      31.952  23.287  24.752  1.00  0.00     0.202 C 
BRANCH   3   4
ATOM      4  C   UNL A   1      32.255  23.881  26.133  1.00  0.00     0.261 C 
BRANCH   4   5
ATOM      5  O   UNL A   1      32.396  25.315  26.124  1.00  0.00    -0.463 OA
BRANCH   5   6
ATOM      6  C   UNL A   1      33.645  25.779  25.844  1.00  0.00     0.313 C 
ATOM      7  O   UNL A   1      34.658  25.090  25.921  1.00  0.00    -0.252 OA
BRANCH   6   8
ATOM      8  C   UNL A   1      33.671  27.242  25.389  1.00  0.00     0.126 C 
ATOM      9  C   UNL A   1      34.060  28.220  26.509  1.00  0.00     0.025 C 
BRANCH   8  10
ATOM     10  C   UNL A   1      32.481  27.699  24.534  1.00  0.00    -0.034 A 
ATOM     11  C   UNL A   1      31.606  28.688  25.017  1.00  0.00     0.005 A 
ATOM     12  C   UNL A   1      32.309  27.298  23.200  1.00  0.00     0.005 A 
ATOM     13  C   UNL A   1      30.654  29.301  24.186  1.00  0.00     0.004 A 
ATOM     14  C   UNL A   1      31.339  27.897  22.376  1.00  0.00     0.004 A 
ATOM     15  C   UNL A   1      30.521  28.933  22.845  1.00  0.00    -0.047 A 
BRANCH  15  16
ATOM     16  C   UNL A   1      29.694  29.752  21.866  1.00  0.00     0.047 C 
BRANCH  16  17
ATOM     17  C   UNL A   1      28.500  30.593  22.334  1.00  0.00     0.060 C 
ATOM     18  C   UNL A   1      28.745  31.419  23.594  1.00  0.00     0.012 C 
ATOM     19  C   UNL A   1      28.028  31.641  21.350  1.00  0.00     0.136 C 
ATOM     20  C   UNL A   1      28.998  32.834  23.104  1.00  0.00     0.009 C 
ATOM     21  C   UNL A   1      28.055  33.028  21.935  1.00  0.00     0.076 C 
ATOM     22  O   UNL A   1      27.657  31.401  20.206  1.00  0.00    -0.299 OA
ENDBRANCH  16  17
ENDBRANCH  15  16
ENDBRANCH   8  10
ENDBRANCH   6   8
ENDBRANCH   5   6
ENDBRANCH   4   5
ENDBRANCH   3   4
ENDBRANCH   2   3
ENDBRANCH   1   2
BRANCH   1  23
ATOM     23  C   UNL A   1      33.637  20.621  24.946  1.00  0.00     0.188 C 
BRANCH  23  24
ATOM     24  O   UNL A   1      34.993  20.210  24.991  1.00  0.00    -0.376 OA
BRANCH  24  25
ATOM     25  C   UNL A   1      35.925  21.208  25.380  1.00  0.00     0.202 C 
BRANCH  25  26
ATOM     26  C   UNL A   1      37.411  20.845  25.228  1.00  0.00     0.261 C 
BRANCH  26  27
ATOM     27  O   UNL A   1      38.332  21.940  25.390  1.00  0.00    -0.460 OA
BRANCH  27  28
ATOM     28  C   UNL A   1      39.394  21.740  26.199  1.00  0.00     0.338 C 
ATOM     29  O   UNL A   1      40.076  20.724  26.273  1.00  0.00    -0.246 OA
BRANCH  28  30
ATOM     30  C   UNL A   1      39.719  23.021  26.861  1.00  0.00     0.060 A 
ATOM     31  C   UNL A   1      38.985  24.153  26.507  1.00  0.00     0.016 A 
ATOM     32  C   UNL A   1      40.731  23.120  27.821  1.00  0.00     0.016 A 
ATOM     33  C   UNL A   1      39.251  25.373  27.126  1.00  0.00     0.010 A 
ATOM     34  C   UNL A   1      41.030  24.369  28.397  1.00  0.00     0.010 A 
ATOM     35  C   UNL A   1      40.302  25.514  28.040  1.00  0.00    -0.014 A 
BRANCH  35  36
ATOM     36  C   UNL A   1      40.717  26.892  28.438  1.00  0.00     0.031 A 
ATOM     37  C   UNL A   1      42.107  27.360  28.080  1.00  0.00     0.074 A 
ATOM     38  C   UNL A   1      39.847  27.783  28.956  1.00  0.00     0.049 A 
ATOM     39  N   UNL A   1      42.675  28.521  28.288  1.00  0.00    -0.248 NA
ATOM     40  C   UNL A   1      42.952  26.394  27.364  1.00  0.00     0.031 C 
ATOM     41  C   UNL A   1      38.427  27.535  29.190  1.00  0.00     0.029 A 
ATOM     42  N   UNL A   1      40.020  29.102  29.311  1.00  0.00    -0.354 N 
ATOM     43  C   UNL A   1      43.959  28.415  27.763  1.00  0.00     0.074 A 
ATOM     44  C   UNL A   1      44.071  27.084  27.201  1.00  0.00     0.031 C 
ATOM     45  C   UNL A   1      37.847  28.681  29.591  1.00  0.00     0.029 A 
ATOM     46  C   UNL A   1      38.860  29.732  29.712  1.00  0.00     0.049 A 
ATOM     47  H   UNL A   1      40.893  29.557  29.282  1.00  0.00     0.167 HD
ATOM     48  C   UNL A   1      44.963  29.325  27.771  1.00  0.00     0.034 A 
ATOM     49  C   UNL A   1      38.644  30.998  30.132  1.00  0.00     0.034 A 
ATOM     50  C   UNL A   1      44.866  30.648  28.337  1.00  0.00     0.049 A 
ATOM     51  C   UNL A   1      39.815  31.955  30.250  1.00  0.00     0.074 A 
ATOM     52  C   UNL A   1      45.857  31.609  28.451  1.00  0.00     0.029 A 
ATOM     53  N   UNL A   1      43.720  31.197  28.892  1.00  0.00    -0.354 N 
ATOM     54  N   UNL A   1      41.053  31.808  29.840  1.00  0.00    -0.248 NA
ATOM     55  C   UNL A   1      39.557  33.243  30.915  1.00  0.00     0.031 C 
ATOM     56  C   UNL A   1      45.332  32.706  29.143  1.00  0.00     0.029 A 
ATOM     57  C   UNL A   1      43.990  32.465  29.387  1.00  0.00     0.049 A 
ATOM     58  H   UNL A   1      42.843  30.752  28.929  1.00  0.00     0.167 HD
ATOM     59  C   UNL A   1      41.713  32.989  30.187  1.00  0.00     0.074 A 
ATOM     60  C   UNL A   1      40.728  33.851  30.803  1.00  0.00     0.031 C 
ATOM     61  C   UNL A   1      43.017  33.324  30.020  1.00  0.00     0.034 A 
BRANCH  48  62
ATOM     62  C   UNL A   1      46.305  28.868  27.258  1.00  0.00     0.023 A 
ATOM     63  C   UNL A   1      46.545  28.614  25.897  1.00  0.00     0.031 A 
ATOM     64  C   UNL A   1      47.355  28.649  28.169  1.00  0.00     0.131 A 
ATOM     65  C   UNL A   1      47.789  28.103  25.496  1.00  0.00     0.055 A 
ATOM     66  C   UNL A   1      48.611  28.209  27.755  1.00  0.00     0.041 A 
ATOM     67  F   UNL A   1      47.168  28.849  29.484  1.00  0.00    -0.206 F 
ATOM     68  C   UNL A   1      48.830  27.920  26.411  1.00  0.00     0.022 A 
BRANCH  65  69
ATOM     69  S   UNL A   1      47.986  27.541  23.782  1.00  0.00     0.124 S 
ATOM     70  O   UNL A   1      49.397  27.832  23.535  1.00  0.00    -0.237 OA
ATOM     71  O   UNL A   1      47.630  26.131  23.872  1.00  0.00    -0.237 OA
ATOM     72  O   UNL A   1      47.047  28.378  23.038  1.00  0.00    -0.744 OA
ENDBRANCH  65  69
ENDBRANCH  48  62
BRANCH  49  73
ATOM     73  C   UNL A   1      37.280  31.462  30.539  1.00  0.00     0.023 A 
ATOM     74  C   UNL A   1      36.410  32.052  29.607  1.00  0.00     0.031 A 
ATOM     75  C   UNL A   1      36.871  31.432  31.885  1.00  0.00     0.131 A 
ATOM     76  C   UNL A   1      35.207  32.636  30.038  1.00  0.00     0.055 A 
ATOM     77  C   UNL A   1      35.641  31.949  32.297  1.00  0.00     0.041 A 
ATOM     78  F   UNL A   1      37.670  30.908  32.828  1.00  0.00    -0.206 F 
ATOM     79  C   UNL A   1      34.808  32.571  31.374  1.00  0.00     0.022 A 
BRANCH  76  80
ATOM     80  S   UNL A   1      34.228  33.596  28.847  1.00  0.00     0.124 S 
ATOM     81  O   UNL A   1      33.654  32.540  28.020  1.00  0.00    -0.237 OA
ATOM     82  O   UNL A   1      33.300  34.303  29.723  1.00  0.00    -0.237 OA
ATOM     83  O   UNL A   1      35.224  34.435  28.188  1.00  0.00    -0.744 OA
ENDBRANCH  76  80
ENDBRANCH  49  73
BRANCH  61  84
ATOM     84  C   UNL A   1      43.463  34.690  30.497  1.00  0.00     0.023 A 
ATOM     85  C   UNL A   1      43.443  35.814  29.650  1.00  0.00     0.031 A 
ATOM     86  C   UNL A   1      43.897  34.875  31.822  1.00  0.00     0.131 A 
ATOM     87  C   UNL A   1      43.888  37.059  30.122  1.00  0.00     0.055 A 
ATOM     88  C   UNL A   1      44.288  36.128  32.302  1.00  0.00     0.041 A 
ATOM     89  F   UNL A   1      43.939  33.842  32.679  1.00  0.00    -0.206 F 
ATOM     90  C   UNL A   1      44.295  37.226  31.448  1.00  0.00     0.022 A 
BRANCH  87  91
ATOM     91  S   UNL A   1      43.998  38.449  28.960  1.00  0.00     0.124 S 
ATOM     92  O   UNL A   1      43.022  39.384  29.510  1.00  0.00    -0.237 OA
ATOM     93  O   UNL A   1      45.398  38.845  29.080  1.00  0.00    -0.237 OA
ATOM     94  O   UNL A   1      43.633  37.854  27.676  1.00  0.00    -0.744 OA
ENDBRANCH  87  91
ENDBRANCH  61  84
ENDBRANCH  35  36
ENDBRANCH  28  30
ENDBRANCH  27  28
ENDBRANCH  26  27
ENDBRANCH  25  26
ENDBRANCH  24  25
ENDBRANCH  23  24
ENDBRANCH   1  23
TORSDOF 23
ENDMDL
MODEL 2
REMARK VINA RESULT:     -10.2      5.809      9.189
REMARK SMILES C[C@@H](C(=O)OCCOCCOCCOC(=O)c1ccc(-c2c3nc(c(-c4cc(S(=O)(=O)[O-])ccc4F)c4ccc([nH]4)c(-c4cc(S(=O)(=O)[O-])ccc4F)c4nc(c(-c5cc(S(=O)(=O)[O-])ccc5F)c5ccc2[nH]5)C=C4)C=C3)cc1)c1ccc(C[C@H]2CCCC2=O)cc1
REMARK SMILES IDX 9 1 8 2 7 3 6 4 5 5 3 6 4 7 2 8 1 9 80 10 81 11 92 12 82 13
REMARK SMILES IDX 91 14 83 15 84 16 85 17 86 18 89 19 87 20 88 21 90 22 10 23
REMARK SMILES IDX 11 24 12 25 13 26 14 27 15 28 16 29 17 30 18 31 79 32 19 33
REMARK SMILES IDX 78 34 20 35 21 36 22 37 72 38 23 39 77 40 71 41 73 42 24 43
REMARK SMILES IDX 76 44 70 45 69 46 25 48 57 49 37 50 56 51 38 52 41 53 55 54
REMARK SMILES IDX 74 55 39 56 40 57 54 59 75 60 42 61 26 62 27 63 35 64 28 65
REMARK SMILES IDX 34 66 36 67 33 68 29 69 30 70 31 71 32 72 58 73 59 74 67 75
REMARK SMILES IDX 60 76 66 77 68 78 65 79 61 80 62 81 63 82 64 83 43 84 44 85
REMARK SMILES IDX 52 86 45 87 51 88 53 89 50 90 46 91 47 92 48 93 49 94
REMARK H PARENT 73 47 41 58
REMARK Flexibility Score: inf
ROOT
ATOM      1  C   UNL A   1      44.819  18.455  25.313  1.00  0.00     0.188 C 
ENDROOT
BRANCH   1   2
ATOM      2  O   UNL A   1      43.785  18.745  26.251  1.00  0.00    -0.376 OA
BRANCH   2   3
ATOM      3  C   UNL A   1      42.432  18.594  25.829  1.00  0.00     0.202 C 
BRANCH   3   4
ATOM      4  C   UNL A   1      41.419  19.647  26.295  1.00  0.00     0.261 C 
BRANCH   4   5
ATOM      5  O   UNL A   1      41.979  20.969  26.414  1.00  0.00    -0.463 OA
BRANCH   5   6
ATOM      6  C   UNL A   1      41.459  21.739  27.410  1.00  0.00     0.313 C 
ATOM      7  O   UNL A   1      40.409  21.479  27.991  1.00  0.00    -0.252 OA
BRANCH   6   8
ATOM      8  C   UNL A   1      42.325  22.951  27.769  1.00  0.00     0.126 C 
ATOM      9  C   UNL A   1      43.192  22.731  29.019  1.00  0.00     0.025 C 
BRANCH   8  10
ATOM     10  C   UNL A   1      41.623  24.315  27.716  1.00  0.00    -0.034 A 
ATOM     11  C   UNL A   1      41.821  25.248  28.749  1.00  0.00     0.005 A 
ATOM     12  C   UNL A   1      40.914  24.759  26.590  1.00  0.00     0.005 A 
ATOM     13  C   UNL A   1      41.395  26.581  28.631  1.00  0.00     0.004 A 
ATOM     14  C   UNL A   1      40.468  26.089  26.483  1.00  0.00     0.004 A 
ATOM     15  C   UNL A   1      40.734  27.031  27.486  1.00  0.00    -0.047 A 
BRANCH  15  16
ATOM     16  C   UNL A   1      40.502  28.510  27.221  1.00  0.00     0.047 C 
BRANCH  16  17
ATOM     17  C   UNL A   1      39.639  29.365  28.156  1.00  0.00     0.060 C 
ATOM     18  C   UNL A   1      38.308  28.738  28.562  1.00  0.00     0.012 C 
ATOM     19  C   UNL A   1      40.265  29.682  29.497  1.00  0.00     0.136 C 
ATOM     20  C   UNL A   1      38.529  28.196  29.963  1.00  0.00     0.009 C 
ATOM     21  C   UNL A   1      39.418  29.212  30.650  1.00  0.00     0.076 C 
ATOM     22  O   UNL A   1      41.337  30.261  29.642  1.00  0.00    -0.299 OA
ENDBRANCH  16  17
ENDBRANCH  15  16
ENDBRANCH   8  10
ENDBRANCH   6   8
ENDBRANCH   5   6
ENDBRANCH   4   5
ENDBRANCH   3   4
ENDBRANCH   2   3
ENDBRANCH   1   2
BRANCH   1  23
ATOM     23  C   UNL A   1      46.273  18.799  25.687  1.00  0.00     0.188 C 
BRANCH  23  24
ATOM     24  O   UNL A   1      46.842  19.847  24.921  1.00  0.00    -0.376 OA
BRANCH  24  25
ATOM     25  C   UNL A   1      45.923  20.794  24.396  1.00  0.00     0.202 C 
BRANCH  25  26
ATOM     26  C   UNL A   1      45.549  21.963  25.322  1.00  0.00     0.261 C 
BRANCH  26  27
ATOM     27  O   UNL A   1      45.254  23.206  24.656  1.00  0.00    -0.460 OA
BRANCH  27  28
ATOM     28  C   UNL A   1      46.215  24.153  24.662  1.00  0.00     0.338 C 
ATOM     29  O   UNL A   1      47.149  24.254  23.873  1.00  0.00    -0.246 OA
BRANCH  28  30
ATOM     30  C   UNL A   1      45.858  25.167  25.675  1.00  0.00     0.060 A 
ATOM     31  C   UNL A   1      46.805  25.497  26.645  1.00  0.00     0.016 A 
ATOM     32  C   UNL A   1      44.608  25.796  25.682  1.00  0.00     0.016 A 
ATOM     33  C   UNL A   1      46.509  26.464  27.603  1.00  0.00     0.010 A 
ATOM     34  C   UNL A   1      44.298  26.729  26.690  1.00  0.00     0.010 A 
ATOM     35  C   UNL A   1      45.244  27.058  27.673  1.00  0.00    -0.014 A 
BRANCH  35  36
ATOM     36  C   UNL A   1      44.901  27.857  28.887  1.00  0.00     0.031 A 
ATOM     37  C   UNL A   1      44.853  27.157  30.224  1.00  0.00     0.074 A 
ATOM     38  C   UNL A   1      44.793  29.201  28.857  1.00  0.00     0.049 A 
ATOM     39  N   UNL A   1      44.615  27.648  31.414  1.00  0.00    -0.248 NA
ATOM     40  C   UNL A   1      45.146  25.717  30.212  1.00  0.00     0.031 C 
ATOM     41  C   UNL A   1      44.993  30.034  27.674  1.00  0.00     0.029 A 
ATOM     42  N   UNL A   1      44.561  30.106  29.868  1.00  0.00    -0.354 N 
ATOM     43  C   UNL A   1      44.691  26.570  32.291  1.00  0.00     0.074 A 
ATOM     44  C   UNL A   1      45.027  25.407  31.495  1.00  0.00     0.031 C 
ATOM     45  C   UNL A   1      44.935  31.329  28.040  1.00  0.00     0.029 A 
ATOM     46  C   UNL A   1      44.625  31.424  29.469  1.00  0.00     0.049 A 
ATOM     47  H   UNL A   1      44.366  29.836  30.795  1.00  0.00     0.167 HD
ATOM     48  C   UNL A   1      44.473  26.541  33.629  1.00  0.00     0.034 A 
ATOM     49  C   UNL A   1      44.448  32.567  30.167  1.00  0.00     0.034 A 
ATOM     50  C   UNL A   1      44.127  27.690  34.429  1.00  0.00     0.049 A 
ATOM     51  C   UNL A   1      44.079  32.494  31.637  1.00  0.00     0.074 A 
ATOM     52  C   UNL A   1      43.821  27.736  35.779  1.00  0.00     0.029 A 
ATOM     53  N   UNL A   1      44.033  28.991  33.959  1.00  0.00    -0.354 N 
ATOM     54  N   UNL A   1      44.057  31.453  32.437  1.00  0.00    -0.248 NA
ATOM     55  C   UNL A   1      43.688  33.755  32.288  1.00  0.00     0.031 C 
ATOM     56  C   UNL A   1      43.465  29.049  36.107  1.00  0.00     0.029 A 
ATOM     57  C   UNL A   1      43.631  29.839  34.981  1.00  0.00     0.049 A 
ATOM     58  H   UNL A   1      44.222  29.271  33.035  1.00  0.00     0.167 HD
ATOM     59  C   UNL A   1      43.661  31.941  33.684  1.00  0.00     0.074 A 
ATOM     60  C   UNL A   1      43.495  33.370  33.541  1.00  0.00     0.031 C 
ATOM     61  C   UNL A   1      43.446  31.264  34.841  1.00  0.00     0.034 A 
BRANCH  48  62
ATOM     62  C   UNL A   1      44.478  25.187  34.292  1.00  0.00     0.023 A 
ATOM     63  C   UNL A   1      45.662  24.477  34.549  1.00  0.00     0.031 A 
ATOM     64  C   UNL A   1      43.255  24.585  34.641  1.00  0.00     0.131 A 
ATOM     65  C   UNL A   1      45.592  23.182  35.086  1.00  0.00     0.055 A 
ATOM     66  C   UNL A   1      43.196  23.328  35.240  1.00  0.00     0.041 A 
ATOM     67  F   UNL A   1      42.092  25.209  34.391  1.00  0.00    -0.206 F 
ATOM     68  C   UNL A   1      44.370  22.612  35.454  1.00  0.00     0.022 A 
BRANCH  65  69
ATOM     69  S   UNL A   1      47.110  22.190  35.165  1.00  0.00     0.124 S 
ATOM     70  O   UNL A   1      47.264  21.999  36.605  1.00  0.00    -0.237 OA
ATOM     71  O   UNL A   1      46.750  21.006  34.396  1.00  0.00    -0.237 OA
ATOM     72  O   UNL A   1      48.115  23.055  34.549  1.00  0.00    -0.744 OA
ENDBRANCH  65  69
ENDBRANCH  48  62
BRANCH  49  73
ATOM     73  C   UNL A   1      44.551  33.907  29.508  1.00  0.00     0.023 A 
ATOM     74  C   UNL A   1      43.482  34.429  28.760  1.00  0.00     0.031 A 
ATOM     75  C   UNL A   1      45.757  34.633  29.516  1.00  0.00     0.131 A 
ATOM     76  C   UNL A   1      43.656  35.604  28.009  1.00  0.00     0.055 A 
ATOM     77  C   UNL A   1      45.901  35.838  28.826  1.00  0.00     0.041 A 
ATOM     78  F   UNL A   1      46.824  34.173  30.188  1.00  0.00    -0.206 F 
ATOM     79  C   UNL A   1      44.851  36.322  28.052  1.00  0.00     0.022 A 
BRANCH  76  80
ATOM     80  S   UNL A   1      42.336  36.113  26.871  1.00  0.00     0.124 S 
ATOM     81  O   UNL A   1      42.653  35.327  25.683  1.00  0.00    -0.237 OA
ATOM     82  O   UNL A   1      41.138  35.716  27.604  1.00  0.00    -0.237 OA
ATOM     83  O   UNL A   1      42.538  37.553  26.740  1.00  0.00    -0.744 OA
ENDBRANCH  76  80
ENDBRANCH  49  73
BRANCH  61  84
ATOM     84  C   UNL A   1      43.017  32.059  36.056  1.00  0.00     0.023 A 
ATOM     85  C   UNL A   1      41.659  32.277  36.357  1.00  0.00     0.031 A 
ATOM     86  C   UNL A   1      43.976  32.591  36.936  1.00  0.00     0.131 A 
ATOM     87  C   UNL A   1      41.301  33.041  37.479  1.00  0.00     0.055 A 
ATOM     88  C   UNL A   1      43.613  33.305  38.081  1.00  0.00     0.041 A 
ATOM     89  F   UNL A   1      45.288  32.417  36.703  1.00  0.00    -0.206 F 
ATOM     90  C   UNL A   1      42.269  33.542  38.351  1.00  0.00     0.022 A 
BRANCH  87  91
ATOM     91  S   UNL A   1      39.549  33.436  37.748  1.00  0.00     0.124 S 
ATOM     92  O   UNL A   1      39.279  34.379  36.668  1.00  0.00    -0.237 OA
ATOM     93  O   UNL A   1      38.913  32.128  37.625  1.00  0.00    -0.237 OA
ATOM     94  O   UNL A   1      39.529  34.009  39.093  1.00  0.00    -0.744 OA
ENDBRANCH  87  91
ENDBRANCH  61  84
ENDBRANCH  35  36
ENDBRANCH  28  30
ENDBRANCH  27  28
ENDBRANCH  26  27
ENDBRANCH  25  26
ENDBRANCH  24  25
ENDBRANCH  23  24
ENDBRANCH   1  23
TORSDOF 23
ENDMDL
MODEL 3
REMARK VINA RESULT:     -10.2      2.157      2.508
REMARK SMILES C[C@@H](C(=O)OCCOCCOCCOC(=O)c1ccc(-c2c3nc(c(-c4cc(S(=O)(=O)[O-])ccc4F)c4ccc([nH]4)c(-c4cc(S(=O)(=O)[O-])ccc4F)c4nc(c(-c5cc(S(=O)(=O)[O-])ccc5F)c5ccc2[nH]5)C=C4)C=C3)cc1)c1ccc(C[C@H]2CCCC2=O)cc1
REMARK SMILES IDX 9 1 8 2 7 3 6 4 5 5 3 6 4 7 2 8 1 9 80 10 81 11 92 12 82 13
REMARK SMILES IDX 91 14 83 15 84 16 85 17 86 18 89 19 87 20 88 21 90 22 10 23
REMARK SMILES IDX 11 24 12 25 13 26 14 27 15 28 16 29 17 30 18 31 79 32 19 33
REMARK SMILES IDX 78 34 20 35 21 36 22 37 72 38 23 39 77 40 71 41 73 42 24 43
REMARK SMILES IDX 76 44 70 45 69 46 25 48 57 49 37 50 56 51 38 52 41 53 55 54
REMARK SMILES IDX 74 55 39 56 40 57 54 59 75 60 42 61 26 62 27 63 35 64 28 65
REMARK SMILES IDX 34 66 36 67 33 68 29 69 30 70 31 71 32 72 58 73 59 74 67 75
REMARK SMILES IDX 60 76 66 77 68 78 65 79 61 80 62 81 63 82 64 83 43 84 44 85
REMARK SMILES IDX 52 86 45 87 51 88 53 89 50 90 46 91 47 92 48 93 49 94
REMARK H PARENT 73 47 41 58
REMARK Flexibility Score: inf
ROOT
ATOM      1  C   UNL A   1      33.200  21.870  23.639  1.00  0.00     0.188 C 
ENDROOT
BRANCH   1   2
ATOM      2  O   UNL A   1      33.203  23.281  23.845  1.00  0.00    -0.376 OA
BRANCH   2   3
ATOM      3  C   UNL A   1      32.057  23.874  24.453  1.00  0.00     0.202 C 
BRANCH   3   4
ATOM      4  C   UNL A   1      32.198  24.376  25.895  1.00  0.00     0.261 C 
BRANCH   4   5
ATOM      5  O   UNL A   1      32.296  25.810  25.997  1.00  0.00    -0.463 OA
BRANCH   5   6
ATOM      6  C   UNL A   1      33.463  26.351  25.547  1.00  0.00     0.313 C 
ATOM      7  O   UNL A   1      34.554  25.803  25.666  1.00  0.00    -0.252 OA
BRANCH   6   8
ATOM      8  C   UNL A   1      33.285  27.701  24.844  1.00  0.00     0.126 C 
ATOM      9  C   UNL A   1      33.868  28.881  25.637  1.00  0.00     0.025 C 
BRANCH   8  10
ATOM     10  C   UNL A   1      31.898  27.964  24.242  1.00  0.00    -0.034 A 
ATOM     11  C   UNL A   1      31.089  28.990  24.762  1.00  0.00     0.005 A 
ATOM     12  C   UNL A   1      31.449  27.339  23.069  1.00  0.00     0.005 A 
ATOM     13  C   UNL A   1      29.926  29.420  24.103  1.00  0.00     0.004 A 
ATOM     14  C   UNL A   1      30.273  27.756  22.421  1.00  0.00     0.004 A 
ATOM     15  C   UNL A   1      29.512  28.828  22.908  1.00  0.00    -0.047 A 
BRANCH  15  16
ATOM     16  C   UNL A   1      28.421  29.441  22.043  1.00  0.00     0.047 C 
BRANCH  16  17
ATOM     17  C   UNL A   1      27.752  30.768  22.420  1.00  0.00     0.060 C 
ATOM     18  C   UNL A   1      27.987  31.225  23.857  1.00  0.00     0.012 C 
ATOM     19  C   UNL A   1      28.213  31.968  21.622  1.00  0.00     0.136 C 
ATOM     20  C   UNL A   1      29.066  32.290  23.769  1.00  0.00     0.009 C 
ATOM     21  C   UNL A   1      28.768  33.059  22.500  1.00  0.00     0.076 C 
ATOM     22  O   UNL A   1      28.142  32.058  20.401  1.00  0.00    -0.299 OA
ENDBRANCH  16  17
ENDBRANCH  15  16
ENDBRANCH   8  10
ENDBRANCH   6   8
ENDBRANCH   5   6
ENDBRANCH   4   5
ENDBRANCH   3   4
ENDBRANCH   2   3
ENDBRANCH   1   2
BRANCH   1  23
ATOM     23  C   UNL A   1      33.222  20.943  24.869  1.00  0.00     0.188 C 
BRANCH  23  24
ATOM     24  O   UNL A   1      34.424  20.209  25.027  1.00  0.00    -0.376 OA
BRANCH  24  25
ATOM     25  C   UNL A   1      35.583  20.979  25.313  1.00  0.00     0.202 C 
BRANCH  25  26
ATOM     26  C   UNL A   1      36.934  20.310  25.012  1.00  0.00     0.261 C 
BRANCH  26  27
ATOM     27  O   UNL A   1      38.071  21.193  25.012  1.00  0.00    -0.460 OA
BRANCH  27  28
ATOM     28  C   UNL A   1      39.106  20.868  25.816  1.00  0.00     0.338 C 
ATOM     29  O   UNL A   1      39.645  19.770  25.906  1.00  0.00    -0.246 OA
BRANCH  28  30
ATOM     30  C   UNL A   1      39.609  22.106  26.445  1.00  0.00     0.060 A 
ATOM     31  C   UNL A   1      39.059  23.324  26.043  1.00  0.00     0.016 A 
ATOM     32  C   UNL A   1      40.610  22.085  27.421  1.00  0.00     0.016 A 
ATOM     33  C   UNL A   1      39.496  24.509  26.630  1.00  0.00     0.010 A 
ATOM     34  C   UNL A   1      41.085  23.293  27.966  1.00  0.00     0.010 A 
ATOM     35  C   UNL A   1      40.542  24.522  27.559  1.00  0.00    -0.014 A 
BRANCH  35  36
ATOM     36  C   UNL A   1      41.153  25.834  27.925  1.00  0.00     0.031 A 
ATOM     37  C   UNL A   1      42.539  26.152  27.419  1.00  0.00     0.074 A 
ATOM     38  C   UNL A   1      40.453  26.805  28.547  1.00  0.00     0.049 A 
ATOM     39  N   UNL A   1      43.256  27.236  27.575  1.00  0.00    -0.248 NA
ATOM     40  C   UNL A   1      43.185  25.115  26.602  1.00  0.00     0.031 C 
ATOM     41  C   UNL A   1      39.048  26.712  28.935  1.00  0.00     0.029 A 
ATOM     42  N   UNL A   1      40.813  28.087  28.895  1.00  0.00    -0.354 N 
ATOM     43  C   UNL A   1      44.454  27.000  26.908  1.00  0.00     0.074 A 
ATOM     44  C   UNL A   1      44.351  25.678  26.322  1.00  0.00     0.031 C 
ATOM     45  C   UNL A   1      38.650  27.906  29.412  1.00  0.00     0.029 A 
ATOM     46  C   UNL A   1      39.784  28.833  29.431  1.00  0.00     0.049 A 
ATOM     47  H   UNL A   1      41.724  28.441  28.774  1.00  0.00     0.167 HD
ATOM     48  C   UNL A   1      45.550  27.791  26.814  1.00  0.00     0.034 A 
ATOM     49  C   UNL A   1      39.761  30.105  29.887  1.00  0.00     0.034 A 
ATOM     50  C   UNL A   1      45.668  29.103  27.403  1.00  0.00     0.049 A 
ATOM     51  C   UNL A   1      41.040  30.922  29.884  1.00  0.00     0.074 A 
ATOM     52  C   UNL A   1      46.768  29.943  27.416  1.00  0.00     0.029 A 
ATOM     53  N   UNL A   1      44.660  29.763  28.088  1.00  0.00    -0.354 N 
ATOM     54  N   UNL A   1      42.200  30.646  29.335  1.00  0.00    -0.248 NA
ATOM     55  C   UNL A   1      41.005  32.214  30.587  1.00  0.00     0.031 C 
ATOM     56  C   UNL A   1      46.451  31.075  28.175  1.00  0.00     0.029 A 
ATOM     57  C   UNL A   1      45.125  30.980  28.565  1.00  0.00     0.049 A 
ATOM     58  H   UNL A   1      43.747  29.418  28.219  1.00  0.00     0.167 HD
ATOM     59  C   UNL A   1      43.025  31.737  29.620  1.00  0.00     0.074 A 
ATOM     60  C   UNL A   1      42.219  32.689  30.352  1.00  0.00     0.031 C 
ATOM     61  C   UNL A   1      44.333  31.928  29.312  1.00  0.00     0.034 A 
BRANCH  48  62
ATOM     62  C   UNL A   1      46.767  27.198  26.149  1.00  0.00     0.023 A 
ATOM     63  C   UNL A   1      47.720  26.446  26.854  1.00  0.00     0.031 A 
ATOM     64  C   UNL A   1      46.985  27.429  24.778  1.00  0.00     0.131 A 
ATOM     65  C   UNL A   1      48.876  25.999  26.196  1.00  0.00     0.055 A 
ATOM     66  C   UNL A   1      48.100  26.922  24.114  1.00  0.00     0.041 A 
ATOM     67  F   UNL A   1      46.118  28.167  24.065  1.00  0.00    -0.206 F 
ATOM     68  C   UNL A   1      49.062  26.212  24.826  1.00  0.00     0.022 A 
BRANCH  65  69
ATOM     69  S   UNL A   1      50.207  25.259  27.182  1.00  0.00     0.124 S 
ATOM     70  O   UNL A   1      50.612  26.383  28.023  1.00  0.00    -0.237 OA
ATOM     71  O   UNL A   1      49.524  24.165  27.860  1.00  0.00    -0.237 OA
ATOM     72  O   UNL A   1      51.192  24.856  26.180  1.00  0.00    -0.744 OA
ENDBRANCH  65  69
ENDBRANCH  48  62
BRANCH  49  73
ATOM     73  C   UNL A   1      38.512  30.710  30.449  1.00  0.00     0.023 A 
ATOM     74  C   UNL A   1      37.562  31.316  29.609  1.00  0.00     0.031 A 
ATOM     75  C   UNL A   1      38.306  30.797  31.838  1.00  0.00     0.131 A 
ATOM     76  C   UNL A   1      36.485  32.027  30.164  1.00  0.00     0.055 A 
ATOM     77  C   UNL A   1      37.194  31.443  32.382  1.00  0.00     0.041 A 
ATOM     78  F   UNL A   1      39.192  30.264  32.693  1.00  0.00    -0.206 F 
ATOM     79  C   UNL A   1      36.283  32.078  31.544  1.00  0.00     0.022 A 
BRANCH  76  80
ATOM     80  S   UNL A   1      35.417  32.994  29.058  1.00  0.00     0.124 S 
ATOM     81  O   UNL A   1      34.277  32.100  28.895  1.00  0.00    -0.237 OA
ATOM     82  O   UNL A   1      35.182  34.199  29.847  1.00  0.00    -0.237 OA
ATOM     83  O   UNL A   1      36.242  33.179  27.867  1.00  0.00    -0.744 OA
ENDBRANCH  76  80
ENDBRANCH  49  73
BRANCH  61  84
ATOM     84  C   UNL A   1      44.981  33.223  29.752  1.00  0.00     0.023 A 
ATOM     85  C   UNL A   1      45.613  33.347  31.004  1.00  0.00     0.031 A 
ATOM     86  C   UNL A   1      44.984  34.344  28.902  1.00  0.00     0.131 A 
ATOM     87  C   UNL A   1      46.180  34.573  31.388  1.00  0.00     0.055 A 
ATOM     88  C   UNL A   1      45.599  35.545  29.268  1.00  0.00     0.041 A 
ATOM     89  F   UNL A   1      44.398  34.289  27.696  1.00  0.00    -0.206 F 
ATOM     90  C   UNL A   1      46.192  35.667  30.520  1.00  0.00     0.022 A 
BRANCH  87  91
ATOM     91  S   UNL A   1      46.845  34.743  33.068  1.00  0.00     0.124 S 
ATOM     92  O   UNL A   1      45.883  33.980  33.856  1.00  0.00    -0.237 OA
ATOM     93  O   UNL A   1      48.174  34.153  32.938  1.00  0.00    -0.237 OA
ATOM     94  O   UNL A   1      46.830  36.187  33.299  1.00  0.00    -0.744 OA
ENDBRANCH  87  91
ENDBRANCH  61  84
ENDBRANCH  35  36
ENDBRANCH  28  30
ENDBRANCH  27  28
ENDBRANCH  26  27
ENDBRANCH  25  26
ENDBRANCH  24  25
ENDBRANCH  23  24
ENDBRANCH   1  23
TORSDOF 23
ENDMDL
