MODEL 1
REMARK VINA RESULT:      -9.7      0.000      0.000
REMARK SMILES CC1(NC(=O)c2csc(/C=C/C(=O)OCCOCCOCCOC(=O)c3ccc(-c4c5nc(c(-c6cc(S(=O)(=O)[O-])ccc6F)c6ccc([nH]6)c(-c6cc(S(=O)(=O)[O-])ccc6F)c6nc(c(-c7cc(S(=O)(=O)[O-])ccc7F)c7ccc4[nH]7)C=C6)C=C5)cc3)c2)CCCCC1
REMARK SMILES IDX 18 1 17 2 16 3 15 4 14 5 12 6 13 7 11 8 10 9 9 10 6 11 7 12
REMARK SMILES IDX 89 13 8 14 4 15 3 16 5 18 2 19 1 20 90 21 94 22 91 23 93 24
REMARK SMILES IDX 92 25 19 26 20 27 21 28 22 29 23 30 24 31 25 32 26 33 27 34
REMARK SMILES IDX 88 35 28 36 87 37 29 38 30 39 31 40 81 41 32 42 86 43 80 44
REMARK SMILES IDX 82 45 33 46 85 47 79 48 78 49 34 51 66 52 46 53 65 54 47 55
REMARK SMILES IDX 50 56 64 57 83 58 48 59 49 60 63 62 84 63 51 64 35 65 36 66
REMARK SMILES IDX 44 67 37 68 43 69 45 70 42 71 38 72 39 73 40 74 41 75 67 76
REMARK SMILES IDX 68 77 76 78 69 79 75 80 77 81 74 82 70 83 71 84 72 85 73 86
REMARK SMILES IDX 52 87 53 88 61 89 54 90 60 91 62 92 59 93 55 94 56 95 57 96
REMARK SMILES IDX 58 97
REMARK H PARENT 3 17 82 50 50 61
REMARK Flexibility Score: inf
ROOT
ATOM      1  C   UNL A   1      34.789  34.523  28.364  1.00  0.00     0.188 C 
ENDROOT
BRANCH   1   2
ATOM      2  O   UNL A   1      34.880  33.258  27.747  1.00  0.00    -0.376 OA
BRANCH   2   3
ATOM      3  C   UNL A   1      33.996  32.209  28.094  1.00  0.00     0.202 C 
BRANCH   3   4
ATOM      4  C   UNL A   1      34.230  30.705  27.853  1.00  0.00     0.261 C 
BRANCH   4   5
ATOM      5  O   UNL A   1      33.941  30.165  26.559  1.00  0.00    -0.460 OA
BRANCH   5   6
ATOM      6  C   UNL A   1      32.643  29.826  26.363  1.00  0.00     0.330 C 
ATOM      7  O   UNL A   1      31.714  30.604  26.206  1.00  0.00    -0.247 OA
BRANCH   6   8
ATOM      8  C   UNL A   1      32.443  28.369  26.246  1.00  0.00     0.095 C 
ATOM      9  C   UNL A   1      31.347  27.764  25.760  1.00  0.00     0.026 C 
BRANCH   9  10
ATOM     10  C   UNL A   1      31.259  26.344  25.570  1.00  0.00     0.028 A 
ATOM     11  C   UNL A   1      31.618  24.012  25.877  1.00  0.00     0.051 A 
ATOM     12  C   UNL A   1      30.631  24.020  24.916  1.00  0.00     0.079 A 
ATOM     13  C   UNL A   1      31.934  25.360  26.278  1.00  0.00     0.033 A 
ATOM     14  S   UNL A   1      30.240  25.596  24.395  1.00  0.00    -0.144 S 
BRANCH  11  15
ATOM     15  C   UNL A   1      32.169  22.829  26.508  1.00  0.00     0.252 C 
ATOM     16  N   UNL A   1      33.009  21.971  25.856  1.00  0.00    -0.347 N 
ATOM     17  H   UNL A   1      33.350  21.286  26.477  1.00  0.00     0.164 HD
ATOM     18  O   UNL A   1      31.952  22.599  27.698  1.00  0.00    -0.269 OA
BRANCH  16  19
ATOM     19  C   UNL A   1      33.563  21.757  24.495  1.00  0.00     0.038 C 
ATOM     20  C   UNL A   1      32.392  21.312  23.599  1.00  0.00     0.034 C 
ATOM     21  C   UNL A   1      34.294  22.935  23.821  1.00  0.00     0.028 C 
ATOM     22  C   UNL A   1      34.580  20.583  24.591  1.00  0.00     0.028 C 
ATOM     23  C   UNL A   1      35.568  23.358  24.546  1.00  0.00     0.002 C 
ATOM     24  C   UNL A   1      35.867  20.979  25.322  1.00  0.00     0.002 C 
ATOM     25  C   UNL A   1      36.537  22.194  24.687  1.00  0.00     0.000 C 
ENDBRANCH  16  19
ENDBRANCH  11  15
ENDBRANCH   9  10
ENDBRANCH   6   8
ENDBRANCH   5   6
ENDBRANCH   4   5
ENDBRANCH   3   4
ENDBRANCH   2   3
ENDBRANCH   1   2
BRANCH   1  26
ATOM     26  C   UNL A   1      34.120  34.600  29.748  1.00  0.00     0.188 C 
BRANCH  26  27
ATOM     27  O   UNL A   1      34.888  34.279  30.888  1.00  0.00    -0.376 OA
BRANCH  27  28
ATOM     28  C   UNL A   1      34.752  33.014  31.515  1.00  0.00     0.202 C 
BRANCH  28  29
ATOM     29  C   UNL A   1      34.993  32.703  33.008  1.00  0.00     0.261 C 
BRANCH  29  30
ATOM     30  O   UNL A   1      36.075  31.838  33.357  1.00  0.00    -0.460 OA
BRANCH  30  31
ATOM     31  C   UNL A   1      37.266  32.445  33.584  1.00  0.00     0.338 C 
ATOM     32  O   UNL A   1      37.545  33.204  34.499  1.00  0.00    -0.246 OA
BRANCH  31  33
ATOM     33  C   UNL A   1      38.247  31.917  32.620  1.00  0.00     0.060 A 
ATOM     34  C   UNL A   1      39.387  31.257  33.098  1.00  0.00     0.016 A 
ATOM     35  C   UNL A   1      38.043  32.079  31.250  1.00  0.00     0.016 A 
ATOM     36  C   UNL A   1      40.321  30.737  32.200  1.00  0.00     0.010 A 
ATOM     37  C   UNL A   1      38.994  31.581  30.354  1.00  0.00     0.010 A 
ATOM     38  C   UNL A   1      40.140  30.913  30.822  1.00  0.00    -0.014 A 
BRANCH  38  39
ATOM     39  C   UNL A   1      41.196  30.504  29.863  1.00  0.00     0.031 A 
ATOM     40  C   UNL A   1      41.114  29.142  29.235  1.00  0.00     0.074 A 
ATOM     41  C   UNL A   1      42.220  31.327  29.567  1.00  0.00     0.049 A 
ATOM     42  N   UNL A   1      41.992  28.513  28.499  1.00  0.00    -0.248 NA
ATOM     43  C   UNL A   1      39.874  28.388  29.474  1.00  0.00     0.031 C 
ATOM     44  C   UNL A   1      42.374  32.695  30.062  1.00  0.00     0.029 A 
ATOM     45  N   UNL A   1      43.339  31.122  28.796  1.00  0.00    -0.354 N 
ATOM     46  C   UNL A   1      41.413  27.291  28.182  1.00  0.00     0.074 A 
ATOM     47  C   UNL A   1      40.123  27.252  28.837  1.00  0.00     0.031 C 
ATOM     48  C   UNL A   1      43.536  33.195  29.605  1.00  0.00     0.029 A 
ATOM     49  C   UNL A   1      44.234  32.167  28.834  1.00  0.00     0.049 A 
ATOM     50  H   UNL A   1      43.486  30.305  28.266  1.00  0.00     0.167 HD
ATOM     51  C   UNL A   1      41.909  26.296  27.406  1.00  0.00     0.034 A 
ATOM     52  C   UNL A   1      45.491  32.261  28.348  1.00  0.00     0.034 A 
ATOM     53  C   UNL A   1      43.205  26.339  26.776  1.00  0.00     0.049 A 
ATOM     54  C   UNL A   1      46.079  31.079  27.607  1.00  0.00     0.074 A 
ATOM     55  C   UNL A   1      43.807  25.380  25.980  1.00  0.00     0.029 A 
ATOM     56  N   UNL A   1      44.104  27.391  26.878  1.00  0.00    -0.354 N 
ATOM     57  N   UNL A   1      45.523  29.925  27.315  1.00  0.00    -0.248 NA
ATOM     58  C   UNL A   1      47.465  31.209  27.134  1.00  0.00     0.031 C 
ATOM     59  C   UNL A   1      45.095  25.820  25.663  1.00  0.00     0.029 A 
ATOM     60  C   UNL A   1      45.268  27.089  26.191  1.00  0.00     0.049 A 
ATOM     61  H   UNL A   1      43.938  28.229  27.368  1.00  0.00     0.167 HD
ATOM     62  C   UNL A   1      46.482  29.211  26.598  1.00  0.00     0.074 A 
ATOM     63  C   UNL A   1      47.640  30.069  26.482  1.00  0.00     0.031 C 
ATOM     64  C   UNL A   1      46.415  27.957  26.083  1.00  0.00     0.034 A 
BRANCH  51  65
ATOM     65  C   UNL A   1      41.062  25.063  27.223  1.00  0.00     0.023 A 
ATOM     66  C   UNL A   1      41.575  23.779  27.472  1.00  0.00     0.031 A 
ATOM     67  C   UNL A   1      39.723  25.171  26.808  1.00  0.00     0.131 A 
ATOM     68  C   UNL A   1      40.769  22.651  27.259  1.00  0.00     0.055 A 
ATOM     69  C   UNL A   1      38.904  24.049  26.669  1.00  0.00     0.041 A 
ATOM     70  F   UNL A   1      39.188  26.371  26.533  1.00  0.00    -0.206 F 
ATOM     71  C   UNL A   1      39.429  22.779  26.885  1.00  0.00     0.022 A 
BRANCH  68  72
ATOM     72  S   UNL A   1      41.532  21.010  27.369  1.00  0.00     0.124 S 
ATOM     73  O   UNL A   1      40.815  20.425  28.499  1.00  0.00    -0.237 OA
ATOM     74  O   UNL A   1      41.238  20.436  26.061  1.00  0.00    -0.237 OA
ATOM     75  O   UNL A   1      42.942  21.304  27.618  1.00  0.00    -0.744 OA
ENDBRANCH  68  72
ENDBRANCH  51  65
BRANCH  52  76
ATOM     76  C   UNL A   1      46.326  33.474  28.604  1.00  0.00     0.023 A 
ATOM     77  C   UNL A   1      46.318  34.561  27.714  1.00  0.00     0.031 A 
ATOM     78  C   UNL A   1      47.233  33.517  29.680  1.00  0.00     0.131 A 
ATOM     79  C   UNL A   1      47.248  35.602  27.870  1.00  0.00     0.055 A 
ATOM     80  C   UNL A   1      48.103  34.592  29.874  1.00  0.00     0.041 A 
ATOM     81  F   UNL A   1      47.299  32.500  30.555  1.00  0.00    -0.206 F 
ATOM     82  C   UNL A   1      48.128  35.633  28.954  1.00  0.00     0.022 A 
BRANCH  79  83
ATOM     83  S   UNL A   1      47.396  36.833  26.545  1.00  0.00     0.124 S 
ATOM     84  O   UNL A   1      45.999  37.040  26.179  1.00  0.00    -0.237 OA
ATOM     85  O   UNL A   1      48.050  37.940  27.234  1.00  0.00    -0.237 OA
ATOM     86  O   UNL A   1      48.212  36.155  25.540  1.00  0.00    -0.744 OA
ENDBRANCH  79  83
ENDBRANCH  52  76
BRANCH  64  87
ATOM     87  C   UNL A   1      47.611  27.457  25.309  1.00  0.00     0.023 A 
ATOM     88  C   UNL A   1      48.759  26.969  25.956  1.00  0.00     0.031 A 
ATOM     89  C   UNL A   1      47.591  27.449  23.902  1.00  0.00     0.131 A 
ATOM     90  C   UNL A   1      49.856  26.531  25.198  1.00  0.00     0.055 A 
ATOM     91  C   UNL A   1      48.661  26.956  23.154  1.00  0.00     0.041 A 
ATOM     92  F   UNL A   1      46.521  27.905  23.231  1.00  0.00    -0.206 F 
ATOM     93  C   UNL A   1      49.806  26.503  23.802  1.00  0.00     0.022 A 
BRANCH  90  94
ATOM     94  S   UNL A   1      51.381  26.061  26.061  1.00  0.00     0.124 S 
ATOM     95  O   UNL A   1      51.014  24.774  26.644  1.00  0.00    -0.237 OA
ATOM     96  O   UNL A   1      52.353  26.013  24.974  1.00  0.00    -0.237 OA
ATOM     97  O   UNL A   1      51.580  27.144  27.022  1.00  0.00    -0.744 OA
ENDBRANCH  90  94
ENDBRANCH  64  87
ENDBRANCH  38  39
ENDBRANCH  31  33
ENDBRANCH  30  31
ENDBRANCH  29  30
ENDBRANCH  28  29
ENDBRANCH  27  28
ENDBRANCH  26  27
ENDBRANCH   1  26
TORSDOF 23
ENDMDL
MODEL 2
REMARK VINA RESULT:      -9.3      4.217      7.447
REMARK SMILES CC1(NC(=O)c2csc(/C=C/C(=O)OCCOCCOCCOC(=O)c3ccc(-c4c5nc(c(-c6cc(S(=O)(=O)[O-])ccc6F)c6ccc([nH]6)c(-c6cc(S(=O)(=O)[O-])ccc6F)c6nc(c(-c7cc(S(=O)(=O)[O-])ccc7F)c7ccc4[nH]7)C=C6)C=C5)cc3)c2)CCCCC1
REMARK SMILES IDX 18 1 17 2 16 3 15 4 14 5 12 6 13 7 11 8 10 9 9 10 6 11 7 12
REMARK SMILES IDX 89 13 8 14 4 15 3 16 5 18 2 19 1 20 90 21 94 22 91 23 93 24
REMARK SMILES IDX 92 25 19 26 20 27 21 28 22 29 23 30 24 31 25 32 26 33 27 34
REMARK SMILES IDX 88 35 28 36 87 37 29 38 30 39 31 40 81 41 32 42 86 43 80 44
REMARK SMILES IDX 82 45 33 46 85 47 79 48 78 49 34 51 66 52 46 53 65 54 47 55
REMARK SMILES IDX 50 56 64 57 83 58 48 59 49 60 63 62 84 63 51 64 35 65 36 66
REMARK SMILES IDX 44 67 37 68 43 69 45 70 42 71 38 72 39 73 40 74 41 75 67 76
REMARK SMILES IDX 68 77 76 78 69 79 75 80 77 81 74 82 70 83 71 84 72 85 73 86
REMARK SMILES IDX 52 87 53 88 61 89 54 90 60 91 62 92 59 93 55 94 56 95 57 96
REMARK SMILES IDX 58 97
REMARK H PARENT 3 17 82 50 50 61
REMARK Flexibility Score: inf
ROOT
ATOM      1  C   UNL A   1      41.779  29.549  30.774  1.00  0.00     0.188 C 
ENDROOT
BRANCH   1   2
ATOM      2  O   UNL A   1      41.752  28.968  29.490  1.00  0.00    -0.376 OA
BRANCH   2   3
ATOM      3  C   UNL A   1      41.321  27.633  29.299  1.00  0.00     0.202 C 
BRANCH   3   4
ATOM      4  C   UNL A   1      40.127  27.176  28.439  1.00  0.00     0.261 C 
BRANCH   4   5
ATOM      5  O   UNL A   1      40.383  26.379  27.278  1.00  0.00    -0.460 OA
BRANCH   5   6
ATOM      6  C   UNL A   1      40.506  25.051  27.517  1.00  0.00     0.330 C 
ATOM      7  O   UNL A   1      41.192  24.540  28.390  1.00  0.00    -0.247 OA
BRANCH   6   8
ATOM      8  C   UNL A   1      39.626  24.231  26.664  1.00  0.00     0.095 C 
ATOM      9  C   UNL A   1      38.289  24.151  26.763  1.00  0.00     0.026 C 
BRANCH   9  10
ATOM     10  C   UNL A   1      37.480  23.419  25.830  1.00  0.00     0.028 A 
ATOM     11  C   UNL A   1      35.751  22.904  24.278  1.00  0.00     0.051 A 
ATOM     12  C   UNL A   1      36.539  21.777  24.203  1.00  0.00     0.079 A 
ATOM     13  C   UNL A   1      36.335  23.862  25.185  1.00  0.00     0.033 A 
ATOM     14  S   UNL A   1      37.827  21.806  25.320  1.00  0.00    -0.144 S 
BRANCH  11  15
ATOM     15  C   UNL A   1      34.580  23.168  23.466  1.00  0.00     0.252 C 
ATOM     16  N   UNL A   1      33.330  23.303  23.998  1.00  0.00    -0.347 N 
ATOM     17  H   UNL A   1      32.686  23.573  23.303  1.00  0.00     0.164 HD
ATOM     18  O   UNL A   1      34.692  23.358  22.254  1.00  0.00    -0.269 OA
BRANCH  16  19
ATOM     19  C   UNL A   1      32.646  23.166  25.310  1.00  0.00     0.038 C 
ATOM     20  C   UNL A   1      33.019  21.780  25.867  1.00  0.00     0.034 C 
ATOM     21  C   UNL A   1      32.927  24.234  26.385  1.00  0.00     0.028 C 
ATOM     22  C   UNL A   1      31.114  23.187  25.036  1.00  0.00     0.028 C 
ATOM     23  C   UNL A   1      32.449  25.630  25.998  1.00  0.00     0.002 C 
ATOM     24  C   UNL A   1      30.609  24.577  24.637  1.00  0.00     0.002 C 
ATOM     25  C   UNL A   1      30.962  25.636  25.677  1.00  0.00     0.000 C 
ENDBRANCH  16  19
ENDBRANCH  11  15
ENDBRANCH   9  10
ENDBRANCH   6   8
ENDBRANCH   5   6
ENDBRANCH   4   5
ENDBRANCH   3   4
ENDBRANCH   2   3
ENDBRANCH   1   2
BRANCH   1  26
ATOM     26  C   UNL A   1      40.621  30.487  31.161  1.00  0.00     0.188 C 
BRANCH  26  27
ATOM     27  O   UNL A   1      39.316  29.954  31.235  1.00  0.00    -0.376 OA
BRANCH  27  28
ATOM     28  C   UNL A   1      38.188  30.813  31.275  1.00  0.00     0.202 C 
BRANCH  28  29
ATOM     29  C   UNL A   1      37.685  31.605  32.501  1.00  0.00     0.261 C 
BRANCH  29  30
ATOM     30  O   UNL A   1      38.070  32.974  32.633  1.00  0.00    -0.460 OA
BRANCH  30  31
ATOM     31  C   UNL A   1      37.764  33.777  31.586  1.00  0.00     0.338 C 
ATOM     32  O   UNL A   1      36.669  34.241  31.307  1.00  0.00    -0.246 OA
BRANCH  31  33
ATOM     33  C   UNL A   1      39.015  34.143  30.899  1.00  0.00     0.060 A 
ATOM     34  C   UNL A   1      38.985  34.418  29.525  1.00  0.00     0.016 A 
ATOM     35  C   UNL A   1      40.214  34.209  31.610  1.00  0.00     0.016 A 
ATOM     36  C   UNL A   1      40.157  34.781  28.859  1.00  0.00     0.010 A 
ATOM     37  C   UNL A   1      41.390  34.546  30.934  1.00  0.00     0.010 A 
ATOM     38  C   UNL A   1      41.371  34.828  29.556  1.00  0.00    -0.014 A 
BRANCH  38  39
ATOM     39  C   UNL A   1      42.648  35.059  28.835  1.00  0.00     0.031 A 
ATOM     40  C   UNL A   1      43.603  33.911  28.673  1.00  0.00     0.074 A 
ATOM     41  C   UNL A   1      42.958  36.275  28.347  1.00  0.00     0.049 A 
ATOM     42  N   UNL A   1      44.831  33.911  28.225  1.00  0.00    -0.248 NA
ATOM     43  C   UNL A   1      43.105  32.586  29.074  1.00  0.00     0.031 C 
ATOM     44  C   UNL A   1      42.086  37.448  28.385  1.00  0.00     0.029 A 
ATOM     45  N   UNL A   1      44.106  36.730  27.743  1.00  0.00    -0.354 N 
ATOM     46  C   UNL A   1      45.254  32.588  28.285  1.00  0.00     0.074 A 
ATOM     47  C   UNL A   1      44.163  31.821  28.848  1.00  0.00     0.031 C 
ATOM     48  C   UNL A   1      42.742  38.495  27.855  1.00  0.00     0.029 A 
ATOM     49  C   UNL A   1      44.097  38.084  27.492  1.00  0.00     0.049 A 
ATOM     50  H   UNL A   1      44.862  36.144  27.511  1.00  0.00     0.167 HD
ATOM     51  C   UNL A   1      46.441  32.062  27.895  1.00  0.00     0.034 A 
ATOM     52  C   UNL A   1      45.085  38.902  27.069  1.00  0.00     0.034 A 
ATOM     53  C   UNL A   1      47.527  32.842  27.355  1.00  0.00     0.049 A 
ATOM     54  C   UNL A   1      46.449  38.312  26.778  1.00  0.00     0.074 A 
ATOM     55  C   UNL A   1      48.775  32.409  26.941  1.00  0.00     0.029 A 
ATOM     56  N   UNL A   1      47.501  34.216  27.163  1.00  0.00    -0.354 N 
ATOM     57  N   UNL A   1      46.840  37.059  26.841  1.00  0.00    -0.248 NA
ATOM     58  C   UNL A   1      47.507  39.245  26.363  1.00  0.00     0.031 C 
ATOM     59  C   UNL A   1      49.525  33.526  26.570  1.00  0.00     0.029 A 
ATOM     60  C   UNL A   1      48.721  34.650  26.672  1.00  0.00     0.049 A 
ATOM     61  H   UNL A   1      46.727  34.796  27.349  1.00  0.00     0.167 HD
ATOM     62  C   UNL A   1      48.176  37.057  26.443  1.00  0.00     0.074 A 
ATOM     63  C   UNL A   1      48.517  38.424  26.120  1.00  0.00     0.031 C 
ATOM     64  C   UNL A   1      49.046  36.018  26.353  1.00  0.00     0.034 A 
BRANCH  51  65
ATOM     65  C   UNL A   1      46.640  30.579  28.072  1.00  0.00     0.023 A 
ATOM     66  C   UNL A   1      46.239  29.663  27.085  1.00  0.00     0.031 A 
ATOM     67  C   UNL A   1      47.248  30.073  29.235  1.00  0.00     0.131 A 
ATOM     68  C   UNL A   1      46.408  28.288  27.297  1.00  0.00     0.055 A 
ATOM     69  C   UNL A   1      47.481  28.708  29.408  1.00  0.00     0.041 A 
ATOM     70  F   UNL A   1      47.628  30.900  30.221  1.00  0.00    -0.206 F 
ATOM     71  C   UNL A   1      47.050  27.805  28.440  1.00  0.00     0.022 A 
BRANCH  68  72
ATOM     72  S   UNL A   1      45.674  27.131  26.109  1.00  0.00     0.124 S 
ATOM     73  O   UNL A   1      44.395  26.826  26.745  1.00  0.00    -0.237 OA
ATOM     74  O   UNL A   1      45.605  27.930  24.891  1.00  0.00    -0.237 OA
ATOM     75  O   UNL A   1      46.626  26.024  26.076  1.00  0.00    -0.744 OA
ENDBRANCH  68  72
ENDBRANCH  51  65
BRANCH  52  76
ATOM     76  C   UNL A   1      44.872  40.378  26.968  1.00  0.00     0.023 A 
ATOM     77  C   UNL A   1      44.488  40.973  25.756  1.00  0.00     0.031 A 
ATOM     78  C   UNL A   1      45.162  41.229  28.051  1.00  0.00     0.131 A 
ATOM     79  C   UNL A   1      44.480  42.372  25.632  1.00  0.00     0.055 A 
ATOM     80  C   UNL A   1      45.076  42.618  27.945  1.00  0.00     0.041 A 
ATOM     81  F   UNL A   1      45.549  40.720  29.233  1.00  0.00    -0.206 F 
ATOM     82  C   UNL A   1      44.755  43.199  26.724  1.00  0.00     0.022 A 
BRANCH  79  83
ATOM     83  S   UNL A   1      44.261  43.093  23.982  1.00  0.00     0.124 S 
ATOM     84  O   UNL A   1      45.615  43.013  23.444  1.00  0.00    -0.237 OA
ATOM     85  O   UNL A   1      43.281  42.191  23.386  1.00  0.00    -0.237 OA
ATOM     86  O   UNL A   1      43.777  44.443  24.261  1.00  0.00    -0.744 OA
ENDBRANCH  79  83
ENDBRANCH  52  76
BRANCH  64  87
ATOM     87  C   UNL A   1      50.436  36.317  25.845  1.00  0.00     0.023 A 
ATOM     88  C   UNL A   1      51.533  36.429  26.716  1.00  0.00     0.031 A 
ATOM     89  C   UNL A   1      50.668  36.468  24.465  1.00  0.00     0.131 A 
ATOM     90  C   UNL A   1      52.805  36.725  26.202  1.00  0.00     0.055 A 
ATOM     91  C   UNL A   1      51.946  36.702  23.955  1.00  0.00     0.041 A 
ATOM     92  F   UNL A   1      49.656  36.371  23.587  1.00  0.00    -0.206 F 
ATOM     93  C   UNL A   1      53.021  36.843  24.827  1.00  0.00     0.022 A 
BRANCH  90  94
ATOM     94  S   UNL A   1      54.166  37.025  27.363  1.00  0.00     0.124 S 
ATOM     95  O   UNL A   1      53.794  36.178  28.492  1.00  0.00    -0.237 OA
ATOM     96  O   UNL A   1      55.331  36.592  26.599  1.00  0.00    -0.237 OA
ATOM     97  O   UNL A   1      54.093  38.463  27.616  1.00  0.00    -0.744 OA
ENDBRANCH  90  94
ENDBRANCH  64  87
ENDBRANCH  38  39
ENDBRANCH  31  33
ENDBRANCH  30  31
ENDBRANCH  29  30
ENDBRANCH  28  29
ENDBRANCH  27  28
ENDBRANCH  26  27
ENDBRANCH   1  26
TORSDOF 23
ENDMDL
MODEL 3
REMARK VINA RESULT:      -9.2      7.974     14.400
REMARK SMILES CC1(NC(=O)c2csc(/C=C/C(=O)OCCOCCOCCOC(=O)c3ccc(-c4c5nc(c(-c6cc(S(=O)(=O)[O-])ccc6F)c6ccc([nH]6)c(-c6cc(S(=O)(=O)[O-])ccc6F)c6nc(c(-c7cc(S(=O)(=O)[O-])ccc7F)c7ccc4[nH]7)C=C6)C=C5)cc3)c2)CCCCC1
REMARK SMILES IDX 18 1 17 2 16 3 15 4 14 5 12 6 13 7 11 8 10 9 9 10 6 11 7 12
REMARK SMILES IDX 89 13 8 14 4 15 3 16 5 18 2 19 1 20 90 21 94 22 91 23 93 24
REMARK SMILES IDX 92 25 19 26 20 27 21 28 22 29 23 30 24 31 25 32 26 33 27 34
REMARK SMILES IDX 88 35 28 36 87 37 29 38 30 39 31 40 81 41 32 42 86 43 80 44
REMARK SMILES IDX 82 45 33 46 85 47 79 48 78 49 34 51 66 52 46 53 65 54 47 55
REMARK SMILES IDX 50 56 64 57 83 58 48 59 49 60 63 62 84 63 51 64 35 65 36 66
REMARK SMILES IDX 44 67 37 68 43 69 45 70 42 71 38 72 39 73 40 74 41 75 67 76
REMARK SMILES IDX 68 77 76 78 69 79 75 80 77 81 74 82 70 83 71 84 72 85 73 86
REMARK SMILES IDX 52 87 53 88 61 89 54 90 60 91 62 92 59 93 55 94 56 95 57 96
REMARK SMILES IDX 58 97
REMARK H PARENT 3 17 82 50 50 61
REMARK Flexibility Score: inf
ROOT
ATOM      1  C   UNL A   1      44.120  18.123  26.244  1.00  0.00     0.188 C 
ENDROOT
BRANCH   1   2
ATOM      2  O   UNL A   1      44.981  18.113  25.128  1.00  0.00    -0.376 OA
BRANCH   2   3
ATOM      3  C   UNL A   1      45.208  19.285  24.368  1.00  0.00     0.202 C 
BRANCH   3   4
ATOM      4  C   UNL A   1      46.372  20.278  24.553  1.00  0.00     0.261 C 
BRANCH   4   5
ATOM      5  O   UNL A   1      46.152  21.454  25.339  1.00  0.00    -0.460 OA
BRANCH   5   6
ATOM      6  C   UNL A   1      45.993  22.594  24.623  1.00  0.00     0.330 C 
ATOM      7  O   UNL A   1      45.380  22.700  23.571  1.00  0.00    -0.247 OA
BRANCH   6   8
ATOM      8  C   UNL A   1      46.559  23.778  25.297  1.00  0.00     0.095 C 
ATOM      9  C   UNL A   1      46.277  25.057  25.003  1.00  0.00     0.026 C 
BRANCH   9  10
ATOM     10  C   UNL A   1      46.779  26.162  25.770  1.00  0.00     0.028 A 
ATOM     11  C   UNL A   1      46.975  28.343  26.702  1.00  0.00     0.051 A 
ATOM     12  C   UNL A   1      47.960  27.659  27.379  1.00  0.00     0.079 A 
ATOM     13  C   UNL A   1      46.271  27.453  25.812  1.00  0.00     0.033 A 
ATOM     14  S   UNL A   1      48.140  26.056  26.826  1.00  0.00    -0.144 S 
BRANCH  11  15
ATOM     15  C   UNL A   1      46.592  29.721  26.938  1.00  0.00     0.252 C 
ATOM     16  N   UNL A   1      45.846  30.103  28.015  1.00  0.00    -0.347 N 
ATOM     17  H   UNL A   1      45.772  31.085  28.052  1.00  0.00     0.164 HD
ATOM     18  O   UNL A   1      47.001  30.617  26.197  1.00  0.00    -0.269 OA
BRANCH  16  19
ATOM     19  C   UNL A   1      45.112  29.487  29.150  1.00  0.00     0.038 C 
ATOM     20  C   UNL A   1      46.168  28.852  30.074  1.00  0.00     0.034 C 
ATOM     21  C   UNL A   1      44.187  30.392  29.987  1.00  0.00     0.028 C 
ATOM     22  C   UNL A   1      44.228  28.349  28.563  1.00  0.00     0.028 C 
ATOM     23  C   UNL A   1      43.006  30.952  29.201  1.00  0.00     0.002 C 
ATOM     24  C   UNL A   1      43.038  28.885  27.760  1.00  0.00     0.002 C 
ATOM     25  C   UNL A   1      42.175  29.839  28.582  1.00  0.00     0.000 C 
ENDBRANCH  16  19
ENDBRANCH  11  15
ENDBRANCH   9  10
ENDBRANCH   6   8
ENDBRANCH   5   6
ENDBRANCH   4   5
ENDBRANCH   3   4
ENDBRANCH   2   3
ENDBRANCH   1   2
BRANCH   1  26
ATOM     26  C   UNL A   1      42.603  18.149  25.981  1.00  0.00     0.188 C 
BRANCH  26  27
ATOM     27  O   UNL A   1      42.036  19.310  25.414  1.00  0.00    -0.376 OA
BRANCH  27  28
ATOM     28  C   UNL A   1      41.797  20.458  26.212  1.00  0.00     0.202 C 
BRANCH  28  29
ATOM     29  C   UNL A   1      42.516  21.819  26.094  1.00  0.00     0.261 C 
BRANCH  29  30
ATOM     30  O   UNL A   1      43.392  22.221  27.147  1.00  0.00    -0.460 OA
BRANCH  30  31
ATOM     31  C   UNL A   1      43.615  23.554  27.254  1.00  0.00     0.338 C 
ATOM     32  O   UNL A   1      43.498  24.394  26.375  1.00  0.00    -0.246 OA
BRANCH  31  33
ATOM     33  C   UNL A   1      43.881  23.869  28.668  1.00  0.00     0.060 A 
ATOM     34  C   UNL A   1      43.218  23.142  29.666  1.00  0.00     0.016 A 
ATOM     35  C   UNL A   1      44.779  24.882  29.005  1.00  0.00     0.016 A 
ATOM     36  C   UNL A   1      43.468  23.416  31.012  1.00  0.00     0.010 A 
ATOM     37  C   UNL A   1      45.006  25.172  30.354  1.00  0.00     0.010 A 
ATOM     38  C   UNL A   1      44.349  24.446  31.364  1.00  0.00    -0.014 A 
BRANCH  38  39
ATOM     39  C   UNL A   1      44.508  24.853  32.783  1.00  0.00     0.031 A 
ATOM     40  C   UNL A   1      44.128  26.252  33.180  1.00  0.00     0.074 A 
ATOM     41  C   UNL A   1      44.996  23.996  33.700  1.00  0.00     0.049 A 
ATOM     42  N   UNL A   1      44.324  26.875  34.311  1.00  0.00    -0.248 NA
ATOM     43  C   UNL A   1      43.437  27.054  32.159  1.00  0.00     0.031 C 
ATOM     44  C   UNL A   1      45.338  22.597  33.449  1.00  0.00     0.029 A 
ATOM     45  N   UNL A   1      45.313  24.187  35.023  1.00  0.00    -0.354 N 
ATOM     46  C   UNL A   1      43.778  28.142  34.144  1.00  0.00     0.074 A 
ATOM     47  C   UNL A   1      43.276  28.210  32.788  1.00  0.00     0.031 C 
ATOM     48  C   UNL A   1      45.844  22.065  34.576  1.00  0.00     0.029 A 
ATOM     49  C   UNL A   1      45.915  23.097  35.609  1.00  0.00     0.049 A 
ATOM     50  H   UNL A   1      45.126  25.024  35.507  1.00  0.00     0.167 HD
ATOM     51  C   UNL A   1      43.694  29.152  35.044  1.00  0.00     0.034 A 
ATOM     52  C   UNL A   1      46.502  22.966  36.818  1.00  0.00     0.034 A 
ATOM     53  C   UNL A   1      44.217  29.078  36.386  1.00  0.00     0.049 A 
ATOM     54  C   UNL A   1      46.525  24.156  37.754  1.00  0.00     0.074 A 
ATOM     55  C   UNL A   1      44.195  30.048  37.373  1.00  0.00     0.029 A 
ATOM     56  N   UNL A   1      44.866  27.977  36.927  1.00  0.00    -0.354 N 
ATOM     57  N   UNL A   1      46.007  25.352  37.584  1.00  0.00    -0.248 NA
ATOM     58  C   UNL A   1      47.212  23.982  39.041  1.00  0.00     0.031 C 
ATOM     59  C   UNL A   1      44.893  29.561  38.481  1.00  0.00     0.029 A 
ATOM     60  C   UNL A   1      45.279  28.257  38.219  1.00  0.00     0.049 A 
ATOM     61  H   UNL A   1      45.010  27.122  36.460  1.00  0.00     0.167 HD
ATOM     62  C   UNL A   1      46.282  26.055  38.756  1.00  0.00     0.074 A 
ATOM     63  C   UNL A   1      46.988  25.147  39.632  1.00  0.00     0.031 C 
ATOM     64  C   UNL A   1      45.981  27.339  39.081  1.00  0.00     0.034 A 
BRANCH  51  65
ATOM     65  C   UNL A   1      43.044  30.435  34.596  1.00  0.00     0.023 A 
ATOM     66  C   UNL A   1      41.684  30.691  34.839  1.00  0.00     0.031 A 
ATOM     67  C   UNL A   1      43.794  31.421  33.930  1.00  0.00     0.131 A 
ATOM     68  C   UNL A   1      41.104  31.881  34.378  1.00  0.00     0.055 A 
ATOM     69  C   UNL A   1      43.227  32.636  33.539  1.00  0.00     0.041 A 
ATOM     70  F   UNL A   1      45.091  31.220  33.650  1.00  0.00    -0.206 F 
ATOM     71  C   UNL A   1      41.871  32.867  33.753  1.00  0.00     0.022 A 
BRANCH  68  72
ATOM     72  S   UNL A   1      39.305  32.073  34.506  1.00  0.00     0.124 S 
ATOM     73  O   UNL A   1      38.984  32.708  33.230  1.00  0.00    -0.237 OA
ATOM     74  O   UNL A   1      38.850  30.697  34.665  1.00  0.00    -0.237 OA
ATOM     75  O   UNL A   1      39.135  32.927  35.679  1.00  0.00    -0.744 OA
ENDBRANCH  68  72
ENDBRANCH  51  65
BRANCH  52  76
ATOM     76  C   UNL A   1      47.195  21.699  37.204  1.00  0.00     0.023 A 
ATOM     77  C   UNL A   1      46.597  20.785  38.087  1.00  0.00     0.031 A 
ATOM     78  C   UNL A   1      48.515  21.438  36.789  1.00  0.00     0.131 A 
ATOM     79  C   UNL A   1      47.338  19.701  38.584  1.00  0.00     0.055 A 
ATOM     80  C   UNL A   1      49.221  20.316  37.226  1.00  0.00     0.041 A 
ATOM     81  F   UNL A   1      49.147  22.282  35.957  1.00  0.00    -0.206 F 
ATOM     82  C   UNL A   1      48.641  19.451  38.147  1.00  0.00     0.022 A 
BRANCH  79  83
ATOM     83  S   UNL A   1      46.630  18.716  39.933  1.00  0.00     0.124 S 
ATOM     84  O   UNL A   1      46.731  19.641  41.057  1.00  0.00    -0.237 OA
ATOM     85  O   UNL A   1      45.283  18.452  39.439  1.00  0.00    -0.237 OA
ATOM     86  O   UNL A   1      47.508  17.551  40.001  1.00  0.00    -0.744 OA
ENDBRANCH  79  83
ENDBRANCH  52  76
BRANCH  64  87
ATOM     87  C   UNL A   1      46.375  27.819  40.457  1.00  0.00     0.023 A 
ATOM     88  C   UNL A   1      47.582  28.501  40.684  1.00  0.00     0.031 A 
ATOM     89  C   UNL A   1      45.517  27.609  41.553  1.00  0.00     0.131 A 
ATOM     90  C   UNL A   1      47.917  28.915  41.983  1.00  0.00     0.055 A 
ATOM     91  C   UNL A   1      45.828  28.076  42.831  1.00  0.00     0.041 A 
ATOM     92  F   UNL A   1      44.351  26.961  41.394  1.00  0.00    -0.206 F 
ATOM     93  C   UNL A   1      47.039  28.724  43.053  1.00  0.00     0.022 A 
BRANCH  90  94
ATOM     94  S   UNL A   1      49.552  29.647  42.271  1.00  0.00     0.124 S 
ATOM     95  O   UNL A   1      49.359  31.014  41.796  1.00  0.00    -0.237 OA
ATOM     96  O   UNL A   1      49.716  29.490  43.712  1.00  0.00    -0.237 OA
ATOM     97  O   UNL A   1      50.445  28.827  41.455  1.00  0.00    -0.744 OA
ENDBRANCH  90  94
ENDBRANCH  64  87
ENDBRANCH  38  39
ENDBRANCH  31  33
ENDBRANCH  30  31
ENDBRANCH  29  30
ENDBRANCH  28  29
ENDBRANCH  27  28
ENDBRANCH  26  27
ENDBRANCH   1  26
TORSDOF 23
ENDMDL
