MODEL 1
REMARK VINA RESULT:     -12.0      0.000      0.000
REMARK SMILES Cc1ccc2c(c1)c(-c1ccnc3c(C)cccc13)c(C)n2CC(=O)OCCOCCOCCOC(=O)c1ccc(-c2c3nc(c(-c4cc(S(=O)(=O)[O-])ccc4F)c4ccc([nH]4)c(-c4cc(S(=O)(=O)[O-])ccc4F)c4nc(c(-c5cc(S(=O)(=O)[O-])ccc5F)c5ccc2[nH]5)C=C4)C=C3)cc1
REMARK SMILES IDX 31 1 30 2 29 3 28 4 27 5 26 6 24 7 25 8 23 9 22 10 1 11 2 12
REMARK SMILES IDX 3 13 7 14 4 15 6 16 5 17 8 18 20 19 21 20 9 21 10 22 19 23
REMARK SMILES IDX 11 24 13 25 18 26 12 27 14 28 17 29 15 30 16 31 32 32 33 33
REMARK SMILES IDX 34 34 35 35 36 36 37 37 38 38 39 39 100 40 40 41 99 42 41 43
REMARK SMILES IDX 42 44 43 45 93 46 44 47 98 48 92 49 94 50 45 51 97 52 91 53
REMARK SMILES IDX 90 54 46 56 78 57 58 58 77 59 59 60 62 61 76 62 95 63 60 64
REMARK SMILES IDX 61 65 75 67 96 68 63 69 47 70 48 71 56 72 49 73 55 74 57 75
REMARK SMILES IDX 54 76 50 77 51 78 52 79 53 80 79 81 80 82 88 83 81 84 87 85
REMARK SMILES IDX 89 86 86 87 82 88 83 89 84 90 85 91 64 92 65 93 73 94 66 95
REMARK SMILES IDX 72 96 74 97 71 98 67 99 68 100 69 101 70 102
REMARK H PARENT 94 55 62 66
REMARK Flexibility Score: inf
ROOT
ATOM      1  C   UNL A   1      31.525  29.029  25.195  1.00  0.00     0.188 C 
ENDROOT
BRANCH   1   2
ATOM      2  C   UNL A   1      32.497  27.899  25.575  1.00  0.00     0.188 C 
BRANCH   2   3
ATOM      3  O   UNL A   1      33.490  27.482  24.658  1.00  0.00    -0.376 OA
BRANCH   3   4
ATOM      4  C   UNL A   1      34.015  28.455  23.776  1.00  0.00     0.202 C 
BRANCH   4   5
ATOM      5  C   UNL A   1      33.733  28.228  22.288  1.00  0.00     0.261 C 
BRANCH   5   6
ATOM      6  O   UNL A   1      34.034  26.868  21.884  1.00  0.00    -0.462 OA
BRANCH   6   7
ATOM      7  C   UNL A   1      33.009  26.196  21.297  1.00  0.00     0.326 C 
ATOM      8  O   UNL A   1      33.023  25.889  20.106  1.00  0.00    -0.250 OA
BRANCH   7   9
ATOM      9  C   UNL A   1      32.001  25.593  22.249  1.00  0.00     0.244 C 
BRANCH   9  10
ATOM     10  N   UNL A   1      32.356  24.622  23.280  1.00  0.00    -0.333 N 
ATOM     11  C   UNL A   1      29.463  22.744  27.707  1.00  0.00     0.044 C 
ATOM     12  C   UNL A   1      30.226  23.335  26.564  1.00  0.00    -0.050 A 
ATOM     13  C   UNL A   1      29.694  24.421  25.862  1.00  0.00     0.005 A 
ATOM     14  C   UNL A   1      31.469  22.791  26.197  1.00  0.00     0.014 A 
ATOM     15  C   UNL A   1      30.367  24.983  24.782  1.00  0.00     0.027 A 
ATOM     16  C   UNL A   1      32.122  23.281  25.055  1.00  0.00     0.008 A 
ATOM     17  C   UNL A   1      31.566  24.381  24.386  1.00  0.00     0.049 A 
ATOM     18  C   UNL A   1      33.238  22.841  24.296  1.00  0.00     0.011 A 
ATOM     19  C   UNL A   1      33.100  23.472  23.077  1.00  0.00     0.024 A 
ATOM     20  C   UNL A   1      33.537  22.949  21.771  1.00  0.00     0.065 C 
BRANCH  18  21
ATOM     21  C   UNL A   1      34.166  21.718  24.430  1.00  0.00    -0.005 A 
ATOM     22  C   UNL A   1      35.442  21.933  24.945  1.00  0.00     0.029 A 
ATOM     23  C   UNL A   1      33.698  20.391  24.235  1.00  0.00     0.008 A 
ATOM     24  C   UNL A   1      36.213  20.826  25.232  1.00  0.00     0.112 A 
ATOM     25  C   UNL A   1      34.575  19.323  24.543  1.00  0.00     0.074 A 
ATOM     26  C   UNL A   1      32.391  20.102  23.779  1.00  0.00     0.011 A 
ATOM     27  N   UNL A   1      35.815  19.551  25.026  1.00  0.00    -0.256 NA
ATOM     28  C   UNL A   1      34.116  18.007  24.355  1.00  0.00    -0.025 A 
ATOM     29  C   UNL A   1      31.951  18.797  23.608  1.00  0.00     0.001 A 
ATOM     30  C   UNL A   1      34.986  16.813  24.651  1.00  0.00     0.047 C 
ATOM     31  C   UNL A   1      32.813  17.751  23.888  1.00  0.00     0.005 A 
ENDBRANCH  18  21
ENDBRANCH   9  10
ENDBRANCH   7   9
ENDBRANCH   6   7
ENDBRANCH   5   6
ENDBRANCH   4   5
ENDBRANCH   3   4
ENDBRANCH   2   3
ENDBRANCH   1   2
BRANCH   1  32
ATOM     32  O   UNL A   1      31.687  30.298  25.798  1.00  0.00    -0.376 OA
BRANCH  32  33
ATOM     33  C   UNL A   1      32.697  30.396  26.794  1.00  0.00     0.202 C 
BRANCH  33  34
ATOM     34  C   UNL A   1      33.054  31.818  27.259  1.00  0.00     0.261 C 
BRANCH  34  35
ATOM     35  O   UNL A   1      34.490  32.007  27.308  1.00  0.00    -0.460 OA
BRANCH  35  36
ATOM     36  C   UNL A   1      34.993  32.468  28.491  1.00  0.00     0.338 C 
ATOM     37  O   UNL A   1      34.461  33.292  29.205  1.00  0.00    -0.246 OA
BRANCH  36  38
ATOM     38  C   UNL A   1      36.105  31.561  28.936  1.00  0.00     0.060 A 
ATOM     39  C   UNL A   1      37.281  31.992  29.563  1.00  0.00     0.016 A 
ATOM     40  C   UNL A   1      36.037  30.240  28.504  1.00  0.00     0.016 A 
ATOM     41  C   UNL A   1      38.450  31.192  29.529  1.00  0.00     0.010 A 
ATOM     42  C   UNL A   1      37.192  29.443  28.509  1.00  0.00     0.010 A 
ATOM     43  C   UNL A   1      38.448  29.941  28.901  1.00  0.00    -0.014 A 
BRANCH  43  44
ATOM     44  C   UNL A   1      39.593  28.991  28.964  1.00  0.00     0.031 A 
ATOM     45  C   UNL A   1      39.907  28.707  30.364  1.00  0.00     0.074 A 
ATOM     46  C   UNL A   1      40.393  28.341  28.078  1.00  0.00     0.049 A 
ATOM     47  N   UNL A   1      40.781  29.387  31.025  1.00  0.00    -0.248 NA
ATOM     48  C   UNL A   1      39.084  27.797  31.155  1.00  0.00     0.031 C 
ATOM     49  C   UNL A   1      40.428  28.433  26.634  1.00  0.00     0.029 A 
ATOM     50  N   UNL A   1      41.373  27.392  28.302  1.00  0.00    -0.354 N 
ATOM     51  C   UNL A   1      40.790  28.821  32.276  1.00  0.00     0.074 A 
ATOM     52  C   UNL A   1      39.566  28.057  32.371  1.00  0.00     0.031 C 
ATOM     53  C   UNL A   1      41.120  27.400  26.088  1.00  0.00     0.029 A 
ATOM     54  C   UNL A   1      41.789  26.690  27.167  1.00  0.00     0.049 A 
ATOM     55  H   UNL A   1      41.750  27.223  29.196  1.00  0.00     0.167 HD
ATOM     56  C   UNL A   1      41.934  28.800  33.008  1.00  0.00     0.034 A 
ATOM     57  C   UNL A   1      42.859  25.867  26.973  1.00  0.00     0.034 A 
ATOM     58  C   UNL A   1      42.958  29.646  32.433  1.00  0.00     0.049 A 
ATOM     59  C   UNL A   1      43.894  26.235  27.955  1.00  0.00     0.074 A 
ATOM     60  C   UNL A   1      43.031  30.979  32.076  1.00  0.00     0.029 A 
ATOM     61  N   UNL A   1      44.002  29.033  31.780  1.00  0.00    -0.354 N 
ATOM     62  N   UNL A   1      44.636  27.299  27.855  1.00  0.00    -0.248 NA
ATOM     63  C   UNL A   1      43.839  25.625  29.269  1.00  0.00     0.031 C 
ATOM     64  C   UNL A   1      43.836  31.022  30.902  1.00  0.00     0.029 A 
ATOM     65  C   UNL A   1      44.263  29.724  30.623  1.00  0.00     0.049 A 
ATOM     66  H   UNL A   1      44.482  28.231  32.091  1.00  0.00     0.167 HD
ATOM     67  C   UNL A   1      44.692  27.778  29.149  1.00  0.00     0.074 A 
ATOM     68  C   UNL A   1      44.313  26.644  29.988  1.00  0.00     0.031 C 
ATOM     69  C   UNL A   1      44.756  29.119  29.397  1.00  0.00     0.034 A 
BRANCH  56  70
ATOM     70  C   UNL A   1      42.204  27.737  34.032  1.00  0.00     0.023 A 
ATOM     71  C   UNL A   1      42.971  26.589  33.755  1.00  0.00     0.031 A 
ATOM     72  C   UNL A   1      41.833  27.923  35.371  1.00  0.00     0.131 A 
ATOM     73  C   UNL A   1      43.268  25.645  34.737  1.00  0.00     0.055 A 
ATOM     74  C   UNL A   1      42.207  27.025  36.377  1.00  0.00     0.041 A 
ATOM     75  F   UNL A   1      41.137  29.007  35.748  1.00  0.00    -0.206 F 
ATOM     76  C   UNL A   1      42.915  25.870  36.061  1.00  0.00     0.022 A 
BRANCH  73  77
ATOM     77  S   UNL A   1      44.100  24.100  34.282  1.00  0.00     0.124 S 
ATOM     78  O   UNL A   1      43.024  23.126  34.431  1.00  0.00    -0.237 OA
ATOM     79  O   UNL A   1      44.518  24.382  32.911  1.00  0.00    -0.237 OA
ATOM     80  O   UNL A   1      45.189  24.000  35.249  1.00  0.00    -0.744 OA
ENDBRANCH  73  77
ENDBRANCH  56  70
BRANCH  57  81
ATOM     81  C   UNL A   1      42.883  24.529  26.320  1.00  0.00     0.023 A 
ATOM     82  C   UNL A   1      41.823  23.626  26.512  1.00  0.00     0.031 A 
ATOM     83  C   UNL A   1      44.073  24.012  25.760  1.00  0.00     0.131 A 
ATOM     84  C   UNL A   1      42.000  22.258  26.238  1.00  0.00     0.055 A 
ATOM     85  C   UNL A   1      44.235  22.652  25.463  1.00  0.00     0.041 A 
ATOM     86  F   UNL A   1      45.134  24.809  25.555  1.00  0.00    -0.206 F 
ATOM     87  C   UNL A   1      43.200  21.763  25.723  1.00  0.00     0.022 A 
BRANCH  84  88
ATOM     88  S   UNL A   1      40.691  21.067  26.642  1.00  0.00     0.124 S 
ATOM     89  O   UNL A   1      40.667  21.113  28.102  1.00  0.00    -0.237 OA
ATOM     90  O   UNL A   1      39.537  21.660  25.976  1.00  0.00    -0.237 OA
ATOM     91  O   UNL A   1      41.184  19.818  26.070  1.00  0.00    -0.744 OA
ENDBRANCH  84  88
ENDBRANCH  57  81
BRANCH  69  92
ATOM     92  C   UNL A   1      45.124  30.062  28.263  1.00  0.00     0.023 A 
ATOM     93  C   UNL A   1      46.487  30.376  28.110  1.00  0.00     0.031 A 
ATOM     94  C   UNL A   1      44.210  30.778  27.463  1.00  0.00     0.131 A 
ATOM     95  C   UNL A   1      46.896  31.383  27.226  1.00  0.00     0.055 A 
ATOM     96  C   UNL A   1      44.628  31.735  26.528  1.00  0.00     0.041 A 
ATOM     97  F   UNL A   1      42.886  30.636  27.607  1.00  0.00    -0.206 F 
ATOM     98  C   UNL A   1      45.976  32.055  26.418  1.00  0.00     0.022 A 
BRANCH  95  99
ATOM     99  S   UNL A   1      48.619  31.946  27.213  1.00  0.00     0.124 S 
ATOM    100  O   UNL A   1      49.331  30.752  26.765  1.00  0.00    -0.237 OA
ATOM    101  O   UNL A   1      48.579  33.047  26.252  1.00  0.00    -0.237 OA
ATOM    102  O   UNL A   1      48.872  32.343  28.594  1.00  0.00    -0.744 OA
ENDBRANCH  95  99
ENDBRANCH  69  92
ENDBRANCH  43  44
ENDBRANCH  36  38
ENDBRANCH  35  36
ENDBRANCH  34  35
ENDBRANCH  33  34
ENDBRANCH  32  33
ENDBRANCH   1  32
TORSDOF 22
ENDMDL
MODEL 2
REMARK VINA RESULT:     -10.4      5.029     10.932
REMARK SMILES Cc1ccc2c(c1)c(-c1ccnc3c(C)cccc13)c(C)n2CC(=O)OCCOCCOCCOC(=O)c1ccc(-c2c3nc(c(-c4cc(S(=O)(=O)[O-])ccc4F)c4ccc([nH]4)c(-c4cc(S(=O)(=O)[O-])ccc4F)c4nc(c(-c5cc(S(=O)(=O)[O-])ccc5F)c5ccc2[nH]5)C=C4)C=C3)cc1
REMARK SMILES IDX 31 1 30 2 29 3 28 4 27 5 26 6 24 7 25 8 23 9 22 10 1 11 2 12
REMARK SMILES IDX 3 13 7 14 4 15 6 16 5 17 8 18 20 19 21 20 9 21 10 22 19 23
REMARK SMILES IDX 11 24 13 25 18 26 12 27 14 28 17 29 15 30 16 31 32 32 33 33
REMARK SMILES IDX 34 34 35 35 36 36 37 37 38 38 39 39 100 40 40 41 99 42 41 43
REMARK SMILES IDX 42 44 43 45 93 46 44 47 98 48 92 49 94 50 45 51 97 52 91 53
REMARK SMILES IDX 90 54 46 56 78 57 58 58 77 59 59 60 62 61 76 62 95 63 60 64
REMARK SMILES IDX 61 65 75 67 96 68 63 69 47 70 48 71 56 72 49 73 55 74 57 75
REMARK SMILES IDX 54 76 50 77 51 78 52 79 53 80 79 81 80 82 88 83 81 84 87 85
REMARK SMILES IDX 89 86 86 87 82 88 83 89 84 90 85 91 64 92 65 93 73 94 66 95
REMARK SMILES IDX 72 96 74 97 71 98 67 99 68 100 69 101 70 102
REMARK H PARENT 94 55 62 66
REMARK Flexibility Score: inf
ROOT
ATOM      1  C   UNL A   1      34.178  34.403  31.485  1.00  0.00     0.188 C 
ENDROOT
BRANCH   1   2
ATOM      2  C   UNL A   1      35.433  34.552  32.362  1.00  0.00     0.188 C 
BRANCH   2   3
ATOM      3  O   UNL A   1      36.716  34.344  31.804  1.00  0.00    -0.376 OA
BRANCH   3   4
ATOM      4  C   UNL A   1      37.540  33.364  32.406  1.00  0.00     0.202 C 
BRANCH   4   5
ATOM      5  C   UNL A   1      37.018  32.764  33.714  1.00  0.00     0.261 C 
BRANCH   5   6
ATOM      6  O   UNL A   1      37.950  32.962  34.807  1.00  0.00    -0.462 OA
BRANCH   6   7
ATOM      7  C   UNL A   1      37.383  33.092  36.037  1.00  0.00     0.326 C 
ATOM      8  O   UNL A   1      36.234  33.501  36.189  1.00  0.00    -0.250 OA
BRANCH   7   9
ATOM      9  C   UNL A   1      38.135  32.429  37.169  1.00  0.00     0.244 C 
BRANCH   9  10
ATOM     10  N   UNL A   1      38.109  32.922  38.542  1.00  0.00    -0.333 N 
ATOM     11  C   UNL A   1      39.430  37.948  40.663  1.00  0.00     0.044 C 
ATOM     12  C   UNL A   1      39.170  36.602  40.064  1.00  0.00    -0.050 A 
ATOM     13  C   UNL A   1      39.487  36.367  38.722  1.00  0.00     0.005 A 
ATOM     14  C   UNL A   1      38.602  35.585  40.849  1.00  0.00     0.014 A 
ATOM     15  C   UNL A   1      39.241  35.134  38.127  1.00  0.00     0.027 A 
ATOM     16  C   UNL A   1      38.258  34.364  40.247  1.00  0.00     0.008 A 
ATOM     17  C   UNL A   1      38.606  34.159  38.904  1.00  0.00     0.049 A 
ATOM     18  C   UNL A   1      37.502  33.238  40.667  1.00  0.00     0.011 A 
ATOM     19  C   UNL A   1      37.162  32.591  39.496  1.00  0.00     0.024 A 
ATOM     20  C   UNL A   1      35.939  31.807  39.258  1.00  0.00     0.065 C 
BRANCH  18  21
ATOM     21  C   UNL A   1      36.808  32.900  41.910  1.00  0.00    -0.005 A 
ATOM     22  C   UNL A   1      35.619  33.549  42.236  1.00  0.00     0.029 A 
ATOM     23  C   UNL A   1      37.232  31.779  42.671  1.00  0.00     0.008 A 
ATOM     24  C   UNL A   1      34.902  33.070  43.313  1.00  0.00     0.112 A 
ATOM     25  C   UNL A   1      36.434  31.378  43.769  1.00  0.00     0.074 A 
ATOM     26  C   UNL A   1      38.394  31.036  42.354  1.00  0.00     0.011 A 
ATOM     27  N   UNL A   1      35.292  32.028  44.080  1.00  0.00    -0.256 NA
ATOM     28  C   UNL A   1      36.847  30.266  44.524  1.00  0.00    -0.025 A 
ATOM     29  C   UNL A   1      38.782  29.935  43.104  1.00  0.00     0.001 A 
ATOM     30  C   UNL A   1      36.061  29.777  45.713  1.00  0.00     0.047 C 
ATOM     31  C   UNL A   1      38.014  29.554  44.191  1.00  0.00     0.005 A 
ENDBRANCH  18  21
ENDBRANCH   9  10
ENDBRANCH   7   9
ENDBRANCH   6   7
ENDBRANCH   5   6
ENDBRANCH   4   5
ENDBRANCH   3   4
ENDBRANCH   2   3
ENDBRANCH   1   2
BRANCH   1  32
ATOM     32  O   UNL A   1      33.743  35.513  30.724  1.00  0.00    -0.376 OA
BRANCH  32  33
ATOM     33  C   UNL A   1      33.943  35.429  29.319  1.00  0.00     0.202 C 
BRANCH  33  34
ATOM     34  C   UNL A   1      33.618  34.073  28.669  1.00  0.00     0.261 C 
BRANCH  34  35
ATOM     35  O   UNL A   1      34.827  33.335  28.365  1.00  0.00    -0.460 OA
BRANCH  35  36
ATOM     36  C   UNL A   1      34.667  32.002  28.111  1.00  0.00     0.338 C 
ATOM     37  O   UNL A   1      33.816  31.523  27.393  1.00  0.00    -0.246 OA
BRANCH  36  38
ATOM     38  C   UNL A   1      35.896  31.267  28.565  1.00  0.00     0.060 A 
ATOM     39  C   UNL A   1      37.024  31.876  29.131  1.00  0.00     0.016 A 
ATOM     40  C   UNL A   1      35.986  29.926  28.204  1.00  0.00     0.016 A 
ATOM     41  C   UNL A   1      38.284  31.228  29.099  1.00  0.00     0.010 A 
ATOM     42  C   UNL A   1      37.232  29.282  28.212  1.00  0.00     0.010 A 
ATOM     43  C   UNL A   1      38.424  29.954  28.537  1.00  0.00    -0.014 A 
BRANCH  43  44
ATOM     44  C   UNL A   1      39.682  29.160  28.611  1.00  0.00     0.031 A 
ATOM     45  C   UNL A   1      39.980  28.858  30.011  1.00  0.00     0.074 A 
ATOM     46  C   UNL A   1      40.594  28.661  27.734  1.00  0.00     0.049 A 
ATOM     47  N   UNL A   1      40.730  29.616  30.734  1.00  0.00    -0.248 NA
ATOM     48  C   UNL A   1      39.255  27.813  30.729  1.00  0.00     0.031 C 
ATOM     49  C   UNL A   1      40.670  28.821  26.298  1.00  0.00     0.029 A 
ATOM     50  N   UNL A   1      41.682  27.840  27.963  1.00  0.00    -0.354 N 
ATOM     51  C   UNL A   1      40.768  29.001  31.961  1.00  0.00     0.074 A 
ATOM     52  C   UNL A   1      39.654  28.080  31.974  1.00  0.00     0.031 C 
ATOM     53  C   UNL A   1      41.512  27.913  25.742  1.00  0.00     0.029 A 
ATOM     54  C   UNL A   1      42.229  27.249  26.819  1.00  0.00     0.049 A 
ATOM     55  H   UNL A   1      42.045  27.681  28.864  1.00  0.00     0.167 HD
ATOM     56  C   UNL A   1      41.878  29.097  32.740  1.00  0.00     0.034 A 
ATOM     57  C   UNL A   1      43.404  26.583  26.638  1.00  0.00     0.034 A 
ATOM     58  C   UNL A   1      42.801  30.094  32.242  1.00  0.00     0.049 A 
ATOM     59  C   UNL A   1      44.344  27.039  27.677  1.00  0.00     0.074 A 
ATOM     60  C   UNL A   1      42.709  31.441  31.942  1.00  0.00     0.029 A 
ATOM     61  N   UNL A   1      43.940  29.653  31.611  1.00  0.00    -0.354 N 
ATOM     62  N   UNL A   1      44.942  28.194  27.650  1.00  0.00    -0.248 NA
ATOM     63  C   UNL A   1      44.323  26.368  28.963  1.00  0.00     0.031 C 
ATOM     64  C   UNL A   1      43.544  31.641  30.806  1.00  0.00     0.029 A 
ATOM     65  C   UNL A   1      44.150  30.424  30.494  1.00  0.00     0.049 A 
ATOM     66  H   UNL A   1      44.510  28.908  31.910  1.00  0.00     0.167 HD
ATOM     67  C   UNL A   1      44.887  28.619  28.964  1.00  0.00     0.074 A 
ATOM     68  C   UNL A   1      44.631  27.408  29.741  1.00  0.00     0.031 C 
ATOM     69  C   UNL A   1      44.763  29.944  29.268  1.00  0.00     0.034 A 
BRANCH  56  70
ATOM     70  C   UNL A   1      42.248  28.033  33.731  1.00  0.00     0.023 A 
ATOM     71  C   UNL A   1      43.207  27.039  33.460  1.00  0.00     0.031 A 
ATOM     72  C   UNL A   1      41.765  28.083  35.047  1.00  0.00     0.131 A 
ATOM     73  C   UNL A   1      43.587  26.100  34.417  1.00  0.00     0.055 A 
ATOM     74  C   UNL A   1      42.212  27.200  36.036  1.00  0.00     0.041 A 
ATOM     75  F   UNL A   1      40.879  29.020  35.420  1.00  0.00    -0.206 F 
ATOM     76  C   UNL A   1      43.117  26.191  35.720  1.00  0.00     0.022 A 
BRANCH  73  77
ATOM     77  S   UNL A   1      44.686  24.734  33.956  1.00  0.00     0.124 S 
ATOM     78  O   UNL A   1      45.384  24.475  35.209  1.00  0.00    -0.237 OA
ATOM     79  O   UNL A   1      43.728  23.713  33.537  1.00  0.00    -0.237 OA
ATOM     80  O   UNL A   1      45.496  25.295  32.878  1.00  0.00    -0.744 OA
ENDBRANCH  73  77
ENDBRANCH  56  70
BRANCH  57  81
ATOM     81  C   UNL A   1      43.630  25.290  25.935  1.00  0.00     0.023 A 
ATOM     82  C   UNL A   1      42.839  24.169  26.240  1.00  0.00     0.031 A 
ATOM     83  C   UNL A   1      44.808  25.061  25.189  1.00  0.00     0.131 A 
ATOM     84  C   UNL A   1      43.275  22.879  25.888  1.00  0.00     0.055 A 
ATOM     85  C   UNL A   1      45.224  23.776  24.817  1.00  0.00     0.041 A 
ATOM     86  F   UNL A   1      45.621  26.079  24.866  1.00  0.00    -0.206 F 
ATOM     87  C   UNL A   1      44.464  22.673  25.186  1.00  0.00     0.022 A 
BRANCH  84  88
ATOM     88  S   UNL A   1      42.341  21.418  26.426  1.00  0.00     0.124 S 
ATOM     89  O   UNL A   1      42.393  21.534  27.882  1.00  0.00    -0.237 OA
ATOM     90  O   UNL A   1      41.036  21.664  25.823  1.00  0.00    -0.237 OA
ATOM     91  O   UNL A   1      43.101  20.306  25.867  1.00  0.00    -0.744 OA
ENDBRANCH  84  88
ENDBRANCH  57  81
BRANCH  69  92
ATOM     92  C   UNL A   1      45.045  30.977  28.188  1.00  0.00     0.023 A 
ATOM     93  C   UNL A   1      46.188  31.780  28.354  1.00  0.00     0.031 A 
ATOM     94  C   UNL A   1      44.176  31.313  27.129  1.00  0.00     0.131 A 
ATOM     95  C   UNL A   1      46.417  32.883  27.521  1.00  0.00     0.055 A 
ATOM     96  C   UNL A   1      44.445  32.374  26.253  1.00  0.00     0.041 A 
ATOM     97  F   UNL A   1      43.007  30.684  26.949  1.00  0.00    -0.206 F 
ATOM     98  C   UNL A   1      45.561  33.176  26.458  1.00  0.00     0.022 A 
BRANCH  95  99
ATOM     99  S   UNL A   1      47.754  34.049  27.893  1.00  0.00     0.124 S 
ATOM    100  O   UNL A   1      47.665  34.169  29.345  1.00  0.00    -0.237 OA
ATOM    101  O   UNL A   1      48.931  33.340  27.394  1.00  0.00    -0.237 OA
ATOM    102  O   UNL A   1      47.395  35.249  27.143  1.00  0.00    -0.744 OA
ENDBRANCH  95  99
ENDBRANCH  69  92
ENDBRANCH  43  44
ENDBRANCH  36  38
ENDBRANCH  35  36
ENDBRANCH  34  35
ENDBRANCH  33  34
ENDBRANCH  32  33
ENDBRANCH   1  32
TORSDOF 22
ENDMDL
MODEL 3
REMARK VINA RESULT:     -10.2      2.823      5.818
REMARK SMILES Cc1ccc2c(c1)c(-c1ccnc3c(C)cccc13)c(C)n2CC(=O)OCCOCCOCCOC(=O)c1ccc(-c2c3nc(c(-c4cc(S(=O)(=O)[O-])ccc4F)c4ccc([nH]4)c(-c4cc(S(=O)(=O)[O-])ccc4F)c4nc(c(-c5cc(S(=O)(=O)[O-])ccc5F)c5ccc2[nH]5)C=C4)C=C3)cc1
REMARK SMILES IDX 31 1 30 2 29 3 28 4 27 5 26 6 24 7 25 8 23 9 22 10 1 11 2 12
REMARK SMILES IDX 3 13 7 14 4 15 6 16 5 17 8 18 20 19 21 20 9 21 10 22 19 23
REMARK SMILES IDX 11 24 13 25 18 26 12 27 14 28 17 29 15 30 16 31 32 32 33 33
REMARK SMILES IDX 34 34 35 35 36 36 37 37 38 38 39 39 100 40 40 41 99 42 41 43
REMARK SMILES IDX 42 44 43 45 93 46 44 47 98 48 92 49 94 50 45 51 97 52 91 53
REMARK SMILES IDX 90 54 46 56 78 57 58 58 77 59 59 60 62 61 76 62 95 63 60 64
REMARK SMILES IDX 61 65 75 67 96 68 63 69 47 70 48 71 56 72 49 73 55 74 57 75
REMARK SMILES IDX 54 76 50 77 51 78 52 79 53 80 79 81 80 82 88 83 81 84 87 85
REMARK SMILES IDX 89 86 86 87 82 88 83 89 84 90 85 91 64 92 65 93 73 94 66 95
REMARK SMILES IDX 72 96 74 97 71 98 67 99 68 100 69 101 70 102
REMARK H PARENT 94 55 62 66
REMARK Flexibility Score: inf
ROOT
ATOM      1  C   UNL A   1      33.232  26.745  25.495  1.00  0.00     0.188 C 
ENDROOT
BRANCH   1   2
ATOM      2  C   UNL A   1      33.116  25.311  24.950  1.00  0.00     0.188 C 
BRANCH   2   3
ATOM      3  O   UNL A   1      33.596  25.005  23.655  1.00  0.00    -0.376 OA
BRANCH   3   4
ATOM      4  C   UNL A   1      33.736  23.639  23.316  1.00  0.00     0.202 C 
BRANCH   4   5
ATOM      5  C   UNL A   1      34.250  22.723  24.431  1.00  0.00     0.261 C 
BRANCH   5   6
ATOM      6  O   UNL A   1      35.346  21.887  23.978  1.00  0.00    -0.462 OA
BRANCH   6   7
ATOM      7  C   UNL A   1      36.590  22.383  24.212  1.00  0.00     0.326 C 
ATOM      8  O   UNL A   1      37.040  23.344  23.592  1.00  0.00    -0.250 OA
BRANCH   7   9
ATOM      9  C   UNL A   1      37.261  21.879  25.470  1.00  0.00     0.244 C 
BRANCH   9  10
ATOM     10  N   UNL A   1      38.686  22.046  25.737  1.00  0.00    -0.333 N 
ATOM     11  C   UNL A   1      41.414  25.771  28.927  1.00  0.00     0.044 C 
ATOM     12  C   UNL A   1      40.652  24.853  28.025  1.00  0.00    -0.050 A 
ATOM     13  C   UNL A   1      39.288  25.070  27.808  1.00  0.00     0.005 A 
ATOM     14  C   UNL A   1      41.308  23.775  27.407  1.00  0.00     0.014 A 
ATOM     15  C   UNL A   1      38.543  24.225  26.991  1.00  0.00     0.027 A 
ATOM     16  C   UNL A   1      40.559  22.856  26.654  1.00  0.00     0.008 A 
ATOM     17  C   UNL A   1      39.197  23.115  26.445  1.00  0.00     0.049 A 
ATOM     18  C   UNL A   1      40.842  21.584  26.092  1.00  0.00     0.011 A 
ATOM     19  C   UNL A   1      39.602  21.016  25.876  1.00  0.00     0.024 A 
ATOM     20  C   UNL A   1      39.282  19.580  25.927  1.00  0.00     0.065 C 
BRANCH  18  21
ATOM     21  C   UNL A   1      42.040  20.746  26.053  1.00  0.00    -0.005 A 
ATOM     22  C   UNL A   1      41.971  19.421  26.479  1.00  0.00     0.029 A 
ATOM     23  C   UNL A   1      43.207  21.215  25.394  1.00  0.00     0.008 A 
ATOM     24  C   UNL A   1      43.067  18.615  26.249  1.00  0.00     0.112 A 
ATOM     25  C   UNL A   1      44.285  20.313  25.223  1.00  0.00     0.074 A 
ATOM     26  C   UNL A   1      43.317  22.528  24.878  1.00  0.00     0.011 A 
ATOM     27  N   UNL A   1      44.206  19.037  25.657  1.00  0.00    -0.256 NA
ATOM     28  C   UNL A   1      45.441  20.771  24.568  1.00  0.00    -0.025 A 
ATOM     29  C   UNL A   1      44.463  22.960  24.226  1.00  0.00     0.001 A 
ATOM     30  C   UNL A   1      46.637  19.879  24.351  1.00  0.00     0.047 C 
ATOM     31  C   UNL A   1      45.526  22.086  24.076  1.00  0.00     0.005 A 
ENDBRANCH  18  21
ENDBRANCH   9  10
ENDBRANCH   7   9
ENDBRANCH   6   7
ENDBRANCH   5   6
ENDBRANCH   4   5
ENDBRANCH   3   4
ENDBRANCH   2   3
ENDBRANCH   1   2
BRANCH   1  32
ATOM     32  O   UNL A   1      32.629  27.053  26.736  1.00  0.00    -0.376 OA
BRANCH  32  33
ATOM     33  C   UNL A   1      32.290  28.416  26.950  1.00  0.00     0.202 C 
BRANCH  33  34
ATOM     34  C   UNL A   1      33.047  29.444  26.092  1.00  0.00     0.261 C 
BRANCH  34  35
ATOM     35  O   UNL A   1      34.430  29.558  26.509  1.00  0.00    -0.460 OA
BRANCH  35  36
ATOM     36  C   UNL A   1      34.709  30.565  27.389  1.00  0.00     0.338 C 
ATOM     37  O   UNL A   1      33.924  31.414  27.754  1.00  0.00    -0.246 OA
BRANCH  36  38
ATOM     38  C   UNL A   1      36.002  30.258  28.090  1.00  0.00     0.060 A 
ATOM     39  C   UNL A   1      36.738  31.182  28.842  1.00  0.00     0.016 A 
ATOM     40  C   UNL A   1      36.594  29.034  27.790  1.00  0.00     0.016 A 
ATOM     41  C   UNL A   1      38.123  30.985  29.070  1.00  0.00     0.010 A 
ATOM     42  C   UNL A   1      37.957  28.834  28.054  1.00  0.00     0.010 A 
ATOM     43  C   UNL A   1      38.778  29.848  28.581  1.00  0.00    -0.014 A 
BRANCH  43  44
ATOM     44  C   UNL A   1      40.188  29.508  28.916  1.00  0.00     0.031 A 
ATOM     45  C   UNL A   1      40.275  29.149  30.332  1.00  0.00     0.074 A 
ATOM     46  C   UNL A   1      41.378  29.448  28.260  1.00  0.00     0.049 A 
ATOM     47  N   UNL A   1      40.547  30.016  31.246  1.00  0.00    -0.248 NA
ATOM     48  C   UNL A   1      39.827  27.844  30.809  1.00  0.00     0.031 C 
ATOM     49  C   UNL A   1      41.690  29.801  26.892  1.00  0.00     0.029 A 
ATOM     50  N   UNL A   1      42.611  29.008  28.703  1.00  0.00    -0.354 N 
ATOM     51  C   UNL A   1      40.541  29.300  32.418  1.00  0.00     0.074 A 
ATOM     52  C   UNL A   1      39.839  28.070  32.124  1.00  0.00     0.031 C 
ATOM     53  C   UNL A   1      42.892  29.296  26.512  1.00  0.00     0.029 A 
ATOM     54  C   UNL A   1      43.554  28.776  27.697  1.00  0.00     0.049 A 
ATOM     55  H   UNL A   1      42.811  28.867  29.657  1.00  0.00     0.167 HD
ATOM     56  C   UNL A   1      41.360  29.657  33.442  1.00  0.00     0.034 A 
ATOM     57  C   UNL A   1      44.898  28.560  27.771  1.00  0.00     0.034 A 
ATOM     58  C   UNL A   1      41.960  30.956  33.224  1.00  0.00     0.049 A 
ATOM     59  C   UNL A   1      45.383  29.167  29.023  1.00  0.00     0.074 A 
ATOM     60  C   UNL A   1      41.470  32.224  32.971  1.00  0.00     0.029 A 
ATOM     61  N   UNL A   1      43.286  30.994  32.862  1.00  0.00    -0.354 N 
ATOM     62  N   UNL A   1      45.533  30.448  29.192  1.00  0.00    -0.248 NA
ATOM     63  C   UNL A   1      45.329  28.373  30.235  1.00  0.00     0.031 C 
ATOM     64  C   UNL A   1      42.400  32.826  32.077  1.00  0.00     0.029 A 
ATOM     65  C   UNL A   1      43.442  31.924  31.863  1.00  0.00     0.049 A 
ATOM     66  H   UNL A   1      44.004  30.447  33.254  1.00  0.00     0.167 HD
ATOM     67  C   UNL A   1      45.062  30.665  30.473  1.00  0.00     0.074 A 
ATOM     68  C   UNL A   1      45.088  29.351  31.111  1.00  0.00     0.031 C 
ATOM     69  C   UNL A   1      44.424  31.827  30.797  1.00  0.00     0.034 A 
BRANCH  56  70
ATOM     70  C   UNL A   1      41.862  28.660  34.444  1.00  0.00     0.023 A 
ATOM     71  C   UNL A   1      42.824  27.681  34.129  1.00  0.00     0.031 A 
ATOM     72  C   UNL A   1      41.508  28.765  35.797  1.00  0.00     0.131 A 
ATOM     73  C   UNL A   1      43.328  26.806  35.090  1.00  0.00     0.055 A 
ATOM     74  C   UNL A   1      42.081  27.950  36.779  1.00  0.00     0.041 A 
ATOM     75  F   UNL A   1      40.632  29.694  36.208  1.00  0.00    -0.206 F 
ATOM     76  C   UNL A   1      42.985  26.953  36.427  1.00  0.00     0.022 A 
BRANCH  73  77
ATOM     77  S   UNL A   1      44.423  25.450  34.590  1.00  0.00     0.124 S 
ATOM     78  O   UNL A   1      44.267  25.458  33.141  1.00  0.00    -0.237 OA
ATOM     79  O   UNL A   1      45.714  25.913  35.095  1.00  0.00    -0.237 OA
ATOM     80  O   UNL A   1      43.872  24.291  35.286  1.00  0.00    -0.744 OA
ENDBRANCH  73  77
ENDBRANCH  56  70
BRANCH  57  81
ATOM     81  C   UNL A   1      45.700  27.511  27.084  1.00  0.00     0.023 A 
ATOM     82  C   UNL A   1      46.553  27.852  26.021  1.00  0.00     0.031 A 
ATOM     83  C   UNL A   1      45.410  26.139  27.260  1.00  0.00     0.131 A 
ATOM     84  C   UNL A   1      47.005  26.861  25.130  1.00  0.00     0.055 A 
ATOM     85  C   UNL A   1      45.884  25.152  26.385  1.00  0.00     0.041 A 
ATOM     86  F   UNL A   1      44.595  25.733  28.247  1.00  0.00    -0.206 F 
ATOM     87  C   UNL A   1      46.671  25.516  25.300  1.00  0.00     0.022 A 
BRANCH  84  88
ATOM     88  S   UNL A   1      47.969  27.321  23.662  1.00  0.00     0.124 S 
ATOM     89  O   UNL A   1      47.081  28.268  22.991  1.00  0.00    -0.237 OA
ATOM     90  O   UNL A   1      49.165  27.900  24.264  1.00  0.00    -0.237 OA
ATOM     91  O   UNL A   1      48.155  26.050  22.970  1.00  0.00    -0.744 OA
ENDBRANCH  84  88
ENDBRANCH  57  81
BRANCH  69  92
ATOM     92  C   UNL A   1      44.547  33.021  29.864  1.00  0.00     0.023 A 
ATOM     93  C   UNL A   1      44.282  32.797  28.500  1.00  0.00     0.031 A 
ATOM     94  C   UNL A   1      45.066  34.285  30.214  1.00  0.00     0.131 A 
ATOM     95  C   UNL A   1      44.560  33.781  27.543  1.00  0.00     0.055 A 
ATOM     96  C   UNL A   1      45.277  35.293  29.263  1.00  0.00     0.041 A 
ATOM     97  F   UNL A   1      45.455  34.565  31.464  1.00  0.00    -0.206 F 
ATOM     98  C   UNL A   1      45.041  35.038  27.917  1.00  0.00     0.022 A 
BRANCH  95  99
ATOM     99  S   UNL A   1      44.444  33.399  25.776  1.00  0.00     0.124 S 
ATOM    100  O   UNL A   1      45.843  33.442  25.358  1.00  0.00    -0.237 OA
ATOM    101  O   UNL A   1      43.834  32.071  25.785  1.00  0.00    -0.237 OA
ATOM    102  O   UNL A   1      43.599  34.461  25.239  1.00  0.00    -0.744 OA
ENDBRANCH  95  99
ENDBRANCH  69  92
ENDBRANCH  43  44
ENDBRANCH  36  38
ENDBRANCH  35  36
ENDBRANCH  34  35
ENDBRANCH  33  34
ENDBRANCH  32  33
ENDBRANCH   1  32
TORSDOF 22
ENDMDL
