MODEL 1
REMARK VINA RESULT:     -10.8      0.000      0.000
REMARK SMILES C[C@@H](C(=O)OCCOCCOCCOC(=O)c1ccc(-c2c3nc(c(-c4cc(S(=O)(=O)[O-])ccc4F)c4ccc([nH]4)c(-c4cc(S(=O)(=O)[O-])ccc4F)c4nc(c(-c5cc(S(=O)(=O)[O-])ccc5F)c5ccc2[nH]5)C=C4)C=C3)cc1)c1ccc2c(c1)[nH]c1ccc(Cl)cc12
REMARK SMILES IDX 10 1 9 2 8 3 7 4 6 5 5 6 3 7 4 8 2 9 1 10 80 11 81 12 85 13
REMARK SMILES IDX 82 14 84 15 83 16 86 17 93 18 87 19 92 21 88 22 90 23 89 24
REMARK SMILES IDX 91 25 11 26 12 27 13 28 14 29 15 30 16 31 17 32 18 33 79 34
REMARK SMILES IDX 19 35 78 36 20 37 21 38 22 39 72 40 23 41 77 42 71 43 73 44
REMARK SMILES IDX 24 45 76 46 70 47 69 48 25 50 57 51 37 52 56 53 38 54 41 55
REMARK SMILES IDX 55 56 74 57 39 58 40 59 54 61 75 62 42 63 26 64 27 65 35 66
REMARK SMILES IDX 28 67 34 68 36 69 33 70 29 71 30 72 31 73 32 74 58 75 59 76
REMARK SMILES IDX 67 77 60 78 66 79 68 80 65 81 61 82 62 83 63 84 64 85 43 86
REMARK SMILES IDX 44 87 52 88 45 89 51 90 53 91 50 92 46 93 47 94 48 95 49 96
REMARK H PARENT 86 20 73 49 41 60
REMARK Flexibility Score: inf
ROOT
ATOM      1  C   UNL A   1      33.946  33.791  28.571  1.00  0.00     0.188 C 
ENDROOT
BRANCH   1   2
ATOM      2  C   UNL A   1      33.793  32.293  28.251  1.00  0.00     0.188 C 
BRANCH   2   3
ATOM      3  O   UNL A   1      34.899  31.586  27.697  1.00  0.00    -0.376 OA
BRANCH   3   4
ATOM      4  C   UNL A   1      34.769  30.197  27.421  1.00  0.00     0.202 C 
BRANCH   4   5
ATOM      5  C   UNL A   1      33.601  29.714  26.544  1.00  0.00     0.261 C 
BRANCH   5   6
ATOM      6  O   UNL A   1      33.626  28.311  26.213  1.00  0.00    -0.463 OA
BRANCH   6   7
ATOM      7  C   UNL A   1      33.311  27.969  24.932  1.00  0.00     0.313 C 
ATOM      8  O   UNL A   1      33.954  28.340  23.955  1.00  0.00    -0.252 OA
BRANCH   7   9
ATOM      9  C   UNL A   1      32.065  27.072  24.820  1.00  0.00     0.126 C 
ATOM     10  C   UNL A   1      31.147  27.142  26.058  1.00  0.00     0.025 C 
BRANCH   9  11
ATOM     11  C   UNL A   1      32.304  25.648  24.276  1.00  0.00    -0.032 A 
ATOM     12  C   UNL A   1      31.374  25.008  23.436  1.00  0.00     0.005 A 
ATOM     13  C   UNL A   1      33.382  24.879  24.762  1.00  0.00     0.031 A 
ATOM     14  C   UNL A   1      31.478  23.641  23.099  1.00  0.00     0.011 A 
ATOM     15  C   UNL A   1      33.428  23.505  24.482  1.00  0.00     0.047 A 
ATOM     16  C   UNL A   1      32.503  22.860  23.667  1.00  0.00     0.007 A 
ATOM     17  N   UNL A   1      34.286  22.544  24.957  1.00  0.00    -0.355 N 
ATOM     18  C   UNL A   1      32.824  21.459  23.678  1.00  0.00     0.009 A 
ATOM     19  C   UNL A   1      33.868  21.289  24.589  1.00  0.00     0.047 A 
ATOM     20  H   UNL A   1      35.092  22.730  25.490  1.00  0.00     0.167 HD
ATOM     21  C   UNL A   1      32.284  20.306  23.065  1.00  0.00     0.031 A 
ATOM     22  C   UNL A   1      34.336  20.036  24.999  1.00  0.00     0.028 A 
ATOM     23  C   UNL A   1      32.769  19.046  23.438  1.00  0.00     0.041 A 
ATOM     24  C   UNL A   1      33.755  18.909  24.413  1.00  0.00     0.022 A 
ATOM     25  Cl  UNL A   1      32.121  17.632  22.697  1.00  0.00    -0.084 Cl
ENDBRANCH   9  11
ENDBRANCH   7   9
ENDBRANCH   6   7
ENDBRANCH   5   6
ENDBRANCH   4   5
ENDBRANCH   3   4
ENDBRANCH   2   3
ENDBRANCH   1   2
BRANCH   1  26
ATOM     26  O   UNL A   1      35.091  34.111  29.331  1.00  0.00    -0.376 OA
BRANCH  26  27
ATOM     27  C   UNL A   1      34.895  34.596  30.646  1.00  0.00     0.202 C 
BRANCH  27  28
ATOM     28  C   UNL A   1      34.157  33.715  31.671  1.00  0.00     0.261 C 
BRANCH  28  29
ATOM     29  O   UNL A   1      34.702  32.410  31.925  1.00  0.00    -0.460 OA
BRANCH  29  30
ATOM     30  C   UNL A   1      35.778  32.336  32.750  1.00  0.00     0.338 C 
ATOM     31  O   UNL A   1      35.806  32.630  33.927  1.00  0.00    -0.246 OA
BRANCH  30  32
ATOM     32  C   UNL A   1      36.844  31.600  32.023  1.00  0.00     0.060 A 
ATOM     33  C   UNL A   1      37.891  31.018  32.754  1.00  0.00     0.016 A 
ATOM     34  C   UNL A   1      36.796  31.458  30.635  1.00  0.00     0.016 A 
ATOM     35  C   UNL A   1      38.899  30.307  32.097  1.00  0.00     0.010 A 
ATOM     36  C   UNL A   1      37.820  30.768  29.977  1.00  0.00     0.010 A 
ATOM     37  C   UNL A   1      38.891  30.209  30.700  1.00  0.00    -0.014 A 
BRANCH  37  38
ATOM     38  C   UNL A   1      40.091  29.701  29.984  1.00  0.00     0.031 A 
ATOM     39  C   UNL A   1      41.262  30.632  29.811  1.00  0.00     0.074 A 
ATOM     40  C   UNL A   1      40.156  28.444  29.507  1.00  0.00     0.049 A 
ATOM     41  N   UNL A   1      42.374  30.461  29.148  1.00  0.00    -0.248 NA
ATOM     42  C   UNL A   1      41.151  31.940  30.475  1.00  0.00     0.031 C 
ATOM     43  C   UNL A   1      39.118  27.427  29.661  1.00  0.00     0.029 A 
ATOM     44  N   UNL A   1      41.140  27.811  28.786  1.00  0.00    -0.354 N 
ATOM     45  C   UNL A   1      43.091  31.642  29.300  1.00  0.00     0.074 A 
ATOM     46  C   UNL A   1      42.271  32.532  30.093  1.00  0.00     0.031 C 
ATOM     47  C   UNL A   1      39.518  26.300  29.046  1.00  0.00     0.029 A 
ATOM     48  C   UNL A   1      40.818  26.527  28.415  1.00  0.00     0.049 A 
ATOM     49  H   UNL A   1      41.997  28.239  28.558  1.00  0.00     0.167 HD
ATOM     50  C   UNL A   1      44.321  31.957  28.822  1.00  0.00     0.034 A 
ATOM     51  C   UNL A   1      41.481  25.650  27.630  1.00  0.00     0.034 A 
ATOM     52  C   UNL A   1      45.124  31.063  28.023  1.00  0.00     0.049 A 
ATOM     53  C   UNL A   1      42.806  26.061  27.023  1.00  0.00     0.074 A 
ATOM     54  C   UNL A   1      46.385  31.281  27.495  1.00  0.00     0.029 A 
ATOM     55  N   UNL A   1      44.741  29.790  27.623  1.00  0.00    -0.354 N 
ATOM     56  N   UNL A   1      43.469  27.188  27.160  1.00  0.00    -0.248 NA
ATOM     57  C   UNL A   1      43.468  25.083  26.147  1.00  0.00     0.031 C 
ATOM     58  C   UNL A   1      46.724  30.179  26.702  1.00  0.00     0.029 A 
ATOM     59  C   UNL A   1      45.722  29.229  26.817  1.00  0.00     0.049 A 
ATOM     60  H   UNL A   1      43.897  29.348  27.874  1.00  0.00     0.167 HD
ATOM     61  C   UNL A   1      44.643  27.032  26.423  1.00  0.00     0.074 A 
ATOM     62  C   UNL A   1      44.600  25.704  25.851  1.00  0.00     0.031 C 
ATOM     63  C   UNL A   1      45.667  27.906  26.241  1.00  0.00     0.034 A 
BRANCH  50  64
ATOM     64  C   UNL A   1      44.837  33.349  29.096  1.00  0.00     0.023 A 
ATOM     65  C   UNL A   1      45.540  33.667  30.270  1.00  0.00     0.031 A 
ATOM     66  C   UNL A   1      44.594  34.383  28.174  1.00  0.00     0.131 A 
ATOM     67  C   UNL A   1      45.913  34.996  30.524  1.00  0.00     0.055 A 
ATOM     68  C   UNL A   1      45.045  35.686  28.393  1.00  0.00     0.041 A 
ATOM     69  F   UNL A   1      43.904  34.148  27.047  1.00  0.00    -0.206 F 
ATOM     70  C   UNL A   1      45.696  36.002  29.580  1.00  0.00     0.022 A 
BRANCH  67  71
ATOM     71  S   UNL A   1      46.550  35.418  32.170  1.00  0.00     0.124 S 
ATOM     72  O   UNL A   1      47.190  36.707  31.918  1.00  0.00    -0.237 OA
ATOM     73  O   UNL A   1      45.338  35.455  32.979  1.00  0.00    -0.237 OA
ATOM     74  O   UNL A   1      47.471  34.325  32.473  1.00  0.00    -0.744 OA
ENDBRANCH  67  71
ENDBRANCH  50  64
BRANCH  51  75
ATOM     75  C   UNL A   1      40.897  24.310  27.317  1.00  0.00     0.023 A 
ATOM     76  C   UNL A   1      39.736  24.185  26.538  1.00  0.00     0.031 A 
ATOM     77  C   UNL A   1      41.448  23.137  27.866  1.00  0.00     0.131 A 
ATOM     78  C   UNL A   1      39.133  22.927  26.373  1.00  0.00     0.055 A 
ATOM     79  C   UNL A   1      40.882  21.880  27.643  1.00  0.00     0.041 A 
ATOM     80  F   UNL A   1      42.549  23.195  28.632  1.00  0.00    -0.206 F 
ATOM     81  C   UNL A   1      39.709  21.772  26.906  1.00  0.00     0.022 A 
BRANCH  78  82
ATOM     82  S   UNL A   1      37.519  22.834  25.549  1.00  0.00     0.124 S 
ATOM     83  O   UNL A   1      37.415  21.409  25.259  1.00  0.00    -0.237 OA
ATOM     84  O   UNL A   1      36.621  23.348  26.578  1.00  0.00    -0.237 OA
ATOM     85  O   UNL A   1      37.683  23.698  24.382  1.00  0.00    -0.744 OA
ENDBRANCH  78  82
ENDBRANCH  51  75
BRANCH  63  86
ATOM     86  C   UNL A   1      46.854  27.431  25.432  1.00  0.00     0.023 A 
ATOM     87  C   UNL A   1      47.076  27.853  24.109  1.00  0.00     0.031 A 
ATOM     88  C   UNL A   1      47.782  26.537  26.001  1.00  0.00     0.131 A 
ATOM     89  C   UNL A   1      48.162  27.339  23.382  1.00  0.00     0.055 A 
ATOM     90  C   UNL A   1      48.897  26.084  25.296  1.00  0.00     0.041 A 
ATOM     91  F   UNL A   1      47.623  26.097  27.259  1.00  0.00    -0.206 F 
ATOM     92  C   UNL A   1      49.085  26.474  23.974  1.00  0.00     0.022 A 
BRANCH  89  93
ATOM     93  S   UNL A   1      48.302  27.739  21.618  1.00  0.00     0.124 S 
ATOM     94  O   UNL A   1      49.342  28.763  21.620  1.00  0.00    -0.237 OA
ATOM     95  O   UNL A   1      48.675  26.454  21.034  1.00  0.00    -0.237 OA
ATOM     96  O   UNL A   1      46.965  28.213  21.265  1.00  0.00    -0.744 OA
ENDBRANCH  89  93
ENDBRANCH  63  86
ENDBRANCH  37  38
ENDBRANCH  30  32
ENDBRANCH  29  30
ENDBRANCH  28  29
ENDBRANCH  27  28
ENDBRANCH  26  27
ENDBRANCH   1  26
TORSDOF 21
ENDMDL
MODEL 2
REMARK VINA RESULT:     -10.7      4.753      6.925
REMARK SMILES C[C@@H](C(=O)OCCOCCOCCOC(=O)c1ccc(-c2c3nc(c(-c4cc(S(=O)(=O)[O-])ccc4F)c4ccc([nH]4)c(-c4cc(S(=O)(=O)[O-])ccc4F)c4nc(c(-c5cc(S(=O)(=O)[O-])ccc5F)c5ccc2[nH]5)C=C4)C=C3)cc1)c1ccc2c(c1)[nH]c1ccc(Cl)cc12
REMARK SMILES IDX 10 1 9 2 8 3 7 4 6 5 5 6 3 7 4 8 2 9 1 10 80 11 81 12 85 13
REMARK SMILES IDX 82 14 84 15 83 16 86 17 93 18 87 19 92 21 88 22 90 23 89 24
REMARK SMILES IDX 91 25 11 26 12 27 13 28 14 29 15 30 16 31 17 32 18 33 79 34
REMARK SMILES IDX 19 35 78 36 20 37 21 38 22 39 72 40 23 41 77 42 71 43 73 44
REMARK SMILES IDX 24 45 76 46 70 47 69 48 25 50 57 51 37 52 56 53 38 54 41 55
REMARK SMILES IDX 55 56 74 57 39 58 40 59 54 61 75 62 42 63 26 64 27 65 35 66
REMARK SMILES IDX 28 67 34 68 36 69 33 70 29 71 30 72 31 73 32 74 58 75 59 76
REMARK SMILES IDX 67 77 60 78 66 79 68 80 65 81 61 82 62 83 63 84 64 85 43 86
REMARK SMILES IDX 44 87 52 88 45 89 51 90 53 91 50 92 46 93 47 94 48 95 49 96
REMARK H PARENT 86 20 73 49 41 60
REMARK Flexibility Score: inf
ROOT
ATOM      1  C   UNL A   1      31.922  30.564  26.270  1.00  0.00     0.188 C 
ENDROOT
BRANCH   1   2
ATOM      2  C   UNL A   1      32.398  29.814  25.013  1.00  0.00     0.188 C 
BRANCH   2   3
ATOM      3  O   UNL A   1      31.639  28.706  24.538  1.00  0.00    -0.376 OA
BRANCH   3   4
ATOM      4  C   UNL A   1      31.647  28.401  23.149  1.00  0.00     0.202 C 
BRANCH   4   5
ATOM      5  C   UNL A   1      30.829  27.202  22.640  1.00  0.00     0.261 C 
BRANCH   5   6
ATOM      6  O   UNL A   1      31.577  26.232  21.879  1.00  0.00    -0.463 OA
BRANCH   6   7
ATOM      7  C   UNL A   1      32.785  25.849  22.378  1.00  0.00     0.313 C 
ATOM      8  O   UNL A   1      33.814  25.815  21.709  1.00  0.00    -0.252 OA
BRANCH   7   9
ATOM      9  C   UNL A   1      32.744  25.456  23.865  1.00  0.00     0.126 C 
ATOM     10  C   UNL A   1      33.881  26.085  24.697  1.00  0.00     0.025 C 
BRANCH   9  11
ATOM     11  C   UNL A   1      32.479  23.965  24.164  1.00  0.00    -0.032 A 
ATOM     12  C   UNL A   1      32.737  23.403  25.428  1.00  0.00     0.005 A 
ATOM     13  C   UNL A   1      32.141  23.085  23.115  1.00  0.00     0.031 A 
ATOM     14  C   UNL A   1      32.695  22.011  25.658  1.00  0.00     0.011 A 
ATOM     15  C   UNL A   1      32.180  21.700  23.340  1.00  0.00     0.047 A 
ATOM     16  C   UNL A   1      32.452  21.135  24.582  1.00  0.00     0.007 A 
ATOM     17  N   UNL A   1      32.034  20.665  22.449  1.00  0.00    -0.355 N 
ATOM     18  C   UNL A   1      32.482  19.709  24.408  1.00  0.00     0.009 A 
ATOM     19  C   UNL A   1      32.335  19.464  23.041  1.00  0.00     0.047 A 
ATOM     20  H   UNL A   1      31.751  20.771  21.513  1.00  0.00     0.167 HD
ATOM     21  C   UNL A   1      32.695  18.603  25.260  1.00  0.00     0.031 A 
ATOM     22  C   UNL A   1      32.488  18.198  22.465  1.00  0.00     0.028 A 
ATOM     23  C   UNL A   1      32.812  17.324  24.701  1.00  0.00     0.041 A 
ATOM     24  C   UNL A   1      32.744  17.127  23.324  1.00  0.00     0.022 A 
ATOM     25  Cl  UNL A   1      33.070  15.966  25.731  1.00  0.00    -0.084 Cl
ENDBRANCH   9  11
ENDBRANCH   7   9
ENDBRANCH   6   7
ENDBRANCH   5   6
ENDBRANCH   4   5
ENDBRANCH   3   4
ENDBRANCH   2   3
ENDBRANCH   1   2
BRANCH   1  26
ATOM     26  O   UNL A   1      31.032  31.629  26.012  1.00  0.00    -0.376 OA
BRANCH  26  27
ATOM     27  C   UNL A   1      31.395  32.917  26.473  1.00  0.00     0.202 C 
BRANCH  27  28
ATOM     28  C   UNL A   1      32.678  33.085  27.308  1.00  0.00     0.261 C 
BRANCH  28  29
ATOM     29  O   UNL A   1      32.626  34.006  28.411  1.00  0.00    -0.460 OA
BRANCH  29  30
ATOM     30  C   UNL A   1      33.729  34.765  28.638  1.00  0.00     0.338 C 
ATOM     31  O   UNL A   1      33.766  35.975  28.722  1.00  0.00    -0.246 OA
BRANCH  30  32
ATOM     32  C   UNL A   1      34.832  33.842  29.013  1.00  0.00     0.060 A 
ATOM     33  C   UNL A   1      34.528  32.667  29.716  1.00  0.00     0.016 A 
ATOM     34  C   UNL A   1      36.150  34.118  28.646  1.00  0.00     0.016 A 
ATOM     35  C   UNL A   1      35.543  31.773  30.068  1.00  0.00     0.010 A 
ATOM     36  C   UNL A   1      37.169  33.235  29.022  1.00  0.00     0.010 A 
ATOM     37  C   UNL A   1      36.876  32.070  29.756  1.00  0.00    -0.014 A 
BRANCH  37  38
ATOM     38  C   UNL A   1      37.976  31.273  30.362  1.00  0.00     0.031 A 
ATOM     39  C   UNL A   1      38.379  31.585  31.779  1.00  0.00     0.074 A 
ATOM     40  C   UNL A   1      38.598  30.289  29.688  1.00  0.00     0.049 A 
ATOM     41  N   UNL A   1      39.363  31.103  32.493  1.00  0.00    -0.248 NA
ATOM     42  C   UNL A   1      37.560  32.587  32.479  1.00  0.00     0.031 C 
ATOM     43  C   UNL A   1      38.262  29.850  28.335  1.00  0.00     0.029 A 
ATOM     44  N   UNL A   1      39.652  29.485  30.049  1.00  0.00    -0.354 N 
ATOM     45  C   UNL A   1      39.292  31.752  33.721  1.00  0.00     0.074 A 
ATOM     46  C   UNL A   1      38.188  32.684  33.640  1.00  0.00     0.031 C 
ATOM     47  C   UNL A   1      39.100  28.860  27.979  1.00  0.00     0.029 A 
ATOM     48  C   UNL A   1      40.061  28.625  29.056  1.00  0.00     0.049 A 
ATOM     49  H   UNL A   1      40.075  29.521  30.938  1.00  0.00     0.167 HD
ATOM     50  C   UNL A   1      40.076  31.586  34.814  1.00  0.00     0.034 A 
ATOM     51  C   UNL A   1      41.108  27.774  29.013  1.00  0.00     0.034 A 
ATOM     52  C   UNL A   1      41.181  30.661  34.877  1.00  0.00     0.049 A 
ATOM     53  C   UNL A   1      42.031  27.680  30.209  1.00  0.00     0.074 A 
ATOM     54  C   UNL A   1      42.034  30.410  35.938  1.00  0.00     0.029 A 
ATOM     55  N   UNL A   1      41.598  29.845  33.833  1.00  0.00    -0.354 N 
ATOM     56  N   UNL A   1      41.966  28.310  31.361  1.00  0.00    -0.248 NA
ATOM     57  C   UNL A   1      43.177  26.765  30.095  1.00  0.00     0.031 C 
ATOM     58  C   UNL A   1      43.018  29.515  35.508  1.00  0.00     0.029 A 
ATOM     59  C   UNL A   1      42.723  29.126  34.211  1.00  0.00     0.049 A 
ATOM     60  H   UNL A   1      41.160  29.785  32.953  1.00  0.00     0.167 HD
ATOM     61  C   UNL A   1      43.035  27.832  32.119  1.00  0.00     0.074 A 
ATOM     62  C   UNL A   1      43.723  26.860  31.297  1.00  0.00     0.031 C 
ATOM     63  C   UNL A   1      43.410  28.163  33.382  1.00  0.00     0.034 A 
BRANCH  50  64
ATOM     64  C   UNL A   1      39.805  32.475  36.005  1.00  0.00     0.023 A 
ATOM     65  C   UNL A   1      38.940  32.090  37.043  1.00  0.00     0.031 A 
ATOM     66  C   UNL A   1      40.404  33.746  36.084  1.00  0.00     0.131 A 
ATOM     67  C   UNL A   1      38.644  32.990  38.077  1.00  0.00     0.055 A 
ATOM     68  C   UNL A   1      40.172  34.603  37.162  1.00  0.00     0.041 A 
ATOM     69  F   UNL A   1      41.217  34.182  35.110  1.00  0.00    -0.206 F 
ATOM     70  C   UNL A   1      39.276  34.233  38.159  1.00  0.00     0.022 A 
BRANCH  67  71
ATOM     71  S   UNL A   1      37.307  32.576  39.231  1.00  0.00     0.124 S 
ATOM     72  O   UNL A   1      36.122  32.804  38.407  1.00  0.00    -0.237 OA
ATOM     73  O   UNL A   1      37.594  31.186  39.564  1.00  0.00    -0.237 OA
ATOM     74  O   UNL A   1      37.488  33.529  40.324  1.00  0.00    -0.744 OA
ENDBRANCH  67  71
ENDBRANCH  50  64
BRANCH  51  75
ATOM     75  C   UNL A   1      41.389  26.970  27.784  1.00  0.00     0.023 A 
ATOM     76  C   UNL A   1      41.096  25.598  27.728  1.00  0.00     0.031 A 
ATOM     77  C   UNL A   1      42.034  27.549  26.675  1.00  0.00     0.131 A 
ATOM     78  C   UNL A   1      41.495  24.840  26.614  1.00  0.00     0.055 A 
ATOM     79  C   UNL A   1      42.368  26.805  25.542  1.00  0.00     0.041 A 
ATOM     80  F   UNL A   1      42.353  28.853  26.678  1.00  0.00    -0.206 F 
ATOM     81  C   UNL A   1      42.113  25.439  25.513  1.00  0.00     0.022 A 
BRANCH  78  82
ATOM     82  S   UNL A   1      41.300  23.037  26.670  1.00  0.00     0.124 S 
ATOM     83  O   UNL A   1      39.898  22.878  26.303  1.00  0.00    -0.237 OA
ATOM     84  O   UNL A   1      42.278  22.594  25.682  1.00  0.00    -0.237 OA
ATOM     85  O   UNL A   1      41.624  22.703  28.056  1.00  0.00    -0.744 OA
ENDBRANCH  78  82
ENDBRANCH  51  75
BRANCH  63  86
ATOM     86  C   UNL A   1      44.590  27.425  33.975  1.00  0.00     0.023 A 
ATOM     87  C   UNL A   1      44.466  26.141  34.533  1.00  0.00     0.031 A 
ATOM     88  C   UNL A   1      45.865  28.023  33.978  1.00  0.00     0.131 A 
ATOM     89  C   UNL A   1      45.581  25.522  35.121  1.00  0.00     0.055 A 
ATOM     90  C   UNL A   1      46.983  27.373  34.502  1.00  0.00     0.041 A 
ATOM     91  F   UNL A   1      46.047  29.249  33.461  1.00  0.00    -0.206 F 
ATOM     92  C   UNL A   1      46.843  26.121  35.091  1.00  0.00     0.022 A 
BRANCH  89  93
ATOM     93  S   UNL A   1      45.345  23.961  36.016  1.00  0.00     0.124 S 
ATOM     94  O   UNL A   1      46.251  23.064  35.307  1.00  0.00    -0.237 OA
ATOM     95  O   UNL A   1      45.737  24.317  37.376  1.00  0.00    -0.237 OA
ATOM     96  O   UNL A   1      43.923  23.674  35.838  1.00  0.00    -0.744 OA
ENDBRANCH  89  93
ENDBRANCH  63  86
ENDBRANCH  37  38
ENDBRANCH  30  32
ENDBRANCH  29  30
ENDBRANCH  28  29
ENDBRANCH  27  28
ENDBRANCH  26  27
ENDBRANCH   1  26
TORSDOF 21
ENDMDL
MODEL 3
REMARK VINA RESULT:     -10.6      2.084      2.483
REMARK SMILES C[C@@H](C(=O)OCCOCCOCCOC(=O)c1ccc(-c2c3nc(c(-c4cc(S(=O)(=O)[O-])ccc4F)c4ccc([nH]4)c(-c4cc(S(=O)(=O)[O-])ccc4F)c4nc(c(-c5cc(S(=O)(=O)[O-])ccc5F)c5ccc2[nH]5)C=C4)C=C3)cc1)c1ccc2c(c1)[nH]c1ccc(Cl)cc12
REMARK SMILES IDX 10 1 9 2 8 3 7 4 6 5 5 6 3 7 4 8 2 9 1 10 80 11 81 12 85 13
REMARK SMILES IDX 82 14 84 15 83 16 86 17 93 18 87 19 92 21 88 22 90 23 89 24
REMARK SMILES IDX 91 25 11 26 12 27 13 28 14 29 15 30 16 31 17 32 18 33 79 34
REMARK SMILES IDX 19 35 78 36 20 37 21 38 22 39 72 40 23 41 77 42 71 43 73 44
REMARK SMILES IDX 24 45 76 46 70 47 69 48 25 50 57 51 37 52 56 53 38 54 41 55
REMARK SMILES IDX 55 56 74 57 39 58 40 59 54 61 75 62 42 63 26 64 27 65 35 66
REMARK SMILES IDX 28 67 34 68 36 69 33 70 29 71 30 72 31 73 32 74 58 75 59 76
REMARK SMILES IDX 67 77 60 78 66 79 68 80 65 81 61 82 62 83 63 84 64 85 43 86
REMARK SMILES IDX 44 87 52 88 45 89 51 90 53 91 50 92 46 93 47 94 48 95 49 96
REMARK H PARENT 86 20 73 49 41 60
REMARK Flexibility Score: inf
ROOT
ATOM      1  C   UNL A   1      33.703  33.111  27.845  1.00  0.00     0.188 C 
ENDROOT
BRANCH   1   2
ATOM      2  C   UNL A   1      33.665  31.579  27.690  1.00  0.00     0.188 C 
BRANCH   2   3
ATOM      3  O   UNL A   1      34.875  30.881  27.413  1.00  0.00    -0.376 OA
BRANCH   3   4
ATOM      4  C   UNL A   1      34.844  29.467  27.266  1.00  0.00     0.202 C 
BRANCH   4   5
ATOM      5  C   UNL A   1      33.923  28.845  26.202  1.00  0.00     0.261 C 
BRANCH   5   6
ATOM      6  O   UNL A   1      33.796  27.410  26.269  1.00  0.00    -0.463 OA
BRANCH   6   7
ATOM      7  C   UNL A   1      33.450  26.763  25.121  1.00  0.00     0.313 C 
ATOM      8  O   UNL A   1      34.136  26.776  24.103  1.00  0.00    -0.252 OA
BRANCH   7   9
ATOM      9  C   UNL A   1      32.110  26.012  25.215  1.00  0.00     0.126 C 
ATOM     10  C   UNL A   1      31.127  26.635  26.228  1.00  0.00     0.025 C 
BRANCH   9  11
ATOM     11  C   UNL A   1      32.200  24.472  25.271  1.00  0.00    -0.032 A 
ATOM     12  C   UNL A   1      33.008  23.809  26.213  1.00  0.00     0.005 A 
ATOM     13  C   UNL A   1      31.612  23.694  24.252  1.00  0.00     0.031 A 
ATOM     14  C   UNL A   1      33.260  22.422  26.147  1.00  0.00     0.011 A 
ATOM     15  C   UNL A   1      31.935  22.332  24.155  1.00  0.00     0.047 A 
ATOM     16  C   UNL A   1      32.747  21.671  25.071  1.00  0.00     0.007 A 
ATOM     17  N   UNL A   1      31.606  21.422  23.180  1.00  0.00    -0.355 N 
ATOM     18  C   UNL A   1      32.913  20.322  24.605  1.00  0.00     0.009 A 
ATOM     19  C   UNL A   1      32.283  20.243  23.361  1.00  0.00     0.047 A 
ATOM     20  H   UNL A   1      30.969  21.594  22.450  1.00  0.00     0.167 HD
ATOM     21  C   UNL A   1      33.599  19.180  25.075  1.00  0.00     0.031 A 
ATOM     22  C   UNL A   1      32.382  19.130  22.518  1.00  0.00     0.028 A 
ATOM     23  C   UNL A   1      33.673  18.045  24.258  1.00  0.00     0.041 A 
ATOM     24  C   UNL A   1      33.104  18.031  22.986  1.00  0.00     0.022 A 
ATOM     25  Cl  UNL A   1      34.505  16.645  24.820  1.00  0.00    -0.084 Cl
ENDBRANCH   9  11
ENDBRANCH   7   9
ENDBRANCH   6   7
ENDBRANCH   5   6
ENDBRANCH   4   5
ENDBRANCH   3   4
ENDBRANCH   2   3
ENDBRANCH   1   2
BRANCH   1  26
ATOM     26  O   UNL A   1      34.971  33.632  28.177  1.00  0.00    -0.376 OA
BRANCH  26  27
ATOM     27  C   UNL A   1      35.102  34.313  29.411  1.00  0.00     0.202 C 
BRANCH  27  28
ATOM     28  C   UNL A   1      34.297  33.824  30.630  1.00  0.00     0.261 C 
BRANCH  28  29
ATOM     29  O   UNL A   1      34.520  32.472  31.062  1.00  0.00    -0.460 OA
BRANCH  29  30
ATOM     30  C   UNL A   1      35.425  32.278  32.055  1.00  0.00     0.338 C 
ATOM     31  O   UNL A   1      35.260  32.504  33.236  1.00  0.00    -0.246 OA
BRANCH  30  32
ATOM     32  C   UNL A   1      36.560  31.512  31.477  1.00  0.00     0.060 A 
ATOM     33  C   UNL A   1      37.579  31.058  32.327  1.00  0.00     0.016 A 
ATOM     34  C   UNL A   1      36.602  31.217  30.114  1.00  0.00     0.016 A 
ATOM     35  C   UNL A   1      38.651  30.322  31.813  1.00  0.00     0.010 A 
ATOM     36  C   UNL A   1      37.689  30.503  29.596  1.00  0.00     0.010 A 
ATOM     37  C   UNL A   1      38.732  30.072  30.438  1.00  0.00    -0.014 A 
BRANCH  37  38
ATOM     38  C   UNL A   1      39.991  29.539  29.853  1.00  0.00     0.031 A 
ATOM     39  C   UNL A   1      41.175  30.464  29.755  1.00  0.00     0.074 A 
ATOM     40  C   UNL A   1      40.097  28.266  29.430  1.00  0.00     0.049 A 
ATOM     41  N   UNL A   1      42.343  30.270  29.202  1.00  0.00    -0.248 NA
ATOM     42  C   UNL A   1      41.007  31.796  30.359  1.00  0.00     0.031 C 
ATOM     43  C   UNL A   1      39.046  27.255  29.525  1.00  0.00     0.029 A 
ATOM     44  N   UNL A   1      41.141  27.609  28.825  1.00  0.00    -0.354 N 
ATOM     45  C   UNL A   1      43.046  31.457  29.377  1.00  0.00     0.074 A 
ATOM     46  C   UNL A   1      42.159  32.375  30.059  1.00  0.00     0.031 C 
ATOM     47  C   UNL A   1      39.498  26.107  28.990  1.00  0.00     0.029 A 
ATOM     48  C   UNL A   1      40.851  26.311  28.472  1.00  0.00     0.049 A 
ATOM     49  H   UNL A   1      42.016  28.028  28.661  1.00  0.00     0.167 HD
ATOM     50  C   UNL A   1      44.315  31.755  29.003  1.00  0.00     0.034 A 
ATOM     51  C   UNL A   1      41.581  25.408  27.784  1.00  0.00     0.034 A 
ATOM     52  C   UNL A   1      45.185  30.834  28.313  1.00  0.00     0.049 A 
ATOM     53  C   UNL A   1      42.957  25.798  27.286  1.00  0.00     0.074 A 
ATOM     54  C   UNL A   1      46.490  31.033  27.895  1.00  0.00     0.029 A 
ATOM     55  N   UNL A   1      44.838  29.547  27.926  1.00  0.00    -0.354 N 
ATOM     56  N   UNL A   1      43.607  26.929  27.443  1.00  0.00    -0.248 NA
ATOM     57  C   UNL A   1      43.693  24.789  26.510  1.00  0.00     0.031 C 
ATOM     58  C   UNL A   1      46.898  29.905  27.177  1.00  0.00     0.029 A 
ATOM     59  C   UNL A   1      45.887  28.959  27.233  1.00  0.00     0.049 A 
ATOM     60  H   UNL A   1      43.974  29.114  28.114  1.00  0.00     0.167 HD
ATOM     61  C   UNL A   1      44.843  26.747  26.822  1.00  0.00     0.074 A 
ATOM     62  C   UNL A   1      44.849  25.400  26.296  1.00  0.00     0.031 C 
ATOM     63  C   UNL A   1      45.882  27.615  26.703  1.00  0.00     0.034 A 
BRANCH  50  64
ATOM     64  C   UNL A   1      44.808  33.157  29.272  1.00  0.00     0.023 A 
ATOM     65  C   UNL A   1      44.507  34.231  28.417  1.00  0.00     0.031 A 
ATOM     66  C   UNL A   1      45.619  33.415  30.392  1.00  0.00     0.131 A 
ATOM     67  C   UNL A   1      45.070  35.494  28.656  1.00  0.00     0.055 A 
ATOM     68  C   UNL A   1      46.104  34.693  30.672  1.00  0.00     0.041 A 
ATOM     69  F   UNL A   1      45.964  32.424  31.230  1.00  0.00    -0.206 F 
ATOM     70  C   UNL A   1      45.843  35.739  29.794  1.00  0.00     0.022 A 
BRANCH  67  71
ATOM     71  S   UNL A   1      44.903  36.774  27.381  1.00  0.00     0.124 S 
ATOM     72  O   UNL A   1      44.961  37.996  28.178  1.00  0.00    -0.237 OA
ATOM     73  O   UNL A   1      46.053  36.517  26.523  1.00  0.00    -0.237 OA
ATOM     74  O   UNL A   1      43.601  36.493  26.780  1.00  0.00    -0.744 OA
ENDBRANCH  67  71
ENDBRANCH  50  64
BRANCH  51  75
ATOM     75  C   UNL A   1      41.024  24.057  27.467  1.00  0.00     0.023 A 
ATOM     76  C   UNL A   1      39.918  23.905  26.616  1.00  0.00     0.031 A 
ATOM     77  C   UNL A   1      41.543  22.901  28.080  1.00  0.00     0.131 A 
ATOM     78  C   UNL A   1      39.332  22.640  26.445  1.00  0.00     0.055 A 
ATOM     79  C   UNL A   1      40.999  21.635  27.853  1.00  0.00     0.041 A 
ATOM     80  F   UNL A   1      42.591  22.985  28.915  1.00  0.00    -0.206 F 
ATOM     81  C   UNL A   1      39.877  21.502  27.043  1.00  0.00     0.022 A 
BRANCH  78  82
ATOM     82  S   UNL A   1      37.776  22.517  25.519  1.00  0.00     0.124 S 
ATOM     83  O   UNL A   1      37.780  23.765  24.764  1.00  0.00    -0.237 OA
ATOM     84  O   UNL A   1      37.978  21.296  24.746  1.00  0.00    -0.237 OA
ATOM     85  O   UNL A   1      36.762  22.426  26.568  1.00  0.00    -0.744 OA
ENDBRANCH  78  82
ENDBRANCH  51  75
BRANCH  63  86
ATOM     86  C   UNL A   1      47.136  27.112  26.023  1.00  0.00     0.023 A 
ATOM     87  C   UNL A   1      48.142  26.422  26.723  1.00  0.00     0.031 A 
ATOM     88  C   UNL A   1      47.325  27.329  24.645  1.00  0.00     0.131 A 
ATOM     89  C   UNL A   1      49.313  26.026  26.056  1.00  0.00     0.055 A 
ATOM     90  C   UNL A   1      48.460  26.871  23.974  1.00  0.00     0.041 A 
ATOM     91  F   UNL A   1      46.401  27.983  23.922  1.00  0.00    -0.206 F 
ATOM     92  C   UNL A   1      49.469  26.227  24.683  1.00  0.00     0.022 A 
BRANCH  89  93
ATOM     93  S   UNL A   1      50.678  25.326  27.027  1.00  0.00     0.124 S 
ATOM     94  O   UNL A   1      51.604  24.899  25.983  1.00  0.00    -0.237 OA
ATOM     95  O   UNL A   1      51.107  26.466  27.831  1.00  0.00    -0.237 OA
ATOM     96  O   UNL A   1      50.046  24.243  27.778  1.00  0.00    -0.744 OA
ENDBRANCH  89  93
ENDBRANCH  63  86
ENDBRANCH  37  38
ENDBRANCH  30  32
ENDBRANCH  29  30
ENDBRANCH  28  29
ENDBRANCH  27  28
ENDBRANCH  26  27
ENDBRANCH   1  26
TORSDOF 21
ENDMDL
