MODEL 1
REMARK VINA RESULT:     -11.1      0.000      0.000
REMARK SMILES CC(=O)Nc1ccc(/C=C2/CCc3oc(C(=O)OCCOCCOCCOC(=O)c4ccc(-c5c6nc(c(-c7cc(S(=O)(=O)[O-])ccc7F)c7ccc([nH]7)c(-c7cc(S(=O)(=O)[O-])ccc7F)c7nc(c(-c8cc(S(=O)(=O)[O-])ccc8F)c8ccc5[nH]8)C=C7)C=C6)cc4)c(C)c3C2=O)cc1
REMARK SMILES IDX 23 1 22 2 21 3 20 4 19 5 18 6 16 7 17 8 15 9 9 10 10 11
REMARK SMILES IDX 11 12 96 13 12 14 95 15 97 16 13 17 93 18 14 19 94 20 8 21
REMARK SMILES IDX 5 22 6 23 99 24 7 25 98 26 4 27 1 28 2 29 3 30 24 32 25 33
REMARK SMILES IDX 26 34 27 35 28 36 29 37 30 38 31 39 92 40 32 41 91 42 33 43
REMARK SMILES IDX 34 44 35 45 85 46 36 47 90 48 84 49 86 50 37 51 89 52 83 53
REMARK SMILES IDX 82 54 38 56 70 57 50 58 69 59 51 60 54 61 68 62 87 63 52 64
REMARK SMILES IDX 53 65 67 67 88 68 55 69 39 70 40 71 48 72 41 73 47 74 49 75
REMARK SMILES IDX 46 76 42 77 43 78 44 79 45 80 71 81 72 82 80 83 73 84 79 85
REMARK SMILES IDX 81 86 78 87 74 88 75 89 76 90 77 91 56 92 57 93 65 94 58 95
REMARK SMILES IDX 64 96 66 97 63 98 59 99 60 100 61 101 62 102
REMARK H PARENT 4 31 86 55 54 66
REMARK Flexibility Score: inf
ROOT
ATOM      1  C   UNL A   1      42.873  39.897  28.700  1.00  0.00     0.188 C 
ENDROOT
BRANCH   1   2
ATOM      2  C   UNL A   1      43.141  40.998  27.645  1.00  0.00     0.188 C 
BRANCH   2   3
ATOM      3  O   UNL A   1      42.870  40.846  26.254  1.00  0.00    -0.376 OA
BRANCH   3   4
ATOM      4  C   UNL A   1      43.747  41.389  25.287  1.00  0.00     0.202 C 
BRANCH   4   5
ATOM      5  C   UNL A   1      43.309  42.722  24.664  1.00  0.00     0.261 C 
BRANCH   5   6
ATOM      6  O   UNL A   1      43.505  42.820  23.245  1.00  0.00    -0.457 OA
BRANCH   6   7
ATOM      7  C   UNL A   1      42.495  42.329  22.469  1.00  0.00     0.374 C 
ATOM      8  O   UNL A   1      41.690  41.477  22.830  1.00  0.00    -0.242 OA
BRANCH   7   9
ATOM      9  C   UNL A   1      42.449  43.016  21.191  1.00  0.00     0.215 A 
ATOM     10  C   UNL A   1      42.346  46.985  17.104  1.00  0.00     0.016 C 
ATOM     11  C   UNL A   1      42.320  45.682  17.453  1.00  0.00     0.001 C 
ATOM     12  C   UNL A   1      41.077  44.830  17.198  1.00  0.00     0.048 C 
ATOM     13  C   UNL A   1      43.400  44.933  18.189  1.00  0.00     0.192 C 
ATOM     14  C   UNL A   1      40.431  44.365  18.525  1.00  0.00     0.081 C 
ATOM     15  C   UNL A   1      42.864  44.167  19.299  1.00  0.00     0.067 A 
ATOM     16  O   UNL A   1      44.580  44.935  17.863  1.00  0.00    -0.289 OA
ATOM     17  C   UNL A   1      41.515  43.946  19.443  1.00  0.00     0.116 A 
ATOM     18  C   UNL A   1      43.485  43.484  20.381  1.00  0.00     0.014 A 
ATOM     19  O   UNL A   1      41.238  43.269  20.583  1.00  0.00    -0.453 OA
ATOM     20  C   UNL A   1      44.946  43.301  20.584  1.00  0.00     0.049 C 
BRANCH  10  21
ATOM     21  C   UNL A   1      43.271  48.112  17.372  1.00  0.00    -0.025 A 
ATOM     22  C   UNL A   1      45.130  50.260  17.578  1.00  0.00     0.041 A 
ATOM     23  C   UNL A   1      43.955  50.251  18.328  1.00  0.00     0.027 A 
ATOM     24  C   UNL A   1      45.412  49.158  16.780  1.00  0.00     0.027 A 
ATOM     25  C   UNL A   1      43.029  49.202  18.208  1.00  0.00     0.010 A 
ATOM     26  C   UNL A   1      44.498  48.099  16.683  1.00  0.00     0.010 A 
BRANCH  22  27
ATOM     27  N   UNL A   1      45.981  51.368  17.713  1.00  0.00    -0.326 N 
ATOM     28  C   UNL A   1      47.621  50.468  19.357  1.00  0.00     0.114 C 
ATOM     29  C   UNL A   1      47.024  51.600  18.565  1.00  0.00     0.221 C 
ATOM     30  O   UNL A   1      47.515  52.729  18.622  1.00  0.00    -0.275 OA
ATOM     31  H   UNL A   1      45.794  52.105  17.087  1.00  0.00     0.169 HD
ENDBRANCH  22  27
ENDBRANCH  10  21
ENDBRANCH   7   9
ENDBRANCH   6   7
ENDBRANCH   5   6
ENDBRANCH   4   5
ENDBRANCH   3   4
ENDBRANCH   2   3
ENDBRANCH   1   2
BRANCH   1  32
ATOM     32  O   UNL A   1      43.458  40.100  29.980  1.00  0.00    -0.376 OA
BRANCH  32  33
ATOM     33  C   UNL A   1      44.381  39.108  30.410  1.00  0.00     0.202 C 
BRANCH  33  34
ATOM     34  C   UNL A   1      45.387  38.721  29.333  1.00  0.00     0.261 C 
BRANCH  34  35
ATOM     35  O   UNL A   1      45.037  37.544  28.615  1.00  0.00    -0.460 OA
BRANCH  35  36
ATOM     36  C   UNL A   1      46.050  36.697  28.338  1.00  0.00     0.338 C 
ATOM     37  O   UNL A   1      47.136  36.973  27.863  1.00  0.00    -0.246 OA
BRANCH  36  38
ATOM     38  C   UNL A   1      45.602  35.337  28.640  1.00  0.00     0.060 A 
ATOM     39  C   UNL A   1      44.834  34.672  27.680  1.00  0.00     0.016 A 
ATOM     40  C   UNL A   1      45.725  34.875  29.957  1.00  0.00     0.016 A 
ATOM     41  C   UNL A   1      44.022  33.635  28.091  1.00  0.00     0.010 A 
ATOM     42  C   UNL A   1      44.898  33.864  30.370  1.00  0.00     0.010 A 
ATOM     43  C   UNL A   1      44.000  33.316  29.449  1.00  0.00    -0.014 A 
BRANCH  43  44
ATOM     44  C   UNL A   1      42.954  32.454  29.958  1.00  0.00     0.031 A 
ATOM     45  C   UNL A   1      41.669  33.113  30.269  1.00  0.00     0.074 A 
ATOM     46  C   UNL A   1      43.125  31.116  29.894  1.00  0.00     0.049 A 
ATOM     47  N   UNL A   1      40.949  32.976  31.331  1.00  0.00    -0.248 NA
ATOM     48  C   UNL A   1      41.155  34.119  29.325  1.00  0.00     0.031 C 
ATOM     49  C   UNL A   1      44.284  30.411  29.331  1.00  0.00     0.029 A 
ATOM     50  N   UNL A   1      42.238  30.112  30.140  1.00  0.00    -0.354 N 
ATOM     51  C   UNL A   1      39.790  33.706  31.098  1.00  0.00     0.074 A 
ATOM     52  C   UNL A   1      40.043  34.516  29.939  1.00  0.00     0.031 C 
ATOM     53  C   UNL A   1      43.930  29.141  29.051  1.00  0.00     0.029 A 
ATOM     54  C   UNL A   1      42.559  28.927  29.483  1.00  0.00     0.049 A 
ATOM     55  H   UNL A   1      41.452  30.213  30.723  1.00  0.00     0.167 HD
ATOM     56  C   UNL A   1      38.630  33.417  31.741  1.00  0.00     0.034 A 
ATOM     57  C   UNL A   1      41.728  27.891  29.200  1.00  0.00     0.034 A 
ATOM     58  C   UNL A   1      38.871  32.668  32.950  1.00  0.00     0.049 A 
ATOM     59  C   UNL A   1      40.574  27.985  30.129  1.00  0.00     0.074 A 
ATOM     60  C   UNL A   1      39.639  32.899  34.076  1.00  0.00     0.029 A 
ATOM     61  N   UNL A   1      38.568  31.325  32.974  1.00  0.00    -0.354 N 
ATOM     62  N   UNL A   1      40.670  27.823  31.421  1.00  0.00    -0.248 NA
ATOM     63  C   UNL A   1      39.385  28.705  29.692  1.00  0.00     0.031 C 
ATOM     64  C   UNL A   1      40.162  31.625  34.435  1.00  0.00     0.029 A 
ATOM     65  C   UNL A   1      39.636  30.681  33.552  1.00  0.00     0.049 A 
ATOM     66  H   UNL A   1      37.743  30.906  32.641  1.00  0.00     0.167 HD
ATOM     67  C   UNL A   1      39.828  28.779  31.968  1.00  0.00     0.074 A 
ATOM     68  C   UNL A   1      38.970  29.198  30.863  1.00  0.00     0.031 C 
ATOM     69  C   UNL A   1      40.098  29.356  33.177  1.00  0.00     0.034 A 
BRANCH  56  70
ATOM     70  C   UNL A   1      37.267  33.542  31.109  1.00  0.00     0.023 A 
ATOM     71  C   UNL A   1      36.351  34.418  31.716  1.00  0.00     0.031 A 
ATOM     72  C   UNL A   1      36.730  32.664  30.137  1.00  0.00     0.131 A 
ATOM     73  C   UNL A   1      34.980  34.344  31.422  1.00  0.00     0.055 A 
ATOM     74  C   UNL A   1      35.378  32.652  29.786  1.00  0.00     0.041 A 
ATOM     75  F   UNL A   1      37.455  31.704  29.548  1.00  0.00    -0.206 F 
ATOM     76  C   UNL A   1      34.487  33.473  30.452  1.00  0.00     0.022 A 
BRANCH  73  77
ATOM     77  S   UNL A   1      33.830  35.258  32.478  1.00  0.00     0.124 S 
ATOM     78  O   UNL A   1      34.726  35.788  33.500  1.00  0.00    -0.237 OA
ATOM     79  O   UNL A   1      33.273  36.230  31.542  1.00  0.00    -0.237 OA
ATOM     80  O   UNL A   1      32.902  34.229  32.937  1.00  0.00    -0.744 OA
ENDBRANCH  73  77
ENDBRANCH  56  70
BRANCH  57  81
ATOM     81  C   UNL A   1      41.784  26.995  28.010  1.00  0.00     0.023 A 
ATOM     82  C   UNL A   1      42.211  25.655  28.093  1.00  0.00     0.031 A 
ATOM     83  C   UNL A   1      41.223  27.398  26.772  1.00  0.00     0.131 A 
ATOM     84  C   UNL A   1      42.099  24.799  26.972  1.00  0.00     0.055 A 
ATOM     85  C   UNL A   1      41.151  26.561  25.658  1.00  0.00     0.041 A 
ATOM     86  F   UNL A   1      40.644  28.599  26.622  1.00  0.00    -0.206 F 
ATOM     87  C   UNL A   1      41.586  25.252  25.754  1.00  0.00     0.022 A 
BRANCH  84  88
ATOM     88  S   UNL A   1      42.501  23.031  27.122  1.00  0.00     0.124 S 
ATOM     89  O   UNL A   1      41.517  22.571  28.095  1.00  0.00    -0.237 OA
ATOM     90  O   UNL A   1      42.336  22.552  25.754  1.00  0.00    -0.237 OA
ATOM     91  O   UNL A   1      43.885  23.038  27.601  1.00  0.00    -0.744 OA
ENDBRANCH  84  88
ENDBRANCH  57  81
BRANCH  69  92
ATOM     92  C   UNL A   1      41.154  28.729  34.067  1.00  0.00     0.023 A 
ATOM     93  C   UNL A   1      40.916  27.645  34.941  1.00  0.00     0.031 A 
ATOM     94  C   UNL A   1      42.486  29.154  33.908  1.00  0.00     0.131 A 
ATOM     95  C   UNL A   1      41.987  27.040  35.625  1.00  0.00     0.055 A 
ATOM     96  C   UNL A   1      43.547  28.536  34.568  1.00  0.00     0.041 A 
ATOM     97  F   UNL A   1      42.785  30.157  33.064  1.00  0.00    -0.206 F 
ATOM     98  C   UNL A   1      43.301  27.479  35.436  1.00  0.00     0.022 A 
BRANCH  95  99
ATOM     99  S   UNL A   1      41.683  25.666  36.782  1.00  0.00     0.124 S 
ATOM    100  O   UNL A   1      40.532  26.118  37.555  1.00  0.00    -0.237 OA
ATOM    101  O   UNL A   1      41.451  24.540  35.882  1.00  0.00    -0.237 OA
ATOM    102  O   UNL A   1      42.931  25.583  37.545  1.00  0.00    -0.744 OA
ENDBRANCH  95  99
ENDBRANCH  69  92
ENDBRANCH  43  44
ENDBRANCH  36  38
ENDBRANCH  35  36
ENDBRANCH  34  35
ENDBRANCH  33  34
ENDBRANCH  32  33
ENDBRANCH   1  32
TORSDOF 22
ENDMDL
MODEL 2
REMARK VINA RESULT:     -11.0      8.476     15.271
REMARK SMILES CC(=O)Nc1ccc(/C=C2/CCc3oc(C(=O)OCCOCCOCCOC(=O)c4ccc(-c5c6nc(c(-c7cc(S(=O)(=O)[O-])ccc7F)c7ccc([nH]7)c(-c7cc(S(=O)(=O)[O-])ccc7F)c7nc(c(-c8cc(S(=O)(=O)[O-])ccc8F)c8ccc5[nH]8)C=C7)C=C6)cc4)c(C)c3C2=O)cc1
REMARK SMILES IDX 23 1 22 2 21 3 20 4 19 5 18 6 16 7 17 8 15 9 9 10 10 11
REMARK SMILES IDX 11 12 96 13 12 14 95 15 97 16 13 17 93 18 14 19 94 20 8 21
REMARK SMILES IDX 5 22 6 23 99 24 7 25 98 26 4 27 1 28 2 29 3 30 24 32 25 33
REMARK SMILES IDX 26 34 27 35 28 36 29 37 30 38 31 39 92 40 32 41 91 42 33 43
REMARK SMILES IDX 34 44 35 45 85 46 36 47 90 48 84 49 86 50 37 51 89 52 83 53
REMARK SMILES IDX 82 54 38 56 70 57 50 58 69 59 51 60 54 61 68 62 87 63 52 64
REMARK SMILES IDX 53 65 67 67 88 68 55 69 39 70 40 71 48 72 41 73 47 74 49 75
REMARK SMILES IDX 46 76 42 77 43 78 44 79 45 80 71 81 72 82 80 83 73 84 79 85
REMARK SMILES IDX 81 86 78 87 74 88 75 89 76 90 77 91 56 92 57 93 65 94 58 95
REMARK SMILES IDX 64 96 66 97 63 98 59 99 60 100 61 101 62 102
REMARK H PARENT 4 31 86 55 54 66
REMARK Flexibility Score: inf
ROOT
ATOM      1  C   UNL A   1      33.169  35.059  28.947  1.00  0.00     0.188 C 
ENDROOT
BRANCH   1   2
ATOM      2  C   UNL A   1      34.080  33.828  28.716  1.00  0.00     0.188 C 
BRANCH   2   3
ATOM      3  O   UNL A   1      33.708  32.705  27.921  1.00  0.00    -0.376 OA
BRANCH   3   4
ATOM      4  C   UNL A   1      32.417  32.620  27.352  1.00  0.00     0.202 C 
BRANCH   4   5
ATOM      5  C   UNL A   1      32.076  31.289  26.668  1.00  0.00     0.261 C 
BRANCH   5   6
ATOM      6  O   UNL A   1      32.502  30.116  27.379  1.00  0.00    -0.457 OA
BRANCH   6   7
ATOM      7  C   UNL A   1      33.620  29.500  26.895  1.00  0.00     0.374 C 
ATOM      8  O   UNL A   1      34.753  29.667  27.332  1.00  0.00    -0.242 OA
BRANCH   7   9
ATOM      9  C   UNL A   1      33.272  28.553  25.851  1.00  0.00     0.215 A 
ATOM     10  C   UNL A   1      32.883  23.907  22.575  1.00  0.00     0.016 C 
ATOM     11  C   UNL A   1      32.529  25.187  22.815  1.00  0.00     0.001 C 
ATOM     12  C   UNL A   1      32.941  26.305  21.857  1.00  0.00     0.048 C 
ATOM     13  C   UNL A   1      31.806  25.699  24.033  1.00  0.00     0.192 C 
ATOM     14  C   UNL A   1      33.918  27.295  22.534  1.00  0.00     0.081 C 
ATOM     15  C   UNL A   1      32.459  26.868  24.595  1.00  0.00     0.067 A 
ATOM     16  O   UNL A   1      30.770  25.217  24.469  1.00  0.00    -0.289 OA
ATOM     17  C   UNL A   1      33.430  27.557  23.908  1.00  0.00     0.116 A 
ATOM     18  C   UNL A   1      32.284  27.567  25.821  1.00  0.00     0.014 A 
ATOM     19  O   UNL A   1      33.946  28.566  24.648  1.00  0.00    -0.453 OA
ATOM     20  C   UNL A   1      31.242  27.299  26.847  1.00  0.00     0.049 C 
BRANCH  10  21
ATOM     21  C   UNL A   1      32.828  22.651  23.359  1.00  0.00    -0.025 A 
ATOM     22  C   UNL A   1      32.753  20.084  24.591  1.00  0.00     0.041 A 
ATOM     23  C   UNL A   1      33.343  21.172  25.232  1.00  0.00     0.027 A 
ATOM     24  C   UNL A   1      32.133  20.296  23.366  1.00  0.00     0.027 A 
ATOM     25  C   UNL A   1      33.399  22.432  24.613  1.00  0.00     0.010 A 
ATOM     26  C   UNL A   1      32.166  21.562  22.763  1.00  0.00     0.010 A 
BRANCH  22  27
ATOM     27  N   UNL A   1      32.782  18.845  25.251  1.00  0.00    -0.326 N 
ATOM     28  C   UNL A   1      34.787  17.823  24.184  1.00  0.00     0.114 C 
ATOM     29  C   UNL A   1      33.559  17.739  25.049  1.00  0.00     0.221 C 
ATOM     30  O   UNL A   1      33.281  16.693  25.640  1.00  0.00    -0.275 OA
ATOM     31  H   UNL A   1      32.132  18.759  25.985  1.00  0.00     0.169 HD
ENDBRANCH  22  27
ENDBRANCH  10  21
ENDBRANCH   7   9
ENDBRANCH   6   7
ENDBRANCH   5   6
ENDBRANCH   4   5
ENDBRANCH   3   4
ENDBRANCH   2   3
ENDBRANCH   1   2
BRANCH   1  32
ATOM     32  O   UNL A   1      32.491  35.109  30.196  1.00  0.00    -0.376 OA
BRANCH  32  33
ATOM     33  C   UNL A   1      32.894  36.144  31.085  1.00  0.00     0.202 C 
BRANCH  33  34
ATOM     34  C   UNL A   1      33.241  35.633  32.477  1.00  0.00     0.261 C 
BRANCH  34  35
ATOM     35  O   UNL A   1      34.475  34.926  32.540  1.00  0.00    -0.460 OA
BRANCH  35  36
ATOM     36  C   UNL A   1      34.387  33.580  32.531  1.00  0.00     0.338 C 
ATOM     37  O   UNL A   1      33.578  32.888  33.121  1.00  0.00    -0.246 OA
BRANCH  36  38
ATOM     38  C   UNL A   1      35.494  33.056  31.732  1.00  0.00     0.060 A 
ATOM     39  C   UNL A   1      35.607  31.669  31.599  1.00  0.00     0.016 A 
ATOM     40  C   UNL A   1      36.527  33.932  31.372  1.00  0.00     0.016 A 
ATOM     41  C   UNL A   1      36.840  31.137  31.283  1.00  0.00     0.010 A 
ATOM     42  C   UNL A   1      37.757  33.403  31.086  1.00  0.00     0.010 A 
ATOM     43  C   UNL A   1      37.914  32.014  31.127  1.00  0.00    -0.014 A 
BRANCH  43  44
ATOM     44  C   UNL A   1      39.262  31.486  31.097  1.00  0.00     0.031 A 
ATOM     45  C   UNL A   1      39.993  31.510  32.380  1.00  0.00     0.074 A 
ATOM     46  C   UNL A   1      39.670  30.808  30.003  1.00  0.00     0.049 A 
ATOM     47  N   UNL A   1      41.202  31.909  32.592  1.00  0.00    -0.248 NA
ATOM     48  C   UNL A   1      39.269  31.125  33.602  1.00  0.00     0.031 C 
ATOM     49  C   UNL A   1      38.870  30.521  28.806  1.00  0.00     0.029 A 
ATOM     50  N   UNL A   1      40.805  30.081  29.802  1.00  0.00    -0.354 N 
ATOM     51  C   UNL A   1      41.465  31.625  33.926  1.00  0.00     0.074 A 
ATOM     52  C   UNL A   1      40.203  31.308  34.533  1.00  0.00     0.031 C 
ATOM     53  C   UNL A   1      39.435  29.496  28.137  1.00  0.00     0.029 A 
ATOM     54  C   UNL A   1      40.663  29.112  28.812  1.00  0.00     0.049 A 
ATOM     55  H   UNL A   1      41.638  30.225  30.304  1.00  0.00     0.167 HD
ATOM     56  C   UNL A   1      42.734  31.448  34.375  1.00  0.00     0.034 A 
ATOM     57  C   UNL A   1      41.426  28.003  28.629  1.00  0.00     0.034 A 
ATOM     58  C   UNL A   1      43.697  32.046  33.482  1.00  0.00     0.049 A 
ATOM     59  C   UNL A   1      42.720  28.241  29.316  1.00  0.00     0.074 A 
ATOM     60  C   UNL A   1      43.868  33.323  32.982  1.00  0.00     0.029 A 
ATOM     61  N   UNL A   1      44.461  31.227  32.681  1.00  0.00    -0.354 N 
ATOM     62  N   UNL A   1      43.583  29.146  28.940  1.00  0.00    -0.248 NA
ATOM     63  C   UNL A   1      42.871  27.788  30.692  1.00  0.00     0.031 C 
ATOM     64  C   UNL A   1      44.311  33.141  31.643  1.00  0.00     0.029 A 
ATOM     65  C   UNL A   1      44.447  31.770  31.418  1.00  0.00     0.049 A 
ATOM     66  H   UNL A   1      44.929  30.408  32.960  1.00  0.00     0.167 HD
ATOM     67  C   UNL A   1      44.071  29.689  30.118  1.00  0.00     0.074 A 
ATOM     68  C   UNL A   1      43.700  28.730  31.155  1.00  0.00     0.031 C 
ATOM     69  C   UNL A   1      44.463  30.996  30.190  1.00  0.00     0.034 A 
BRANCH  56  70
ATOM     70  C   UNL A   1      43.113  30.465  35.454  1.00  0.00     0.023 A 
ATOM     71  C   UNL A   1      43.677  30.984  36.631  1.00  0.00     0.031 A 
ATOM     72  C   UNL A   1      43.212  29.063  35.287  1.00  0.00     0.131 A 
ATOM     73  C   UNL A   1      44.368  30.151  37.526  1.00  0.00     0.055 A 
ATOM     74  C   UNL A   1      43.827  28.227  36.222  1.00  0.00     0.041 A 
ATOM     75  F   UNL A   1      42.815  28.436  34.172  1.00  0.00    -0.206 F 
ATOM     76  C   UNL A   1      44.438  28.773  37.336  1.00  0.00     0.022 A 
BRANCH  73  77
ATOM     77  S   UNL A   1      45.349  30.930  38.832  1.00  0.00     0.124 S 
ATOM     78  O   UNL A   1      44.448  30.836  39.975  1.00  0.00    -0.237 OA
ATOM     79  O   UNL A   1      46.530  30.073  38.869  1.00  0.00    -0.237 OA
ATOM     80  O   UNL A   1      45.573  32.282  38.324  1.00  0.00    -0.744 OA
ENDBRANCH  73  77
ENDBRANCH  56  70
BRANCH  57  81
ATOM     81  C   UNL A   1      40.977  26.682  28.105  1.00  0.00     0.023 A 
ATOM     82  C   UNL A   1      41.797  25.873  27.294  1.00  0.00     0.031 A 
ATOM     83  C   UNL A   1      39.771  26.093  28.561  1.00  0.00     0.131 A 
ATOM     84  C   UNL A   1      41.390  24.562  26.951  1.00  0.00     0.055 A 
ATOM     85  C   UNL A   1      39.357  24.814  28.188  1.00  0.00     0.041 A 
ATOM     86  F   UNL A   1      38.986  26.707  29.460  1.00  0.00    -0.206 F 
ATOM     87  C   UNL A   1      40.170  24.038  27.382  1.00  0.00     0.022 A 
BRANCH  84  88
ATOM     88  S   UNL A   1      42.516  23.461  26.038  1.00  0.00     0.124 S 
ATOM     89  O   UNL A   1      41.627  22.380  25.629  1.00  0.00    -0.237 OA
ATOM     90  O   UNL A   1      43.015  24.329  24.978  1.00  0.00    -0.237 OA
ATOM     91  O   UNL A   1      43.514  23.091  27.043  1.00  0.00    -0.744 OA
ENDBRANCH  84  88
ENDBRANCH  57  81
BRANCH  69  92
ATOM     92  C   UNL A   1      44.656  31.773  28.901  1.00  0.00     0.023 A 
ATOM     93  C   UNL A   1      43.916  32.924  28.548  1.00  0.00     0.031 A 
ATOM     94  C   UNL A   1      45.734  31.416  28.072  1.00  0.00     0.131 A 
ATOM     95  C   UNL A   1      44.259  33.660  27.398  1.00  0.00     0.055 A 
ATOM     96  C   UNL A   1      46.086  32.161  26.947  1.00  0.00     0.041 A 
ATOM     97  F   UNL A   1      46.501  30.352  28.370  1.00  0.00    -0.206 F 
ATOM     98  C   UNL A   1      45.344  33.284  26.601  1.00  0.00     0.022 A 
BRANCH  95  99
ATOM     99  S   UNL A   1      43.286  35.123  26.917  1.00  0.00     0.124 S 
ATOM    100  O   UNL A   1      42.226  35.174  27.917  1.00  0.00    -0.237 OA
ATOM    101  O   UNL A   1      44.277  36.195  26.976  1.00  0.00    -0.237 OA
ATOM    102  O   UNL A   1      42.829  34.796  25.564  1.00  0.00    -0.744 OA
ENDBRANCH  95  99
ENDBRANCH  69  92
ENDBRANCH  43  44
ENDBRANCH  36  38
ENDBRANCH  35  36
ENDBRANCH  34  35
ENDBRANCH  33  34
ENDBRANCH  32  33
ENDBRANCH   1  32
TORSDOF 22
ENDMDL
MODEL 3
REMARK VINA RESULT:     -10.4      9.311     15.126
REMARK SMILES CC(=O)Nc1ccc(/C=C2/CCc3oc(C(=O)OCCOCCOCCOC(=O)c4ccc(-c5c6nc(c(-c7cc(S(=O)(=O)[O-])ccc7F)c7ccc([nH]7)c(-c7cc(S(=O)(=O)[O-])ccc7F)c7nc(c(-c8cc(S(=O)(=O)[O-])ccc8F)c8ccc5[nH]8)C=C7)C=C6)cc4)c(C)c3C2=O)cc1
REMARK SMILES IDX 23 1 22 2 21 3 20 4 19 5 18 6 16 7 17 8 15 9 9 10 10 11
REMARK SMILES IDX 11 12 96 13 12 14 95 15 97 16 13 17 93 18 14 19 94 20 8 21
REMARK SMILES IDX 5 22 6 23 99 24 7 25 98 26 4 27 1 28 2 29 3 30 24 32 25 33
REMARK SMILES IDX 26 34 27 35 28 36 29 37 30 38 31 39 92 40 32 41 91 42 33 43
REMARK SMILES IDX 34 44 35 45 85 46 36 47 90 48 84 49 86 50 37 51 89 52 83 53
REMARK SMILES IDX 82 54 38 56 70 57 50 58 69 59 51 60 54 61 68 62 87 63 52 64
REMARK SMILES IDX 53 65 67 67 88 68 55 69 39 70 40 71 48 72 41 73 47 74 49 75
REMARK SMILES IDX 46 76 42 77 43 78 44 79 45 80 71 81 72 82 80 83 73 84 79 85
REMARK SMILES IDX 81 86 78 87 74 88 75 89 76 90 77 91 56 92 57 93 65 94 58 95
REMARK SMILES IDX 64 96 66 97 63 98 59 99 60 100 61 101 62 102
REMARK H PARENT 4 31 86 55 54 66
REMARK Flexibility Score: inf
ROOT
ATOM      1  C   UNL A   1      40.437  28.052  28.788  1.00  0.00     0.188 C 
ENDROOT
BRANCH   1   2
ATOM      2  C   UNL A   1      39.654  26.716  28.818  1.00  0.00     0.188 C 
BRANCH   2   3
ATOM      3  O   UNL A   1      40.221  25.456  28.468  1.00  0.00    -0.376 OA
BRANCH   3   4
ATOM      4  C   UNL A   1      40.164  24.986  27.136  1.00  0.00     0.202 C 
BRANCH   4   5
ATOM      5  C   UNL A   1      39.699  23.533  26.962  1.00  0.00     0.261 C 
BRANCH   5   6
ATOM      6  O   UNL A   1      38.428  23.378  26.313  1.00  0.00    -0.457 OA
BRANCH   6   7
ATOM      7  C   UNL A   1      38.145  22.125  25.850  1.00  0.00     0.374 C 
ATOM      8  O   UNL A   1      38.934  21.187  25.847  1.00  0.00    -0.242 OA
BRANCH   7   9
ATOM      9  C   UNL A   1      36.753  22.030  25.446  1.00  0.00     0.215 A 
ATOM     10  C   UNL A   1      31.232  23.088  24.517  1.00  0.00     0.016 C 
ATOM     11  C   UNL A   1      32.285  22.252  24.406  1.00  0.00     0.001 C 
ATOM     12  C   UNL A   1      32.305  20.918  25.152  1.00  0.00     0.048 C 
ATOM     13  C   UNL A   1      33.565  22.522  23.660  1.00  0.00     0.192 C 
ATOM     14  C   UNL A   1      33.423  20.886  26.221  1.00  0.00     0.081 C 
ATOM     15  C   UNL A   1      34.733  22.212  24.464  1.00  0.00     0.067 A 
ATOM     16  O   UNL A   1      33.615  22.912  22.501  1.00  0.00    -0.289 OA
ATOM     17  C   UNL A   1      34.640  21.494  25.632  1.00  0.00     0.116 A 
ATOM     18  C   UNL A   1      36.118  22.483  24.288  1.00  0.00     0.014 A 
ATOM     19  O   UNL A   1      35.839  21.384  26.250  1.00  0.00    -0.453 OA
ATOM     20  C   UNL A   1      36.748  23.109  23.095  1.00  0.00     0.049 C 
BRANCH  10  21
ATOM     21  C   UNL A   1      30.974  24.490  24.110  1.00  0.00    -0.025 A 
ATOM     22  C   UNL A   1      30.606  27.269  23.607  1.00  0.00     0.041 A 
ATOM     23  C   UNL A   1      30.903  26.384  22.572  1.00  0.00     0.027 A 
ATOM     24  C   UNL A   1      30.419  26.754  24.884  1.00  0.00     0.027 A 
ATOM     25  C   UNL A   1      31.106  25.018  22.826  1.00  0.00     0.010 A 
ATOM     26  C   UNL A   1      30.595  25.384  25.128  1.00  0.00     0.010 A 
BRANCH  22  27
ATOM     27  N   UNL A   1      30.469  28.628  23.283  1.00  0.00    -0.326 N 
ATOM     28  C   UNL A   1      28.005  28.755  22.942  1.00  0.00     0.114 C 
ATOM     29  C   UNL A   1      29.388  29.343  22.851  1.00  0.00     0.221 C 
ATOM     30  O   UNL A   1      29.550  30.499  22.453  1.00  0.00    -0.275 OA
ATOM     31  H   UNL A   1      31.294  29.157  23.384  1.00  0.00     0.169 HD
ENDBRANCH  22  27
ENDBRANCH  10  21
ENDBRANCH   7   9
ENDBRANCH   6   7
ENDBRANCH   5   6
ENDBRANCH   4   5
ENDBRANCH   3   4
ENDBRANCH   2   3
ENDBRANCH   1   2
BRANCH   1  32
ATOM     32  O   UNL A   1      39.652  29.236  28.758  1.00  0.00    -0.376 OA
BRANCH  32  33
ATOM     33  C   UNL A   1      38.810  29.400  27.624  1.00  0.00     0.202 C 
BRANCH  33  34
ATOM     34  C   UNL A   1      37.341  29.571  27.992  1.00  0.00     0.261 C 
BRANCH  34  35
ATOM     35  O   UNL A   1      36.885  30.917  27.927  1.00  0.00    -0.460 OA
BRANCH  35  36
ATOM     36  C   UNL A   1      35.784  31.204  28.651  1.00  0.00     0.338 C 
ATOM     37  O   UNL A   1      34.623  31.138  28.290  1.00  0.00    -0.246 OA
BRANCH  36  38
ATOM     38  C   UNL A   1      36.214  31.693  29.961  1.00  0.00     0.060 A 
ATOM     39  C   UNL A   1      36.768  32.975  30.032  1.00  0.00     0.016 A 
ATOM     40  C   UNL A   1      36.305  30.776  31.016  1.00  0.00     0.016 A 
ATOM     41  C   UNL A   1      37.591  33.277  31.097  1.00  0.00     0.010 A 
ATOM     42  C   UNL A   1      37.144  31.066  32.058  1.00  0.00     0.010 A 
ATOM     43  C   UNL A   1      37.838  32.279  32.040  1.00  0.00    -0.014 A 
BRANCH  43  44
ATOM     44  C   UNL A   1      38.918  32.453  32.991  1.00  0.00     0.031 A 
ATOM     45  C   UNL A   1      38.555  33.099  34.268  1.00  0.00     0.074 A 
ATOM     46  C   UNL A   1      40.090  31.825  32.764  1.00  0.00     0.049 A 
ATOM     47  N   UNL A   1      39.176  34.054  34.874  1.00  0.00    -0.248 NA
ATOM     48  C   UNL A   1      37.296  32.699  34.919  1.00  0.00     0.031 C 
ATOM     49  C   UNL A   1      40.402  30.940  31.634  1.00  0.00     0.029 A 
ATOM     50  N   UNL A   1      41.177  31.690  33.574  1.00  0.00    -0.354 N 
ATOM     51  C   UNL A   1      38.514  34.227  36.083  1.00  0.00     0.074 A 
ATOM     52  C   UNL A   1      37.281  33.498  35.983  1.00  0.00     0.031 C 
ATOM     53  C   UNL A   1      41.469  30.181  31.953  1.00  0.00     0.029 A 
ATOM     54  C   UNL A   1      41.955  30.578  33.264  1.00  0.00     0.049 A 
ATOM     55  H   UNL A   1      41.391  32.315  34.303  1.00  0.00     0.167 HD
ATOM     56  C   UNL A   1      39.138  34.769  37.160  1.00  0.00     0.034 A 
ATOM     57  C   UNL A   1      42.849  29.946  34.068  1.00  0.00     0.034 A 
ATOM     58  C   UNL A   1      40.295  35.537  36.768  1.00  0.00     0.049 A 
ATOM     59  C   UNL A   1      43.242  30.908  35.129  1.00  0.00     0.074 A 
ATOM     60  C   UNL A   1      40.486  36.599  35.905  1.00  0.00     0.029 A 
ATOM     61  N   UNL A   1      41.549  35.018  37.003  1.00  0.00    -0.354 N 
ATOM     62  N   UNL A   1      43.912  32.004  34.900  1.00  0.00    -0.248 NA
ATOM     63  C   UNL A   1      42.508  30.894  36.388  1.00  0.00     0.031 C 
ATOM     64  C   UNL A   1      41.745  36.357  35.290  1.00  0.00     0.029 A 
ATOM     65  C   UNL A   1      42.283  35.199  35.855  1.00  0.00     0.049 A 
ATOM     66  H   UNL A   1      41.861  34.599  37.836  1.00  0.00     0.167 HD
ATOM     67  C   UNL A   1      43.341  32.956  35.729  1.00  0.00     0.074 A 
ATOM     68  C   UNL A   1      42.578  32.190  36.709  1.00  0.00     0.031 C 
ATOM     69  C   UNL A   1      43.292  34.274  35.369  1.00  0.00     0.034 A 
BRANCH  56  70
ATOM     70  C   UNL A   1      38.878  34.344  38.583  1.00  0.00     0.023 A 
ATOM     71  C   UNL A   1      38.304  33.077  38.784  1.00  0.00     0.031 A 
ATOM     72  C   UNL A   1      38.897  35.199  39.710  1.00  0.00     0.131 A 
ATOM     73  C   UNL A   1      37.714  32.741  40.014  1.00  0.00     0.055 A 
ATOM     74  C   UNL A   1      38.385  34.828  40.956  1.00  0.00     0.041 A 
ATOM     75  F   UNL A   1      39.316  36.470  39.650  1.00  0.00    -0.206 F 
ATOM     76  C   UNL A   1      37.760  33.604  41.106  1.00  0.00     0.022 A 
BRANCH  73  77
ATOM     77  S   UNL A   1      36.706  31.241  40.093  1.00  0.00     0.124 S 
ATOM     78  O   UNL A   1      35.372  31.791  40.310  1.00  0.00    -0.237 OA
ATOM     79  O   UNL A   1      36.952  30.645  38.784  1.00  0.00    -0.237 OA
ATOM     80  O   UNL A   1      37.271  30.514  41.228  1.00  0.00    -0.744 OA
ENDBRANCH  73  77
ENDBRANCH  56  70
BRANCH  57  81
ATOM     81  C   UNL A   1      43.167  28.491  34.087  1.00  0.00     0.023 A 
ATOM     82  C   UNL A   1      42.658  27.619  35.069  1.00  0.00     0.031 A 
ATOM     83  C   UNL A   1      43.845  27.883  33.001  1.00  0.00     0.131 A 
ATOM     84  C   UNL A   1      42.859  26.222  34.957  1.00  0.00     0.055 A 
ATOM     85  C   UNL A   1      44.075  26.509  32.916  1.00  0.00     0.041 A 
ATOM     86  F   UNL A   1      44.239  28.594  31.933  1.00  0.00    -0.206 F 
ATOM     87  C   UNL A   1      43.576  25.669  33.895  1.00  0.00     0.022 A 
BRANCH  84  88
ATOM     88  S   UNL A   1      42.067  25.083  36.136  1.00  0.00     0.124 S 
ATOM     89  O   UNL A   1      42.260  25.770  37.408  1.00  0.00    -0.237 OA
ATOM     90  O   UNL A   1      40.699  25.013  35.636  1.00  0.00    -0.237 OA
ATOM     91  O   UNL A   1      42.836  23.848  35.980  1.00  0.00    -0.744 OA
ENDBRANCH  84  88
ENDBRANCH  57  81
BRANCH  69  92
ATOM     92  C   UNL A   1      44.139  34.746  34.203  1.00  0.00     0.023 A 
ATOM     93  C   UNL A   1      43.691  34.799  32.864  1.00  0.00     0.031 A 
ATOM     94  C   UNL A   1      45.399  35.303  34.488  1.00  0.00     0.131 A 
ATOM     95  C   UNL A   1      44.499  35.381  31.870  1.00  0.00     0.055 A 
ATOM     96  C   UNL A   1      46.187  35.901  33.504  1.00  0.00     0.041 A 
ATOM     97  F   UNL A   1      45.870  35.318  35.747  1.00  0.00    -0.206 F 
ATOM     98  C   UNL A   1      45.742  35.936  32.188  1.00  0.00     0.022 A 
BRANCH  95  99
ATOM     99  S   UNL A   1      43.943  35.419  30.135  1.00  0.00     0.124 S 
ATOM    100  O   UNL A   1      43.324  36.733  30.003  1.00  0.00    -0.237 OA
ATOM    101  O   UNL A   1      45.189  35.219  29.399  1.00  0.00    -0.237 OA
ATOM    102  O   UNL A   1      43.006  34.295  30.055  1.00  0.00    -0.744 OA
ENDBRANCH  95  99
ENDBRANCH  69  92
ENDBRANCH  43  44
ENDBRANCH  36  38
ENDBRANCH  35  36
ENDBRANCH  34  35
ENDBRANCH  33  34
ENDBRANCH  32  33
ENDBRANCH   1  32
TORSDOF 22
ENDMDL
