MODEL 1
REMARK VINA RESULT:      -9.1      0.000      0.000
REMARK SMILES CC(=O)N[C@H](C(=O)NC1(CC(=O)OCCOCCOCCOC(=O)c2ccc(-c3c4nc(c(-c5cc(S(=O)(=O)[O-])ccc5F)c5ccc([nH]5)c(-c5cc(S(=O)(=O)[O-])ccc5F)c5nc(c(-c6cc(S(=O)(=O)[O-])ccc6F)c6ccc3[nH]6)C=C5)C=C4)cc2)CCC1)C(C)C
REMARK SMILES IDX 17 1 16 2 15 3 14 4 13 5 11 6 12 7 10 8 9 9 88 10 90 11
REMARK SMILES IDX 89 12 8 13 6 14 7 15 5 17 4 18 1 19 2 20 3 21 91 23 92 24
REMARK SMILES IDX 93 25 18 26 19 27 20 28 21 29 22 30 23 31 24 32 25 33 26 34
REMARK SMILES IDX 87 35 27 36 86 37 28 38 29 39 30 40 80 41 31 42 85 43 79 44
REMARK SMILES IDX 81 45 32 46 84 47 78 48 77 49 33 51 65 52 45 53 64 54 46 55
REMARK SMILES IDX 49 56 63 57 82 58 47 59 48 60 62 62 83 63 50 64 34 65 35 66
REMARK SMILES IDX 43 67 36 68 42 69 44 70 41 71 37 72 38 73 39 74 40 75 66 76
REMARK SMILES IDX 67 77 75 78 68 79 74 80 76 81 73 82 69 83 70 84 71 85 72 86
REMARK SMILES IDX 51 87 52 88 60 89 53 90 59 91 61 92 58 93 54 94 55 95 56 96
REMARK SMILES IDX 57 97
REMARK H PARENT 8 16 4 22 81 50 49 61
REMARK Flexibility Score: inf
ROOT
ATOM      1  C   UNL A   1      32.757  21.943  23.843  1.00  0.00     0.188 C 
ENDROOT
BRANCH   1   2
ATOM      2  O   UNL A   1      32.004  22.692  22.914  1.00  0.00    -0.376 OA
BRANCH   2   3
ATOM      3  C   UNL A   1      30.849  23.418  23.311  1.00  0.00     0.202 C 
BRANCH   3   4
ATOM      4  C   UNL A   1      30.905  24.895  23.706  1.00  0.00     0.261 C 
BRANCH   4   5
ATOM      5  O   UNL A   1      31.894  25.230  24.708  1.00  0.00    -0.463 OA
BRANCH   5   6
ATOM      6  C   UNL A   1      31.360  25.616  25.896  1.00  0.00     0.308 C 
ATOM      7  O   UNL A   1      31.179  24.824  26.811  1.00  0.00    -0.252 OA
BRANCH   6   8
ATOM      8  C   UNL A   1      31.010  27.087  25.996  1.00  0.00     0.151 C 
BRANCH   8   9
ATOM      9  C   UNL A   1      32.115  28.105  25.716  1.00  0.00     0.051 C 
ATOM     10  C   UNL A   1      33.526  28.053  26.420  1.00  0.00     0.029 C 
ATOM     11  C   UNL A   1      31.865  29.328  26.687  1.00  0.00     0.029 C 
ATOM     12  C   UNL A   1      32.852  28.637  27.668  1.00  0.00     0.005 C 
BRANCH   9  13
ATOM     13  N   UNL A   1      32.307  28.461  24.307  1.00  0.00    -0.348 N 
ATOM     14  C   UNL A   1      31.585  28.957  23.273  1.00  0.00     0.243 C 
ATOM     15  O   UNL A   1      32.328  29.153  22.289  1.00  0.00    -0.273 OA
ATOM     16  H   UNL A   1      33.236  28.287  24.029  1.00  0.00     0.164 HD
BRANCH  14  17
ATOM     17  C   UNL A   1      30.057  29.375  23.150  1.00  0.00     0.173 C 
BRANCH  17  18
ATOM     18  N   UNL A   1      29.435  28.101  23.588  1.00  0.00    -0.344 N 
ATOM     19  C   UNL A   1      27.058  28.611  23.119  1.00  0.00     0.114 C 
ATOM     20  C   UNL A   1      28.150  27.669  23.535  1.00  0.00     0.217 C 
ATOM     21  O   UNL A   1      27.904  26.519  23.890  1.00  0.00    -0.275 OA
ATOM     22  H   UNL A   1      30.064  27.458  23.988  1.00  0.00     0.164 HD
ENDBRANCH  17  18
BRANCH  17  23
ATOM     23  C   UNL A   1      29.396  30.585  23.895  1.00  0.00     0.015 C 
ATOM     24  C   UNL A   1      30.340  31.443  24.778  1.00  0.00     0.010 C 
ATOM     25  C   UNL A   1      28.849  31.663  22.928  1.00  0.00     0.010 C 
ENDBRANCH  17  23
ENDBRANCH  14  17
ENDBRANCH   9  13
ENDBRANCH   8   9
ENDBRANCH   6   8
ENDBRANCH   5   6
ENDBRANCH   4   5
ENDBRANCH   3   4
ENDBRANCH   2   3
ENDBRANCH   1   2
BRANCH   1  26
ATOM     26  C   UNL A   1      34.187  22.375  24.154  1.00  0.00     0.188 C 
BRANCH  26  27
ATOM     27  O   UNL A   1      35.153  21.506  24.714  1.00  0.00    -0.376 OA
BRANCH  27  28
ATOM     28  C   UNL A   1      35.767  21.860  25.937  1.00  0.00     0.202 C 
BRANCH  28  29
ATOM     29  C   UNL A   1      36.363  23.260  26.109  1.00  0.00     0.261 C 
BRANCH  29  30
ATOM     30  O   UNL A   1      37.638  23.462  25.502  1.00  0.00    -0.460 OA
BRANCH  30  31
ATOM     31  C   UNL A   1      38.702  23.105  26.276  1.00  0.00     0.338 C 
ATOM     32  O   UNL A   1      39.151  21.986  26.418  1.00  0.00    -0.246 OA
BRANCH  31  33
ATOM     33  C   UNL A   1      39.352  24.340  26.786  1.00  0.00     0.060 A 
ATOM     34  C   UNL A   1      39.216  24.650  28.144  1.00  0.00     0.016 A 
ATOM     35  C   UNL A   1      40.123  25.159  25.955  1.00  0.00     0.016 A 
ATOM     36  C   UNL A   1      39.851  25.776  28.674  1.00  0.00     0.010 A 
ATOM     37  C   UNL A   1      40.739  26.298  26.480  1.00  0.00     0.010 A 
ATOM     38  C   UNL A   1      40.597  26.620  27.841  1.00  0.00    -0.014 A 
BRANCH  38  39
ATOM     39  C   UNL A   1      41.080  27.931  28.342  1.00  0.00     0.031 A 
ATOM     40  C   UNL A   1      40.060  28.931  28.810  1.00  0.00     0.074 A 
ATOM     41  C   UNL A   1      42.391  28.234  28.381  1.00  0.00     0.049 A 
ATOM     42  N   UNL A   1      40.229  30.151  29.246  1.00  0.00    -0.248 NA
ATOM     43  C   UNL A   1      38.658  28.485  28.785  1.00  0.00     0.031 C 
ATOM     44  C   UNL A   1      43.477  27.323  28.029  1.00  0.00     0.029 A 
ATOM     45  N   UNL A   1      43.028  29.399  28.735  1.00  0.00    -0.354 N 
ATOM     46  C   UNL A   1      38.960  30.615  29.567  1.00  0.00     0.074 A 
ATOM     47  C   UNL A   1      38.028  29.557  29.241  1.00  0.00     0.031 C 
ATOM     48  C   UNL A   1      44.649  27.970  28.174  1.00  0.00     0.029 A 
ATOM     49  C   UNL A   1      44.396  29.349  28.591  1.00  0.00     0.049 A 
ATOM     50  H   UNL A   1      42.550  30.195  29.064  1.00  0.00     0.167 HD
ATOM     51  C   UNL A   1      38.603  31.814  30.089  1.00  0.00     0.034 A 
ATOM     52  C   UNL A   1      45.330  30.311  28.754  1.00  0.00     0.034 A 
ATOM     53  C   UNL A   1      39.534  32.883  30.354  1.00  0.00     0.049 A 
ATOM     54  C   UNL A   1      44.888  31.691  29.193  1.00  0.00     0.074 A 
ATOM     55  C   UNL A   1      39.274  34.145  30.859  1.00  0.00     0.029 A 
ATOM     56  N   UNL A   1      40.900  32.828  30.110  1.00  0.00    -0.354 N 
ATOM     57  N   UNL A   1      43.684  32.121  29.501  1.00  0.00    -0.248 NA
ATOM     58  C   UNL A   1      45.931  32.722  29.303  1.00  0.00     0.031 C 
ATOM     59  C   UNL A   1      40.464  34.880  30.834  1.00  0.00     0.029 A 
ATOM     60  C   UNL A   1      41.486  34.050  30.406  1.00  0.00     0.049 A 
ATOM     61  H   UNL A   1      41.383  32.037  29.776  1.00  0.00     0.167 HD
ATOM     62  C   UNL A   1      43.836  33.455  29.876  1.00  0.00     0.074 A 
ATOM     63  C   UNL A   1      45.247  33.757  29.766  1.00  0.00     0.031 C 
ATOM     64  C   UNL A   1      42.896  34.348  30.281  1.00  0.00     0.034 A 
BRANCH  51  65
ATOM     65  C   UNL A   1      37.132  32.047  30.327  1.00  0.00     0.023 A 
ATOM     66  C   UNL A   1      36.269  32.442  29.290  1.00  0.00     0.031 A 
ATOM     67  C   UNL A   1      36.593  31.914  31.618  1.00  0.00     0.131 A 
ATOM     68  C   UNL A   1      34.933  32.761  29.575  1.00  0.00     0.055 A 
ATOM     69  C   UNL A   1      35.244  32.153  31.881  1.00  0.00     0.041 A 
ATOM     70  F   UNL A   1      37.375  31.568  32.653  1.00  0.00    -0.206 F 
ATOM     71  C   UNL A   1      34.408  32.594  30.859  1.00  0.00     0.022 A 
BRANCH  68  72
ATOM     72  S   UNL A   1      33.931  33.544  28.281  1.00  0.00     0.124 S 
ATOM     73  O   UNL A   1      33.349  32.383  27.612  1.00  0.00    -0.237 OA
ATOM     74  O   UNL A   1      33.008  34.369  29.050  1.00  0.00    -0.237 OA
ATOM     75  O   UNL A   1      34.914  34.281  27.487  1.00  0.00    -0.744 OA
ENDBRANCH  68  72
ENDBRANCH  51  65
BRANCH  52  76
ATOM     76  C   UNL A   1      46.769  30.048  28.440  1.00  0.00     0.023 A 
ATOM     77  C   UNL A   1      47.661  29.563  29.414  1.00  0.00     0.031 A 
ATOM     78  C   UNL A   1      47.298  30.376  27.178  1.00  0.00     0.131 A 
ATOM     79  C   UNL A   1      49.035  29.476  29.128  1.00  0.00     0.055 A 
ATOM     80  C   UNL A   1      48.653  30.227  26.878  1.00  0.00     0.041 A 
ATOM     81  F   UNL A   1      46.502  30.865  26.212  1.00  0.00    -0.206 F 
ATOM     82  C   UNL A   1      49.533  29.789  27.862  1.00  0.00     0.022 A 
BRANCH  79  83
ATOM     83  S   UNL A   1      50.189  29.074  30.472  1.00  0.00     0.124 S 
ATOM     84  O   UNL A   1      50.657  30.396  30.871  1.00  0.00    -0.237 OA
ATOM     85  O   UNL A   1      49.328  28.382  31.425  1.00  0.00    -0.237 OA
ATOM     86  O   UNL A   1      51.190  28.231  29.821  1.00  0.00    -0.744 OA
ENDBRANCH  79  83
ENDBRANCH  52  76
BRANCH  64  87
ATOM     87  C   UNL A   1      43.368  35.729  30.677  1.00  0.00     0.023 A 
ATOM     88  C   UNL A   1      43.575  36.089  32.021  1.00  0.00     0.031 A 
ATOM     89  C   UNL A   1      43.625  36.697  29.688  1.00  0.00     0.131 A 
ATOM     90  C   UNL A   1      43.980  37.395  32.341  1.00  0.00     0.055 A 
ATOM     91  C   UNL A   1      44.090  37.973  30.010  1.00  0.00     0.041 A 
ATOM     92  F   UNL A   1      43.443  36.413  28.389  1.00  0.00    -0.206 F 
ATOM     93  C   UNL A   1      44.258  38.333  31.343  1.00  0.00     0.022 A 
BRANCH  90  94
ATOM     94  S   UNL A   1      44.057  37.885  34.087  1.00  0.00     0.124 S 
ATOM     95  O   UNL A   1      42.844  38.682  34.234  1.00  0.00    -0.237 OA
ATOM     96  O   UNL A   1      44.061  36.597  34.773  1.00  0.00    -0.237 OA
ATOM     97  O   UNL A   1      45.307  38.636  34.178  1.00  0.00    -0.744 OA
ENDBRANCH  90  94
ENDBRANCH  64  87
ENDBRANCH  38  39
ENDBRANCH  31  33
ENDBRANCH  30  31
ENDBRANCH  29  30
ENDBRANCH  28  29
ENDBRANCH  27  28
ENDBRANCH  26  27
ENDBRANCH   1  26
TORSDOF 25
ENDMDL
MODEL 2
REMARK VINA RESULT:      -9.0      1.831      2.127
REMARK SMILES CC(=O)N[C@H](C(=O)NC1(CC(=O)OCCOCCOCCOC(=O)c2ccc(-c3c4nc(c(-c5cc(S(=O)(=O)[O-])ccc5F)c5ccc([nH]5)c(-c5cc(S(=O)(=O)[O-])ccc5F)c5nc(c(-c6cc(S(=O)(=O)[O-])ccc6F)c6ccc3[nH]6)C=C5)C=C4)cc2)CCC1)C(C)C
REMARK SMILES IDX 17 1 16 2 15 3 14 4 13 5 11 6 12 7 10 8 9 9 88 10 90 11
REMARK SMILES IDX 89 12 8 13 6 14 7 15 5 17 4 18 1 19 2 20 3 21 91 23 92 24
REMARK SMILES IDX 93 25 18 26 19 27 20 28 21 29 22 30 23 31 24 32 25 33 26 34
REMARK SMILES IDX 87 35 27 36 86 37 28 38 29 39 30 40 80 41 31 42 85 43 79 44
REMARK SMILES IDX 81 45 32 46 84 47 78 48 77 49 33 51 65 52 45 53 64 54 46 55
REMARK SMILES IDX 49 56 63 57 82 58 47 59 48 60 62 62 83 63 50 64 34 65 35 66
REMARK SMILES IDX 43 67 36 68 42 69 44 70 41 71 37 72 38 73 39 74 40 75 66 76
REMARK SMILES IDX 67 77 75 78 68 79 74 80 76 81 73 82 69 83 70 84 71 85 72 86
REMARK SMILES IDX 51 87 52 88 60 89 53 90 59 91 61 92 58 93 54 94 55 95 56 96
REMARK SMILES IDX 57 97
REMARK H PARENT 8 16 4 22 81 50 49 61
REMARK Flexibility Score: inf
ROOT
ATOM      1  C   UNL A   1      32.509  21.850  23.761  1.00  0.00     0.188 C 
ENDROOT
BRANCH   1   2
ATOM      2  O   UNL A   1      31.864  22.696  22.835  1.00  0.00    -0.376 OA
BRANCH   2   3
ATOM      3  C   UNL A   1      30.800  23.551  23.229  1.00  0.00     0.202 C 
BRANCH   3   4
ATOM      4  C   UNL A   1      31.038  24.972  23.742  1.00  0.00     0.261 C 
BRANCH   4   5
ATOM      5  O   UNL A   1      32.079  25.104  24.738  1.00  0.00    -0.463 OA
BRANCH   5   6
ATOM      6  C   UNL A   1      31.633  25.552  25.941  1.00  0.00     0.308 C 
ATOM      7  O   UNL A   1      31.629  24.838  26.935  1.00  0.00    -0.252 OA
BRANCH   6   8
ATOM      8  C   UNL A   1      31.146  26.987  25.952  1.00  0.00     0.151 C 
BRANCH   8   9
ATOM      9  C   UNL A   1      32.168  28.091  25.679  1.00  0.00     0.051 C 
ATOM     10  C   UNL A   1      33.582  28.138  26.376  1.00  0.00     0.029 C 
ATOM     11  C   UNL A   1      31.830  29.279  26.667  1.00  0.00     0.029 C 
ATOM     12  C   UNL A   1      32.873  28.654  27.635  1.00  0.00     0.005 C 
BRANCH   9  13
ATOM     13  N   UNL A   1      32.324  28.477  24.274  1.00  0.00    -0.348 N 
ATOM     14  C   UNL A   1      31.575  28.992  23.269  1.00  0.00     0.243 C 
ATOM     15  O   UNL A   1      32.294  29.212  22.272  1.00  0.00    -0.273 OA
ATOM     16  H   UNL A   1      33.247  28.313  23.970  1.00  0.00     0.164 HD
BRANCH  14  17
ATOM     17  C   UNL A   1      30.044  29.407  23.192  1.00  0.00     0.173 C 
BRANCH  17  18
ATOM     18  N   UNL A   1      29.439  28.142  23.681  1.00  0.00    -0.344 N 
ATOM     19  C   UNL A   1      27.081  28.525  23.033  1.00  0.00     0.114 C 
ATOM     20  C   UNL A   1      28.176  27.658  23.580  1.00  0.00     0.217 C 
ATOM     21  O   UNL A   1      27.948  26.526  24.001  1.00  0.00    -0.275 OA
ATOM     22  H   UNL A   1      30.063  27.554  24.163  1.00  0.00     0.164 HD
ENDBRANCH  17  18
BRANCH  17  23
ATOM     23  C   UNL A   1      29.408  30.632  23.934  1.00  0.00     0.015 C 
ATOM     24  C   UNL A   1      30.356  31.436  24.863  1.00  0.00     0.010 C 
ATOM     25  C   UNL A   1      28.942  31.747  22.966  1.00  0.00     0.010 C 
ENDBRANCH  17  23
ENDBRANCH  14  17
ENDBRANCH   9  13
ENDBRANCH   8   9
ENDBRANCH   6   8
ENDBRANCH   5   6
ENDBRANCH   4   5
ENDBRANCH   3   4
ENDBRANCH   2   3
ENDBRANCH   1   2
BRANCH   1  26
ATOM     26  C   UNL A   1      33.982  22.092  24.080  1.00  0.00     0.188 C 
BRANCH  26  27
ATOM     27  O   UNL A   1      34.771  21.184  24.824  1.00  0.00    -0.376 OA
BRANCH  27  28
ATOM     28  C   UNL A   1      35.422  21.641  25.992  1.00  0.00     0.202 C 
BRANCH  28  29
ATOM     29  C   UNL A   1      35.899  23.093  26.076  1.00  0.00     0.261 C 
BRANCH  29  30
ATOM     30  O   UNL A   1      37.122  23.376  25.397  1.00  0.00    -0.460 OA
BRANCH  30  31
ATOM     31  C   UNL A   1      38.242  22.910  26.019  1.00  0.00     0.338 C 
ATOM     32  O   UNL A   1      38.661  21.771  25.997  1.00  0.00    -0.246 OA
BRANCH  31  33
ATOM     33  C   UNL A   1      38.983  24.065  26.589  1.00  0.00     0.060 A 
ATOM     34  C   UNL A   1      38.876  24.309  27.964  1.00  0.00     0.016 A 
ATOM     35  C   UNL A   1      39.809  24.869  25.797  1.00  0.00     0.016 A 
ATOM     36  C   UNL A   1      39.594  25.356  28.547  1.00  0.00     0.010 A 
ATOM     37  C   UNL A   1      40.508  25.930  26.378  1.00  0.00     0.010 A 
ATOM     38  C   UNL A   1      40.397  26.187  27.755  1.00  0.00    -0.014 A 
BRANCH  38  39
ATOM     39  C   UNL A   1      40.977  27.430  28.322  1.00  0.00     0.031 A 
ATOM     40  C   UNL A   1      40.034  28.493  28.812  1.00  0.00     0.074 A 
ATOM     41  C   UNL A   1      42.307  27.618  28.401  1.00  0.00     0.049 A 
ATOM     42  N   UNL A   1      40.295  29.676  29.303  1.00  0.00    -0.248 NA
ATOM     43  C   UNL A   1      38.600  28.171  28.738  1.00  0.00     0.031 C 
ATOM     44  C   UNL A   1      43.321  26.632  28.033  1.00  0.00     0.029 A 
ATOM     45  N   UNL A   1      43.032  28.708  28.818  1.00  0.00    -0.354 N 
ATOM     46  C   UNL A   1      39.062  30.233  29.617  1.00  0.00     0.074 A 
ATOM     47  C   UNL A   1      38.053  29.273  29.226  1.00  0.00     0.031 C 
ATOM     48  C   UNL A   1      44.539  27.169  28.230  1.00  0.00     0.029 A 
ATOM     49  C   UNL A   1      44.394  28.547  28.700  1.00  0.00     0.049 A 
ATOM     50  H   UNL A   1      42.616  29.528  29.171  1.00  0.00     0.167 HD
ATOM     51  C   UNL A   1      38.796  31.437  30.183  1.00  0.00     0.034 A 
ATOM     52  C   UNL A   1      45.402  29.418  28.924  1.00  0.00     0.034 A 
ATOM     53  C   UNL A   1      39.807  32.410  30.513  1.00  0.00     0.049 A 
ATOM     54  C   UNL A   1      45.068  30.812  29.412  1.00  0.00     0.074 A 
ATOM     55  C   UNL A   1      39.644  33.668  31.066  1.00  0.00     0.029 A 
ATOM     56  N   UNL A   1      41.170  32.247  30.295  1.00  0.00    -0.354 N 
ATOM     57  N   UNL A   1      43.897  31.330  29.713  1.00  0.00    -0.248 NA
ATOM     58  C   UNL A   1      46.192  31.744  29.588  1.00  0.00     0.031 C 
ATOM     59  C   UNL A   1      40.892  34.298  31.097  1.00  0.00     0.029 A 
ATOM     60  C   UNL A   1      41.850  33.401  30.655  1.00  0.00     0.049 A 
ATOM     61  H   UNL A   1      41.592  31.433  29.937  1.00  0.00     0.167 HD
ATOM     62  C   UNL A   1      44.153  32.630  30.149  1.00  0.00     0.074 A 
ATOM     63  C   UNL A   1      45.587  32.814  30.081  1.00  0.00     0.031 C 
ATOM     64  C   UNL A   1      43.282  33.582  30.572  1.00  0.00     0.034 A 
BRANCH  51  65
ATOM     65  C   UNL A   1      37.345  31.784  30.400  1.00  0.00     0.023 A 
ATOM     66  C   UNL A   1      36.513  32.181  29.337  1.00  0.00     0.031 A 
ATOM     67  C   UNL A   1      36.796  31.762  31.693  1.00  0.00     0.131 A 
ATOM     68  C   UNL A   1      35.202  32.607  29.598  1.00  0.00     0.055 A 
ATOM     69  C   UNL A   1      35.467  32.108  31.935  1.00  0.00     0.041 A 
ATOM     70  F   UNL A   1      37.550  31.420  32.750  1.00  0.00    -0.206 F 
ATOM     71  C   UNL A   1      34.665  32.550  30.886  1.00  0.00     0.022 A 
BRANCH  68  72
ATOM     72  S   UNL A   1      34.260  33.386  28.257  1.00  0.00     0.124 S 
ATOM     73  O   UNL A   1      35.322  33.996  27.462  1.00  0.00    -0.237 OA
ATOM     74  O   UNL A   1      33.576  32.250  27.650  1.00  0.00    -0.237 OA
ATOM     75  O   UNL A   1      33.393  34.335  28.955  1.00  0.00    -0.744 OA
ENDBRANCH  68  72
ENDBRANCH  51  65
BRANCH  52  76
ATOM     76  C   UNL A   1      46.821  29.045  28.629  1.00  0.00     0.023 A 
ATOM     77  C   UNL A   1      47.270  28.836  27.312  1.00  0.00     0.031 A 
ATOM     78  C   UNL A   1      47.727  28.792  29.675  1.00  0.00     0.131 A 
ATOM     79  C   UNL A   1      48.564  28.336  27.082  1.00  0.00     0.055 A 
ATOM     80  C   UNL A   1      49.032  28.357  29.439  1.00  0.00     0.041 A 
ATOM     81  F   UNL A   1      47.352  28.951  30.955  1.00  0.00    -0.206 F 
ATOM     82  C   UNL A   1      49.453  28.112  28.136  1.00  0.00     0.022 A 
BRANCH  79  83
ATOM     83  S   UNL A   1      49.034  27.855  25.395  1.00  0.00     0.124 S 
ATOM     84  O   UNL A   1      49.341  26.439  25.562  1.00  0.00    -0.237 OA
ATOM     85  O   UNL A   1      47.829  28.167  24.635  1.00  0.00    -0.237 OA
ATOM     86  O   UNL A   1      50.184  28.710  25.105  1.00  0.00    -0.744 OA
ENDBRANCH  79  83
ENDBRANCH  52  76
BRANCH  64  87
ATOM     87  C   UNL A   1      43.860  34.900  31.037  1.00  0.00     0.023 A 
ATOM     88  C   UNL A   1      43.890  36.036  30.206  1.00  0.00     0.031 A 
ATOM     89  C   UNL A   1      44.380  35.023  32.339  1.00  0.00     0.131 A 
ATOM     90  C   UNL A   1      44.469  37.228  30.671  1.00  0.00     0.055 A 
ATOM     91  C   UNL A   1      44.895  36.230  32.816  1.00  0.00     0.041 A 
ATOM     92  F   UNL A   1      44.382  33.974  33.176  1.00  0.00    -0.206 F 
ATOM     93  C   UNL A   1      44.953  37.337  31.977  1.00  0.00     0.022 A 
BRANCH  90  94
ATOM     94  S   UNL A   1      44.661  38.616  29.517  1.00  0.00     0.124 S 
ATOM     95  O   UNL A   1      45.506  39.530  30.278  1.00  0.00    -0.237 OA
ATOM     96  O   UNL A   1      45.289  37.978  28.364  1.00  0.00    -0.237 OA
ATOM     97  O   UNL A   1      43.291  39.074  29.299  1.00  0.00    -0.744 OA
ENDBRANCH  90  94
ENDBRANCH  64  87
ENDBRANCH  38  39
ENDBRANCH  31  33
ENDBRANCH  30  31
ENDBRANCH  29  30
ENDBRANCH  28  29
ENDBRANCH  27  28
ENDBRANCH  26  27
ENDBRANCH   1  26
TORSDOF 25
ENDMDL
MODEL 3
REMARK VINA RESULT:      -9.0      3.920      5.670
REMARK SMILES CC(=O)N[C@H](C(=O)NC1(CC(=O)OCCOCCOCCOC(=O)c2ccc(-c3c4nc(c(-c5cc(S(=O)(=O)[O-])ccc5F)c5ccc([nH]5)c(-c5cc(S(=O)(=O)[O-])ccc5F)c5nc(c(-c6cc(S(=O)(=O)[O-])ccc6F)c6ccc3[nH]6)C=C5)C=C4)cc2)CCC1)C(C)C
REMARK SMILES IDX 17 1 16 2 15 3 14 4 13 5 11 6 12 7 10 8 9 9 88 10 90 11
REMARK SMILES IDX 89 12 8 13 6 14 7 15 5 17 4 18 1 19 2 20 3 21 91 23 92 24
REMARK SMILES IDX 93 25 18 26 19 27 20 28 21 29 22 30 23 31 24 32 25 33 26 34
REMARK SMILES IDX 87 35 27 36 86 37 28 38 29 39 30 40 80 41 31 42 85 43 79 44
REMARK SMILES IDX 81 45 32 46 84 47 78 48 77 49 33 51 65 52 45 53 64 54 46 55
REMARK SMILES IDX 49 56 63 57 82 58 47 59 48 60 62 62 83 63 50 64 34 65 35 66
REMARK SMILES IDX 43 67 36 68 42 69 44 70 41 71 37 72 38 73 39 74 40 75 66 76
REMARK SMILES IDX 67 77 75 78 68 79 74 80 76 81 73 82 69 83 70 84 71 85 72 86
REMARK SMILES IDX 51 87 52 88 60 89 53 90 59 91 61 92 58 93 54 94 55 95 56 96
REMARK SMILES IDX 57 97
REMARK H PARENT 8 16 4 22 81 50 49 61
REMARK Flexibility Score: inf
ROOT
ATOM      1  C   UNL A   1      39.675  23.079  27.310  1.00  0.00     0.188 C 
ENDROOT
BRANCH   1   2
ATOM      2  O   UNL A   1      38.931  23.987  26.528  1.00  0.00    -0.376 OA
BRANCH   2   3
ATOM      3  C   UNL A   1      37.993  23.536  25.560  1.00  0.00     0.202 C 
BRANCH   3   4
ATOM      4  C   UNL A   1      36.554  23.167  25.923  1.00  0.00     0.261 C 
BRANCH   4   5
ATOM      5  O   UNL A   1      35.830  22.429  24.910  1.00  0.00    -0.463 OA
BRANCH   5   6
ATOM      6  C   UNL A   1      35.578  23.147  23.785  1.00  0.00     0.308 C 
ATOM      7  O   UNL A   1      36.208  22.972  22.751  1.00  0.00    -0.252 OA
BRANCH   6   8
ATOM      8  C   UNL A   1      34.467  24.171  23.913  1.00  0.00     0.151 C 
BRANCH   8   9
ATOM      9  C   UNL A   1      33.041  23.658  24.115  1.00  0.00     0.051 C 
ATOM     10  C   UNL A   1      32.618  22.168  23.816  1.00  0.00     0.029 C 
ATOM     11  C   UNL A   1      32.250  23.970  22.782  1.00  0.00     0.029 C 
ATOM     12  C   UNL A   1      32.624  22.533  22.326  1.00  0.00     0.005 C 
BRANCH   9  13
ATOM     13  N   UNL A   1      32.379  24.095  25.347  1.00  0.00    -0.348 N 
ATOM     14  C   UNL A   1      31.969  25.247  25.931  1.00  0.00     0.243 C 
ATOM     15  O   UNL A   1      31.348  24.994  26.984  1.00  0.00    -0.273 OA
ATOM     16  H   UNL A   1      32.171  23.323  25.922  1.00  0.00     0.164 HD
BRANCH  14  17
ATOM     17  C   UNL A   1      32.078  26.765  25.474  1.00  0.00     0.173 C 
BRANCH  17  18
ATOM     18  N   UNL A   1      30.691  26.955  24.981  1.00  0.00    -0.344 N 
ATOM     19  C   UNL A   1      31.160  27.545  22.622  1.00  0.00     0.114 C 
ATOM     20  C   UNL A   1      30.212  27.220  23.739  1.00  0.00     0.217 C 
ATOM     21  O   UNL A   1      28.995  27.245  23.575  1.00  0.00    -0.275 OA
ATOM     22  H   UNL A   1      29.998  26.876  25.675  1.00  0.00     0.164 HD
ENDBRANCH  17  18
BRANCH  17  23
ATOM     23  C   UNL A   1      32.487  27.956  26.407  1.00  0.00     0.015 C 
ATOM     24  C   UNL A   1      32.475  29.366  25.761  1.00  0.00     0.010 C 
ATOM     25  C   UNL A   1      31.499  28.169  27.579  1.00  0.00     0.010 C 
ENDBRANCH  17  23
ENDBRANCH  14  17
ENDBRANCH   9  13
ENDBRANCH   8   9
ENDBRANCH   6   8
ENDBRANCH   5   6
ENDBRANCH   4   5
ENDBRANCH   3   4
ENDBRANCH   2   3
ENDBRANCH   1   2
BRANCH   1  26
ATOM     26  C   UNL A   1      40.773  22.256  26.641  1.00  0.00     0.188 C 
BRANCH  26  27
ATOM     27  O   UNL A   1      41.028  20.902  26.961  1.00  0.00    -0.376 OA
BRANCH  27  28
ATOM     28  C   UNL A   1      41.189  19.968  25.913  1.00  0.00     0.202 C 
BRANCH  28  29
ATOM     29  C   UNL A   1      42.307  18.926  25.989  1.00  0.00     0.261 C 
BRANCH  29  30
ATOM     30  O   UNL A   1      43.626  19.453  26.134  1.00  0.00    -0.460 OA
BRANCH  30  31
ATOM     31  C   UNL A   1      44.042  20.243  25.104  1.00  0.00     0.338 C 
ATOM     32  O   UNL A   1      44.116  19.928  23.934  1.00  0.00    -0.246 OA
BRANCH  31  33
ATOM     33  C   UNL A   1      44.222  21.628  25.612  1.00  0.00     0.060 A 
ATOM     34  C   UNL A   1      44.070  22.690  24.713  1.00  0.00     0.016 A 
ATOM     35  C   UNL A   1      44.491  21.884  26.960  1.00  0.00     0.016 A 
ATOM     36  C   UNL A   1      44.184  24.009  25.160  1.00  0.00     0.010 A 
ATOM     37  C   UNL A   1      44.628  23.203  27.402  1.00  0.00     0.010 A 
ATOM     38  C   UNL A   1      44.487  24.273  26.503  1.00  0.00    -0.014 A 
BRANCH  38  39
ATOM     39  C   UNL A   1      44.834  25.650  26.934  1.00  0.00     0.031 A 
ATOM     40  C   UNL A   1      43.744  26.507  27.514  1.00  0.00     0.074 A 
ATOM     41  C   UNL A   1      46.083  26.135  26.813  1.00  0.00     0.049 A 
ATOM     42  N   UNL A   1      43.787  27.749  27.919  1.00  0.00    -0.248 NA
ATOM     43  C   UNL A   1      42.426  25.868  27.660  1.00  0.00     0.031 C 
ATOM     44  C   UNL A   1      47.240  25.378  26.341  1.00  0.00     0.029 A 
ATOM     45  N   UNL A   1      46.585  27.386  27.082  1.00  0.00    -0.354 N 
ATOM     46  C   UNL A   1      42.511  28.037  28.386  1.00  0.00     0.074 A 
ATOM     47  C   UNL A   1      41.708  26.851  28.180  1.00  0.00     0.031 C 
ATOM     48  C   UNL A   1      48.316  26.186  26.340  1.00  0.00     0.029 A 
ATOM     49  C   UNL A   1      47.920  27.526  26.775  1.00  0.00     0.049 A 
ATOM     50  H   UNL A   1      46.041  28.114  27.460  1.00  0.00     0.167 HD
ATOM     51  C   UNL A   1      42.051  29.186  28.939  1.00  0.00     0.034 A 
ATOM     52  C   UNL A   1      48.720  28.613  26.819  1.00  0.00     0.034 A 
ATOM     53  C   UNL A   1      42.845  30.381  29.084  1.00  0.00     0.049 A 
ATOM     54  C   UNL A   1      48.140  29.928  27.298  1.00  0.00     0.074 A 
ATOM     55  C   UNL A   1      42.469  31.606  29.608  1.00  0.00     0.029 A 
ATOM     56  N   UNL A   1      44.167  30.513  28.679  1.00  0.00    -0.354 N 
ATOM     57  N   UNL A   1      46.932  30.191  27.745  1.00  0.00    -0.248 NA
ATOM     58  C   UNL A   1      49.031  31.097  27.276  1.00  0.00     0.031 C 
ATOM     59  C   UNL A   1      43.531  32.500  29.436  1.00  0.00     0.029 A 
ATOM     60  C   UNL A   1      44.604  31.812  28.894  1.00  0.00     0.049 A 
ATOM     61  H   UNL A   1      44.715  29.790  28.294  1.00  0.00     0.167 HD
ATOM     62  C   UNL A   1      46.935  31.542  28.091  1.00  0.00     0.074 A 
ATOM     63  C   UNL A   1      48.266  32.037  27.811  1.00  0.00     0.031 C 
ATOM     64  C   UNL A   1      45.932  32.302  28.599  1.00  0.00     0.034 A 
BRANCH  51  65
ATOM     65  C   UNL A   1      40.600  29.215  29.349  1.00  0.00     0.023 A 
ATOM     66  C   UNL A   1      40.215  29.287  30.700  1.00  0.00     0.031 A 
ATOM     67  C   UNL A   1      39.587  29.124  28.379  1.00  0.00     0.131 A 
ATOM     68  C   UNL A   1      38.858  29.194  31.045  1.00  0.00     0.055 A 
ATOM     69  C   UNL A   1      38.236  29.115  28.724  1.00  0.00     0.041 A 
ATOM     70  F   UNL A   1      39.895  29.023  27.076  1.00  0.00    -0.206 F 
ATOM     71  C   UNL A   1      37.864  29.135  30.066  1.00  0.00     0.022 A 
BRANCH  68  72
ATOM     72  S   UNL A   1      38.420  28.995  32.795  1.00  0.00     0.124 S 
ATOM     73  O   UNL A   1      37.719  27.714  32.781  1.00  0.00    -0.237 OA
ATOM     74  O   UNL A   1      39.722  29.007  33.451  1.00  0.00    -0.237 OA
ATOM     75  O   UNL A   1      37.573  30.156  33.069  1.00  0.00    -0.744 OA
ENDBRANCH  68  72
ENDBRANCH  51  65
BRANCH  52  76
ATOM     76  C   UNL A   1      50.135  28.548  26.337  1.00  0.00     0.023 A 
ATOM     77  C   UNL A   1      50.455  28.654  24.971  1.00  0.00     0.031 A 
ATOM     78  C   UNL A   1      51.185  28.274  27.233  1.00  0.00     0.131 A 
ATOM     79  C   UNL A   1      51.774  28.433  24.539  1.00  0.00     0.055 A 
ATOM     80  C   UNL A   1      52.505  28.118  26.806  1.00  0.00     0.041 A 
ATOM     81  F   UNL A   1      50.941  28.137  28.547  1.00  0.00    -0.206 F 
ATOM     82  C   UNL A   1      52.803  28.182  25.449  1.00  0.00     0.022 A 
BRANCH  79  83
ATOM     83  S   UNL A   1      52.112  28.345  22.756  1.00  0.00     0.124 S 
ATOM     84  O   UNL A   1      51.688  26.986  22.438  1.00  0.00    -0.237 OA
ATOM     85  O   UNL A   1      51.279  29.419  22.228  1.00  0.00    -0.237 OA
ATOM     86  O   UNL A   1      53.552  28.582  22.671  1.00  0.00    -0.744 OA
ENDBRANCH  79  83
ENDBRANCH  52  76
BRANCH  64  87
ATOM     87  C   UNL A   1      46.245  33.745  28.927  1.00  0.00     0.023 A 
ATOM     88  C   UNL A   1      46.060  34.779  27.991  1.00  0.00     0.031 A 
ATOM     89  C   UNL A   1      46.728  34.090  30.203  1.00  0.00     0.131 A 
ATOM     90  C   UNL A   1      46.399  36.099  28.331  1.00  0.00     0.055 A 
ATOM     91  C   UNL A   1      47.001  35.413  30.555  1.00  0.00     0.041 A 
ATOM     92  F   UNL A   1      46.928  33.146  31.136  1.00  0.00    -0.206 F 
ATOM     93  C   UNL A   1      46.849  36.425  29.613  1.00  0.00     0.022 A 
BRANCH  90  94
ATOM     94  S   UNL A   1      46.326  37.380  27.047  1.00  0.00     0.124 S 
ATOM     95  O   UNL A   1      44.911  37.732  27.046  1.00  0.00    -0.237 OA
ATOM     96  O   UNL A   1      47.236  38.396  27.567  1.00  0.00    -0.237 OA
ATOM     97  O   UNL A   1      46.794  36.690  25.847  1.00  0.00    -0.744 OA
ENDBRANCH  90  94
ENDBRANCH  64  87
ENDBRANCH  38  39
ENDBRANCH  31  33
ENDBRANCH  30  31
ENDBRANCH  29  30
ENDBRANCH  28  29
ENDBRANCH  27  28
ENDBRANCH  26  27
ENDBRANCH   1  26
TORSDOF 25
ENDMDL
