MODEL 1
REMARK VINA RESULT:      -9.9      0.000      0.000
REMARK SMILES C[C@@H](C(=O)OCCOCCOCCOC(=O)c1ccc(-c2c3nc(c(-c4cc(S(=O)(=O)[O-])ccc4F)c4ccc([nH]4)c(-c4cc(S(=O)(=O)[O-])ccc4F)c4nc(c(-c5cc(S(=O)(=O)[O-])ccc5F)c5ccc2[nH]5)C=C4)C=C3)cc1)c1ccc(C[C@@H]2CCC[C@@H]2O)cc1Br
REMARK SMILES IDX 9 1 8 2 7 3 6 4 5 5 3 6 4 7 2 8 1 9 80 10 81 11 92 12 82 13
REMARK SMILES IDX 91 14 93 15 83 16 84 17 85 18 86 19 89 20 87 21 88 22 90 23
REMARK SMILES IDX 10 25 11 26 12 27 13 28 14 29 15 30 16 31 17 32 18 33 79 34
REMARK SMILES IDX 19 35 78 36 20 37 21 38 22 39 72 40 23 41 77 42 71 43 73 44
REMARK SMILES IDX 24 45 76 46 70 47 69 48 25 50 57 51 37 52 56 53 38 54 41 55
REMARK SMILES IDX 55 56 74 57 39 58 40 59 54 61 75 62 42 63 26 64 27 65 35 66
REMARK SMILES IDX 28 67 34 68 36 69 33 70 29 71 30 72 31 73 32 74 58 75 59 76
REMARK SMILES IDX 67 77 60 78 66 79 68 80 65 81 61 82 62 83 63 84 64 85 43 86
REMARK SMILES IDX 44 87 52 88 45 89 51 90 53 91 50 92 46 93 47 94 48 95 49 96
REMARK H PARENT 90 24 73 49 41 60
REMARK Flexibility Score: inf
ROOT
ATOM      1  C   UNL A   1      38.017  23.487  26.254  1.00  0.00     0.188 C 
ENDROOT
BRANCH   1   2
ATOM      2  O   UNL A   1      37.075  23.978  25.310  1.00  0.00    -0.376 OA
BRANCH   2   3
ATOM      3  C   UNL A   1      35.688  23.928  25.627  1.00  0.00     0.202 C 
BRANCH   3   4
ATOM      4  C   UNL A   1      34.779  25.139  25.359  1.00  0.00     0.261 C 
BRANCH   4   5
ATOM      5  O   UNL A   1      33.462  25.104  25.958  1.00  0.00    -0.463 OA
BRANCH   5   6
ATOM      6  C   UNL A   1      32.431  25.353  25.103  1.00  0.00     0.313 C 
ATOM      7  O   UNL A   1      32.359  26.388  24.447  1.00  0.00    -0.252 OA
BRANCH   6   8
ATOM      8  C   UNL A   1      31.352  24.246  25.047  1.00  0.00     0.127 C 
ATOM      9  C   UNL A   1      30.261  24.314  26.126  1.00  0.00     0.025 C 
BRANCH   8  10
ATOM     10  C   UNL A   1      32.014  22.872  24.881  1.00  0.00    -0.020 A 
ATOM     11  C   UNL A   1      31.947  21.898  25.895  1.00  0.00     0.006 A 
ATOM     12  C   UNL A   1      32.809  22.570  23.753  1.00  0.00     0.022 A 
ATOM     13  C   UNL A   1      32.704  20.722  25.824  1.00  0.00     0.004 A 
ATOM     14  C   UNL A   1      33.622  21.434  23.727  1.00  0.00     0.019 A 
ATOM     15  Br  UNL A   1      32.843  23.643  22.178  1.00  0.00    -0.050 Br
ATOM     16  C   UNL A   1      33.612  20.523  24.783  1.00  0.00    -0.047 A 
BRANCH  16  17
ATOM     17  C   UNL A   1      34.620  19.400  24.803  1.00  0.00     0.041 C 
BRANCH  17  18
ATOM     18  C   UNL A   1      34.190  18.095  24.110  1.00  0.00     0.022 C 
ATOM     19  C   UNL A   1      32.680  17.976  23.944  1.00  0.00     0.007 C 
ATOM     20  C   UNL A   1      34.569  16.756  24.754  1.00  0.00     0.117 C 
ATOM     21  C   UNL A   1      32.183  17.075  25.074  1.00  0.00     0.003 C 
ATOM     22  C   UNL A   1      33.400  16.369  25.651  1.00  0.00     0.032 C 
BRANCH  20  23
ATOM     23  O   UNL A   1      35.779  16.801  25.483  1.00  0.00    -0.393 OA
ATOM     24  H   UNL A   1      36.431  17.326  24.994  1.00  0.00     0.210 HD
ENDBRANCH  20  23
ENDBRANCH  17  18
ENDBRANCH  16  17
ENDBRANCH   8  10
ENDBRANCH   6   8
ENDBRANCH   5   6
ENDBRANCH   4   5
ENDBRANCH   3   4
ENDBRANCH   2   3
ENDBRANCH   1   2
BRANCH   1  25
ATOM     25  C   UNL A   1      38.681  22.126  25.998  1.00  0.00     0.188 C 
BRANCH  25  26
ATOM     26  O   UNL A   1      38.053  21.350  25.003  1.00  0.00    -0.376 OA
BRANCH  26  27
ATOM     27  C   UNL A   1      38.229  19.944  24.996  1.00  0.00     0.202 C 
BRANCH  27  28
ATOM     28  C   UNL A   1      39.380  19.246  25.748  1.00  0.00     0.261 C 
BRANCH  28  29
ATOM     29  O   UNL A   1      40.727  19.595  25.402  1.00  0.00    -0.460 OA
BRANCH  29  30
ATOM     30  C   UNL A   1      41.638  19.579  26.405  1.00  0.00     0.338 C 
ATOM     31  O   UNL A   1      41.979  18.602  27.053  1.00  0.00    -0.246 OA
BRANCH  30  32
ATOM     32  C   UNL A   1      42.321  20.897  26.433  1.00  0.00     0.060 A 
ATOM     33  C   UNL A   1      42.761  21.396  27.660  1.00  0.00     0.016 A 
ATOM     34  C   UNL A   1      42.530  21.639  25.264  1.00  0.00     0.016 A 
ATOM     35  C   UNL A   1      43.401  22.639  27.714  1.00  0.00     0.010 A 
ATOM     36  C   UNL A   1      43.150  22.900  25.327  1.00  0.00     0.010 A 
ATOM     37  C   UNL A   1      43.587  23.418  26.553  1.00  0.00    -0.014 A 
BRANCH  37  38
ATOM     38  C   UNL A   1      44.075  24.826  26.703  1.00  0.00     0.031 A 
ATOM     39  C   UNL A   1      43.238  25.768  27.522  1.00  0.00     0.074 A 
ATOM     40  C   UNL A   1      45.258  25.255  26.212  1.00  0.00     0.049 A 
ATOM     41  N   UNL A   1      43.495  26.992  27.896  1.00  0.00    -0.248 NA
ATOM     42  C   UNL A   1      41.913  25.273  27.925  1.00  0.00     0.031 C 
ATOM     43  C   UNL A   1      46.141  24.473  25.355  1.00  0.00     0.029 A 
ATOM     44  N   UNL A   1      45.992  26.396  26.474  1.00  0.00    -0.354 N 
ATOM     45  C   UNL A   1      42.327  27.452  28.494  1.00  0.00     0.074 A 
ATOM     46  C   UNL A   1      41.396  26.343  28.505  1.00  0.00     0.031 C 
ATOM     47  C   UNL A   1      47.361  25.038  25.354  1.00  0.00     0.029 A 
ATOM     48  C   UNL A   1      47.327  26.290  26.109  1.00  0.00     0.049 A 
ATOM     49  H   UNL A   1      45.606  27.205  26.881  1.00  0.00     0.167 HD
ATOM     50  C   UNL A   1      42.036  28.707  28.910  1.00  0.00     0.034 A 
ATOM     51  C   UNL A   1      48.385  27.095  26.385  1.00  0.00     0.034 A 
ATOM     52  C   UNL A   1      42.966  29.807  28.849  1.00  0.00     0.049 A 
ATOM     53  C   UNL A   1      48.079  28.450  26.997  1.00  0.00     0.074 A 
ATOM     54  C   UNL A   1      42.750  31.140  29.150  1.00  0.00     0.029 A 
ATOM     55  N   UNL A   1      44.293  29.702  28.454  1.00  0.00    -0.354 N 
ATOM     56  N   UNL A   1      46.945  28.904  27.482  1.00  0.00    -0.248 NA
ATOM     57  C   UNL A   1      49.172  29.437  27.014  1.00  0.00     0.031 C 
ATOM     58  C   UNL A   1      43.925  31.849  28.875  1.00  0.00     0.029 A 
ATOM     59  C   UNL A   1      44.902  30.947  28.489  1.00  0.00     0.049 A 
ATOM     60  H   UNL A   1      44.739  28.864  28.189  1.00  0.00     0.167 HD
ATOM     61  C   UNL A   1      47.177  30.241  27.799  1.00  0.00     0.074 A 
ATOM     62  C   UNL A   1      48.580  30.492  27.552  1.00  0.00     0.031 C 
ATOM     63  C   UNL A   1      46.296  31.194  28.201  1.00  0.00     0.034 A 
BRANCH  50  64
ATOM     64  C   UNL A   1      40.605  28.970  29.303  1.00  0.00     0.023 A 
ATOM     65  C   UNL A   1      40.175  28.932  30.638  1.00  0.00     0.031 A 
ATOM     66  C   UNL A   1      39.636  29.163  28.300  1.00  0.00     0.131 A 
ATOM     67  C   UNL A   1      38.803  28.994  30.927  1.00  0.00     0.055 A 
ATOM     68  C   UNL A   1      38.284  29.321  28.602  1.00  0.00     0.041 A 
ATOM     69  F   UNL A   1      39.984  29.166  27.004  1.00  0.00    -0.206 F 
ATOM     70  C   UNL A   1      37.858  29.218  29.922  1.00  0.00     0.022 A 
BRANCH  67  71
ATOM     71  S   UNL A   1      38.257  28.594  32.610  1.00  0.00     0.124 S 
ATOM     72  O   UNL A   1      37.009  29.349  32.699  1.00  0.00    -0.237 OA
ATOM     73  O   UNL A   1      38.125  27.143  32.562  1.00  0.00    -0.237 OA
ATOM     74  O   UNL A   1      39.343  29.096  33.450  1.00  0.00    -0.744 OA
ENDBRANCH  67  71
ENDBRANCH  50  64
BRANCH  51  75
ATOM     75  C   UNL A   1      49.812  26.730  26.054  1.00  0.00     0.023 A 
ATOM     76  C   UNL A   1      50.429  27.187  24.866  1.00  0.00     0.031 A 
ATOM     77  C   UNL A   1      50.563  25.848  26.852  1.00  0.00     0.131 A 
ATOM     78  C   UNL A   1      51.714  26.735  24.506  1.00  0.00     0.055 A 
ATOM     79  C   UNL A   1      51.880  25.491  26.545  1.00  0.00     0.041 A 
ATOM     80  F   UNL A   1      50.024  25.288  27.946  1.00  0.00    -0.206 F 
ATOM     81  C   UNL A   1      52.459  25.924  25.360  1.00  0.00     0.022 A 
BRANCH  78  82
ATOM     82  S   UNL A   1      52.339  27.064  22.828  1.00  0.00     0.124 S 
ATOM     83  O   UNL A   1      51.161  26.786  22.015  1.00  0.00    -0.237 OA
ATOM     84  O   UNL A   1      52.744  28.462  22.916  1.00  0.00    -0.237 OA
ATOM     85  O   UNL A   1      53.435  26.107  22.680  1.00  0.00    -0.744 OA
ENDBRANCH  78  82
ENDBRANCH  51  75
BRANCH  63  86
ATOM     86  C   UNL A   1      46.823  32.600  28.359  1.00  0.00     0.023 A 
ATOM     87  C   UNL A   1      46.912  33.478  27.261  1.00  0.00     0.031 A 
ATOM     88  C   UNL A   1      47.233  33.075  29.616  1.00  0.00     0.131 A 
ATOM     89  C   UNL A   1      47.455  34.761  27.430  1.00  0.00     0.055 A 
ATOM     90  C   UNL A   1      47.715  34.375  29.790  1.00  0.00     0.041 A 
ATOM     91  F   UNL A   1      47.169  32.285  30.699  1.00  0.00    -0.206 F 
ATOM     92  C   UNL A   1      47.840  35.221  28.691  1.00  0.00     0.022 A 
BRANCH  89  93
ATOM     93  S   UNL A   1      47.736  35.791  25.963  1.00  0.00     0.124 S 
ATOM     94  O   UNL A   1      47.625  34.819  24.882  1.00  0.00    -0.237 OA
ATOM     95  O   UNL A   1      46.657  36.769  26.055  1.00  0.00    -0.237 OA
ATOM     96  O   UNL A   1      49.078  36.332  26.175  1.00  0.00    -0.744 OA
ENDBRANCH  89  93
ENDBRANCH  63  86
ENDBRANCH  37  38
ENDBRANCH  30  32
ENDBRANCH  29  30
ENDBRANCH  28  29
ENDBRANCH  27  28
ENDBRANCH  26  27
ENDBRANCH  25  26
ENDBRANCH   1  25
TORSDOF 24
ENDMDL
MODEL 2
REMARK VINA RESULT:      -9.7      3.686      9.479
REMARK SMILES C[C@@H](C(=O)OCCOCCOCCOC(=O)c1ccc(-c2c3nc(c(-c4cc(S(=O)(=O)[O-])ccc4F)c4ccc([nH]4)c(-c4cc(S(=O)(=O)[O-])ccc4F)c4nc(c(-c5cc(S(=O)(=O)[O-])ccc5F)c5ccc2[nH]5)C=C4)C=C3)cc1)c1ccc(C[C@@H]2CCC[C@@H]2O)cc1Br
REMARK SMILES IDX 9 1 8 2 7 3 6 4 5 5 3 6 4 7 2 8 1 9 80 10 81 11 92 12 82 13
REMARK SMILES IDX 91 14 93 15 83 16 84 17 85 18 86 19 89 20 87 21 88 22 90 23
REMARK SMILES IDX 10 25 11 26 12 27 13 28 14 29 15 30 16 31 17 32 18 33 79 34
REMARK SMILES IDX 19 35 78 36 20 37 21 38 22 39 72 40 23 41 77 42 71 43 73 44
REMARK SMILES IDX 24 45 76 46 70 47 69 48 25 50 57 51 37 52 56 53 38 54 41 55
REMARK SMILES IDX 55 56 74 57 39 58 40 59 54 61 75 62 42 63 26 64 27 65 35 66
REMARK SMILES IDX 28 67 34 68 36 69 33 70 29 71 30 72 31 73 32 74 58 75 59 76
REMARK SMILES IDX 67 77 60 78 66 79 68 80 65 81 61 82 62 83 63 84 64 85 43 86
REMARK SMILES IDX 44 87 52 88 45 89 51 90 53 91 50 92 46 93 47 94 48 95 49 96
REMARK H PARENT 90 24 73 49 41 60
REMARK Flexibility Score: inf
ROOT
ATOM      1  C   UNL A   1      34.474  23.093  24.885  1.00  0.00     0.188 C 
ENDROOT
BRANCH   1   2
ATOM      2  O   UNL A   1      33.549  22.138  25.389  1.00  0.00    -0.376 OA
BRANCH   2   3
ATOM      3  C   UNL A   1      32.398  22.594  26.091  1.00  0.00     0.202 C 
BRANCH   3   4
ATOM      4  C   UNL A   1      31.057  22.781  25.361  1.00  0.00     0.261 C 
BRANCH   4   5
ATOM      5  O   UNL A   1      30.689  24.139  25.021  1.00  0.00    -0.463 OA
BRANCH   5   6
ATOM      6  C   UNL A   1      31.352  25.108  25.713  1.00  0.00     0.313 C 
ATOM      7  O   UNL A   1      31.317  25.177  26.939  1.00  0.00    -0.252 OA
BRANCH   6   8
ATOM      8  C   UNL A   1      32.122  26.122  24.835  1.00  0.00     0.127 C 
ATOM      9  C   UNL A   1      33.607  26.313  25.173  1.00  0.00     0.025 C 
BRANCH   8  10
ATOM     10  C   UNL A   1      31.316  27.420  24.698  1.00  0.00    -0.020 A 
ATOM     11  C   UNL A   1      30.284  27.545  23.749  1.00  0.00     0.006 A 
ATOM     12  C   UNL A   1      31.649  28.574  25.440  1.00  0.00     0.022 A 
ATOM     13  C   UNL A   1      29.677  28.781  23.495  1.00  0.00     0.004 A 
ATOM     14  C   UNL A   1      31.097  29.819  25.125  1.00  0.00     0.019 A 
ATOM     15  Br  UNL A   1      32.844  28.557  26.925  1.00  0.00    -0.050 Br
ATOM     16  C   UNL A   1      30.140  29.942  24.118  1.00  0.00    -0.047 A 
BRANCH  16  17
ATOM     17  C   UNL A   1      29.688  31.316  23.687  1.00  0.00     0.041 C 
BRANCH  17  18
ATOM     18  C   UNL A   1      28.248  31.416  23.153  1.00  0.00     0.022 C 
ATOM     19  C   UNL A   1      27.898  30.307  22.170  1.00  0.00     0.007 C 
ATOM     20  C   UNL A   1      27.825  32.684  22.402  1.00  0.00     0.117 C 
ATOM     21  C   UNL A   1      28.037  30.900  20.768  1.00  0.00     0.003 C 
ATOM     22  C   UNL A   1      28.086  32.411  20.926  1.00  0.00     0.032 C 
BRANCH  20  23
ATOM     23  O   UNL A   1      28.499  33.849  22.833  1.00  0.00    -0.393 OA
ATOM     24  H   UNL A   1      27.968  34.630  22.609  1.00  0.00     0.210 HD
ENDBRANCH  20  23
ENDBRANCH  17  18
ENDBRANCH  16  17
ENDBRANCH   8  10
ENDBRANCH   6   8
ENDBRANCH   5   6
ENDBRANCH   4   5
ENDBRANCH   3   4
ENDBRANCH   2   3
ENDBRANCH   1   2
BRANCH   1  25
ATOM     25  C   UNL A   1      35.621  22.608  23.986  1.00  0.00     0.188 C 
BRANCH  25  26
ATOM     26  O   UNL A   1      35.755  21.207  23.918  1.00  0.00    -0.376 OA
BRANCH  26  27
ATOM     27  C   UNL A   1      36.384  20.512  24.982  1.00  0.00     0.202 C 
BRANCH  27  28
ATOM     28  C   UNL A   1      37.915  20.467  25.156  1.00  0.00     0.261 C 
BRANCH  28  29
ATOM     29  O   UNL A   1      38.577  21.638  25.654  1.00  0.00    -0.460 OA
BRANCH  29  30
ATOM     30  C   UNL A   1      39.741  21.446  26.318  1.00  0.00     0.338 C 
ATOM     31  O   UNL A   1      40.452  20.455  26.254  1.00  0.00    -0.246 OA
BRANCH  30  32
ATOM     32  C   UNL A   1      40.127  22.728  26.960  1.00  0.00     0.060 A 
ATOM     33  C   UNL A   1      39.455  23.893  26.583  1.00  0.00     0.016 A 
ATOM     34  C   UNL A   1      41.139  22.789  27.926  1.00  0.00     0.016 A 
ATOM     35  C   UNL A   1      39.804  25.114  27.168  1.00  0.00     0.010 A 
ATOM     36  C   UNL A   1      41.504  24.024  28.491  1.00  0.00     0.010 A 
ATOM     37  C   UNL A   1      40.846  25.202  28.115  1.00  0.00    -0.014 A 
BRANCH  37  38
ATOM     38  C   UNL A   1      41.320  26.558  28.540  1.00  0.00     0.031 A 
ATOM     39  C   UNL A   1      42.618  27.051  27.965  1.00  0.00     0.074 A 
ATOM     40  C   UNL A   1      40.600  27.377  29.337  1.00  0.00     0.049 A 
ATOM     41  N   UNL A   1      43.183  28.222  28.081  1.00  0.00    -0.248 NA
ATOM     42  C   UNL A   1      43.404  26.068  27.204  1.00  0.00     0.031 C 
ATOM     43  C   UNL A   1      39.358  27.012  30.008  1.00  0.00     0.029 A 
ATOM     44  N   UNL A   1      40.727  28.727  29.606  1.00  0.00    -0.354 N 
ATOM     45  C   UNL A   1      44.435  28.092  27.492  1.00  0.00     0.074 A 
ATOM     46  C   UNL A   1      44.507  26.752  26.947  1.00  0.00     0.031 C 
ATOM     47  C   UNL A   1      38.731  28.133  30.404  1.00  0.00     0.029 A 
ATOM     48  C   UNL A   1      39.574  29.296  30.129  1.00  0.00     0.049 A 
ATOM     49  H   UNL A   1      41.554  29.235  29.442  1.00  0.00     0.167 HD
ATOM     50  C   UNL A   1      45.457  28.981  27.488  1.00  0.00     0.034 A 
ATOM     51  C   UNL A   1      39.243  30.598  30.324  1.00  0.00     0.034 A 
ATOM     52  C   UNL A   1      45.377  30.295  28.075  1.00  0.00     0.049 A 
ATOM     53  C   UNL A   1      40.352  31.623  30.171  1.00  0.00     0.074 A 
ATOM     54  C   UNL A   1      46.377  31.241  28.217  1.00  0.00     0.029 A 
ATOM     55  N   UNL A   1      44.229  30.849  28.624  1.00  0.00    -0.354 N 
ATOM     56  N   UNL A   1      41.565  31.466  29.690  1.00  0.00    -0.248 NA
ATOM     57  C   UNL A   1      40.081  32.980  30.674  1.00  0.00     0.031 C 
ATOM     58  C   UNL A   1      45.850  32.338  28.908  1.00  0.00     0.029 A 
ATOM     59  C   UNL A   1      44.499  32.116  29.118  1.00  0.00     0.049 A 
ATOM     60  H   UNL A   1      43.349  30.408  28.656  1.00  0.00     0.167 HD
ATOM     61  C   UNL A   1      42.213  32.683  29.892  1.00  0.00     0.074 A 
ATOM     62  C   UNL A   1      41.231  33.594  30.439  1.00  0.00     0.031 C 
ATOM     63  C   UNL A   1      43.519  33.003  29.700  1.00  0.00     0.034 A 
BRANCH  50  64
ATOM     64  C   UNL A   1      46.783  28.478  26.977  1.00  0.00     0.023 A 
ATOM     65  C   UNL A   1      47.070  28.379  25.607  1.00  0.00     0.031 A 
ATOM     66  C   UNL A   1      47.738  27.994  27.891  1.00  0.00     0.131 A 
ATOM     67  C   UNL A   1      48.241  27.728  25.189  1.00  0.00     0.055 A 
ATOM     68  C   UNL A   1      48.945  27.435  27.469  1.00  0.00     0.041 A 
ATOM     69  F   UNL A   1      47.500  28.025  29.211  1.00  0.00    -0.206 F 
ATOM     70  C   UNL A   1      49.193  27.283  26.109  1.00  0.00     0.022 A 
BRANCH  67  71
ATOM     71  S   UNL A   1      48.413  27.308  23.432  1.00  0.00     0.124 S 
ATOM     72  O   UNL A   1      47.330  28.089  22.838  1.00  0.00    -0.237 OA
ATOM     73  O   UNL A   1      49.767  27.758  23.131  1.00  0.00    -0.237 OA
ATOM     74  O   UNL A   1      48.215  25.860  23.406  1.00  0.00    -0.744 OA
ENDBRANCH  67  71
ENDBRANCH  50  64
BRANCH  51  75
ATOM     75  C   UNL A   1      37.864  31.048  30.742  1.00  0.00     0.023 A 
ATOM     76  C   UNL A   1      36.917  31.488  29.788  1.00  0.00     0.031 A 
ATOM     77  C   UNL A   1      37.485  31.144  32.093  1.00  0.00     0.131 A 
ATOM     78  C   UNL A   1      35.681  32.027  30.200  1.00  0.00     0.055 A 
ATOM     79  C   UNL A   1      36.215  31.576  32.490  1.00  0.00     0.041 A 
ATOM     80  F   UNL A   1      38.353  30.841  33.070  1.00  0.00    -0.206 F 
ATOM     81  C   UNL A   1      35.308  32.033  31.542  1.00  0.00     0.022 A 
BRANCH  78  82
ATOM     82  S   UNL A   1      34.634  32.890  28.986  1.00  0.00     0.124 S 
ATOM     83  O   UNL A   1      35.627  33.615  28.202  1.00  0.00    -0.237 OA
ATOM     84  O   UNL A   1      33.964  31.784  28.312  1.00  0.00    -0.237 OA
ATOM     85  O   UNL A   1      33.769  33.727  29.818  1.00  0.00    -0.744 OA
ENDBRANCH  78  82
ENDBRANCH  51  75
BRANCH  63  86
ATOM     86  C   UNL A   1      43.962  34.384  30.123  1.00  0.00     0.023 A 
ATOM     87  C   UNL A   1      43.966  35.462  29.216  1.00  0.00     0.031 A 
ATOM     88  C   UNL A   1      44.377  34.631  31.442  1.00  0.00     0.131 A 
ATOM     89  C   UNL A   1      44.433  36.721  29.625  1.00  0.00     0.055 A 
ATOM     90  C   UNL A   1      44.782  35.901  31.859  1.00  0.00     0.041 A 
ATOM     91  F   UNL A   1      44.392  33.643  32.350  1.00  0.00    -0.206 F 
ATOM     92  C   UNL A   1      44.823  36.951  30.946  1.00  0.00     0.022 A 
BRANCH  89  93
ATOM     93  S   UNL A   1      44.608  38.033  28.384  1.00  0.00     0.124 S 
ATOM     94  O   UNL A   1      43.539  37.711  27.447  1.00  0.00    -0.237 OA
ATOM     95  O   UNL A   1      44.419  39.243  29.178  1.00  0.00    -0.237 OA
ATOM     96  O   UNL A   1      45.963  37.840  27.869  1.00  0.00    -0.744 OA
ENDBRANCH  89  93
ENDBRANCH  63  86
ENDBRANCH  37  38
ENDBRANCH  30  32
ENDBRANCH  29  30
ENDBRANCH  28  29
ENDBRANCH  27  28
ENDBRANCH  26  27
ENDBRANCH  25  26
ENDBRANCH   1  25
TORSDOF 24
ENDMDL
MODEL 3
REMARK VINA RESULT:      -9.7      3.987      6.495
REMARK SMILES C[C@@H](C(=O)OCCOCCOCCOC(=O)c1ccc(-c2c3nc(c(-c4cc(S(=O)(=O)[O-])ccc4F)c4ccc([nH]4)c(-c4cc(S(=O)(=O)[O-])ccc4F)c4nc(c(-c5cc(S(=O)(=O)[O-])ccc5F)c5ccc2[nH]5)C=C4)C=C3)cc1)c1ccc(C[C@@H]2CCC[C@@H]2O)cc1Br
REMARK SMILES IDX 9 1 8 2 7 3 6 4 5 5 3 6 4 7 2 8 1 9 80 10 81 11 92 12 82 13
REMARK SMILES IDX 91 14 93 15 83 16 84 17 85 18 86 19 89 20 87 21 88 22 90 23
REMARK SMILES IDX 10 25 11 26 12 27 13 28 14 29 15 30 16 31 17 32 18 33 79 34
REMARK SMILES IDX 19 35 78 36 20 37 21 38 22 39 72 40 23 41 77 42 71 43 73 44
REMARK SMILES IDX 24 45 76 46 70 47 69 48 25 50 57 51 37 52 56 53 38 54 41 55
REMARK SMILES IDX 55 56 74 57 39 58 40 59 54 61 75 62 42 63 26 64 27 65 35 66
REMARK SMILES IDX 28 67 34 68 36 69 33 70 29 71 30 72 31 73 32 74 58 75 59 76
REMARK SMILES IDX 67 77 60 78 66 79 68 80 65 81 61 82 62 83 63 84 64 85 43 86
REMARK SMILES IDX 44 87 52 88 45 89 51 90 53 91 50 92 46 93 47 94 48 95 49 96
REMARK H PARENT 90 24 73 49 41 60
REMARK Flexibility Score: inf
ROOT
ATOM      1  C   UNL A   1      37.705  21.395  25.309  1.00  0.00     0.188 C 
ENDROOT
BRANCH   1   2
ATOM      2  O   UNL A   1      36.411  21.970  25.425  1.00  0.00    -0.376 OA
BRANCH   2   3
ATOM      3  C   UNL A   1      35.340  21.422  24.662  1.00  0.00     0.202 C 
BRANCH   3   4
ATOM      4  C   UNL A   1      33.912  21.975  24.807  1.00  0.00     0.261 C 
BRANCH   4   5
ATOM      5  O   UNL A   1      33.768  23.414  24.767  1.00  0.00    -0.463 OA
BRANCH   5   6
ATOM      6  C   UNL A   1      32.541  23.862  24.381  1.00  0.00     0.313 C 
ATOM      7  O   UNL A   1      32.120  23.714  23.238  1.00  0.00    -0.252 OA
BRANCH   6   8
ATOM      8  C   UNL A   1      31.739  24.592  25.485  1.00  0.00     0.127 C 
ATOM      9  C   UNL A   1      30.694  23.748  26.228  1.00  0.00     0.025 C 
BRANCH   8  10
ATOM     10  C   UNL A   1      31.229  25.941  24.961  1.00  0.00    -0.020 A 
ATOM     11  C   UNL A   1      29.937  26.075  24.419  1.00  0.00     0.006 A 
ATOM     12  C   UNL A   1      32.071  27.072  24.900  1.00  0.00     0.022 A 
ATOM     13  C   UNL A   1      29.539  27.252  23.773  1.00  0.00     0.004 A 
ATOM     14  C   UNL A   1      31.697  28.213  24.184  1.00  0.00     0.019 A 
ATOM     15  Br  UNL A   1      33.759  27.171  25.781  1.00  0.00    -0.050 Br
ATOM     16  C   UNL A   1      30.446  28.295  23.574  1.00  0.00    -0.047 A 
BRANCH  16  17
ATOM     17  C   UNL A   1      30.136  29.464  22.670  1.00  0.00     0.041 C 
BRANCH  17  18
ATOM     18  C   UNL A   1      28.781  30.156  22.903  1.00  0.00     0.022 C 
ATOM     19  C   UNL A   1      27.972  30.330  21.624  1.00  0.00     0.007 C 
ATOM     20  C   UNL A   1      28.765  31.564  23.511  1.00  0.00     0.117 C 
ATOM     21  C   UNL A   1      28.182  31.772  21.162  1.00  0.00     0.003 C 
ATOM     22  C   UNL A   1      28.775  32.534  22.337  1.00  0.00     0.032 C 
BRANCH  20  23
ATOM     23  O   UNL A   1      29.843  31.813  24.389  1.00  0.00    -0.393 OA
ATOM     24  H   UNL A   1      29.517  31.836  25.302  1.00  0.00     0.210 HD
ENDBRANCH  20  23
ENDBRANCH  17  18
ENDBRANCH  16  17
ENDBRANCH   8  10
ENDBRANCH   6   8
ENDBRANCH   5   6
ENDBRANCH   4   5
ENDBRANCH   3   4
ENDBRANCH   2   3
ENDBRANCH   1   2
BRANCH   1  25
ATOM     25  C   UNL A   1      38.858  21.999  26.125  1.00  0.00     0.188 C 
BRANCH  25  26
ATOM     26  O   UNL A   1      39.788  21.054  26.604  1.00  0.00    -0.376 OA
BRANCH  26  27
ATOM     27  C   UNL A   1      41.112  21.465  26.902  1.00  0.00     0.202 C 
BRANCH  27  28
ATOM     28  C   UNL A   1      42.169  21.726  25.810  1.00  0.00     0.261 C 
BRANCH  28  29
ATOM     29  O   UNL A   1      43.460  22.202  26.213  1.00  0.00    -0.460 OA
BRANCH  29  30
ATOM     30  C   UNL A   1      44.074  23.079  25.383  1.00  0.00     0.338 C 
ATOM     31  O   UNL A   1      44.510  22.833  24.270  1.00  0.00    -0.246 OA
BRANCH  30  32
ATOM     32  C   UNL A   1      43.926  24.441  25.956  1.00  0.00     0.060 A 
ATOM     33  C   UNL A   1      43.282  25.420  25.196  1.00  0.00     0.016 A 
ATOM     34  C   UNL A   1      44.412  24.757  27.231  1.00  0.00     0.016 A 
ATOM     35  C   UNL A   1      43.137  26.712  25.711  1.00  0.00     0.010 A 
ATOM     36  C   UNL A   1      44.286  26.065  27.733  1.00  0.00     0.010 A 
ATOM     37  C   UNL A   1      43.653  27.060  26.977  1.00  0.00    -0.014 A 
BRANCH  37  38
ATOM     38  C   UNL A   1      43.663  28.503  27.379  1.00  0.00     0.031 A 
ATOM     39  C   UNL A   1      42.527  28.993  28.232  1.00  0.00     0.074 A 
ATOM     40  C   UNL A   1      44.675  29.346  27.083  1.00  0.00     0.049 A 
ATOM     41  N   UNL A   1      42.362  30.155  28.803  1.00  0.00    -0.248 NA
ATOM     42  C   UNL A   1      41.405  28.060  28.416  1.00  0.00     0.031 C 
ATOM     43  C   UNL A   1      45.806  29.025  26.221  1.00  0.00     0.029 A 
ATOM     44  N   UNL A   1      44.996  30.594  27.584  1.00  0.00    -0.354 N 
ATOM     45  C   UNL A   1      41.078  30.132  29.333  1.00  0.00     0.074 A 
ATOM     46  C   UNL A   1      40.545  28.808  29.086  1.00  0.00     0.031 C 
ATOM     47  C   UNL A   1      46.783  29.924  26.432  1.00  0.00     0.029 A 
ATOM     48  C   UNL A   1      46.314  30.960  27.351  1.00  0.00     0.049 A 
ATOM     49  H   UNL A   1      44.352  31.166  28.060  1.00  0.00     0.167 HD
ATOM     50  C   UNL A   1      40.382  31.150  29.893  1.00  0.00     0.034 A 
ATOM     51  C   UNL A   1      47.046  31.988  27.851  1.00  0.00     0.034 A 
ATOM     52  C   UNL A   1      40.919  32.473  30.090  1.00  0.00     0.049 A 
ATOM     53  C   UNL A   1      46.295  33.063  28.616  1.00  0.00     0.074 A 
ATOM     54  C   UNL A   1      40.277  33.607  30.555  1.00  0.00     0.029 A 
ATOM     55  N   UNL A   1      42.232  32.843  29.827  1.00  0.00    -0.354 N 
ATOM     56  N   UNL A   1      45.050  33.062  29.038  1.00  0.00    -0.248 NA
ATOM     57  C   UNL A   1      47.017  34.316  28.891  1.00  0.00     0.031 C 
ATOM     58  C   UNL A   1      41.181  34.674  30.512  1.00  0.00     0.029 A 
ATOM     59  C   UNL A   1      42.414  34.189  30.106  1.00  0.00     0.049 A 
ATOM     60  H   UNL A   1      42.933  32.237  29.493  1.00  0.00     0.167 HD
ATOM     61  C   UNL A   1      44.829  34.333  29.567  1.00  0.00     0.074 A 
ATOM     62  C   UNL A   1      46.093  35.035  29.510  1.00  0.00     0.031 C 
ATOM     63  C   UNL A   1      43.671  34.891  30.007  1.00  0.00     0.034 A 
BRANCH  50  64
ATOM     64  C   UNL A   1      38.921  30.896  30.165  1.00  0.00     0.023 A 
ATOM     65  C   UNL A   1      37.917  31.232  29.243  1.00  0.00     0.031 A 
ATOM     66  C   UNL A   1      38.528  30.397  31.421  1.00  0.00     0.131 A 
ATOM     67  C   UNL A   1      36.570  31.151  29.626  1.00  0.00     0.055 A 
ATOM     68  C   UNL A   1      37.185  30.228  31.758  1.00  0.00     0.041 A 
ATOM     69  F   UNL A   1      39.443  30.098  32.356  1.00  0.00    -0.206 F 
ATOM     70  C   UNL A   1      36.196  30.623  30.864  1.00  0.00     0.022 A 
BRANCH  67  71
ATOM     71  S   UNL A   1      35.322  31.915  28.554  1.00  0.00     0.124 S 
ATOM     72  O   UNL A   1      34.317  32.334  29.529  1.00  0.00    -0.237 OA
ATOM     73  O   UNL A   1      36.073  32.987  27.909  1.00  0.00    -0.237 OA
ATOM     74  O   UNL A   1      34.911  30.823  27.674  1.00  0.00    -0.744 OA
ENDBRANCH  67  71
ENDBRANCH  50  64
BRANCH  51  75
ATOM     75  C   UNL A   1      48.531  32.134  27.625  1.00  0.00     0.023 A 
ATOM     76  C   UNL A   1      49.046  33.110  26.739  1.00  0.00     0.031 A 
ATOM     77  C   UNL A   1      49.466  31.254  28.200  1.00  0.00     0.131 A 
ATOM     78  C   UNL A   1      50.422  33.151  26.438  1.00  0.00     0.055 A 
ATOM     79  C   UNL A   1      50.843  31.371  27.983  1.00  0.00     0.041 A 
ATOM     80  F   UNL A   1      49.060  30.237  28.975  1.00  0.00    -0.206 F 
ATOM     81  C   UNL A   1      51.328  32.316  27.088  1.00  0.00     0.022 A 
BRANCH  78  82
ATOM     82  S   UNL A   1      51.003  34.181  25.054  1.00  0.00     0.124 S 
ATOM     83  O   UNL A   1      51.495  33.173  24.122  1.00  0.00    -0.237 OA
ATOM     84  O   UNL A   1      49.788  34.883  24.658  1.00  0.00    -0.237 OA
ATOM     85  O   UNL A   1      52.036  35.019  25.664  1.00  0.00    -0.744 OA
ENDBRANCH  78  82
ENDBRANCH  51  75
BRANCH  63  86
ATOM     86  C   UNL A   1      43.718  36.343  30.421  1.00  0.00     0.023 A 
ATOM     87  C   UNL A   1      43.835  36.716  31.774  1.00  0.00     0.031 A 
ATOM     88  C   UNL A   1      43.652  37.365  29.459  1.00  0.00     0.131 A 
ATOM     89  C   UNL A   1      43.823  38.073  32.131  1.00  0.00     0.055 A 
ATOM     90  C   UNL A   1      43.703  38.714  29.816  1.00  0.00     0.041 A 
ATOM     91  F   UNL A   1      43.542  37.070  28.154  1.00  0.00    -0.206 F 
ATOM     92  C   UNL A   1      43.776  39.074  31.159  1.00  0.00     0.022 A 
BRANCH  89  93
ATOM     93  S   UNL A   1      43.778  38.513  33.891  1.00  0.00     0.124 S 
ATOM     94  O   UNL A   1      43.026  39.763  33.874  1.00  0.00    -0.237 OA
ATOM     95  O   UNL A   1      43.099  37.367  34.484  1.00  0.00    -0.237 OA
ATOM     96  O   UNL A   1      45.190  38.646  34.247  1.00  0.00    -0.744 OA
ENDBRANCH  89  93
ENDBRANCH  63  86
ENDBRANCH  37  38
ENDBRANCH  30  32
ENDBRANCH  29  30
ENDBRANCH  28  29
ENDBRANCH  27  28
ENDBRANCH  26  27
ENDBRANCH  25  26
ENDBRANCH   1  25
TORSDOF 24
ENDMDL
