MODEL 1
REMARK VINA RESULT:      -7.3      0.000      0.000
REMARK SMILES C[C@@H](Oc1ccc(N)cc1)C(=O)OCCOCCOCCOC(=O)c1ccc(-c2c3nc(c(-c4cc(S(=O)(=O)[O-])ccc4F)c4ccc([nH]4)c(-c4cc(S(=O)(=O)[O-])ccc4F)c4nc(c(-c5cc(S(=O)(=O)[O-])ccc5F)c5ccc2[nH]5)C=C4)C=C3)cc1
REMARK SMILES IDX 17 1 16 2 15 3 14 4 13 5 11 6 12 7 2 8 1 9 3 10 4 11 5 12
REMARK SMILES IDX 10 13 6 14 9 15 7 16 8 17 18 20 19 21 20 22 21 23 22 24
REMARK SMILES IDX 23 25 24 26 25 27 26 28 87 29 27 30 86 31 28 32 29 33 30 34
REMARK SMILES IDX 80 35 31 36 85 37 79 38 81 39 32 40 84 41 78 42 77 43 33 45
REMARK SMILES IDX 65 46 45 47 64 48 46 49 49 50 63 51 82 52 47 53 48 54 62 56
REMARK SMILES IDX 83 57 50 58 34 59 35 60 43 61 36 62 42 63 44 64 41 65 37 66
REMARK SMILES IDX 38 67 39 68 40 69 66 70 67 71 75 72 68 73 74 74 76 75 73 76
REMARK SMILES IDX 69 77 70 78 71 79 72 80 51 81 52 82 60 83 53 84 59 85 61 86
REMARK SMILES IDX 58 87 54 88 55 89 56 90 57 91
REMARK H PARENT 8 18 8 19 81 44 49 55
REMARK Flexibility Score: inf
ROOT
ATOM      1  C   UNL A   1      34.399  33.906  33.587  1.00  0.00     0.188 C 
ENDROOT
BRANCH   1   2
ATOM      2  O   UNL A   1      35.276  33.334  34.549  1.00  0.00    -0.376 OA
BRANCH   2   3
ATOM      3  C   UNL A   1      36.351  34.153  35.002  1.00  0.00     0.202 C 
BRANCH   3   4
ATOM      4  C   UNL A   1      37.440  33.459  35.832  1.00  0.00     0.261 C 
BRANCH   4   5
ATOM      5  O   UNL A   1      37.293  32.030  35.929  1.00  0.00    -0.461 OA
BRANCH   5   6
ATOM      6  C   UNL A   1      38.447  31.310  36.052  1.00  0.00     0.347 C 
ATOM      7  O   UNL A   1      39.219  31.398  37.003  1.00  0.00    -0.248 OA
BRANCH   6   8
ATOM      8  C   UNL A   1      38.704  30.367  34.872  1.00  0.00     0.279 C 
ATOM      9  C   UNL A   1      37.786  30.580  33.671  1.00  0.00     0.066 C 
BRANCH   8  10
ATOM     10  O   UNL A   1      40.069  30.596  34.487  1.00  0.00    -0.479 OA
BRANCH  10  11
ATOM     11  C   UNL A   1      40.852  29.491  34.674  1.00  0.00     0.120 A 
ATOM     12  C   UNL A   1      40.924  28.537  33.665  1.00  0.00     0.048 A 
ATOM     13  C   UNL A   1      41.669  29.393  35.795  1.00  0.00     0.048 A 
ATOM     14  C   UNL A   1      41.795  27.455  33.794  1.00  0.00     0.029 A 
ATOM     15  C   UNL A   1      42.550  28.313  35.911  1.00  0.00     0.029 A 
ATOM     16  C   UNL A   1      42.602  27.321  34.927  1.00  0.00     0.032 A 
BRANCH  16  17
ATOM     17  N   UNL A   1      43.550  26.309  34.991  1.00  0.00    -0.399 N 
ATOM     18  H   UNL A   1      44.285  26.281  34.336  1.00  0.00     0.156 HD
ATOM     19  H   UNL A   1      43.489  25.620  35.692  1.00  0.00     0.156 HD
ENDBRANCH  16  17
ENDBRANCH  10  11
ENDBRANCH   8  10
ENDBRANCH   6   8
ENDBRANCH   5   6
ENDBRANCH   4   5
ENDBRANCH   3   4
ENDBRANCH   2   3
ENDBRANCH   1   2
BRANCH   1  20
ATOM     20  C   UNL A   1      34.356  35.434  33.528  1.00  0.00     0.188 C 
BRANCH  20  21
ATOM     21  O   UNL A   1      34.559  36.005  32.239  1.00  0.00    -0.376 OA
BRANCH  21  22
ATOM     22  C   UNL A   1      33.488  36.820  31.746  1.00  0.00     0.202 C 
BRANCH  22  23
ATOM     23  C   UNL A   1      32.647  36.238  30.591  1.00  0.00     0.261 C 
BRANCH  23  24
ATOM     24  O   UNL A   1      32.753  34.808  30.419  1.00  0.00    -0.460 OA
BRANCH  24  25
ATOM     25  C   UNL A   1      33.281  34.351  29.257  1.00  0.00     0.338 C 
ATOM     26  O   UNL A   1      32.822  34.526  28.140  1.00  0.00    -0.246 OA
BRANCH  25  27
ATOM     27  C   UNL A   1      34.657  33.852  29.537  1.00  0.00     0.060 A 
ATOM     28  C   UNL A   1      34.810  32.797  30.450  1.00  0.00     0.016 A 
ATOM     29  C   UNL A   1      35.773  34.343  28.853  1.00  0.00     0.016 A 
ATOM     30  C   UNL A   1      36.076  32.255  30.701  1.00  0.00     0.010 A 
ATOM     31  C   UNL A   1      37.041  33.808  29.116  1.00  0.00     0.010 A 
ATOM     32  C   UNL A   1      37.205  32.780  30.062  1.00  0.00    -0.014 A 
BRANCH  32  33
ATOM     33  C   UNL A   1      38.572  32.405  30.517  1.00  0.00     0.031 A 
ATOM     34  C   UNL A   1      39.264  31.268  29.814  1.00  0.00     0.074 A 
ATOM     35  C   UNL A   1      39.196  33.046  31.524  1.00  0.00     0.049 A 
ATOM     36  N   UNL A   1      40.410  30.696  30.079  1.00  0.00    -0.248 NA
ATOM     37  C   UNL A   1      38.559  30.699  28.654  1.00  0.00     0.031 C 
ATOM     38  C   UNL A   1      38.667  34.196  32.255  1.00  0.00     0.029 A 
ATOM     39  N   UNL A   1      40.414  32.804  32.117  1.00  0.00    -0.354 N 
ATOM     40  C   UNL A   1      40.559  29.693  29.127  1.00  0.00     0.074 A 
ATOM     41  C   UNL A   1      39.374  29.719  28.297  1.00  0.00     0.031 C 
ATOM     42  C   UNL A   1      39.549  34.548  33.209  1.00  0.00     0.029 A 
ATOM     43  C   UNL A   1      40.683  33.623  33.190  1.00  0.00     0.049 A 
ATOM     44  H   UNL A   1      41.037  32.111  31.800  1.00  0.00     0.167 HD
ATOM     45  C   UNL A   1      41.591  28.831  28.957  1.00  0.00     0.034 A 
ATOM     46  C   UNL A   1      41.702  33.602  34.077  1.00  0.00     0.034 A 
ATOM     47  C   UNL A   1      42.765  28.803  29.793  1.00  0.00     0.049 A 
ATOM     48  C   UNL A   1      42.789  32.556  33.936  1.00  0.00     0.074 A 
ATOM     49  C   UNL A   1      43.878  27.987  29.683  1.00  0.00     0.029 A 
ATOM     50  N   UNL A   1      42.971  29.607  30.905  1.00  0.00    -0.354 N 
ATOM     51  N   UNL A   1      42.929  31.625  33.020  1.00  0.00    -0.248 NA
ATOM     52  C   UNL A   1      43.854  32.559  34.951  1.00  0.00     0.031 C 
ATOM     53  C   UNL A   1      44.716  28.240  30.773  1.00  0.00     0.029 A 
ATOM     54  C   UNL A   1      44.171  29.274  31.517  1.00  0.00     0.049 A 
ATOM     55  H   UNL A   1      42.358  30.312  31.213  1.00  0.00     0.167 HD
ATOM     56  C   UNL A   1      44.111  30.956  33.333  1.00  0.00     0.074 A 
ATOM     57  C   UNL A   1      44.652  31.595  34.514  1.00  0.00     0.031 C 
ATOM     58  C   UNL A   1      44.700  29.910  32.699  1.00  0.00     0.034 A 
BRANCH  45  59
ATOM     59  C   UNL A   1      41.461  27.802  27.861  1.00  0.00     0.023 A 
ATOM     60  C   UNL A   1      40.867  26.549  28.085  1.00  0.00     0.031 A 
ATOM     61  C   UNL A   1      41.959  28.077  26.575  1.00  0.00     0.131 A 
ATOM     62  C   UNL A   1      40.846  25.593  27.058  1.00  0.00     0.055 A 
ATOM     63  C   UNL A   1      41.863  27.152  25.536  1.00  0.00     0.041 A 
ATOM     64  F   UNL A   1      42.559  29.249  26.311  1.00  0.00    -0.206 F 
ATOM     65  C   UNL A   1      41.316  25.896  25.778  1.00  0.00     0.022 A 
BRANCH  62  66
ATOM     66  S   UNL A   1      40.320  23.904  27.456  1.00  0.00     0.124 S 
ATOM     67  O   UNL A   1      40.428  23.247  26.154  1.00  0.00    -0.237 OA
ATOM     68  O   UNL A   1      41.297  23.496  28.459  1.00  0.00    -0.237 OA
ATOM     69  O   UNL A   1      38.955  24.075  27.946  1.00  0.00    -0.744 OA
ENDBRANCH  62  66
ENDBRANCH  45  59
BRANCH  46  70
ATOM     70  C   UNL A   1      41.726  34.550  35.234  1.00  0.00     0.023 A 
ATOM     71  C   UNL A   1      41.156  34.211  36.472  1.00  0.00     0.031 A 
ATOM     72  C   UNL A   1      42.242  35.851  35.084  1.00  0.00     0.131 A 
ATOM     73  C   UNL A   1      41.069  35.173  37.491  1.00  0.00     0.055 A 
ATOM     74  C   UNL A   1      42.208  36.784  36.121  1.00  0.00     0.041 A 
ATOM     75  F   UNL A   1      42.784  36.236  33.918  1.00  0.00    -0.206 F 
ATOM     76  C   UNL A   1      41.604  36.453  37.329  1.00  0.00     0.022 A 
BRANCH  73  77
ATOM     77  S   UNL A   1      40.146  34.764  39.000  1.00  0.00     0.124 S 
ATOM     78  O   UNL A   1      38.844  34.390  38.457  1.00  0.00    -0.237 OA
ATOM     79  O   UNL A   1      40.944  33.678  39.559  1.00  0.00    -0.237 OA
ATOM     80  O   UNL A   1      40.170  36.010  39.763  1.00  0.00    -0.744 OA
ENDBRANCH  73  77
ENDBRANCH  46  70
BRANCH  58  81
ATOM     81  C   UNL A   1      46.025  29.419  33.237  1.00  0.00     0.023 A 
ATOM     82  C   UNL A   1      46.108  28.372  34.172  1.00  0.00     0.031 A 
ATOM     83  C   UNL A   1      47.226  29.999  32.788  1.00  0.00     0.131 A 
ATOM     84  C   UNL A   1      47.361  27.963  34.655  1.00  0.00     0.055 A 
ATOM     85  C   UNL A   1      48.472  29.550  33.230  1.00  0.00     0.041 A 
ATOM     86  F   UNL A   1      47.208  31.003  31.897  1.00  0.00    -0.206 F 
ATOM     87  C   UNL A   1      48.543  28.534  34.177  1.00  0.00     0.022 A 
BRANCH  84  88
ATOM     88  S   UNL A   1      47.428  26.717  35.973  1.00  0.00     0.124 S 
ATOM     89  O   UNL A   1      48.543  27.194  36.785  1.00  0.00    -0.237 OA
ATOM     90  O   UNL A   1      46.105  26.829  36.578  1.00  0.00    -0.237 OA
ATOM     91  O   UNL A   1      47.675  25.468  35.253  1.00  0.00    -0.744 OA
ENDBRANCH  84  88
ENDBRANCH  58  81
ENDBRANCH  32  33
ENDBRANCH  25  27
ENDBRANCH  24  25
ENDBRANCH  23  24
ENDBRANCH  22  23
ENDBRANCH  21  22
ENDBRANCH  20  21
ENDBRANCH   1  20
TORSDOF 23
ENDMDL
MODEL 2
REMARK VINA RESULT:      -7.2      6.320     11.975
REMARK SMILES C[C@@H](Oc1ccc(N)cc1)C(=O)OCCOCCOCCOC(=O)c1ccc(-c2c3nc(c(-c4cc(S(=O)(=O)[O-])ccc4F)c4ccc([nH]4)c(-c4cc(S(=O)(=O)[O-])ccc4F)c4nc(c(-c5cc(S(=O)(=O)[O-])ccc5F)c5ccc2[nH]5)C=C4)C=C3)cc1
REMARK SMILES IDX 17 1 16 2 15 3 14 4 13 5 11 6 12 7 2 8 1 9 3 10 4 11 5 12
REMARK SMILES IDX 10 13 6 14 9 15 7 16 8 17 18 20 19 21 20 22 21 23 22 24
REMARK SMILES IDX 23 25 24 26 25 27 26 28 87 29 27 30 86 31 28 32 29 33 30 34
REMARK SMILES IDX 80 35 31 36 85 37 79 38 81 39 32 40 84 41 78 42 77 43 33 45
REMARK SMILES IDX 65 46 45 47 64 48 46 49 49 50 63 51 82 52 47 53 48 54 62 56
REMARK SMILES IDX 83 57 50 58 34 59 35 60 43 61 36 62 42 63 44 64 41 65 37 66
REMARK SMILES IDX 38 67 39 68 40 69 66 70 67 71 75 72 68 73 74 74 76 75 73 76
REMARK SMILES IDX 69 77 70 78 71 79 72 80 51 81 52 82 60 83 53 84 59 85 61 86
REMARK SMILES IDX 58 87 54 88 55 89 56 90 57 91
REMARK H PARENT 8 18 8 19 81 44 49 55
REMARK Flexibility Score: inf
ROOT
ATOM      1  C   UNL A   1      36.039  23.383  24.568  1.00  0.00     0.188 C 
ENDROOT
BRANCH   1   2
ATOM      2  O   UNL A   1      34.649  23.495  24.288  1.00  0.00    -0.376 OA
BRANCH   2   3
ATOM      3  C   UNL A   1      33.879  22.301  24.387  1.00  0.00     0.202 C 
BRANCH   3   4
ATOM      4  C   UNL A   1      33.144  22.065  25.715  1.00  0.00     0.261 C 
BRANCH   4   5
ATOM      5  O   UNL A   1      33.051  23.231  26.556  1.00  0.00    -0.461 OA
BRANCH   5   6
ATOM      6  C   UNL A   1      31.813  23.792  26.677  1.00  0.00     0.347 C 
ATOM      7  O   UNL A   1      30.927  23.363  27.413  1.00  0.00    -0.248 OA
BRANCH   6   8
ATOM      8  C   UNL A   1      31.616  25.028  25.792  1.00  0.00     0.279 C 
ATOM      9  C   UNL A   1      30.651  24.833  24.625  1.00  0.00     0.066 C 
BRANCH   8  10
ATOM     10  O   UNL A   1      31.121  26.054  26.667  1.00  0.00    -0.479 OA
BRANCH  10  11
ATOM     11  C   UNL A   1      31.995  27.098  26.786  1.00  0.00     0.120 A 
ATOM     12  C   UNL A   1      33.237  27.013  26.167  1.00  0.00     0.048 A 
ATOM     13  C   UNL A   1      31.593  28.281  27.398  1.00  0.00     0.048 A 
ATOM     14  C   UNL A   1      34.101  28.108  26.190  1.00  0.00     0.029 A 
ATOM     15  C   UNL A   1      32.459  29.379  27.406  1.00  0.00     0.029 A 
ATOM     16  C   UNL A   1      33.730  29.295  26.827  1.00  0.00     0.032 A 
BRANCH  16  17
ATOM     17  N   UNL A   1      34.543  30.417  26.741  1.00  0.00    -0.399 N 
ATOM     18  H   UNL A   1      34.141  31.314  26.702  1.00  0.00     0.156 HD
ATOM     19  H   UNL A   1      35.522  30.314  26.719  1.00  0.00     0.156 HD
ENDBRANCH  16  17
ENDBRANCH  10  11
ENDBRANCH   8  10
ENDBRANCH   6   8
ENDBRANCH   5   6
ENDBRANCH   4   5
ENDBRANCH   3   4
ENDBRANCH   2   3
ENDBRANCH   1   2
BRANCH   1  20
ATOM     20  C   UNL A   1      36.414  22.867  25.959  1.00  0.00     0.188 C 
BRANCH  20  21
ATOM     21  O   UNL A   1      37.032  21.584  25.991  1.00  0.00    -0.376 OA
BRANCH  21  22
ATOM     22  C   UNL A   1      38.315  21.498  25.357  1.00  0.00     0.202 C 
BRANCH  22  23
ATOM     23  C   UNL A   1      39.550  21.569  26.280  1.00  0.00     0.261 C 
BRANCH  23  24
ATOM     24  O   UNL A   1      40.240  20.315  26.475  1.00  0.00    -0.460 OA
BRANCH  24  25
ATOM     25  C   UNL A   1      41.530  20.235  26.065  1.00  0.00     0.338 C 
ATOM     26  O   UNL A   1      42.005  19.365  25.354  1.00  0.00    -0.246 OA
BRANCH  25  27
ATOM     27  C   UNL A   1      42.199  21.527  26.383  1.00  0.00     0.060 A 
ATOM     28  C   UNL A   1      42.524  21.798  27.721  1.00  0.00     0.016 A 
ATOM     29  C   UNL A   1      42.587  22.424  25.382  1.00  0.00     0.016 A 
ATOM     30  C   UNL A   1      43.206  22.972  28.062  1.00  0.00     0.010 A 
ATOM     31  C   UNL A   1      43.257  23.604  25.726  1.00  0.00     0.010 A 
ATOM     32  C   UNL A   1      43.548  23.900  27.070  1.00  0.00    -0.014 A 
BRANCH  32  33
ATOM     33  C   UNL A   1      44.020  25.262  27.442  1.00  0.00     0.031 A 
ATOM     34  C   UNL A   1      43.001  26.251  27.941  1.00  0.00     0.074 A 
ATOM     35  C   UNL A   1      45.313  25.626  27.347  1.00  0.00     0.049 A 
ATOM     36  N   UNL A   1      43.142  27.516  28.241  1.00  0.00    -0.248 NA
ATOM     37  C   UNL A   1      41.633  25.738  28.121  1.00  0.00     0.031 C 
ATOM     38  C   UNL A   1      46.412  24.755  26.933  1.00  0.00     0.029 A 
ATOM     39  N   UNL A   1      45.918  26.840  27.581  1.00  0.00    -0.354 N 
ATOM     40  C   UNL A   1      41.882  27.954  28.634  1.00  0.00     0.074 A 
ATOM     41  C   UNL A   1      40.986  26.825  28.508  1.00  0.00     0.031 C 
ATOM     42  C   UNL A   1      47.553  25.469  26.925  1.00  0.00     0.029 A 
ATOM     43  C   UNL A   1      47.263  26.856  27.288  1.00  0.00     0.049 A 
ATOM     44  H   UNL A   1      45.433  27.624  27.928  1.00  0.00     0.167 HD
ATOM     45  C   UNL A   1      41.506  29.183  29.064  1.00  0.00     0.034 A 
ATOM     46  C   UNL A   1      48.146  27.879  27.275  1.00  0.00     0.034 A 
ATOM     47  C   UNL A   1      42.401  30.307  29.179  1.00  0.00     0.049 A 
ATOM     48  C   UNL A   1      47.678  29.270  27.651  1.00  0.00     0.074 A 
ATOM     49  C   UNL A   1      42.121  31.584  29.633  1.00  0.00     0.029 A 
ATOM     50  N   UNL A   1      43.740  30.299  28.815  1.00  0.00    -0.354 N 
ATOM     51  N   UNL A   1      46.488  29.667  28.040  1.00  0.00    -0.248 NA
ATOM     52  C   UNL A   1      48.675  30.351  27.584  1.00  0.00     0.031 C 
ATOM     53  C   UNL A   1      43.267  32.369  29.467  1.00  0.00     0.029 A 
ATOM     54  C   UNL A   1      44.288  31.561  28.991  1.00  0.00     0.049 A 
ATOM     55  H   UNL A   1      44.231  29.513  28.484  1.00  0.00     0.167 HD
ATOM     56  C   UNL A   1      46.604  31.034  28.292  1.00  0.00     0.074 A 
ATOM     57  C   UNL A   1      47.981  31.391  28.023  1.00  0.00     0.031 C 
ATOM     58  C   UNL A   1      45.660  31.913  28.713  1.00  0.00     0.034 A 
BRANCH  45  59
ATOM     59  C   UNL A   1      40.045  29.389  29.380  1.00  0.00     0.023 A 
ATOM     60  C   UNL A   1      39.577  29.485  30.702  1.00  0.00     0.031 A 
ATOM     61  C   UNL A   1      39.105  29.470  28.338  1.00  0.00     0.131 A 
ATOM     62  C   UNL A   1      38.199  29.590  30.947  1.00  0.00     0.055 A 
ATOM     63  C   UNL A   1      37.745  29.655  28.588  1.00  0.00     0.041 A 
ATOM     64  F   UNL A   1      39.493  29.359  27.058  1.00  0.00    -0.206 F 
ATOM     65  C   UNL A   1      37.283  29.702  29.899  1.00  0.00     0.022 A 
BRANCH  62  66
ATOM     66  S   UNL A   1      37.609  29.441  32.656  1.00  0.00     0.124 S 
ATOM     67  O   UNL A   1      36.295  30.075  32.571  1.00  0.00    -0.237 OA
ATOM     68  O   UNL A   1      37.609  27.997  32.865  1.00  0.00    -0.237 OA
ATOM     69  O   UNL A   1      38.601  30.184  33.428  1.00  0.00    -0.744 OA
ENDBRANCH  62  66
ENDBRANCH  45  59
BRANCH  46  70
ATOM     70  C   UNL A   1      49.555  27.665  26.823  1.00  0.00     0.023 A 
ATOM     71  C   UNL A   1      49.963  27.987  25.518  1.00  0.00     0.031 A 
ATOM     72  C   UNL A   1      50.493  27.043  27.668  1.00  0.00     0.131 A 
ATOM     73  C   UNL A   1      51.254  27.642  25.081  1.00  0.00     0.055 A 
ATOM     74  C   UNL A   1      51.793  26.758  27.249  1.00  0.00     0.041 A 
ATOM     75  F   UNL A   1      50.153  26.698  28.921  1.00  0.00    -0.206 F 
ATOM     76  C   UNL A   1      52.176  27.044  25.943  1.00  0.00     0.022 A 
BRANCH  73  77
ATOM     77  S   UNL A   1      51.677  27.888  23.333  1.00  0.00     0.124 S 
ATOM     78  O   UNL A   1      53.093  27.534  23.320  1.00  0.00    -0.237 OA
ATOM     79  O   UNL A   1      50.776  26.953  22.668  1.00  0.00    -0.237 OA
ATOM     80  O   UNL A   1      51.384  29.301  23.107  1.00  0.00    -0.744 OA
ENDBRANCH  73  77
ENDBRANCH  46  70
BRANCH  58  81
ATOM     81  C   UNL A   1      46.091  33.341  28.959  1.00  0.00     0.023 A 
ATOM     82  C   UNL A   1      46.031  34.321  27.951  1.00  0.00     0.031 A 
ATOM     83  C   UNL A   1      46.548  33.730  30.231  1.00  0.00     0.131 A 
ATOM     84  C   UNL A   1      46.459  35.631  28.223  1.00  0.00     0.055 A 
ATOM     85  C   UNL A   1      46.919  35.046  30.510  1.00  0.00     0.041 A 
ATOM     86  F   UNL A   1      46.627  32.837  31.231  1.00  0.00    -0.206 F 
ATOM     87  C   UNL A   1      46.886  36.002  29.500  1.00  0.00     0.022 A 
BRANCH  84  88
ATOM     88  S   UNL A   1      46.517  36.833  26.866  1.00  0.00     0.124 S 
ATOM     89  O   UNL A   1      46.695  35.969  25.703  1.00  0.00    -0.237 OA
ATOM     90  O   UNL A   1      45.221  37.494  26.976  1.00  0.00    -0.237 OA
ATOM     91  O   UNL A   1      47.669  37.671  27.198  1.00  0.00    -0.744 OA
ENDBRANCH  84  88
ENDBRANCH  58  81
ENDBRANCH  32  33
ENDBRANCH  25  27
ENDBRANCH  24  25
ENDBRANCH  23  24
ENDBRANCH  22  23
ENDBRANCH  21  22
ENDBRANCH  20  21
ENDBRANCH   1  20
TORSDOF 23
ENDMDL
MODEL 3
REMARK VINA RESULT:      -7.0      6.431     12.262
REMARK SMILES C[C@@H](Oc1ccc(N)cc1)C(=O)OCCOCCOCCOC(=O)c1ccc(-c2c3nc(c(-c4cc(S(=O)(=O)[O-])ccc4F)c4ccc([nH]4)c(-c4cc(S(=O)(=O)[O-])ccc4F)c4nc(c(-c5cc(S(=O)(=O)[O-])ccc5F)c5ccc2[nH]5)C=C4)C=C3)cc1
REMARK SMILES IDX 17 1 16 2 15 3 14 4 13 5 11 6 12 7 2 8 1 9 3 10 4 11 5 12
REMARK SMILES IDX 10 13 6 14 9 15 7 16 8 17 18 20 19 21 20 22 21 23 22 24
REMARK SMILES IDX 23 25 24 26 25 27 26 28 87 29 27 30 86 31 28 32 29 33 30 34
REMARK SMILES IDX 80 35 31 36 85 37 79 38 81 39 32 40 84 41 78 42 77 43 33 45
REMARK SMILES IDX 65 46 45 47 64 48 46 49 49 50 63 51 82 52 47 53 48 54 62 56
REMARK SMILES IDX 83 57 50 58 34 59 35 60 43 61 36 62 42 63 44 64 41 65 37 66
REMARK SMILES IDX 38 67 39 68 40 69 66 70 67 71 75 72 68 73 74 74 76 75 73 76
REMARK SMILES IDX 69 77 70 78 71 79 72 80 51 81 52 82 60 83 53 84 59 85 61 86
REMARK SMILES IDX 58 87 54 88 55 89 56 90 57 91
REMARK H PARENT 8 18 8 19 81 44 49 55
REMARK Flexibility Score: inf
ROOT
ATOM      1  C   UNL A   1      36.033  23.455  24.881  1.00  0.00     0.188 C 
ENDROOT
BRANCH   1   2
ATOM      2  O   UNL A   1      34.733  23.725  24.371  1.00  0.00    -0.376 OA
BRANCH   2   3
ATOM      3  C   UNL A   1      33.815  22.636  24.351  1.00  0.00     0.202 C 
BRANCH   3   4
ATOM      4  C   UNL A   1      32.747  22.617  25.455  1.00  0.00     0.261 C 
BRANCH   4   5
ATOM      5  O   UNL A   1      32.694  23.817  26.250  1.00  0.00    -0.461 OA
BRANCH   5   6
ATOM      6  C   UNL A   1      31.449  24.271  26.578  1.00  0.00     0.347 C 
ATOM      7  O   UNL A   1      30.636  23.638  27.246  1.00  0.00    -0.248 OA
BRANCH   6   8
ATOM      8  C   UNL A   1      31.144  25.666  26.022  1.00  0.00     0.279 C 
ATOM      9  C   UNL A   1      31.631  26.823  26.893  1.00  0.00     0.066 C 
BRANCH   8  10
ATOM     10  O   UNL A   1      31.789  25.718  24.739  1.00  0.00    -0.479 OA
BRANCH  10  11
ATOM     11  C   UNL A   1      31.467  26.849  24.044  1.00  0.00     0.120 A 
ATOM     12  C   UNL A   1      32.488  27.641  23.531  1.00  0.00     0.048 A 
ATOM     13  C   UNL A   1      30.139  27.127  23.735  1.00  0.00     0.048 A 
ATOM     14  C   UNL A   1      32.179  28.742  22.732  1.00  0.00     0.029 A 
ATOM     15  C   UNL A   1      29.837  28.225  22.922  1.00  0.00     0.029 A 
ATOM     16  C   UNL A   1      30.851  29.057  22.436  1.00  0.00     0.032 A 
BRANCH  16  17
ATOM     17  N   UNL A   1      30.558  30.080  21.544  1.00  0.00    -0.399 N 
ATOM     18  H   UNL A   1      29.668  30.129  21.127  1.00  0.00     0.156 HD
ATOM     19  H   UNL A   1      31.241  30.755  21.327  1.00  0.00     0.156 HD
ENDBRANCH  16  17
ENDBRANCH  10  11
ENDBRANCH   8  10
ENDBRANCH   6   8
ENDBRANCH   5   6
ENDBRANCH   4   5
ENDBRANCH   3   4
ENDBRANCH   2   3
ENDBRANCH   1   2
BRANCH   1  20
ATOM     20  C   UNL A   1      36.115  22.469  26.048  1.00  0.00     0.188 C 
BRANCH  20  21
ATOM     21  O   UNL A   1      36.554  21.156  25.712  1.00  0.00    -0.376 OA
BRANCH  21  22
ATOM     22  C   UNL A   1      37.794  21.081  24.997  1.00  0.00     0.202 C 
BRANCH  22  23
ATOM     23  C   UNL A   1      39.078  21.361  25.805  1.00  0.00     0.261 C 
BRANCH  23  24
ATOM     24  O   UNL A   1      39.649  20.210  26.463  1.00  0.00    -0.460 OA
BRANCH  24  25
ATOM     25  C   UNL A   1      40.969  19.965  26.273  1.00  0.00     0.338 C 
ATOM     26  O   UNL A   1      41.447  18.971  25.750  1.00  0.00    -0.246 OA
BRANCH  25  27
ATOM     27  C   UNL A   1      41.719  21.223  26.541  1.00  0.00     0.060 A 
ATOM     28  C   UNL A   1      42.057  21.528  27.869  1.00  0.00     0.016 A 
ATOM     29  C   UNL A   1      42.166  22.051  25.507  1.00  0.00     0.016 A 
ATOM     30  C   UNL A   1      42.811  22.669  28.165  1.00  0.00     0.010 A 
ATOM     31  C   UNL A   1      42.909  23.200  25.805  1.00  0.00     0.010 A 
ATOM     32  C   UNL A   1      43.214  23.532  27.138  1.00  0.00    -0.014 A 
BRANCH  32  33
ATOM     33  C   UNL A   1      43.772  24.874  27.457  1.00  0.00     0.031 A 
ATOM     34  C   UNL A   1      42.823  25.934  27.951  1.00  0.00     0.074 A 
ATOM     35  C   UNL A   1      45.080  25.162  27.317  1.00  0.00     0.049 A 
ATOM     36  N   UNL A   1      43.043  27.197  28.209  1.00  0.00    -0.248 NA
ATOM     37  C   UNL A   1      41.435  25.503  28.183  1.00  0.00     0.031 C 
ATOM     38  C   UNL A   1      46.117  24.220  26.901  1.00  0.00     0.029 A 
ATOM     39  N   UNL A   1      45.757  26.347  27.498  1.00  0.00    -0.354 N 
ATOM     40  C   UNL A   1      41.820  27.716  28.621  1.00  0.00     0.074 A 
ATOM     41  C   UNL A   1      40.860  26.636  28.553  1.00  0.00     0.031 C 
ATOM     42  C   UNL A   1      47.295  24.867  26.842  1.00  0.00     0.029 A 
ATOM     43  C   UNL A   1      47.093  26.279  27.170  1.00  0.00     0.049 A 
ATOM     44  H   UNL A   1      45.327  27.166  27.834  1.00  0.00     0.167 HD
ATOM     45  C   UNL A   1      41.525  28.976  29.024  1.00  0.00     0.034 A 
ATOM     46  C   UNL A   1      48.031  27.249  27.103  1.00  0.00     0.034 A 
ATOM     47  C   UNL A   1      42.485  30.050  29.081  1.00  0.00     0.049 A 
ATOM     48  C   UNL A   1      47.652  28.675  27.449  1.00  0.00     0.074 A 
ATOM     49  C   UNL A   1      42.289  31.354  29.504  1.00  0.00     0.029 A 
ATOM     50  N   UNL A   1      43.810  29.957  28.684  1.00  0.00    -0.354 N 
ATOM     51  N   UNL A   1      46.496  29.149  27.857  1.00  0.00    -0.248 NA
ATOM     52  C   UNL A   1      48.704  29.695  27.325  1.00  0.00     0.031 C 
ATOM     53  C   UNL A   1      43.471  32.068  29.284  1.00  0.00     0.029 A 
ATOM     54  C   UNL A   1      44.432  31.190  28.807  1.00  0.00     0.049 A 
ATOM     55  H   UNL A   1      44.247  29.135  28.363  1.00  0.00     0.167 HD
ATOM     56  C   UNL A   1      46.695  30.514  28.064  1.00  0.00     0.074 A 
ATOM     57  C   UNL A   1      48.082  30.785  27.750  1.00  0.00     0.031 C 
ATOM     58  C   UNL A   1      45.813  31.457  28.483  1.00  0.00     0.034 A 
BRANCH  45  59
ATOM     59  C   UNL A   1      40.087  29.273  29.371  1.00  0.00     0.023 A 
ATOM     60  C   UNL A   1      39.651  29.383  30.703  1.00  0.00     0.031 A 
ATOM     61  C   UNL A   1      39.134  29.429  28.349  1.00  0.00     0.131 A 
ATOM     62  C   UNL A   1      38.289  29.575  30.977  1.00  0.00     0.055 A 
ATOM     63  C   UNL A   1      37.795  29.699  28.628  1.00  0.00     0.041 A 
ATOM     64  F   UNL A   1      39.490  29.309  27.060  1.00  0.00    -0.206 F 
ATOM     65  C   UNL A   1      37.362  29.760  29.949  1.00  0.00     0.022 A 
BRANCH  62  66
ATOM     66  S   UNL A   1      37.723  29.442  32.695  1.00  0.00     0.124 S 
ATOM     67  O   UNL A   1      38.867  29.987  33.425  1.00  0.00    -0.237 OA
ATOM     68  O   UNL A   1      36.517  30.262  32.695  1.00  0.00    -0.237 OA
ATOM     69  O   UNL A   1      37.505  28.009  32.876  1.00  0.00    -0.744 OA
ENDBRANCH  62  66
ENDBRANCH  45  59
BRANCH  46  70
ATOM     70  C   UNL A   1      49.413  26.943  26.622  1.00  0.00     0.023 A 
ATOM     71  C   UNL A   1      50.509  26.926  27.500  1.00  0.00     0.031 A 
ATOM     72  C   UNL A   1      49.668  26.753  25.251  1.00  0.00     0.131 A 
ATOM     73  C   UNL A   1      51.811  26.777  26.994  1.00  0.00     0.055 A 
ATOM     74  C   UNL A   1      50.958  26.544  24.760  1.00  0.00     0.041 A 
ATOM     75  F   UNL A   1      48.661  26.775  24.363  1.00  0.00    -0.206 F 
ATOM     76  C   UNL A   1      52.041  26.570  25.632  1.00  0.00     0.022 A 
BRANCH  73  77
ATOM     77  S   UNL A   1      53.214  26.964  28.130  1.00  0.00     0.124 S 
ATOM     78  O   UNL A   1      52.900  25.974  29.154  1.00  0.00    -0.237 OA
ATOM     79  O   UNL A   1      54.348  26.655  27.266  1.00  0.00    -0.237 OA
ATOM     80  O   UNL A   1      53.121  28.358  28.558  1.00  0.00    -0.744 OA
ENDBRANCH  73  77
ENDBRANCH  46  70
BRANCH  58  81
ATOM     81  C   UNL A   1      46.329  32.864  28.674  1.00  0.00     0.023 A 
ATOM     82  C   UNL A   1      46.264  33.827  27.651  1.00  0.00     0.031 A 
ATOM     83  C   UNL A   1      46.877  33.252  29.911  1.00  0.00     0.131 A 
ATOM     84  C   UNL A   1      46.772  35.118  27.872  1.00  0.00     0.055 A 
ATOM     85  C   UNL A   1      47.330  34.552  30.142  1.00  0.00     0.041 A 
ATOM     86  F   UNL A   1      46.967  32.375  30.923  1.00  0.00    -0.206 F 
ATOM     87  C   UNL A   1      47.289  35.490  29.115  1.00  0.00     0.022 A 
BRANCH  84  88
ATOM     88  S   UNL A   1      46.815  36.291  26.488  1.00  0.00     0.124 S 
ATOM     89  O   UNL A   1      46.343  35.468  25.378  1.00  0.00    -0.237 OA
ATOM     90  O   UNL A   1      45.904  37.339  26.937  1.00  0.00    -0.237 OA
ATOM     91  O   UNL A   1      48.221  36.684  26.414  1.00  0.00    -0.744 OA
ENDBRANCH  84  88
ENDBRANCH  58  81
ENDBRANCH  32  33
ENDBRANCH  25  27
ENDBRANCH  24  25
ENDBRANCH  23  24
ENDBRANCH  22  23
ENDBRANCH  21  22
ENDBRANCH  20  21
ENDBRANCH   1  20
TORSDOF 23
ENDMDL
