MODEL 1
REMARK VINA RESULT:     -10.5      0.000      0.000
REMARK SMILES O=C(Cn1c2ccccc2c(=O)c2ccccc21)N[C@@H](Cc1ccccc1)C(=O)OCCOCCOCCOC(=O)c1ccc(-c2c3nc(c(-c4cc(S(=O)(=O)[O-])ccc4F)c4ccc([nH]4)c(-c4cc(S(=O)(=O)[O-])ccc4F)c4nc(c(-c5cc(S(=O)(=O)[O-])ccc5F)c5ccc2[nH]5)C=C4)C=C3)cc1
REMARK SMILES IDX 34 1 33 2 32 3 31 4 30 5 28 6 29 7 20 8 19 9 1 10 2 11 3 13
REMARK SMILES IDX 4 14 5 15 18 16 6 17 10 18 13 19 17 20 7 21 9 22 11 23 14 24
REMARK SMILES IDX 16 25 8 26 12 27 15 28 21 29 22 30 23 31 27 32 24 33 26 34
REMARK SMILES IDX 25 35 35 36 36 37 37 38 38 39 39 40 40 41 41 42 42 43 43 44
REMARK SMILES IDX 104 45 44 46 103 47 45 48 46 49 47 50 97 51 48 52 102 53
REMARK SMILES IDX 96 54 98 55 49 56 101 57 95 58 94 59 50 61 82 62 62 63 81 64
REMARK SMILES IDX 63 65 66 66 80 67 99 68 64 69 65 70 79 72 100 73 67 74 51 75
REMARK SMILES IDX 52 76 60 77 53 78 59 79 61 80 58 81 54 82 55 83 56 84 57 85
REMARK SMILES IDX 83 86 84 87 92 88 85 89 91 90 93 91 90 92 86 93 87 94 88 95
REMARK SMILES IDX 89 96 68 97 69 98 77 99 70 100 76 101 78 102 75 103 71 104
REMARK SMILES IDX 72 105 73 106 74 107
REMARK H PARENT 19 12 98 60 66 71
REMARK Flexibility Score: inf
ROOT
ATOM      1  C   UNL A   1      33.479  35.962  30.750  1.00  0.00     0.188 C 
ENDROOT
BRANCH   1   2
ATOM      2  O   UNL A   1      32.630  35.717  29.630  1.00  0.00    -0.376 OA
BRANCH   2   3
ATOM      3  C   UNL A   1      33.241  35.059  28.526  1.00  0.00     0.202 C 
BRANCH   3   4
ATOM      4  C   UNL A   1      33.871  33.689  28.819  1.00  0.00     0.261 C 
BRANCH   4   5
ATOM      5  O   UNL A   1      34.338  32.941  27.649  1.00  0.00    -0.462 OA
BRANCH   5   6
ATOM      6  C   UNL A   1      33.870  31.657  27.559  1.00  0.00     0.329 C 
ATOM      7  O   UNL A   1      32.669  31.392  27.614  1.00  0.00    -0.250 OA
BRANCH   6   8
ATOM      8  C   UNL A   1      34.932  30.510  27.627  1.00  0.00     0.196 C 
BRANCH   8   9
ATOM      9  N   UNL A   1      35.087  29.346  26.688  1.00  0.00    -0.341 N 
ATOM     10  O   UNL A   1      33.123  28.461  27.417  1.00  0.00    -0.273 OA
ATOM     11  C   UNL A   1      34.098  28.359  26.658  1.00  0.00     0.240 C 
ATOM     12  H   UNL A   1      35.875  29.279  26.100  1.00  0.00     0.164 HD
BRANCH  11  13
ATOM     13  C   UNL A   1      34.176  27.078  25.740  1.00  0.00     0.222 C 
BRANCH  13  14
ATOM     14  N   UNL A   1      32.974  26.230  25.560  1.00  0.00    -0.331 N 
ATOM     15  C   UNL A   1      33.012  24.907  25.999  1.00  0.00     0.053 A 
ATOM     16  C   UNL A   1      31.809  26.689  24.908  1.00  0.00     0.053 A 
ATOM     17  C   UNL A   1      34.192  24.160  26.024  1.00  0.00     0.027 A 
ATOM     18  C   UNL A   1      31.823  24.322  26.448  1.00  0.00     0.046 A 
ATOM     19  C   UNL A   1      30.562  26.103  25.234  1.00  0.00     0.046 A 
ATOM     20  C   UNL A   1      31.819  27.574  23.829  1.00  0.00     0.027 A 
ATOM     21  C   UNL A   1      34.267  23.039  26.813  1.00  0.00     0.002 A 
ATOM     22  C   UNL A   1      31.855  23.116  27.095  1.00  0.00     0.014 A 
ATOM     23  C   UNL A   1      30.546  25.039  26.254  1.00  0.00     0.197 A 
ATOM     24  C   UNL A   1      29.373  26.397  24.556  1.00  0.00     0.014 A 
ATOM     25  C   UNL A   1      30.641  27.829  23.100  1.00  0.00     0.002 A 
ATOM     26  C   UNL A   1      33.101  22.570  27.386  1.00  0.00     0.001 A 
ATOM     27  O   UNL A   1      29.520  24.746  26.854  1.00  0.00    -0.288 OA
ATOM     28  C   UNL A   1      29.422  27.253  23.466  1.00  0.00     0.001 A 
ENDBRANCH  13  14
ENDBRANCH  11  13
ENDBRANCH   8   9
BRANCH   8  29
ATOM     29  C   UNL A   1      36.290  31.264  27.784  1.00  0.00     0.072 C 
BRANCH  29  30
ATOM     30  C   UNL A   1      36.992  30.807  29.047  1.00  0.00    -0.045 A 
ATOM     31  C   UNL A   1      36.255  30.460  30.186  1.00  0.00     0.004 A 
ATOM     32  C   UNL A   1      38.383  30.929  29.143  1.00  0.00     0.004 A 
ATOM     33  C   UNL A   1      36.882  30.384  31.428  1.00  0.00     0.000 A 
ATOM     34  C   UNL A   1      39.009  30.837  30.382  1.00  0.00     0.000 A 
ATOM     35  C   UNL A   1      38.255  30.597  31.529  1.00  0.00     0.000 A 
ENDBRANCH  29  30
ENDBRANCH   8  29
ENDBRANCH   6   8
ENDBRANCH   5   6
ENDBRANCH   4   5
ENDBRANCH   3   4
ENDBRANCH   2   3
ENDBRANCH   1   2
BRANCH   1  36
ATOM     36  C   UNL A   1      32.894  35.496  32.098  1.00  0.00     0.188 C 
BRANCH  36  37
ATOM     37  O   UNL A   1      33.431  34.273  32.589  1.00  0.00    -0.376 OA
BRANCH  37  38
ATOM     38  C   UNL A   1      34.630  33.803  31.998  1.00  0.00     0.202 C 
BRANCH  38  39
ATOM     39  C   UNL A   1      35.851  34.144  32.884  1.00  0.00     0.261 C 
BRANCH  39  40
ATOM     40  O   UNL A   1      37.140  33.873  32.264  1.00  0.00    -0.460 OA
BRANCH  40  41
ATOM     41  C   UNL A   1      38.244  34.412  32.883  1.00  0.00     0.338 C 
ATOM     42  O   UNL A   1      38.360  34.661  34.061  1.00  0.00    -0.246 OA
BRANCH  41  43
ATOM     43  C   UNL A   1      39.367  34.530  31.902  1.00  0.00     0.060 A 
ATOM     44  C   UNL A   1      39.120  34.584  30.535  1.00  0.00     0.016 A 
ATOM     45  C   UNL A   1      40.694  34.576  32.352  1.00  0.00     0.016 A 
ATOM     46  C   UNL A   1      40.199  34.601  29.636  1.00  0.00     0.010 A 
ATOM     47  C   UNL A   1      41.764  34.441  31.463  1.00  0.00     0.010 A 
ATOM     48  C   UNL A   1      41.525  34.481  30.087  1.00  0.00    -0.014 A 
BRANCH  48  49
ATOM     49  C   UNL A   1      42.648  34.684  29.137  1.00  0.00     0.031 A 
ATOM     50  C   UNL A   1      43.037  36.033  28.617  1.00  0.00     0.074 A 
ATOM     51  C   UNL A   1      43.368  33.596  28.803  1.00  0.00     0.049 A 
ATOM     52  N   UNL A   1      44.180  36.412  28.111  1.00  0.00    -0.248 NA
ATOM     53  C   UNL A   1      42.012  37.085  28.643  1.00  0.00     0.031 C 
ATOM     54  C   UNL A   1      43.011  32.225  29.170  1.00  0.00     0.029 A 
ATOM     55  N   UNL A   1      44.545  33.464  28.116  1.00  0.00    -0.354 N 
ATOM     56  C   UNL A   1      44.042  37.762  27.810  1.00  0.00     0.074 A 
ATOM     57  C   UNL A   1      42.670  38.116  28.120  1.00  0.00     0.031 C 
ATOM     58  C   UNL A   1      43.966  31.392  28.738  1.00  0.00     0.029 A 
ATOM     59  C   UNL A   1      45.018  32.173  28.096  1.00  0.00     0.049 A 
ATOM     60  H   UNL A   1      45.007  34.218  27.681  1.00  0.00     0.167 HD
ATOM     61  C   UNL A   1      44.991  38.614  27.347  1.00  0.00     0.034 A 
ATOM     62  C   UNL A   1      46.194  31.670  27.672  1.00  0.00     0.034 A 
ATOM     63  C   UNL A   1      46.334  38.190  27.014  1.00  0.00     0.049 A 
ATOM     64  C   UNL A   1      47.257  32.635  27.226  1.00  0.00     0.074 A 
ATOM     65  C   UNL A   1      47.408  38.970  26.622  1.00  0.00     0.029 A 
ATOM     66  N   UNL A   1      46.781  36.874  27.012  1.00  0.00    -0.354 N 
ATOM     67  N   UNL A   1      47.198  33.944  27.146  1.00  0.00    -0.248 NA
ATOM     68  C   UNL A   1      48.560  32.069  26.854  1.00  0.00     0.031 C 
ATOM     69  C   UNL A   1      48.471  38.123  26.304  1.00  0.00     0.029 A 
ATOM     70  C   UNL A   1      48.098  36.818  26.587  1.00  0.00     0.049 A 
ATOM     71  H   UNL A   1      46.240  36.095  27.276  1.00  0.00     0.167 HD
ATOM     72  C   UNL A   1      48.457  34.362  26.732  1.00  0.00     0.074 A 
ATOM     73  C   UNL A   1      49.268  33.166  26.613  1.00  0.00     0.031 C 
ATOM     74  C   UNL A   1      48.898  35.618  26.468  1.00  0.00     0.034 A 
BRANCH  61  75
ATOM     75  C   UNL A   1      44.675  40.091  27.220  1.00  0.00     0.023 A 
ATOM     76  C   UNL A   1      44.249  40.634  25.990  1.00  0.00     0.031 A 
ATOM     77  C   UNL A   1      44.982  40.987  28.262  1.00  0.00     0.131 A 
ATOM     78  C   UNL A   1      44.185  42.026  25.822  1.00  0.00     0.055 A 
ATOM     79  C   UNL A   1      44.874  42.370  28.102  1.00  0.00     0.041 A 
ATOM     80  F   UNL A   1      45.414  40.531  29.448  1.00  0.00    -0.206 F 
ATOM     81  C   UNL A   1      44.490  42.897  26.873  1.00  0.00     0.022 A 
BRANCH  78  82
ATOM     82  S   UNL A   1      43.792  42.769  24.212  1.00  0.00     0.124 S 
ATOM     83  O   UNL A   1      44.003  44.191  24.478  1.00  0.00    -0.237 OA
ATOM     84  O   UNL A   1      44.782  42.147  23.337  1.00  0.00    -0.237 OA
ATOM     85  O   UNL A   1      42.407  42.382  23.975  1.00  0.00    -0.744 OA
ENDBRANCH  78  82
ENDBRANCH  61  75
BRANCH  62  86
ATOM     86  C   UNL A   1      46.428  30.203  27.810  1.00  0.00     0.023 A 
ATOM     87  C   UNL A   1      46.022  29.321  26.792  1.00  0.00     0.031 A 
ATOM     88  C   UNL A   1      46.895  29.652  29.015  1.00  0.00     0.131 A 
ATOM     89  C   UNL A   1      46.015  27.940  27.027  1.00  0.00     0.055 A 
ATOM     90  C   UNL A   1      46.960  28.272  29.215  1.00  0.00     0.041 A 
ATOM     91  F   UNL A   1      47.264  30.452  30.027  1.00  0.00    -0.206 F 
ATOM     92  C   UNL A   1      46.498  27.409  28.226  1.00  0.00     0.022 A 
BRANCH  89  93
ATOM     93  S   UNL A   1      45.226  26.805  25.851  1.00  0.00     0.124 S 
ATOM     94  O   UNL A   1      44.462  27.721  25.010  1.00  0.00    -0.237 OA
ATOM     95  O   UNL A   1      46.383  26.180  25.215  1.00  0.00    -0.237 OA
ATOM     96  O   UNL A   1      44.436  25.920  26.702  1.00  0.00    -0.744 OA
ENDBRANCH  89  93
ENDBRANCH  62  86
BRANCH  74  97
ATOM     97  C   UNL A   1      50.323  35.794  25.994  1.00  0.00     0.023 A 
ATOM     98  C   UNL A   1      51.383  35.749  26.920  1.00  0.00     0.031 A 
ATOM     99  C   UNL A   1      50.612  36.170  24.671  1.00  0.00     0.131 A 
ATOM    100  C   UNL A   1      52.672  36.128  26.522  1.00  0.00     0.055 A 
ATOM    101  C   UNL A   1      51.908  36.488  24.265  1.00  0.00     0.041 A 
ATOM    102  F   UNL A   1      49.634  36.241  23.753  1.00  0.00    -0.206 F 
ATOM    103  C   UNL A   1      52.942  36.485  25.198  1.00  0.00     0.022 A 
BRANCH 100 104
ATOM    104  S   UNL A   1      54.019  36.273  27.728  1.00  0.00     0.124 S 
ATOM    105  O   UNL A   1      55.194  36.006  26.901  1.00  0.00    -0.237 OA
ATOM    106  O   UNL A   1      53.877  37.654  28.181  1.00  0.00    -0.237 OA
ATOM    107  O   UNL A   1      53.715  35.251  28.723  1.00  0.00    -0.744 OA
ENDBRANCH 100 104
ENDBRANCH  74  97
ENDBRANCH  48  49
ENDBRANCH  41  43
ENDBRANCH  40  41
ENDBRANCH  39  40
ENDBRANCH  38  39
ENDBRANCH  37  38
ENDBRANCH  36  37
ENDBRANCH   1  36
TORSDOF 25
ENDMDL
MODEL 2
REMARK VINA RESULT:     -10.3      3.464      5.410
REMARK SMILES O=C(Cn1c2ccccc2c(=O)c2ccccc21)N[C@@H](Cc1ccccc1)C(=O)OCCOCCOCCOC(=O)c1ccc(-c2c3nc(c(-c4cc(S(=O)(=O)[O-])ccc4F)c4ccc([nH]4)c(-c4cc(S(=O)(=O)[O-])ccc4F)c4nc(c(-c5cc(S(=O)(=O)[O-])ccc5F)c5ccc2[nH]5)C=C4)C=C3)cc1
REMARK SMILES IDX 34 1 33 2 32 3 31 4 30 5 28 6 29 7 20 8 19 9 1 10 2 11 3 13
REMARK SMILES IDX 4 14 5 15 18 16 6 17 10 18 13 19 17 20 7 21 9 22 11 23 14 24
REMARK SMILES IDX 16 25 8 26 12 27 15 28 21 29 22 30 23 31 27 32 24 33 26 34
REMARK SMILES IDX 25 35 35 36 36 37 37 38 38 39 39 40 40 41 41 42 42 43 43 44
REMARK SMILES IDX 104 45 44 46 103 47 45 48 46 49 47 50 97 51 48 52 102 53
REMARK SMILES IDX 96 54 98 55 49 56 101 57 95 58 94 59 50 61 82 62 62 63 81 64
REMARK SMILES IDX 63 65 66 66 80 67 99 68 64 69 65 70 79 72 100 73 67 74 51 75
REMARK SMILES IDX 52 76 60 77 53 78 59 79 61 80 58 81 54 82 55 83 56 84 57 85
REMARK SMILES IDX 83 86 84 87 92 88 85 89 91 90 93 91 90 92 86 93 87 94 88 95
REMARK SMILES IDX 89 96 68 97 69 98 77 99 70 100 76 101 78 102 75 103 71 104
REMARK SMILES IDX 72 105 73 106 74 107
REMARK H PARENT 19 12 98 60 66 71
REMARK Flexibility Score: inf
ROOT
ATOM      1  C   UNL A   1      33.768  35.450  31.443  1.00  0.00     0.188 C 
ENDROOT
BRANCH   1   2
ATOM      2  O   UNL A   1      32.821  35.139  30.423  1.00  0.00    -0.376 OA
BRANCH   2   3
ATOM      3  C   UNL A   1      33.372  34.722  29.178  1.00  0.00     0.202 C 
BRANCH   3   4
ATOM      4  C   UNL A   1      34.271  33.477  29.219  1.00  0.00     0.261 C 
BRANCH   4   5
ATOM      5  O   UNL A   1      34.652  32.925  27.917  1.00  0.00    -0.462 OA
BRANCH   5   6
ATOM      6  C   UNL A   1      33.989  31.783  27.556  1.00  0.00     0.329 C 
ATOM      7  O   UNL A   1      32.770  31.758  27.389  1.00  0.00    -0.250 OA
BRANCH   6   8
ATOM      8  C   UNL A   1      34.803  30.447  27.601  1.00  0.00     0.196 C 
BRANCH   8   9
ATOM      9  N   UNL A   1      34.881  29.384  26.541  1.00  0.00    -0.341 N 
ATOM     10  O   UNL A   1      33.174  28.245  27.521  1.00  0.00    -0.273 OA
ATOM     11  C   UNL A   1      33.994  28.304  26.594  1.00  0.00     0.240 C 
ATOM     12  H   UNL A   1      35.547  29.446  25.818  1.00  0.00     0.164 HD
BRANCH  11  13
ATOM     13  C   UNL A   1      34.011  27.115  25.556  1.00  0.00     0.222 C 
BRANCH  13  14
ATOM     14  N   UNL A   1      32.834  26.221  25.447  1.00  0.00    -0.331 N 
ATOM     15  C   UNL A   1      32.938  24.912  25.915  1.00  0.00     0.053 A 
ATOM     16  C   UNL A   1      31.628  26.622  24.833  1.00  0.00     0.053 A 
ATOM     17  C   UNL A   1      34.145  24.209  25.910  1.00  0.00     0.027 A 
ATOM     18  C   UNL A   1      31.790  24.297  26.427  1.00  0.00     0.046 A 
ATOM     19  C   UNL A   1      30.417  26.000  25.225  1.00  0.00     0.046 A 
ATOM     20  C   UNL A   1      31.562  27.478  23.733  1.00  0.00     0.027 A 
ATOM     21  C   UNL A   1      34.292  23.111  26.721  1.00  0.00     0.002 A 
ATOM     22  C   UNL A   1      31.893  23.110  27.102  1.00  0.00     0.014 A 
ATOM     23  C   UNL A   1      30.482  24.963  26.269  1.00  0.00     0.197 A 
ATOM     24  C   UNL A   1      29.192  26.235  24.590  1.00  0.00     0.014 A 
ATOM     25  C   UNL A   1      30.346  27.673  23.048  1.00  0.00     0.002 A 
ATOM     26  C   UNL A   1      33.169  22.616  27.353  1.00  0.00     0.001 A 
ATOM     27  O   UNL A   1      29.492  24.649  26.919  1.00  0.00    -0.288 OA
ATOM     28  C   UNL A   1      29.165  27.064  23.478  1.00  0.00     0.001 A 
ENDBRANCH  13  14
ENDBRANCH  11  13
ENDBRANCH   8   9
BRANCH   8  29
ATOM     29  C   UNL A   1      36.238  30.896  28.024  1.00  0.00     0.072 C 
BRANCH  29  30
ATOM     30  C   UNL A   1      36.882  29.826  28.883  1.00  0.00    -0.045 A 
ATOM     31  C   UNL A   1      36.537  29.692  30.233  1.00  0.00     0.004 A 
ATOM     32  C   UNL A   1      37.972  29.105  28.381  1.00  0.00     0.004 A 
ATOM     33  C   UNL A   1      37.357  28.969  31.097  1.00  0.00     0.000 A 
ATOM     34  C   UNL A   1      38.780  28.370  29.242  1.00  0.00     0.000 A 
ATOM     35  C   UNL A   1      38.492  28.329  30.604  1.00  0.00     0.000 A 
ENDBRANCH  29  30
ENDBRANCH   8  29
ENDBRANCH   6   8
ENDBRANCH   5   6
ENDBRANCH   4   5
ENDBRANCH   3   4
ENDBRANCH   2   3
ENDBRANCH   1   2
BRANCH   1  36
ATOM     36  C   UNL A   1      33.381  34.929  32.842  1.00  0.00     0.188 C 
BRANCH  36  37
ATOM     37  O   UNL A   1      33.584  33.534  33.034  1.00  0.00    -0.376 OA
BRANCH  37  38
ATOM     38  C   UNL A   1      34.849  33.004  32.682  1.00  0.00     0.202 C 
BRANCH  38  39
ATOM     39  C   UNL A   1      35.843  33.118  33.863  1.00  0.00     0.261 C 
BRANCH  39  40
ATOM     40  O   UNL A   1      37.204  32.710  33.547  1.00  0.00    -0.460 OA
BRANCH  40  41
ATOM     41  C   UNL A   1      38.073  33.710  33.176  1.00  0.00     0.338 C 
ATOM     42  O   UNL A   1      38.003  34.878  33.484  1.00  0.00    -0.246 OA
BRANCH  41  43
ATOM     43  C   UNL A   1      39.228  33.124  32.426  1.00  0.00     0.060 A 
ATOM     44  C   UNL A   1      39.038  32.474  31.213  1.00  0.00     0.016 A 
ATOM     45  C   UNL A   1      40.525  33.214  32.950  1.00  0.00     0.016 A 
ATOM     46  C   UNL A   1      40.128  31.853  30.581  1.00  0.00     0.010 A 
ATOM     47  C   UNL A   1      41.578  32.473  32.404  1.00  0.00     0.010 A 
ATOM     48  C   UNL A   1      41.394  31.806  31.192  1.00  0.00    -0.014 A 
BRANCH  48  49
ATOM     49  C   UNL A   1      42.563  31.306  30.425  1.00  0.00     0.031 A 
ATOM     50  C   UNL A   1      43.500  32.215  29.692  1.00  0.00     0.074 A 
ATOM     51  C   UNL A   1      42.799  29.981  30.469  1.00  0.00     0.049 A 
ATOM     52  N   UNL A   1      44.730  31.984  29.316  1.00  0.00    -0.248 NA
ATOM     53  C   UNL A   1      42.991  33.539  29.310  1.00  0.00     0.031 C 
ATOM     54  C   UNL A   1      41.892  28.999  31.065  1.00  0.00     0.029 A 
ATOM     55  N   UNL A   1      43.865  29.237  30.039  1.00  0.00    -0.354 N 
ATOM     56  C   UNL A   1      45.173  33.152  28.705  1.00  0.00     0.074 A 
ATOM     57  C   UNL A   1      44.046  34.063  28.690  1.00  0.00     0.031 C 
ATOM     58  C   UNL A   1      42.453  27.786  30.997  1.00  0.00     0.029 A 
ATOM     59  C   UNL A   1      43.773  27.909  30.387  1.00  0.00     0.049 A 
ATOM     60  H   UNL A   1      44.621  29.613  29.532  1.00  0.00     0.167 HD
ATOM     61  C   UNL A   1      46.415  33.425  28.232  1.00  0.00     0.034 A 
ATOM     62  C   UNL A   1      44.669  26.907  30.291  1.00  0.00     0.034 A 
ATOM     63  C   UNL A   1      47.490  32.455  28.235  1.00  0.00     0.049 A 
ATOM     64  C   UNL A   1      46.060  27.242  29.829  1.00  0.00     0.074 A 
ATOM     65  C   UNL A   1      48.811  32.637  27.867  1.00  0.00     0.029 A 
ATOM     66  N   UNL A   1      47.362  31.120  28.602  1.00  0.00    -0.354 N 
ATOM     67  N   UNL A   1      46.543  28.403  29.452  1.00  0.00    -0.248 NA
ATOM     68  C   UNL A   1      47.042  26.152  29.819  1.00  0.00     0.031 C 
ATOM     69  C   UNL A   1      49.457  31.402  27.931  1.00  0.00     0.029 A 
ATOM     70  C   UNL A   1      48.568  30.461  28.430  1.00  0.00     0.049 A 
ATOM     71  H   UNL A   1      46.535  30.705  28.936  1.00  0.00     0.167 HD
ATOM     72  C   UNL A   1      47.888  28.189  29.176  1.00  0.00     0.074 A 
ATOM     73  C   UNL A   1      48.149  26.793  29.465  1.00  0.00     0.031 C 
ATOM     74  C   UNL A   1      48.818  29.066  28.718  1.00  0.00     0.034 A 
BRANCH  61  75
ATOM     75  C   UNL A   1      46.736  34.818  27.729  1.00  0.00     0.023 A 
ATOM     76  C   UNL A   1      47.061  35.853  28.630  1.00  0.00     0.031 A 
ATOM     77  C   UNL A   1      46.528  35.164  26.380  1.00  0.00     0.131 A 
ATOM     78  C   UNL A   1      47.126  37.181  28.180  1.00  0.00     0.055 A 
ATOM     79  C   UNL A   1      46.638  36.481  25.930  1.00  0.00     0.041 A 
ATOM     80  F   UNL A   1      46.194  34.225  25.479  1.00  0.00    -0.206 F 
ATOM     81  C   UNL A   1      46.922  37.500  26.833  1.00  0.00     0.022 A 
BRANCH  78  82
ATOM     82  S   UNL A   1      47.388  38.561  29.332  1.00  0.00     0.124 S 
ATOM     83  O   UNL A   1      46.175  38.509  30.144  1.00  0.00    -0.237 OA
ATOM     84  O   UNL A   1      48.613  38.159  30.017  1.00  0.00    -0.237 OA
ATOM     85  O   UNL A   1      47.504  39.727  28.463  1.00  0.00    -0.744 OA
ENDBRANCH  78  82
ENDBRANCH  61  75
BRANCH  62  86
ATOM     86  C   UNL A   1      44.277  25.557  30.790  1.00  0.00     0.023 A 
ATOM     87  C   UNL A   1      44.449  25.225  32.147  1.00  0.00     0.031 A 
ATOM     88  C   UNL A   1      43.894  24.537  29.903  1.00  0.00     0.131 A 
ATOM     89  C   UNL A   1      44.317  23.894  32.561  1.00  0.00     0.055 A 
ATOM     90  C   UNL A   1      43.687  23.226  30.336  1.00  0.00     0.041 A 
ATOM     91  F   UNL A   1      43.747  24.797  28.595  1.00  0.00    -0.206 F 
ATOM     92  C   UNL A   1      43.919  22.894  31.668  1.00  0.00     0.022 A 
BRANCH  89  93
ATOM     93  S   UNL A   1      44.818  23.390  34.232  1.00  0.00     0.124 S 
ATOM     94  O   UNL A   1      45.204  24.663  34.830  1.00  0.00    -0.237 OA
ATOM     95  O   UNL A   1      43.586  22.797  34.748  1.00  0.00    -0.237 OA
ATOM     96  O   UNL A   1      45.906  22.446  33.996  1.00  0.00    -0.744 OA
ENDBRANCH  89  93
ENDBRANCH  62  86
BRANCH  74  97
ATOM     97  C   UNL A   1      50.220  28.559  28.466  1.00  0.00     0.023 A 
ATOM     98  C   UNL A   1      50.513  27.864  27.276  1.00  0.00     0.031 A 
ATOM     99  C   UNL A   1      51.208  28.615  29.463  1.00  0.00     0.131 A 
ATOM    100  C   UNL A   1      51.743  27.208  27.138  1.00  0.00     0.055 A 
ATOM    101  C   UNL A   1      52.454  28.010  29.297  1.00  0.00     0.041 A 
ATOM    102  F   UNL A   1      50.973  29.254  30.621  1.00  0.00    -0.206 F 
ATOM    103  C   UNL A   1      52.719  27.287  28.137  1.00  0.00     0.022 A 
BRANCH 100 104
ATOM    104  S   UNL A   1      52.079  26.141  25.710  1.00  0.00     0.124 S 
ATOM    105  O   UNL A   1      53.289  26.748  25.159  1.00  0.00    -0.237 OA
ATOM    106  O   UNL A   1      52.268  24.837  26.340  1.00  0.00    -0.237 OA
ATOM    107  O   UNL A   1      50.887  26.273  24.882  1.00  0.00    -0.744 OA
ENDBRANCH 100 104
ENDBRANCH  74  97
ENDBRANCH  48  49
ENDBRANCH  41  43
ENDBRANCH  40  41
ENDBRANCH  39  40
ENDBRANCH  38  39
ENDBRANCH  37  38
ENDBRANCH  36  37
ENDBRANCH   1  36
TORSDOF 25
ENDMDL
MODEL 3
REMARK VINA RESULT:     -10.1      3.488      5.400
REMARK SMILES O=C(Cn1c2ccccc2c(=O)c2ccccc21)N[C@@H](Cc1ccccc1)C(=O)OCCOCCOCCOC(=O)c1ccc(-c2c3nc(c(-c4cc(S(=O)(=O)[O-])ccc4F)c4ccc([nH]4)c(-c4cc(S(=O)(=O)[O-])ccc4F)c4nc(c(-c5cc(S(=O)(=O)[O-])ccc5F)c5ccc2[nH]5)C=C4)C=C3)cc1
REMARK SMILES IDX 34 1 33 2 32 3 31 4 30 5 28 6 29 7 20 8 19 9 1 10 2 11 3 13
REMARK SMILES IDX 4 14 5 15 18 16 6 17 10 18 13 19 17 20 7 21 9 22 11 23 14 24
REMARK SMILES IDX 16 25 8 26 12 27 15 28 21 29 22 30 23 31 27 32 24 33 26 34
REMARK SMILES IDX 25 35 35 36 36 37 37 38 38 39 39 40 40 41 41 42 42 43 43 44
REMARK SMILES IDX 104 45 44 46 103 47 45 48 46 49 47 50 97 51 48 52 102 53
REMARK SMILES IDX 96 54 98 55 49 56 101 57 95 58 94 59 50 61 82 62 62 63 81 64
REMARK SMILES IDX 63 65 66 66 80 67 99 68 64 69 65 70 79 72 100 73 67 74 51 75
REMARK SMILES IDX 52 76 60 77 53 78 59 79 61 80 58 81 54 82 55 83 56 84 57 85
REMARK SMILES IDX 83 86 84 87 92 88 85 89 91 90 93 91 90 92 86 93 87 94 88 95
REMARK SMILES IDX 89 96 68 97 69 98 77 99 70 100 76 101 78 102 75 103 71 104
REMARK SMILES IDX 72 105 73 106 74 107
REMARK H PARENT 19 12 98 60 66 71
REMARK Flexibility Score: inf
ROOT
ATOM      1  C   UNL A   1      34.546  34.811  31.589  1.00  0.00     0.188 C 
ENDROOT
BRANCH   1   2
ATOM      2  O   UNL A   1      33.954  34.185  30.452  1.00  0.00    -0.376 OA
BRANCH   2   3
ATOM      3  C   UNL A   1      34.129  34.864  29.214  1.00  0.00     0.202 C 
BRANCH   3   4
ATOM      4  C   UNL A   1      34.382  33.978  27.985  1.00  0.00     0.261 C 
BRANCH   4   5
ATOM      5  O   UNL A   1      35.132  32.745  28.234  1.00  0.00    -0.462 OA
BRANCH   5   6
ATOM      6  C   UNL A   1      34.451  31.588  27.965  1.00  0.00     0.329 C 
ATOM      7  O   UNL A   1      33.246  31.470  28.189  1.00  0.00    -0.250 OA
BRANCH   6   8
ATOM      8  C   UNL A   1      35.307  30.333  27.590  1.00  0.00     0.196 C 
BRANCH   8   9
ATOM      9  N   UNL A   1      35.197  29.484  26.354  1.00  0.00    -0.341 N 
ATOM     10  O   UNL A   1      33.474  28.320  27.275  1.00  0.00    -0.273 OA
ATOM     11  C   UNL A   1      34.218  28.487  26.298  1.00  0.00     0.240 C 
ATOM     12  H   UNL A   1      35.806  29.627  25.593  1.00  0.00     0.164 HD
BRANCH  11  13
ATOM     13  C   UNL A   1      34.038  27.515  25.068  1.00  0.00     0.222 C 
BRANCH  13  14
ATOM     14  N   UNL A   1      33.091  26.379  25.164  1.00  0.00    -0.331 N 
ATOM     15  C   UNL A   1      33.578  25.128  25.544  1.00  0.00     0.053 A 
ATOM     16  C   UNL A   1      31.725  26.496  24.830  1.00  0.00     0.053 A 
ATOM     17  C   UNL A   1      34.881  24.714  25.259  1.00  0.00     0.027 A 
ATOM     18  C   UNL A   1      32.727  24.273  26.253  1.00  0.00     0.046 A 
ATOM     19  C   UNL A   1      30.791  25.620  25.434  1.00  0.00     0.046 A 
ATOM     20  C   UNL A   1      31.242  27.311  23.805  1.00  0.00     0.027 A 
ATOM     21  C   UNL A   1      35.434  23.681  25.974  1.00  0.00     0.002 A 
ATOM     22  C   UNL A   1      33.228  23.142  26.840  1.00  0.00     0.014 A 
ATOM     23  C   UNL A   1      31.301  24.627  26.397  1.00  0.00     0.197 A 
ATOM     24  C   UNL A   1      29.439  25.571  25.076  1.00  0.00     0.014 A 
ATOM     25  C   UNL A   1      29.897  27.225  23.394  1.00  0.00     0.002 A 
ATOM     26  C   UNL A   1      34.605  22.948  26.802  1.00  0.00     0.001 A 
ATOM     27  O   UNL A   1      30.564  24.102  27.222  1.00  0.00    -0.288 OA
ATOM     28  C   UNL A   1      28.997  26.368  24.031  1.00  0.00     0.001 A 
ENDBRANCH  13  14
ENDBRANCH  11  13
ENDBRANCH   8   9
BRANCH   8  29
ATOM     29  C   UNL A   1      36.780  30.810  27.790  1.00  0.00     0.072 C 
BRANCH  29  30
ATOM     30  C   UNL A   1      37.440  30.002  28.890  1.00  0.00    -0.045 A 
ATOM     31  C   UNL A   1      38.400  29.029  28.581  1.00  0.00     0.004 A 
ATOM     32  C   UNL A   1      36.942  30.081  30.195  1.00  0.00     0.004 A 
ATOM     33  C   UNL A   1      38.741  28.061  29.523  1.00  0.00     0.000 A 
ATOM     34  C   UNL A   1      37.297  29.123  31.139  1.00  0.00     0.000 A 
ATOM     35  C   UNL A   1      38.170  28.094  30.794  1.00  0.00     0.000 A 
ENDBRANCH  29  30
ENDBRANCH   8  29
ENDBRANCH   6   8
ENDBRANCH   5   6
ENDBRANCH   4   5
ENDBRANCH   3   4
ENDBRANCH   2   3
ENDBRANCH   1   2
BRANCH   1  36
ATOM     36  C   UNL A   1      34.178  34.153  32.934  1.00  0.00     0.188 C 
BRANCH  36  37
ATOM     37  O   UNL A   1      34.816  32.906  33.182  1.00  0.00    -0.376 OA
BRANCH  37  38
ATOM     38  C   UNL A   1      36.192  32.803  32.862  1.00  0.00     0.202 C 
BRANCH  38  39
ATOM     39  C   UNL A   1      36.903  31.800  33.802  1.00  0.00     0.261 C 
BRANCH  39  40
ATOM     40  O   UNL A   1      38.282  31.508  33.440  1.00  0.00    -0.460 OA
BRANCH  40  41
ATOM     41  C   UNL A   1      39.049  32.577  33.035  1.00  0.00     0.338 C 
ATOM     42  O   UNL A   1      38.969  33.715  33.436  1.00  0.00    -0.246 OA
BRANCH  41  43
ATOM     43  C   UNL A   1      40.117  32.106  32.099  1.00  0.00     0.060 A 
ATOM     44  C   UNL A   1      39.908  32.087  30.726  1.00  0.00     0.016 A 
ATOM     45  C   UNL A   1      41.349  31.664  32.603  1.00  0.00     0.016 A 
ATOM     46  C   UNL A   1      40.895  31.553  29.881  1.00  0.00     0.010 A 
ATOM     47  C   UNL A   1      42.266  30.996  31.785  1.00  0.00     0.010 A 
ATOM     48  C   UNL A   1      42.058  30.961  30.405  1.00  0.00    -0.014 A 
BRANCH  48  49
ATOM     49  C   UNL A   1      43.161  30.570  29.491  1.00  0.00     0.031 A 
ATOM     50  C   UNL A   1      44.173  31.547  28.977  1.00  0.00     0.074 A 
ATOM     51  C   UNL A   1      43.266  29.262  29.186  1.00  0.00     0.049 A 
ATOM     52  N   UNL A   1      45.369  31.309  28.506  1.00  0.00    -0.248 NA
ATOM     53  C   UNL A   1      43.792  32.966  28.965  1.00  0.00     0.031 C 
ATOM     54  C   UNL A   1      42.276  28.248  29.548  1.00  0.00     0.029 A 
ATOM     55  N   UNL A   1      44.247  28.559  28.539  1.00  0.00    -0.354 N 
ATOM     56  C   UNL A   1      45.916  32.549  28.195  1.00  0.00     0.074 A 
ATOM     57  C   UNL A   1      44.884  33.533  28.458  1.00  0.00     0.031 C 
ATOM     58  C   UNL A   1      42.713  27.047  29.151  1.00  0.00     0.029 A 
ATOM     59  C   UNL A   1      44.029  27.201  28.540  1.00  0.00     0.049 A 
ATOM     60  H   UNL A   1      45.029  28.982  28.115  1.00  0.00     0.167 HD
ATOM     61  C   UNL A   1      47.172  32.820  27.759  1.00  0.00     0.034 A 
ATOM     62  C   UNL A   1      44.820  26.180  28.157  1.00  0.00     0.034 A 
ATOM     63  C   UNL A   1      48.145  31.787  27.473  1.00  0.00     0.049 A 
ATOM     64  C   UNL A   1      46.231  26.494  27.742  1.00  0.00     0.074 A 
ATOM     65  C   UNL A   1      49.473  31.936  27.111  1.00  0.00     0.029 A 
ATOM     66  N   UNL A   1      47.891  30.420  27.492  1.00  0.00    -0.354 N 
ATOM     67  N   UNL A   1      46.820  27.663  27.653  1.00  0.00    -0.248 NA
ATOM     68  C   UNL A   1      47.100  25.357  27.415  1.00  0.00     0.031 C 
ATOM     69  C   UNL A   1      49.994  30.672  26.833  1.00  0.00     0.029 A 
ATOM     70  C   UNL A   1      49.024  29.720  27.110  1.00  0.00     0.049 A 
ATOM     71  H   UNL A   1      47.032  30.011  27.742  1.00  0.00     0.167 HD
ATOM     72  C   UNL A   1      48.134  27.405  27.279  1.00  0.00     0.074 A 
ATOM     73  C   UNL A   1      48.259  25.963  27.192  1.00  0.00     0.031 C 
ATOM     74  C   UNL A   1      49.139  28.280  27.023  1.00  0.00     0.034 A 
BRANCH  61  75
ATOM     75  C   UNL A   1      47.621  34.259  27.615  1.00  0.00     0.023 A 
ATOM     76  C   UNL A   1      48.094  34.982  28.730  1.00  0.00     0.031 A 
ATOM     77  C   UNL A   1      47.397  34.970  26.420  1.00  0.00     0.131 A 
ATOM     78  C   UNL A   1      48.284  36.370  28.638  1.00  0.00     0.055 A 
ATOM     79  C   UNL A   1      47.630  36.343  26.322  1.00  0.00     0.041 A 
ATOM     80  F   UNL A   1      46.925  34.340  25.332  1.00  0.00    -0.206 F 
ATOM     81  C   UNL A   1      48.060  37.053  27.438  1.00  0.00     0.022 A 
BRANCH  78  82
ATOM     82  S   UNL A   1      48.743  37.363  30.088  1.00  0.00     0.124 S 
ATOM     83  O   UNL A   1      50.189  37.160  30.146  1.00  0.00    -0.237 OA
ATOM     84  O   UNL A   1      48.318  38.702  29.690  1.00  0.00    -0.237 OA
ATOM     85  O   UNL A   1      47.988  36.759  31.180  1.00  0.00    -0.744 OA
ENDBRANCH  78  82
ENDBRANCH  61  75
BRANCH  62  86
ATOM     86  C   UNL A   1      44.304  24.788  28.311  1.00  0.00     0.023 A 
ATOM     87  C   UNL A   1      43.701  24.132  27.221  1.00  0.00     0.031 A 
ATOM     88  C   UNL A   1      44.249  24.168  29.570  1.00  0.00     0.131 A 
ATOM     89  C   UNL A   1      43.002  22.936  27.428  1.00  0.00     0.055 A 
ATOM     90  C   UNL A   1      43.618  22.937  29.755  1.00  0.00     0.041 A 
ATOM     91  F   UNL A   1      44.782  24.769  30.644  1.00  0.00    -0.206 F 
ATOM     92  C   UNL A   1      42.971  22.325  28.685  1.00  0.00     0.022 A 
BRANCH  89  93
ATOM     93  S   UNL A   1      41.974  22.225  26.112  1.00  0.00     0.124 S 
ATOM     94  O   UNL A   1      42.007  20.803  26.435  1.00  0.00    -0.237 OA
ATOM     95  O   UNL A   1      40.694  22.894  26.338  1.00  0.00    -0.237 OA
ATOM     96  O   UNL A   1      42.665  22.612  24.886  1.00  0.00    -0.744 OA
ENDBRANCH  89  93
ENDBRANCH  62  86
BRANCH  74  97
ATOM     97  C   UNL A   1      50.480  27.729  26.595  1.00  0.00     0.023 A 
ATOM     98  C   UNL A   1      51.510  27.568  27.543  1.00  0.00     0.031 A 
ATOM     99  C   UNL A   1      50.788  27.526  25.239  1.00  0.00     0.131 A 
ATOM    100  C   UNL A   1      52.809  27.269  27.115  1.00  0.00     0.055 A 
ATOM    101  C   UNL A   1      52.071  27.169  24.823  1.00  0.00     0.041 A 
ATOM    102  F   UNL A   1      49.844  27.680  24.295  1.00  0.00    -0.206 F 
ATOM    103  C   UNL A   1      53.092  27.057  25.763  1.00  0.00     0.022 A 
BRANCH 100 104
ATOM    104  S   UNL A   1      54.198  27.250  28.283  1.00  0.00     0.124 S 
ATOM    105  O   UNL A   1      54.625  25.853  28.220  1.00  0.00    -0.237 OA
ATOM    106  O   UNL A   1      55.118  28.211  27.680  1.00  0.00    -0.237 OA
ATOM    107  O   UNL A   1      53.600  27.659  29.549  1.00  0.00    -0.744 OA
ENDBRANCH 100 104
ENDBRANCH  74  97
ENDBRANCH  48  49
ENDBRANCH  41  43
ENDBRANCH  40  41
ENDBRANCH  39  40
ENDBRANCH  38  39
ENDBRANCH  37  38
ENDBRANCH  36  37
ENDBRANCH   1  36
TORSDOF 25
ENDMDL
