MODEL 1
REMARK VINA RESULT:     -10.3      0.000      0.000
REMARK SMILES O=C1NC(=O)/C(=C/c2ccc(OCc3cn(-c4ccc(C(=O)OCCOCCOCCOC(=O)c5ccc(-c6c7nc(c(-c8cc(S(=O)(=O)[O-])ccc8F)c8ccc([nH]8)c(-c8cc(S(=O)(=O)[O-])ccc8F)c8nc(c(-c9cc(S(=O)(=O)[O-])ccc9F)c9ccc6[nH]9)C=C8)C=C7)cc5)cc4)nn3)cc2)S1
REMARK SMILES IDX 27 1 26 2 25 3 24 4 23 5 21 6 22 7 20 8 17 9 18 10 99 11
REMARK SMILES IDX 19 12 98 13 16 14 14 15 15 16 101 17 100 18 13 19 12 20
REMARK SMILES IDX 11 21 8 22 9 23 103 24 10 25 102 26 7 27 1 28 2 29 3 30
REMARK SMILES IDX 104 31 4 32 6 34 5 35 28 36 29 37 30 38 31 39 32 40 33 41
REMARK SMILES IDX 34 42 35 43 36 44 97 45 37 46 96 47 38 48 39 49 40 50 90 51
REMARK SMILES IDX 41 52 95 53 89 54 91 55 42 56 94 57 88 58 87 59 43 61 75 62
REMARK SMILES IDX 55 63 74 64 56 65 59 66 73 67 92 68 57 69 58 70 72 72 93 73
REMARK SMILES IDX 60 74 44 75 45 76 53 77 46 78 52 79 54 80 51 81 47 82 48 83
REMARK SMILES IDX 49 84 50 85 76 86 77 87 85 88 78 89 84 90 86 91 83 92 79 93
REMARK SMILES IDX 80 94 81 95 82 96 61 97 62 98 70 99 63 100 69 101 71 102
REMARK SMILES IDX 68 103 64 104 65 105 66 106 67 107
REMARK H PARENT 3 33 91 60 59 71
REMARK Flexibility Score: inf
ROOT
ATOM      1  C   UNL A   1      36.240  23.714  25.083  1.00  0.00     0.188 C 
ENDROOT
BRANCH   1   2
ATOM      2  O   UNL A   1      34.976  24.263  25.391  1.00  0.00    -0.376 OA
BRANCH   2   3
ATOM      3  C   UNL A   1      33.817  23.456  25.497  1.00  0.00     0.202 C 
BRANCH   3   4
ATOM      4  C   UNL A   1      32.446  23.772  24.865  1.00  0.00     0.261 C 
BRANCH   4   5
ATOM      5  O   UNL A   1      32.216  25.110  24.423  1.00  0.00    -0.460 OA
BRANCH   5   6
ATOM      6  C   UNL A   1      31.164  25.738  24.993  1.00  0.00     0.338 C 
ATOM      7  O   UNL A   1      30.088  25.249  25.294  1.00  0.00    -0.246 OA
BRANCH   6   8
ATOM      8  C   UNL A   1      31.550  27.110  25.371  1.00  0.00     0.060 A 
ATOM      9  C   UNL A   1      32.181  29.658  26.292  1.00  0.00     0.066 A 
ATOM     10  C   UNL A   1      32.733  28.534  26.925  1.00  0.00     0.029 A 
ATOM     11  C   UNL A   1      31.397  29.510  25.139  1.00  0.00     0.029 A 
ATOM     12  C   UNL A   1      32.382  27.262  26.488  1.00  0.00     0.018 A 
ATOM     13  C   UNL A   1      31.105  28.229  24.659  1.00  0.00     0.018 A 
BRANCH   9  14
ATOM     14  N   UNL A   1      32.335  30.918  26.913  1.00  0.00    -0.220 N 
ATOM     15  C   UNL A   1      33.206  32.727  27.769  1.00  0.00     0.120 A 
ATOM     16  C   UNL A   1      33.406  31.366  27.656  1.00  0.00     0.144 A 
ATOM     17  N   UNL A   1      32.021  33.045  27.162  1.00  0.00    -0.131 NA
ATOM     18  N   UNL A   1      31.504  31.947  26.644  1.00  0.00    -0.062 NA
BRANCH  15  19
ATOM     19  C   UNL A   1      34.100  33.804  28.289  1.00  0.00     0.289 C 
BRANCH  19  20
ATOM     20  O   UNL A   1      35.502  33.608  28.052  1.00  0.00    -0.487 OA
BRANCH  20  21
ATOM     21  C   UNL A   1      36.322  33.451  29.137  1.00  0.00     0.119 A 
ATOM     22  C   UNL A   1      38.195  32.855  31.146  1.00  0.00    -0.024 A 
ATOM     23  C   UNL A   1      38.623  33.122  29.843  1.00  0.00     0.012 A 
ATOM     24  C   UNL A   1      36.837  32.979  31.452  1.00  0.00     0.012 A 
ATOM     25  C   UNL A   1      37.687  33.415  28.845  1.00  0.00     0.047 A 
ATOM     26  C   UNL A   1      35.910  33.298  30.458  1.00  0.00     0.047 A 
BRANCH  22  27
ATOM     27  C   UNL A   1      39.148  32.451  32.181  1.00  0.00     0.029 C 
ATOM     28  O   UNL A   1      39.770  35.642  36.028  1.00  0.00    -0.261 OA
ATOM     29  C   UNL A   1      39.773  34.725  35.220  1.00  0.00     0.290 C 
ATOM     30  N   UNL A   1      40.582  33.639  35.257  1.00  0.00    -0.282 N 
ATOM     31  S   UNL A   1      38.726  34.639  33.821  1.00  0.00    -0.022 SA
ATOM     32  C   UNL A   1      40.474  32.722  34.253  1.00  0.00     0.265 C 
ATOM     33  H   UNL A   1      41.231  33.515  35.987  1.00  0.00     0.174 HD
ATOM     34  C   UNL A   1      39.428  33.155  33.288  1.00  0.00     0.083 C 
ATOM     35  O   UNL A   1      41.148  31.710  34.150  1.00  0.00    -0.268 OA
ENDBRANCH  22  27
ENDBRANCH  20  21
ENDBRANCH  19  20
ENDBRANCH  15  19
ENDBRANCH   9  14
ENDBRANCH   6   8
ENDBRANCH   5   6
ENDBRANCH   4   5
ENDBRANCH   3   4
ENDBRANCH   2   3
ENDBRANCH   1   2
BRANCH   1  36
ATOM     36  C   UNL A   1      36.362  22.243  24.644  1.00  0.00     0.188 C 
BRANCH  36  37
ATOM     37  O   UNL A   1      37.004  21.351  25.525  1.00  0.00    -0.376 OA
BRANCH  37  38
ATOM     38  C   UNL A   1      38.227  20.717  25.200  1.00  0.00     0.202 C 
BRANCH  38  39
ATOM     39  C   UNL A   1      39.590  20.978  25.842  1.00  0.00     0.261 C 
BRANCH  39  40
ATOM     40  O   UNL A   1      40.348  19.869  26.278  1.00  0.00    -0.460 OA
BRANCH  40  41
ATOM     41  C   UNL A   1      41.653  19.958  25.939  1.00  0.00     0.338 C 
ATOM     42  O   UNL A   1      42.278  19.180  25.237  1.00  0.00    -0.246 OA
BRANCH  41  43
ATOM     43  C   UNL A   1      42.258  21.078  26.656  1.00  0.00     0.060 A 
ATOM     44  C   UNL A   1      42.054  21.145  28.034  1.00  0.00     0.016 A 
ATOM     45  C   UNL A   1      42.738  22.167  25.915  1.00  0.00     0.016 A 
ATOM     46  C   UNL A   1      42.163  22.374  28.646  1.00  0.00     0.010 A 
ATOM     47  C   UNL A   1      42.821  23.396  26.525  1.00  0.00     0.010 A 
ATOM     48  C   UNL A   1      42.459  23.501  27.867  1.00  0.00    -0.014 A 
BRANCH  48  49
ATOM     49  C   UNL A   1      42.561  24.787  28.529  1.00  0.00     0.031 A 
ATOM     50  C   UNL A   1      41.365  25.617  28.280  1.00  0.00     0.074 A 
ATOM     51  C   UNL A   1      43.573  25.127  29.352  1.00  0.00     0.049 A 
ATOM     52  N   UNL A   1      41.289  26.662  27.528  1.00  0.00    -0.248 NA
ATOM     53  C   UNL A   1      40.055  25.099  28.716  1.00  0.00     0.031 C 
ATOM     54  C   UNL A   1      44.670  24.276  29.817  1.00  0.00     0.029 A 
ATOM     55  N   UNL A   1      43.788  26.291  30.031  1.00  0.00    -0.354 N 
ATOM     56  C   UNL A   1      39.980  27.103  27.658  1.00  0.00     0.074 A 
ATOM     57  C   UNL A   1      39.231  25.982  28.150  1.00  0.00     0.031 C 
ATOM     58  C   UNL A   1      45.289  24.874  30.861  1.00  0.00     0.029 A 
ATOM     59  C   UNL A   1      44.710  26.192  31.074  1.00  0.00     0.049 A 
ATOM     60  H   UNL A   1      43.330  27.132  29.803  1.00  0.00     0.167 HD
ATOM     61  C   UNL A   1      39.715  28.436  27.692  1.00  0.00     0.034 A 
ATOM     62  C   UNL A   1      44.934  27.096  32.072  1.00  0.00     0.034 A 
ATOM     63  C   UNL A   1      40.804  29.191  27.102  1.00  0.00     0.049 A 
ATOM     64  C   UNL A   1      44.443  28.409  31.581  1.00  0.00     0.074 A 
ATOM     65  C   UNL A   1      41.464  29.138  25.886  1.00  0.00     0.029 A 
ATOM     66  N   UNL A   1      41.637  29.900  27.940  1.00  0.00    -0.354 N 
ATOM     67  N   UNL A   1      44.999  29.055  30.594  1.00  0.00    -0.248 NA
ATOM     68  C   UNL A   1      43.055  28.759  31.841  1.00  0.00     0.031 C 
ATOM     69  C   UNL A   1      42.836  29.369  26.199  1.00  0.00     0.029 A 
ATOM     70  C   UNL A   1      42.935  29.655  27.561  1.00  0.00     0.049 A 
ATOM     71  H   UNL A   1      41.352  30.481  28.682  1.00  0.00     0.167 HD
ATOM     72  C   UNL A   1      43.938  29.516  29.831  1.00  0.00     0.074 A 
ATOM     73  C   UNL A   1      42.768  29.394  30.700  1.00  0.00     0.031 C 
ATOM     74  C   UNL A   1      44.062  29.673  28.478  1.00  0.00     0.034 A 
BRANCH  61  75
ATOM     75  C   UNL A   1      38.714  29.057  28.647  1.00  0.00     0.023 A 
ATOM     76  C   UNL A   1      38.952  28.870  30.019  1.00  0.00     0.031 A 
ATOM     77  C   UNL A   1      37.423  29.534  28.310  1.00  0.00     0.131 A 
ATOM     78  C   UNL A   1      37.917  29.024  30.956  1.00  0.00     0.055 A 
ATOM     79  C   UNL A   1      36.419  29.754  29.256  1.00  0.00     0.041 A 
ATOM     80  F   UNL A   1      37.015  29.735  27.053  1.00  0.00    -0.206 F 
ATOM     81  C   UNL A   1      36.651  29.462  30.586  1.00  0.00     0.022 A 
BRANCH  78  82
ATOM     82  S   UNL A   1      38.213  28.453  32.646  1.00  0.00     0.124 S 
ATOM     83  O   UNL A   1      39.481  29.108  32.950  1.00  0.00    -0.237 OA
ATOM     84  O   UNL A   1      37.039  28.965  33.344  1.00  0.00    -0.237 OA
ATOM     85  O   UNL A   1      38.272  27.001  32.506  1.00  0.00    -0.744 OA
ENDBRANCH  78  82
ENDBRANCH  61  75
BRANCH  62  86
ATOM     86  C   UNL A   1      45.234  26.831  33.515  1.00  0.00     0.023 A 
ATOM     87  C   UNL A   1      44.465  25.954  34.320  1.00  0.00     0.031 A 
ATOM     88  C   UNL A   1      46.469  27.252  34.059  1.00  0.00     0.131 A 
ATOM     89  C   UNL A   1      44.942  25.537  35.590  1.00  0.00     0.055 A 
ATOM     90  C   UNL A   1      46.932  26.839  35.309  1.00  0.00     0.041 A 
ATOM     91  F   UNL A   1      47.319  28.012  33.353  1.00  0.00    -0.206 F 
ATOM     92  C   UNL A   1      46.177  25.970  36.077  1.00  0.00     0.022 A 
BRANCH  89  93
ATOM     93  S   UNL A   1      44.009  24.340  36.608  1.00  0.00     0.124 S 
ATOM     94  O   UNL A   1      42.944  25.165  37.165  1.00  0.00    -0.237 OA
ATOM     95  O   UNL A   1      43.611  23.334  35.630  1.00  0.00    -0.237 OA
ATOM     96  O   UNL A   1      44.997  23.879  37.586  1.00  0.00    -0.744 OA
ENDBRANCH  89  93
ENDBRANCH  62  86
BRANCH  74  97
ATOM     97  C   UNL A   1      45.457  29.689  27.874  1.00  0.00     0.023 A 
ATOM     98  C   UNL A   1      46.304  30.820  27.785  1.00  0.00     0.031 A 
ATOM     99  C   UNL A   1      45.972  28.460  27.423  1.00  0.00     0.131 A 
ATOM    100  C   UNL A   1      47.596  30.694  27.232  1.00  0.00     0.055 A 
ATOM    101  C   UNL A   1      47.259  28.334  26.904  1.00  0.00     0.041 A 
ATOM    102  F   UNL A   1      45.231  27.342  27.495  1.00  0.00    -0.206 F 
ATOM    103  C   UNL A   1      48.073  29.454  26.796  1.00  0.00     0.022 A 
BRANCH 100 104
ATOM    104  S   UNL A   1      48.671  32.150  27.014  1.00  0.00     0.124 S 
ATOM    105  O   UNL A   1      47.918  33.004  26.103  1.00  0.00    -0.237 OA
ATOM    106  O   UNL A   1      48.814  32.644  28.381  1.00  0.00    -0.237 OA
ATOM    107  O   UNL A   1      49.896  31.584  26.443  1.00  0.00    -0.744 OA
ENDBRANCH 100 104
ENDBRANCH  74  97
ENDBRANCH  48  49
ENDBRANCH  41  43
ENDBRANCH  40  41
ENDBRANCH  39  40
ENDBRANCH  38  39
ENDBRANCH  37  38
ENDBRANCH  36  37
ENDBRANCH   1  36
TORSDOF 25
ENDMDL
MODEL 2
REMARK VINA RESULT:      -9.8      1.756      2.064
REMARK SMILES O=C1NC(=O)/C(=C/c2ccc(OCc3cn(-c4ccc(C(=O)OCCOCCOCCOC(=O)c5ccc(-c6c7nc(c(-c8cc(S(=O)(=O)[O-])ccc8F)c8ccc([nH]8)c(-c8cc(S(=O)(=O)[O-])ccc8F)c8nc(c(-c9cc(S(=O)(=O)[O-])ccc9F)c9ccc6[nH]9)C=C8)C=C7)cc5)cc4)nn3)cc2)S1
REMARK SMILES IDX 27 1 26 2 25 3 24 4 23 5 21 6 22 7 20 8 17 9 18 10 99 11
REMARK SMILES IDX 19 12 98 13 16 14 14 15 15 16 101 17 100 18 13 19 12 20
REMARK SMILES IDX 11 21 8 22 9 23 103 24 10 25 102 26 7 27 1 28 2 29 3 30
REMARK SMILES IDX 104 31 4 32 6 34 5 35 28 36 29 37 30 38 31 39 32 40 33 41
REMARK SMILES IDX 34 42 35 43 36 44 97 45 37 46 96 47 38 48 39 49 40 50 90 51
REMARK SMILES IDX 41 52 95 53 89 54 91 55 42 56 94 57 88 58 87 59 43 61 75 62
REMARK SMILES IDX 55 63 74 64 56 65 59 66 73 67 92 68 57 69 58 70 72 72 93 73
REMARK SMILES IDX 60 74 44 75 45 76 53 77 46 78 52 79 54 80 51 81 47 82 48 83
REMARK SMILES IDX 49 84 50 85 76 86 77 87 85 88 78 89 84 90 86 91 83 92 79 93
REMARK SMILES IDX 80 94 81 95 82 96 61 97 62 98 70 99 63 100 69 101 71 102
REMARK SMILES IDX 68 103 64 104 65 105 66 106 67 107
REMARK H PARENT 3 33 91 60 59 71
REMARK Flexibility Score: inf
ROOT
ATOM      1  C   UNL A   1      35.907  23.708  25.031  1.00  0.00     0.188 C 
ENDROOT
BRANCH   1   2
ATOM      2  O   UNL A   1      34.683  24.354  24.748  1.00  0.00    -0.376 OA
BRANCH   2   3
ATOM      3  C   UNL A   1      34.140  24.385  23.440  1.00  0.00     0.202 C 
BRANCH   3   4
ATOM      4  C   UNL A   1      32.684  24.749  23.084  1.00  0.00     0.261 C 
BRANCH   4   5
ATOM      5  O   UNL A   1      32.248  26.079  23.370  1.00  0.00    -0.460 OA
BRANCH   5   6
ATOM      6  C   UNL A   1      31.684  26.257  24.585  1.00  0.00     0.338 C 
ATOM      7  O   UNL A   1      31.137  25.414  25.276  1.00  0.00    -0.246 OA
BRANCH   6   8
ATOM      8  C   UNL A   1      31.966  27.622  25.067  1.00  0.00     0.060 A 
ATOM      9  C   UNL A   1      32.473  30.114  26.193  1.00  0.00     0.066 A 
ATOM     10  C   UNL A   1      33.343  29.045  26.453  1.00  0.00     0.029 A 
ATOM     11  C   UNL A   1      31.411  29.963  25.291  1.00  0.00     0.029 A 
ATOM     12  C   UNL A   1      33.062  27.791  25.922  1.00  0.00     0.018 A 
ATOM     13  C   UNL A   1      31.175  28.716  24.702  1.00  0.00     0.018 A 
BRANCH   9  14
ATOM     14  N   UNL A   1      32.625  31.298  26.949  1.00  0.00    -0.220 N 
ATOM     15  C   UNL A   1      33.487  33.027  27.965  1.00  0.00     0.120 A 
ATOM     16  C   UNL A   1      33.723  31.697  27.681  1.00  0.00     0.144 A 
ATOM     17  N   UNL A   1      32.259  33.368  27.467  1.00  0.00    -0.131 NA
ATOM     18  N   UNL A   1      31.747  32.319  26.850  1.00  0.00    -0.062 NA
BRANCH  15  19
ATOM     19  C   UNL A   1      34.377  34.069  28.560  1.00  0.00     0.289 C 
BRANCH  19  20
ATOM     20  O   UNL A   1      35.784  33.848  28.388  1.00  0.00    -0.487 OA
BRANCH  20  21
ATOM     21  C   UNL A   1      36.544  33.639  29.508  1.00  0.00     0.119 A 
ATOM     22  C   UNL A   1      38.363  33.033  31.563  1.00  0.00    -0.024 A 
ATOM     23  C   UNL A   1      38.806  33.652  30.392  1.00  0.00     0.012 A 
ATOM     24  C   UNL A   1      36.995  32.807  31.734  1.00  0.00     0.012 A 
ATOM     25  C   UNL A   1      37.899  33.948  29.369  1.00  0.00     0.047 A 
ATOM     26  C   UNL A   1      36.089  33.129  30.722  1.00  0.00     0.047 A 
BRANCH  22  27
ATOM     27  C   UNL A   1      39.310  32.627  32.603  1.00  0.00     0.029 C 
ATOM     28  O   UNL A   1      37.406  31.850  37.199  1.00  0.00    -0.261 OA
ATOM     29  C   UNL A   1      38.077  31.964  36.185  1.00  0.00     0.290 C 
ATOM     30  N   UNL A   1      39.425  31.840  36.109  1.00  0.00    -0.282 N 
ATOM     31  S   UNL A   1      37.425  32.334  34.605  1.00  0.00    -0.022 SA
ATOM     32  C   UNL A   1      40.020  32.030  34.897  1.00  0.00     0.265 C 
ATOM     33  H   UNL A   1      39.959  31.619  36.906  1.00  0.00     0.174 HD
ATOM     34  C   UNL A   1      38.988  32.353  33.876  1.00  0.00     0.083 C 
ATOM     35  O   UNL A   1      41.221  31.967  34.686  1.00  0.00    -0.268 OA
ENDBRANCH  22  27
ENDBRANCH  20  21
ENDBRANCH  19  20
ENDBRANCH  15  19
ENDBRANCH   9  14
ENDBRANCH   6   8
ENDBRANCH   5   6
ENDBRANCH   4   5
ENDBRANCH   3   4
ENDBRANCH   2   3
ENDBRANCH   1   2
BRANCH   1  36
ATOM     36  C   UNL A   1      35.938  22.194  25.315  1.00  0.00     0.188 C 
BRANCH  36  37
ATOM     37  O   UNL A   1      37.046  21.686  26.020  1.00  0.00    -0.376 OA
BRANCH  37  38
ATOM     38  C   UNL A   1      38.164  21.118  25.364  1.00  0.00     0.202 C 
BRANCH  38  39
ATOM     39  C   UNL A   1      39.620  21.172  25.827  1.00  0.00     0.261 C 
BRANCH  39  40
ATOM     40  O   UNL A   1      40.284  19.954  26.095  1.00  0.00    -0.460 OA
BRANCH  40  41
ATOM     41  C   UNL A   1      41.607  20.008  25.832  1.00  0.00     0.338 C 
ATOM     42  O   UNL A   1      42.247  19.222  25.153  1.00  0.00    -0.246 OA
BRANCH  41  43
ATOM     43  C   UNL A   1      42.204  21.097  26.601  1.00  0.00     0.060 A 
ATOM     44  C   UNL A   1      41.945  21.134  27.971  1.00  0.00     0.016 A 
ATOM     45  C   UNL A   1      42.737  22.194  25.909  1.00  0.00     0.016 A 
ATOM     46  C   UNL A   1      42.053  22.345  28.619  1.00  0.00     0.010 A 
ATOM     47  C   UNL A   1      42.819  23.405  26.554  1.00  0.00     0.010 A 
ATOM     48  C   UNL A   1      42.403  23.484  27.882  1.00  0.00    -0.014 A 
BRANCH  48  49
ATOM     49  C   UNL A   1      42.503  24.750  28.581  1.00  0.00     0.031 A 
ATOM     50  C   UNL A   1      41.332  25.609  28.310  1.00  0.00     0.074 A 
ATOM     51  C   UNL A   1      43.490  25.051  29.449  1.00  0.00     0.049 A 
ATOM     52  N   UNL A   1      41.302  26.674  27.584  1.00  0.00    -0.248 NA
ATOM     53  C   UNL A   1      39.998  25.104  28.684  1.00  0.00     0.031 C 
ATOM     54  C   UNL A   1      44.554  24.169  29.930  1.00  0.00     0.029 A 
ATOM     55  N   UNL A   1      43.700  26.193  30.165  1.00  0.00    -0.354 N 
ATOM     56  C   UNL A   1      39.998  27.135  27.677  1.00  0.00     0.074 A 
ATOM     57  C   UNL A   1      39.211  26.016  28.112  1.00  0.00     0.031 C 
ATOM     58  C   UNL A   1      45.144  24.728  31.012  1.00  0.00     0.029 A 
ATOM     59  C   UNL A   1      44.582  26.050  31.239  1.00  0.00     0.049 A 
ATOM     60  H   UNL A   1      43.266  27.048  29.943  1.00  0.00     0.167 HD
ATOM     61  C   UNL A   1      39.755  28.472  27.736  1.00  0.00     0.034 A 
ATOM     62  C   UNL A   1      44.784  26.925  32.267  1.00  0.00     0.034 A 
ATOM     63  C   UNL A   1      40.878  29.222  27.206  1.00  0.00     0.049 A 
ATOM     64  C   UNL A   1      44.334  28.258  31.793  1.00  0.00     0.074 A 
ATOM     65  C   UNL A   1      41.581  29.188  26.015  1.00  0.00     0.029 A 
ATOM     66  N   UNL A   1      41.691  29.893  28.093  1.00  0.00    -0.354 N 
ATOM     67  N   UNL A   1      44.938  28.919  30.844  1.00  0.00    -0.248 NA
ATOM     68  C   UNL A   1      42.944  28.628  32.011  1.00  0.00     0.031 C 
ATOM     69  C   UNL A   1      42.945  29.385  26.383  1.00  0.00     0.029 A 
ATOM     70  C   UNL A   1      42.998  29.634  27.755  1.00  0.00     0.049 A 
ATOM     71  H   UNL A   1      41.390  30.460  28.839  1.00  0.00     0.167 HD
ATOM     72  C   UNL A   1      43.915  29.419  30.055  1.00  0.00     0.074 A 
ATOM     73  C   UNL A   1      42.711  29.297  30.878  1.00  0.00     0.031 C 
ATOM     74  C   UNL A   1      44.091  29.608  28.712  1.00  0.00     0.034 A 
BRANCH  61  75
ATOM     75  C   UNL A   1      38.730  29.087  28.670  1.00  0.00     0.023 A 
ATOM     76  C   UNL A   1      38.939  28.900  30.047  1.00  0.00     0.031 A 
ATOM     77  C   UNL A   1      37.444  29.558  28.306  1.00  0.00     0.131 A 
ATOM     78  C   UNL A   1      37.884  29.047  30.962  1.00  0.00     0.055 A 
ATOM     79  C   UNL A   1      36.419  29.771  29.230  1.00  0.00     0.041 A 
ATOM     80  F   UNL A   1      37.062  29.757  27.040  1.00  0.00    -0.206 F 
ATOM     81  C   UNL A   1      36.624  29.479  30.565  1.00  0.00     0.022 A 
BRANCH  78  82
ATOM     82  S   UNL A   1      38.147  28.477  32.657  1.00  0.00     0.124 S 
ATOM     83  O   UNL A   1      38.230  27.033  32.463  1.00  0.00    -0.237 OA
ATOM     84  O   UNL A   1      39.390  29.152  33.010  1.00  0.00    -0.237 OA
ATOM     85  O   UNL A   1      36.958  28.950  33.360  1.00  0.00    -0.744 OA
ENDBRANCH  78  82
ENDBRANCH  61  75
BRANCH  62  86
ATOM     86  C   UNL A   1      45.026  26.617  33.712  1.00  0.00     0.023 A 
ATOM     87  C   UNL A   1      46.234  26.934  34.383  1.00  0.00     0.031 A 
ATOM     88  C   UNL A   1      43.942  26.232  34.534  1.00  0.00     0.131 A 
ATOM     89  C   UNL A   1      46.312  26.865  35.798  1.00  0.00     0.055 A 
ATOM     90  C   UNL A   1      44.025  26.164  35.926  1.00  0.00     0.041 A 
ATOM     91  F   UNL A   1      42.726  25.992  34.019  1.00  0.00    -0.206 F 
ATOM     92  C   UNL A   1      45.207  26.493  36.567  1.00  0.00     0.022 A 
BRANCH  89  93
ATOM     93  S   UNL A   1      47.831  27.352  36.690  1.00  0.00     0.124 S 
ATOM     94  O   UNL A   1      48.882  26.906  35.784  1.00  0.00    -0.237 OA
ATOM     95  O   UNL A   1      47.664  28.793  36.837  1.00  0.00    -0.237 OA
ATOM     96  O   UNL A   1      47.747  26.601  37.945  1.00  0.00    -0.744 OA
ENDBRANCH  89  93
ENDBRANCH  62  86
BRANCH  74  97
ATOM     97  C   UNL A   1      45.507  29.614  28.160  1.00  0.00     0.023 A 
ATOM     98  C   UNL A   1      46.118  28.556  27.445  1.00  0.00     0.031 A 
ATOM     99  C   UNL A   1      46.251  30.798  28.322  1.00  0.00     0.131 A 
ATOM    100  C   UNL A   1      47.432  28.701  26.953  1.00  0.00     0.055 A 
ATOM    101  C   UNL A   1      47.538  30.947  27.809  1.00  0.00     0.041 A 
ATOM    102  F   UNL A   1      45.727  31.849  28.973  1.00  0.00    -0.206 F 
ATOM    103  C   UNL A   1      48.139  29.894  27.132  1.00  0.00     0.022 A 
BRANCH 100 104
ATOM    104  S   UNL A   1      48.279  27.321  26.114  1.00  0.00     0.124 S 
ATOM    105  O   UNL A   1      49.566  27.240  26.795  1.00  0.00    -0.237 OA
ATOM    106  O   UNL A   1      47.365  26.205  26.341  1.00  0.00    -0.237 OA
ATOM    107  O   UNL A   1      48.355  27.768  24.721  1.00  0.00    -0.744 OA
ENDBRANCH 100 104
ENDBRANCH  74  97
ENDBRANCH  48  49
ENDBRANCH  41  43
ENDBRANCH  40  41
ENDBRANCH  39  40
ENDBRANCH  38  39
ENDBRANCH  37  38
ENDBRANCH  36  37
ENDBRANCH   1  36
TORSDOF 25
ENDMDL
MODEL 3
REMARK VINA RESULT:      -9.1      3.031      9.269
REMARK SMILES O=C1NC(=O)/C(=C/c2ccc(OCc3cn(-c4ccc(C(=O)OCCOCCOCCOC(=O)c5ccc(-c6c7nc(c(-c8cc(S(=O)(=O)[O-])ccc8F)c8ccc([nH]8)c(-c8cc(S(=O)(=O)[O-])ccc8F)c8nc(c(-c9cc(S(=O)(=O)[O-])ccc9F)c9ccc6[nH]9)C=C8)C=C7)cc5)cc4)nn3)cc2)S1
REMARK SMILES IDX 27 1 26 2 25 3 24 4 23 5 21 6 22 7 20 8 17 9 18 10 99 11
REMARK SMILES IDX 19 12 98 13 16 14 14 15 15 16 101 17 100 18 13 19 12 20
REMARK SMILES IDX 11 21 8 22 9 23 103 24 10 25 102 26 7 27 1 28 2 29 3 30
REMARK SMILES IDX 104 31 4 32 6 34 5 35 28 36 29 37 30 38 31 39 32 40 33 41
REMARK SMILES IDX 34 42 35 43 36 44 97 45 37 46 96 47 38 48 39 49 40 50 90 51
REMARK SMILES IDX 41 52 95 53 89 54 91 55 42 56 94 57 88 58 87 59 43 61 75 62
REMARK SMILES IDX 55 63 74 64 56 65 59 66 73 67 92 68 57 69 58 70 72 72 93 73
REMARK SMILES IDX 60 74 44 75 45 76 53 77 46 78 52 79 54 80 51 81 47 82 48 83
REMARK SMILES IDX 49 84 50 85 76 86 77 87 85 88 78 89 84 90 86 91 83 92 79 93
REMARK SMILES IDX 80 94 81 95 82 96 61 97 62 98 70 99 63 100 69 101 71 102
REMARK SMILES IDX 68 103 64 104 65 105 66 106 67 107
REMARK H PARENT 3 33 91 60 59 71
REMARK Flexibility Score: inf
ROOT
ATOM      1  C   UNL A   1      35.192  33.873  32.645  1.00  0.00     0.188 C 
ENDROOT
BRANCH   1   2
ATOM      2  O   UNL A   1      34.661  32.727  32.014  1.00  0.00    -0.376 OA
BRANCH   2   3
ATOM      3  C   UNL A   1      35.490  31.783  31.361  1.00  0.00     0.202 C 
BRANCH   3   4
ATOM      4  C   UNL A   1      36.115  31.958  29.961  1.00  0.00     0.261 C 
BRANCH   4   5
ATOM      5  O   UNL A   1      35.617  31.131  28.908  1.00  0.00    -0.460 OA
BRANCH   5   6
ATOM      6  C   UNL A   1      34.834  31.755  28.001  1.00  0.00     0.338 C 
ATOM      7  O   UNL A   1      34.895  32.923  27.652  1.00  0.00    -0.246 OA
BRANCH   6   8
ATOM      8  C   UNL A   1      33.962  30.769  27.336  1.00  0.00     0.060 A 
ATOM      9  C   UNL A   1      32.484  28.887  25.919  1.00  0.00     0.066 A 
ATOM     10  C   UNL A   1      33.720  28.525  26.473  1.00  0.00     0.029 A 
ATOM     11  C   UNL A   1      31.942  30.158  26.159  1.00  0.00     0.029 A 
ATOM     12  C   UNL A   1      34.475  29.480  27.144  1.00  0.00     0.018 A 
ATOM     13  C   UNL A   1      32.674  31.093  26.898  1.00  0.00     0.018 A 
BRANCH   9  14
ATOM     14  N   UNL A   1      31.864  27.988  25.022  1.00  0.00    -0.220 N 
ATOM     15  C   UNL A   1      30.845  26.249  24.184  1.00  0.00     0.120 A 
ATOM     16  C   UNL A   1      31.794  26.615  25.118  1.00  0.00     0.144 A 
ATOM     17  N   UNL A   1      30.426  27.373  23.526  1.00  0.00    -0.131 NA
ATOM     18  N   UNL A   1      31.043  28.419  24.040  1.00  0.00    -0.062 NA
BRANCH  15  19
ATOM     19  C   UNL A   1      30.182  24.935  23.933  1.00  0.00     0.289 C 
BRANCH  19  20
ATOM     20  O   UNL A   1      30.916  24.023  23.102  1.00  0.00    -0.487 OA
BRANCH  20  21
ATOM     21  C   UNL A   1      32.082  23.502  23.595  1.00  0.00     0.119 A 
ATOM     22  C   UNL A   1      34.523  22.270  24.244  1.00  0.00    -0.024 A 
ATOM     23  C   UNL A   1      34.409  23.033  23.080  1.00  0.00     0.012 A 
ATOM     24  C   UNL A   1      33.438  22.206  25.122  1.00  0.00     0.012 A 
ATOM     25  C   UNL A   1      33.192  23.642  22.758  1.00  0.00     0.047 A 
ATOM     26  C   UNL A   1      32.233  22.837  24.809  1.00  0.00     0.047 A 
BRANCH  22  27
ATOM     27  C   UNL A   1      35.759  21.546  24.550  1.00  0.00     0.029 C 
ATOM     28  O   UNL A   1      39.437  24.203  26.734  1.00  0.00    -0.261 OA
ATOM     29  C   UNL A   1      38.698  23.370  26.233  1.00  0.00     0.290 C 
ATOM     30  N   UNL A   1      39.030  22.089  25.939  1.00  0.00    -0.282 N 
ATOM     31  S   UNL A   1      37.039  23.673  25.769  1.00  0.00    -0.022 SA
ATOM     32  C   UNL A   1      38.088  21.299  25.349  1.00  0.00     0.265 C 
ATOM     33  H   UNL A   1      39.927  21.738  26.144  1.00  0.00     0.174 HD
ATOM     34  C   UNL A   1      36.835  22.076  25.150  1.00  0.00     0.083 C 
ATOM     35  O   UNL A   1      38.254  20.137  25.015  1.00  0.00    -0.268 OA
ENDBRANCH  22  27
ENDBRANCH  20  21
ENDBRANCH  19  20
ENDBRANCH  15  19
ENDBRANCH   9  14
ENDBRANCH   6   8
ENDBRANCH   5   6
ENDBRANCH   4   5
ENDBRANCH   3   4
ENDBRANCH   2   3
ENDBRANCH   1   2
BRANCH   1  36
ATOM     36  C   UNL A   1      35.029  34.070  34.164  1.00  0.00     0.188 C 
BRANCH  36  37
ATOM     37  O   UNL A   1      36.188  33.984  34.960  1.00  0.00    -0.376 OA
BRANCH  37  38
ATOM     38  C   UNL A   1      37.272  33.136  34.628  1.00  0.00     0.202 C 
BRANCH  38  39
ATOM     39  C   UNL A   1      37.804  31.967  35.457  1.00  0.00     0.261 C 
BRANCH  39  40
ATOM     40  O   UNL A   1      38.147  30.772  34.787  1.00  0.00    -0.460 OA
BRANCH  40  41
ATOM     41  C   UNL A   1      39.326  30.258  35.199  1.00  0.00     0.338 C 
ATOM     42  O   UNL A   1      39.595  29.861  36.321  1.00  0.00    -0.246 OA
BRANCH  41  43
ATOM     43  C   UNL A   1      40.300  30.367  34.116  1.00  0.00     0.060 A 
ATOM     44  C   UNL A   1      39.916  29.907  32.857  1.00  0.00     0.016 A 
ATOM     45  C   UNL A   1      41.638  30.631  34.442  1.00  0.00     0.016 A 
ATOM     46  C   UNL A   1      40.905  29.537  31.972  1.00  0.00     0.010 A 
ATOM     47  C   UNL A   1      42.621  30.237  33.565  1.00  0.00     0.010 A 
ATOM     48  C   UNL A   1      42.245  29.624  32.372  1.00  0.00    -0.014 A 
BRANCH  48  49
ATOM     49  C   UNL A   1      43.271  29.222  31.429  1.00  0.00     0.031 A 
ATOM     50  C   UNL A   1      43.414  30.206  30.337  1.00  0.00     0.074 A 
ATOM     51  C   UNL A   1      44.059  28.141  31.596  1.00  0.00     0.049 A 
ATOM     52  N   UNL A   1      43.046  30.062  29.110  1.00  0.00    -0.248 NA
ATOM     53  C   UNL A   1      43.784  31.589  30.691  1.00  0.00     0.031 C 
ATOM     54  C   UNL A   1      44.122  27.252  32.757  1.00  0.00     0.029 A 
ATOM     55  N   UNL A   1      45.050  27.656  30.793  1.00  0.00    -0.354 N 
ATOM     56  C   UNL A   1      43.433  31.236  28.480  1.00  0.00     0.074 A 
ATOM     57  C   UNL A   1      43.610  32.207  29.522  1.00  0.00     0.031 C 
ATOM     58  C   UNL A   1      45.239  26.493  32.681  1.00  0.00     0.029 A 
ATOM     59  C   UNL A   1      45.915  26.757  31.420  1.00  0.00     0.049 A 
ATOM     60  H   UNL A   1      45.147  27.919  29.850  1.00  0.00     0.167 HD
ATOM     61  C   UNL A   1      43.915  31.195  27.209  1.00  0.00     0.034 A 
ATOM     62  C   UNL A   1      47.124  26.314  30.964  1.00  0.00     0.034 A 
ATOM     63  C   UNL A   1      43.497  29.978  26.540  1.00  0.00     0.049 A 
ATOM     64  C   UNL A   1      47.127  26.509  29.492  1.00  0.00     0.074 A 
ATOM     65  C   UNL A   1      42.272  29.373  26.320  1.00  0.00     0.029 A 
ATOM     66  N   UNL A   1      44.435  28.989  26.336  1.00  0.00    -0.354 N 
ATOM     67  N   UNL A   1      46.349  25.845  28.683  1.00  0.00    -0.248 NA
ATOM     68  C   UNL A   1      47.615  27.777  28.972  1.00  0.00     0.031 C 
ATOM     69  C   UNL A   1      42.509  27.978  26.492  1.00  0.00     0.029 A 
ATOM     70  C   UNL A   1      43.876  27.788  26.701  1.00  0.00     0.049 A 
ATOM     71  H   UNL A   1      45.347  29.120  25.990  1.00  0.00     0.167 HD
ATOM     72  C   UNL A   1      45.877  26.791  27.788  1.00  0.00     0.074 A 
ATOM     73  C   UNL A   1      46.769  27.939  27.950  1.00  0.00     0.031 C 
ATOM     74  C   UNL A   1      44.640  26.665  27.219  1.00  0.00     0.034 A 
BRANCH  61  75
ATOM     75  C   UNL A   1      45.109  32.010  26.750  1.00  0.00     0.023 A 
ATOM     76  C   UNL A   1      46.357  31.659  27.290  1.00  0.00     0.031 A 
ATOM     77  C   UNL A   1      45.061  33.261  26.085  1.00  0.00     0.131 A 
ATOM     78  C   UNL A   1      47.430  32.567  27.274  1.00  0.00     0.055 A 
ATOM     79  C   UNL A   1      46.152  34.129  26.010  1.00  0.00     0.041 A 
ATOM     80  F   UNL A   1      43.948  33.766  25.544  1.00  0.00    -0.206 F 
ATOM     81  C   UNL A   1      47.337  33.800  26.641  1.00  0.00     0.022 A 
BRANCH  78  82
ATOM     82  S   UNL A   1      48.888  32.173  28.268  1.00  0.00     0.124 S 
ATOM     83  O   UNL A   1      49.125  30.784  27.889  1.00  0.00    -0.237 OA
ATOM     84  O   UNL A   1      49.855  33.149  27.779  1.00  0.00    -0.237 OA
ATOM     85  O   UNL A   1      48.428  32.382  29.638  1.00  0.00    -0.744 OA
ENDBRANCH  78  82
ENDBRANCH  61  75
BRANCH  62  86
ATOM     86  C   UNL A   1      48.371  26.050  31.748  1.00  0.00     0.023 A 
ATOM     87  C   UNL A   1      48.451  26.201  33.156  1.00  0.00     0.031 A 
ATOM     88  C   UNL A   1      49.453  25.378  31.133  1.00  0.00     0.131 A 
ATOM     89  C   UNL A   1      49.563  25.688  33.873  1.00  0.00     0.055 A 
ATOM     90  C   UNL A   1      50.544  24.877  31.844  1.00  0.00     0.041 A 
ATOM     91  F   UNL A   1      49.446  25.101  29.821  1.00  0.00    -0.206 F 
ATOM     92  C   UNL A   1      50.600  25.019  33.220  1.00  0.00     0.022 A 
BRANCH  89  93
ATOM     93  S   UNL A   1      49.647  25.794  35.696  1.00  0.00     0.124 S 
ATOM     94  O   UNL A   1      50.362  27.048  35.904  1.00  0.00    -0.237 OA
ATOM     95  O   UNL A   1      48.241  25.775  36.080  1.00  0.00    -0.237 OA
ATOM     96  O   UNL A   1      50.396  24.594  36.074  1.00  0.00    -0.744 OA
ENDBRANCH  89  93
ENDBRANCH  62  86
BRANCH  74  97
ATOM     97  C   UNL A   1      43.943  25.316  27.288  1.00  0.00     0.023 A 
ATOM     98  C   UNL A   1      44.126  24.246  26.380  1.00  0.00     0.031 A 
ATOM     99  C   UNL A   1      43.092  25.092  28.386  1.00  0.00     0.131 A 
ATOM    100  C   UNL A   1      43.444  23.026  26.577  1.00  0.00     0.055 A 
ATOM    101  C   UNL A   1      42.443  23.876  28.593  1.00  0.00     0.041 A 
ATOM    102  F   UNL A   1      42.887  26.057  29.298  1.00  0.00    -0.206 F 
ATOM    103  C   UNL A   1      42.608  22.841  27.682  1.00  0.00     0.022 A 
BRANCH 100 104
ATOM    104  S   UNL A   1      43.583  21.666  25.371  1.00  0.00     0.124 S 
ATOM    105  O   UNL A   1      42.462  20.795  25.701  1.00  0.00    -0.237 OA
ATOM    106  O   UNL A   1      43.493  22.367  24.093  1.00  0.00    -0.237 OA
ATOM    107  O   UNL A   1      44.902  21.095  25.656  1.00  0.00    -0.744 OA
ENDBRANCH 100 104
ENDBRANCH  74  97
ENDBRANCH  48  49
ENDBRANCH  41  43
ENDBRANCH  40  41
ENDBRANCH  39  40
ENDBRANCH  38  39
ENDBRANCH  37  38
ENDBRANCH  36  37
ENDBRANCH   1  36
TORSDOF 25
ENDMDL
