MODEL 1
REMARK VINA RESULT:     -12.7      0.000      0.000
REMARK SMILES O=C(OCCOCCOCCOC(=O)[C@]1(NC(=O)C2CCN(C(=O)C3CC3)CC2)CCCc2ccccc21)c1ccc(-c2c3nc(c(-c4cc(S(=O)(=O)[O-])ccc4F)c4ccc([nH]4)c(-c4cc(S(=O)(=O)[O-])ccc4F)c4nc(c(-c5cc(S(=O)(=O)[O-])ccc5F)c5ccc2[nH]5)C=C4)C=C3)cc1
REMARK SMILES IDX 7 1 6 2 5 3 4 4 3 5 2 6 1 7 39 8 40 9 101 10 41 11 100 12
REMARK SMILES IDX 42 13 43 14 44 15 94 16 45 17 99 18 93 19 95 20 46 21 98 22
REMARK SMILES IDX 92 23 91 24 47 26 79 27 59 28 78 29 60 30 63 31 77 32 96 33
REMARK SMILES IDX 61 34 62 35 76 37 97 38 64 39 48 40 49 41 57 42 50 43 56 44
REMARK SMILES IDX 58 45 55 46 51 47 52 48 53 49 54 50 80 51 81 52 89 53 82 54
REMARK SMILES IDX 88 55 90 56 87 57 83 58 84 59 85 60 86 61 65 62 66 63 74 64
REMARK SMILES IDX 67 65 73 66 75 67 72 68 68 69 69 70 70 71 71 72 8 73 9 74
REMARK SMILES IDX 10 75 11 76 12 77 13 78 14 79 15 80 30 81 38 82 31 83 33 84
REMARK SMILES IDX 37 85 32 86 34 87 36 88 35 89 16 90 17 91 18 93 19 94 20 95
REMARK SMILES IDX 29 96 21 97 28 98 22 99 23 100 24 101 25 102 26 103 27 104
REMARK H PARENT 95 25 63 36 16 92
REMARK Flexibility Score: inf
ROOT
ATOM      1  C   UNL A   1      32.876  28.075  25.935  1.00  0.00     0.188 C 
ENDROOT
BRANCH   1   2
ATOM      2  O   UNL A   1      32.665  29.352  25.327  1.00  0.00    -0.376 OA
BRANCH   2   3
ATOM      3  C   UNL A   1      31.327  29.881  25.318  1.00  0.00     0.202 C 
BRANCH   3   4
ATOM      4  C   UNL A   1      31.219  31.309  26.056  1.00  0.00     0.261 C 
BRANCH   4   5
ATOM      5  O   UNL A   1      32.527  32.307  27.102  1.00  0.00    -0.460 OA
BRANCH   5   6
ATOM      6  C   UNL A   1      33.567  32.989  27.843  1.00  0.00     0.338 C 
ATOM      7  O   UNL A   1      33.331  34.088  28.357  1.00  0.00    -0.246 OA
BRANCH   6   8
ATOM      8  C   UNL A   1      34.982  32.477  28.136  1.00  0.00     0.060 A 
ATOM      9  C   UNL A   1      35.275  31.138  28.277  1.00  0.00     0.016 A 
ATOM     10  C   UNL A   1      36.091  33.321  28.273  1.00  0.00     0.016 A 
ATOM     11  C   UNL A   1      36.417  30.644  28.858  1.00  0.00     0.010 A 
ATOM     12  C   UNL A   1      37.357  32.808  28.692  1.00  0.00     0.010 A 
ATOM     13  C   UNL A   1      37.509  31.457  29.049  1.00  0.00    -0.014 A 
BRANCH  13  14
ATOM     14  C   UNL A   1      38.642  30.818  29.775  1.00  0.00     0.031 A 
ATOM     15  C   UNL A   1      38.676  30.922  31.270  1.00  0.00     0.074 A 
ATOM     16  C   UNL A   1      39.440  29.919  29.145  1.00  0.00     0.049 A 
ATOM     17  N   UNL A   1      39.624  30.578  32.093  1.00  0.00    -0.248 NA
ATOM     18  C   UNL A   1      37.491  31.496  31.926  1.00  0.00     0.031 C 
ATOM     19  C   UNL A   1      39.352  29.569  27.720  1.00  0.00     0.029 A 
ATOM     20  N   UNL A   1      40.385  29.044  29.619  1.00  0.00    -0.354 N 
ATOM     21  C   UNL A   1      39.225  31.046  33.340  1.00  0.00     0.074 A 
ATOM     22  C   UNL A   1      37.899  31.598  33.181  1.00  0.00     0.031 C 
ATOM     23  C   UNL A   1      40.057  28.454  27.488  1.00  0.00     0.029 A 
ATOM     24  C   UNL A   1      40.825  28.130  28.679  1.00  0.00     0.049 A 
ATOM     25  H   UNL A   1      40.720  29.067  30.544  1.00  0.00     0.167 HD
ATOM     26  C   UNL A   1      39.969  31.073  34.473  1.00  0.00     0.034 A 
ATOM     27  C   UNL A   1      41.786  27.183  28.761  1.00  0.00     0.034 A 
ATOM     28  C   UNL A   1      41.264  30.437  34.544  1.00  0.00     0.049 A 
ATOM     29  C   UNL A   1      42.589  27.183  30.040  1.00  0.00     0.074 A 
ATOM     30  C   UNL A   1      42.233  30.510  35.526  1.00  0.00     0.029 A 
ATOM     31  N   UNL A   1      41.753  29.568  33.568  1.00  0.00    -0.354 N 
ATOM     32  N   UNL A   1      42.377  27.869  31.143  1.00  0.00    -0.248 NA
ATOM     33  C   UNL A   1      43.796  26.352  30.065  1.00  0.00     0.031 C 
ATOM     34  C   UNL A   1      43.323  29.728  35.120  1.00  0.00     0.029 A 
ATOM     35  C   UNL A   1      43.005  29.103  33.922  1.00  0.00     0.049 A 
ATOM     36  H   UNL A   1      41.273  29.321  32.746  1.00  0.00     0.167 HD
ATOM     37  C   UNL A   1      43.453  27.593  31.975  1.00  0.00     0.074 A 
ATOM     38  C   UNL A   1      44.265  26.608  31.278  1.00  0.00     0.031 C 
ATOM     39  C   UNL A   1      43.778  28.133  33.179  1.00  0.00     0.034 A 
BRANCH  26  40
ATOM     40  C   UNL A   1      39.482  31.983  35.577  1.00  0.00     0.023 A 
ATOM     41  C   UNL A   1      38.868  31.514  36.749  1.00  0.00     0.031 A 
ATOM     42  C   UNL A   1      39.501  33.377  35.364  1.00  0.00     0.131 A 
ATOM     43  C   UNL A   1      38.212  32.417  37.605  1.00  0.00     0.055 A 
ATOM     44  C   UNL A   1      38.927  34.275  36.264  1.00  0.00     0.041 A 
ATOM     45  F   UNL A   1      40.036  33.889  34.244  1.00  0.00    -0.206 F 
ATOM     46  C   UNL A   1      38.257  33.796  37.383  1.00  0.00     0.022 A 
BRANCH  43  47
ATOM     47  S   UNL A   1      37.133  31.754  38.907  1.00  0.00     0.124 S 
ATOM     48  O   UNL A   1      38.020  31.795  40.069  1.00  0.00    -0.237 OA
ATOM     49  O   UNL A   1      36.027  32.702  38.916  1.00  0.00    -0.237 OA
ATOM     50  O   UNL A   1      36.803  30.412  38.431  1.00  0.00    -0.744 OA
ENDBRANCH  43  47
ENDBRANCH  26  40
BRANCH  27  51
ATOM     51  C   UNL A   1      42.134  26.285  27.607  1.00  0.00     0.023 A 
ATOM     52  C   UNL A   1      41.750  24.931  27.591  1.00  0.00     0.031 A 
ATOM     53  C   UNL A   1      42.897  26.742  26.513  1.00  0.00     0.131 A 
ATOM     54  C   UNL A   1      42.136  24.095  26.524  1.00  0.00     0.055 A 
ATOM     55  C   UNL A   1      43.209  25.929  25.420  1.00  0.00     0.041 A 
ATOM     56  F   UNL A   1      43.355  28.004  26.478  1.00  0.00    -0.206 F 
ATOM     57  C   UNL A   1      42.838  24.593  25.426  1.00  0.00     0.022 A 
BRANCH  54  58
ATOM     58  S   UNL A   1      41.796  22.314  26.632  1.00  0.00     0.124 S 
ATOM     59  O   UNL A   1      42.675  21.907  27.722  1.00  0.00    -0.237 OA
ATOM     60  O   UNL A   1      40.366  22.302  26.918  1.00  0.00    -0.237 OA
ATOM     61  O   UNL A   1      42.168  21.815  25.309  1.00  0.00    -0.744 OA
ENDBRANCH  54  58
ENDBRANCH  27  51
BRANCH  39  62
ATOM     62  C   UNL A   1      45.063  27.647  33.790  1.00  0.00     0.023 A 
ATOM     63  C   UNL A   1      46.287  28.272  33.503  1.00  0.00     0.031 A 
ATOM     64  C   UNL A   1      45.062  26.527  34.638  1.00  0.00     0.131 A 
ATOM     65  C   UNL A   1      47.477  27.728  34.003  1.00  0.00     0.055 A 
ATOM     66  C   UNL A   1      46.244  26.029  35.183  1.00  0.00     0.041 A 
ATOM     67  F   UNL A   1      43.916  25.898  34.937  1.00  0.00    -0.206 F 
ATOM     68  C   UNL A   1      47.462  26.620  34.854  1.00  0.00     0.022 A 
BRANCH  65  69
ATOM     69  S   UNL A   1      49.052  28.420  33.429  1.00  0.00     0.124 S 
ATOM     70  O   UNL A   1      49.689  28.803  34.685  1.00  0.00    -0.237 OA
ATOM     71  O   UNL A   1      49.651  27.289  32.728  1.00  0.00    -0.237 OA
ATOM     72  O   UNL A   1      48.644  29.534  32.575  1.00  0.00    -0.744 OA
ENDBRANCH  65  69
ENDBRANCH  39  62
ENDBRANCH  13  14
ENDBRANCH   6   8
ENDBRANCH   5   6
ENDBRANCH   4   5
ENDBRANCH   3   4
ENDBRANCH   2   3
ENDBRANCH   1   2
BRANCH   1  73
ATOM     73  C   UNL A   1      31.767  27.829  26.967  1.00  0.00     0.188 C 
BRANCH  73  74
ATOM     74  O   UNL A   1      30.982  26.664  26.768  1.00  0.00    -0.376 OA
BRANCH  74  75
ATOM     75  C   UNL A   1      31.677  25.473  26.415  1.00  0.00     0.202 C 
BRANCH  75  76
ATOM     76  C   UNL A   1      31.273  24.179  27.128  1.00  0.00     0.261 C 
BRANCH  76  77
ATOM     77  O   UNL A   1      31.596  22.955  26.437  1.00  0.00    -0.461 OA
BRANCH  77  78
ATOM     78  C   UNL A   1      32.929  22.636  26.441  1.00  0.00     0.336 C 
ATOM     79  O   UNL A   1      33.583  22.526  27.475  1.00  0.00    -0.249 OA
BRANCH  78  80
ATOM     80  C   UNL A   1      33.527  22.423  25.009  1.00  0.00     0.164 C 
ATOM     81  C   UNL A   1      32.630  21.404  24.250  1.00  0.00     0.046 C 
ATOM     82  C   UNL A   1      34.975  21.874  25.099  1.00  0.00    -0.008 A 
ATOM     83  C   UNL A   1      32.790  19.987  24.795  1.00  0.00     0.008 C 
ATOM     84  C   UNL A   1      35.265  20.504  24.925  1.00  0.00    -0.042 A 
ATOM     85  C   UNL A   1      36.051  22.760  25.331  1.00  0.00     0.007 A 
ATOM     86  C   UNL A   1      34.210  19.488  24.572  1.00  0.00     0.036 C 
ATOM     87  C   UNL A   1      36.599  20.063  24.994  1.00  0.00     0.004 A 
ATOM     88  C   UNL A   1      37.369  22.308  25.383  1.00  0.00     0.000 A 
ATOM     89  C   UNL A   1      37.642  20.957  25.225  1.00  0.00     0.000 A 
BRANCH  80  90
ATOM     90  N   UNL A   1      33.603  23.696  24.239  1.00  0.00    -0.336 N 
ATOM     91  C   UNL A   1      33.541  23.819  22.874  1.00  0.00     0.224 C 
ATOM     92  H   UNL A   1      33.709  24.525  24.759  1.00  0.00     0.164 HD
ATOM     93  O   UNL A   1      34.460  23.411  22.174  1.00  0.00    -0.275 OA
BRANCH  91  94
ATOM     94  C   UNL A   1      32.324  24.598  22.321  1.00  0.00     0.082 C 
ATOM     95  C   UNL A   1      33.021  26.327  21.815  1.00  0.00     0.035 C 
ATOM     96  C   UNL A   1      30.510  24.564  23.084  1.00  0.00     0.035 C 
ATOM     97  C   UNL A   1      31.962  27.893  22.053  1.00  0.00     0.120 C 
ATOM     98  C   UNL A   1      29.556  26.254  23.366  1.00  0.00     0.120 C 
ATOM     99  N   UNL A   1      30.233  27.767  22.612  1.00  0.00    -0.342 N 
ATOM    100  C   UNL A   1      29.526  28.926  22.254  1.00  0.00     0.225 C 
ATOM    101  O   UNL A   1      30.122  29.843  21.683  1.00  0.00    -0.275 OA
BRANCH 100 102
ATOM    102  C   UNL A   1      28.071  29.162  22.445  1.00  0.00     0.079 C 
ATOM    103  C   UNL A   1      27.099  28.713  23.489  1.00  0.00     0.014 C 
ATOM    104  C   UNL A   1      27.583  30.136  23.482  1.00  0.00     0.014 C 
ENDBRANCH 100 102
ENDBRANCH  91  94
ENDBRANCH  80  90
ENDBRANCH  78  80
ENDBRANCH  77  78
ENDBRANCH  76  77
ENDBRANCH  75  76
ENDBRANCH  74  75
ENDBRANCH  73  74
ENDBRANCH   1  73
TORSDOF 23
ENDMDL
MODEL 2
REMARK VINA RESULT:     -12.7      1.828      2.108
REMARK SMILES O=C(OCCOCCOCCOC(=O)[C@]1(NC(=O)C2CCN(C(=O)C3CC3)CC2)CCCc2ccccc21)c1ccc(-c2c3nc(c(-c4cc(S(=O)(=O)[O-])ccc4F)c4ccc([nH]4)c(-c4cc(S(=O)(=O)[O-])ccc4F)c4nc(c(-c5cc(S(=O)(=O)[O-])ccc5F)c5ccc2[nH]5)C=C4)C=C3)cc1
REMARK SMILES IDX 7 1 6 2 5 3 4 4 3 5 2 6 1 7 39 8 40 9 101 10 41 11 100 12
REMARK SMILES IDX 42 13 43 14 44 15 94 16 45 17 99 18 93 19 95 20 46 21 98 22
REMARK SMILES IDX 92 23 91 24 47 26 79 27 59 28 78 29 60 30 63 31 77 32 96 33
REMARK SMILES IDX 61 34 62 35 76 37 97 38 64 39 48 40 49 41 57 42 50 43 56 44
REMARK SMILES IDX 58 45 55 46 51 47 52 48 53 49 54 50 80 51 81 52 89 53 82 54
REMARK SMILES IDX 88 55 90 56 87 57 83 58 84 59 85 60 86 61 65 62 66 63 74 64
REMARK SMILES IDX 67 65 73 66 75 67 72 68 68 69 69 70 70 71 71 72 8 73 9 74
REMARK SMILES IDX 10 75 11 76 12 77 13 78 14 79 15 80 30 81 38 82 31 83 33 84
REMARK SMILES IDX 37 85 32 86 34 87 36 88 35 89 16 90 17 91 18 93 19 94 20 95
REMARK SMILES IDX 29 96 21 97 28 98 22 99 23 100 24 101 25 102 26 103 27 104
REMARK H PARENT 95 25 63 36 16 92
REMARK Flexibility Score: inf
ROOT
ATOM      1  C   UNL A   1      32.504  28.468  25.658  1.00  0.00     0.188 C 
ENDROOT
BRANCH   1   2
ATOM      2  O   UNL A   1      32.269  29.762  25.093  1.00  0.00    -0.376 OA
BRANCH   2   3
ATOM      3  C   UNL A   1      30.951  30.324  25.224  1.00  0.00     0.202 C 
BRANCH   3   4
ATOM      4  C   UNL A   1      30.968  31.804  25.859  1.00  0.00     0.261 C 
BRANCH   4   5
ATOM      5  O   UNL A   1      32.248  32.667  27.050  1.00  0.00    -0.460 OA
BRANCH   5   6
ATOM      6  C   UNL A   1      33.261  33.313  27.859  1.00  0.00     0.338 C 
ATOM      7  O   UNL A   1      33.002  34.383  28.421  1.00  0.00    -0.246 OA
BRANCH   6   8
ATOM      8  C   UNL A   1      34.668  32.792  28.169  1.00  0.00     0.060 A 
ATOM      9  C   UNL A   1      34.951  31.451  28.312  1.00  0.00     0.016 A 
ATOM     10  C   UNL A   1      35.781  33.629  28.322  1.00  0.00     0.016 A 
ATOM     11  C   UNL A   1      36.083  30.950  28.908  1.00  0.00     0.010 A 
ATOM     12  C   UNL A   1      37.038  33.108  28.757  1.00  0.00     0.010 A 
ATOM     13  C   UNL A   1      37.177  31.755  29.114  1.00  0.00    -0.014 A 
BRANCH  13  14
ATOM     14  C   UNL A   1      38.296  31.108  29.854  1.00  0.00     0.031 A 
ATOM     15  C   UNL A   1      38.323  31.229  31.347  1.00  0.00     0.074 A 
ATOM     16  C   UNL A   1      39.085  30.192  29.238  1.00  0.00     0.049 A 
ATOM     17  N   UNL A   1      39.262  30.881  32.180  1.00  0.00    -0.248 NA
ATOM     18  C   UNL A   1      37.143  31.827  31.990  1.00  0.00     0.031 C 
ATOM     19  C   UNL A   1      39.000  29.827  27.816  1.00  0.00     0.029 A 
ATOM     20  N   UNL A   1      40.015  29.308  29.727  1.00  0.00    -0.354 N 
ATOM     21  C   UNL A   1      38.862  31.369  33.419  1.00  0.00     0.074 A 
ATOM     22  C   UNL A   1      37.545  31.938  33.246  1.00  0.00     0.031 C 
ATOM     23  C   UNL A   1      39.691  28.699  27.601  1.00  0.00     0.029 A 
ATOM     24  C   UNL A   1      40.447  28.377  28.801  1.00  0.00     0.049 A 
ATOM     25  H   UNL A   1      40.345  29.336  30.655  1.00  0.00     0.167 HD
ATOM     26  C   UNL A   1      39.600  31.397  34.556  1.00  0.00     0.034 A 
ATOM     27  C   UNL A   1      41.394  27.418  28.899  1.00  0.00     0.034 A 
ATOM     28  C   UNL A   1      40.885  30.744  34.642  1.00  0.00     0.049 A 
ATOM     29  C   UNL A   1      42.189  27.421  30.182  1.00  0.00     0.074 A 
ATOM     30  C   UNL A   1      41.849  30.814  35.629  1.00  0.00     0.029 A 
ATOM     31  N   UNL A   1      41.367  29.857  33.679  1.00  0.00    -0.354 N 
ATOM     32  N   UNL A   1      41.981  28.122  31.276  1.00  0.00    -0.248 NA
ATOM     33  C   UNL A   1      43.384  26.573  30.224  1.00  0.00     0.031 C 
ATOM     34  C   UNL A   1      42.930  30.012  35.238  1.00  0.00     0.029 A 
ATOM     35  C   UNL A   1      42.610  29.378  34.045  1.00  0.00     0.049 A 
ATOM     36  H   UNL A   1      40.888  29.608  32.856  1.00  0.00     0.167 HD
ATOM     37  C   UNL A   1      43.048  27.840  32.117  1.00  0.00     0.074 A 
ATOM     38  C   UNL A   1      43.849  26.836  31.437  1.00  0.00     0.031 C 
ATOM     39  C   UNL A   1      43.374  28.389  33.317  1.00  0.00     0.034 A 
BRANCH  26  40
ATOM     40  C   UNL A   1      39.120  32.327  35.647  1.00  0.00     0.023 A 
ATOM     41  C   UNL A   1      39.513  33.672  35.743  1.00  0.00     0.031 A 
ATOM     42  C   UNL A   1      38.364  31.791  36.710  1.00  0.00     0.131 A 
ATOM     43  C   UNL A   1      39.240  34.398  36.916  1.00  0.00     0.055 A 
ATOM     44  C   UNL A   1      38.018  32.546  37.831  1.00  0.00     0.041 A 
ATOM     45  F   UNL A   1      37.992  30.501  36.700  1.00  0.00    -0.206 F 
ATOM     46  C   UNL A   1      38.475  33.852  37.950  1.00  0.00     0.022 A 
BRANCH  43  47
ATOM     47  S   UNL A   1      40.060  36.001  37.157  1.00  0.00     0.124 S 
ATOM     48  O   UNL A   1      39.732  36.686  35.909  1.00  0.00    -0.237 OA
ATOM     49  O   UNL A   1      39.408  36.513  38.356  1.00  0.00    -0.237 OA
ATOM     50  O   UNL A   1      41.469  35.647  37.315  1.00  0.00    -0.744 OA
ENDBRANCH  43  47
ENDBRANCH  26  40
BRANCH  27  51
ATOM     51  C   UNL A   1      41.736  26.502  27.757  1.00  0.00     0.023 A 
ATOM     52  C   UNL A   1      41.416  25.132  27.796  1.00  0.00     0.031 A 
ATOM     53  C   UNL A   1      42.429  26.961  26.619  1.00  0.00     0.131 A 
ATOM     54  C   UNL A   1      41.796  24.282  26.738  1.00  0.00     0.055 A 
ATOM     55  C   UNL A   1      42.734  26.130  25.536  1.00  0.00     0.041 A 
ATOM     56  F   UNL A   1      42.825  28.240  26.527  1.00  0.00    -0.206 F 
ATOM     57  C   UNL A   1      42.427  24.779  25.596  1.00  0.00     0.022 A 
BRANCH  54  58
ATOM     58  S   UNL A   1      41.546  22.492  26.911  1.00  0.00     0.124 S 
ATOM     59  O   UNL A   1      41.773  22.026  25.548  1.00  0.00    -0.237 OA
ATOM     60  O   UNL A   1      42.568  22.142  27.891  1.00  0.00    -0.237 OA
ATOM     61  O   UNL A   1      40.168  22.385  27.386  1.00  0.00    -0.744 OA
ENDBRANCH  54  58
ENDBRANCH  27  51
BRANCH  39  62
ATOM     62  C   UNL A   1      44.648  27.891  33.942  1.00  0.00     0.023 A 
ATOM     63  C   UNL A   1      44.648  26.796  34.821  1.00  0.00     0.031 A 
ATOM     64  C   UNL A   1      45.864  28.542  33.679  1.00  0.00     0.131 A 
ATOM     65  C   UNL A   1      45.833  26.427  35.468  1.00  0.00     0.055 A 
ATOM     66  C   UNL A   1      47.053  28.129  34.278  1.00  0.00     0.041 A 
ATOM     67  F   UNL A   1      45.910  29.593  32.846  1.00  0.00    -0.206 F 
ATOM     68  C   UNL A   1      47.039  27.076  35.191  1.00  0.00     0.022 A 
BRANCH  65  69
ATOM     69  S   UNL A   1      45.752  25.163  36.766  1.00  0.00     0.124 S 
ATOM     70  O   UNL A   1      47.017  25.367  37.465  1.00  0.00    -0.237 OA
ATOM     71  O   UNL A   1      44.550  25.545  37.499  1.00  0.00    -0.237 OA
ATOM     72  O   UNL A   1      45.653  23.912  36.018  1.00  0.00    -0.744 OA
ENDBRANCH  65  69
ENDBRANCH  39  62
ENDBRANCH  13  14
ENDBRANCH   6   8
ENDBRANCH   5   6
ENDBRANCH   4   5
ENDBRANCH   3   4
ENDBRANCH   2   3
ENDBRANCH   1   2
BRANCH   1  73
ATOM     73  C   UNL A   1      31.785  28.383  27.012  1.00  0.00     0.188 C 
BRANCH  73  74
ATOM     74  O   UNL A   1      31.425  27.079  27.441  1.00  0.00    -0.376 OA
BRANCH  74  75
ATOM     75  C   UNL A   1      31.584  26.025  26.498  1.00  0.00     0.202 C 
BRANCH  75  76
ATOM     76  C   UNL A   1      31.703  24.598  27.044  1.00  0.00     0.261 C 
BRANCH  76  77
ATOM     77  O   UNL A   1      31.813  23.555  26.054  1.00  0.00    -0.461 OA
BRANCH  77  78
ATOM     78  C   UNL A   1      32.958  22.807  26.141  1.00  0.00     0.336 C 
ATOM     79  O   UNL A   1      33.420  22.423  27.212  1.00  0.00    -0.249 OA
BRANCH  78  80
ATOM     80  C   UNL A   1      33.608  22.491  24.752  1.00  0.00     0.164 C 
ATOM     81  C   UNL A   1      32.764  21.386  24.056  1.00  0.00     0.046 C 
ATOM     82  C   UNL A   1      35.066  21.993  24.933  1.00  0.00    -0.008 A 
ATOM     83  C   UNL A   1      32.942  20.026  24.725  1.00  0.00     0.008 C 
ATOM     84  C   UNL A   1      35.397  20.623  24.886  1.00  0.00    -0.042 A 
ATOM     85  C   UNL A   1      36.110  22.927  25.122  1.00  0.00     0.007 A 
ATOM     86  C   UNL A   1      34.381  19.551  24.589  1.00  0.00     0.036 C 
ATOM     87  C   UNL A   1      36.739  20.227  25.033  1.00  0.00     0.004 A 
ATOM     88  C   UNL A   1      37.437  22.519  25.253  1.00  0.00     0.000 A 
ATOM     89  C   UNL A   1      37.750  21.167  25.219  1.00  0.00     0.000 A 
BRANCH  80  90
ATOM     90  N   UNL A   1      33.677  23.696  23.879  1.00  0.00    -0.336 N 
ATOM     91  C   UNL A   1      33.396  23.738  22.537  1.00  0.00     0.224 C 
ATOM     92  H   UNL A   1      33.950  24.540  24.305  1.00  0.00     0.164 HD
ATOM     93  O   UNL A   1      34.137  23.187  21.732  1.00  0.00    -0.275 OA
BRANCH  91  94
ATOM     94  C   UNL A   1      32.185  24.610  22.127  1.00  0.00     0.082 C 
ATOM     95  C   UNL A   1      32.944  26.295  21.569  1.00  0.00     0.035 C 
ATOM     96  C   UNL A   1      30.464  24.686  23.081  1.00  0.00     0.035 C 
ATOM     97  C   UNL A   1      32.031  27.927  21.937  1.00  0.00     0.120 C 
ATOM     98  C   UNL A   1      29.669  26.434  23.484  1.00  0.00     0.120 C 
ATOM     99  N   UNL A   1      30.366  27.910  22.679  1.00  0.00    -0.342 N 
ATOM    100  C   UNL A   1      29.709  29.122  22.412  1.00  0.00     0.225 C 
ATOM    101  O   UNL A   1      30.304  30.006  21.790  1.00  0.00    -0.275 OA
BRANCH 100 102
ATOM    102  C   UNL A   1      28.303  29.454  22.761  1.00  0.00     0.079 C 
ATOM    103  C   UNL A   1      27.685  30.597  23.502  1.00  0.00     0.014 C 
ATOM    104  C   UNL A   1      27.559  30.521  22.007  1.00  0.00     0.014 C 
ENDBRANCH 100 102
ENDBRANCH  91  94
ENDBRANCH  80  90
ENDBRANCH  78  80
ENDBRANCH  77  78
ENDBRANCH  76  77
ENDBRANCH  75  76
ENDBRANCH  74  75
ENDBRANCH  73  74
ENDBRANCH   1  73
TORSDOF 23
ENDMDL
MODEL 3
REMARK VINA RESULT:     -12.2      2.177      2.635
REMARK SMILES O=C(OCCOCCOCCOC(=O)[C@]1(NC(=O)C2CCN(C(=O)C3CC3)CC2)CCCc2ccccc21)c1ccc(-c2c3nc(c(-c4cc(S(=O)(=O)[O-])ccc4F)c4ccc([nH]4)c(-c4cc(S(=O)(=O)[O-])ccc4F)c4nc(c(-c5cc(S(=O)(=O)[O-])ccc5F)c5ccc2[nH]5)C=C4)C=C3)cc1
REMARK SMILES IDX 7 1 6 2 5 3 4 4 3 5 2 6 1 7 39 8 40 9 101 10 41 11 100 12
REMARK SMILES IDX 42 13 43 14 44 15 94 16 45 17 99 18 93 19 95 20 46 21 98 22
REMARK SMILES IDX 92 23 91 24 47 26 79 27 59 28 78 29 60 30 63 31 77 32 96 33
REMARK SMILES IDX 61 34 62 35 76 37 97 38 64 39 48 40 49 41 57 42 50 43 56 44
REMARK SMILES IDX 58 45 55 46 51 47 52 48 53 49 54 50 80 51 81 52 89 53 82 54
REMARK SMILES IDX 88 55 90 56 87 57 83 58 84 59 85 60 86 61 65 62 66 63 74 64
REMARK SMILES IDX 67 65 73 66 75 67 72 68 68 69 69 70 70 71 71 72 8 73 9 74
REMARK SMILES IDX 10 75 11 76 12 77 13 78 14 79 15 80 30 81 38 82 31 83 33 84
REMARK SMILES IDX 37 85 32 86 34 87 36 88 35 89 16 90 17 91 18 93 19 94 20 95
REMARK SMILES IDX 29 96 21 97 28 98 22 99 23 100 24 101 25 102 26 103 27 104
REMARK H PARENT 95 25 63 36 16 92
REMARK Flexibility Score: inf
ROOT
ATOM      1  C   UNL A   1      32.270  29.018  26.000  1.00  0.00     0.188 C 
ENDROOT
BRANCH   1   2
ATOM      2  O   UNL A   1      32.378  30.442  26.090  1.00  0.00    -0.376 OA
BRANCH   2   3
ATOM      3  C   UNL A   1      31.221  31.179  26.522  1.00  0.00     0.202 C 
BRANCH   3   4
ATOM      4  C   UNL A   1      31.474  32.770  26.555  1.00  0.00     0.261 C 
BRANCH   4   5
ATOM      5  O   UNL A   1      32.641  33.853  27.681  1.00  0.00    -0.460 OA
BRANCH   5   6
ATOM      6  C   UNL A   1      33.515  34.580  28.578  1.00  0.00     0.338 C 
ATOM      7  O   UNL A   1      33.467  35.814  28.609  1.00  0.00    -0.246 OA
BRANCH   6   8
ATOM      8  C   UNL A   1      34.506  33.989  29.586  1.00  0.00     0.060 A 
ATOM      9  C   UNL A   1      35.784  34.478  29.747  1.00  0.00     0.016 A 
ATOM     10  C   UNL A   1      34.195  32.916  30.431  1.00  0.00     0.016 A 
ATOM     11  C   UNL A   1      36.807  33.802  30.368  1.00  0.00     0.010 A 
ATOM     12  C   UNL A   1      35.199  32.307  31.245  1.00  0.00     0.010 A 
ATOM     13  C   UNL A   1      36.541  32.717  31.169  1.00  0.00    -0.014 A 
BRANCH  13  14
ATOM     14  C   UNL A   1      37.748  32.025  31.700  1.00  0.00     0.031 A 
ATOM     15  C   UNL A   1      38.018  32.098  33.173  1.00  0.00     0.074 A 
ATOM     16  C   UNL A   1      38.404  31.112  30.941  1.00  0.00     0.049 A 
ATOM     17  N   UNL A   1      39.069  31.705  33.833  1.00  0.00    -0.248 NA
ATOM     18  C   UNL A   1      36.972  32.700  34.013  1.00  0.00     0.031 C 
ATOM     19  C   UNL A   1      38.082  30.793  29.541  1.00  0.00     0.029 A 
ATOM     20  N   UNL A   1      39.377  30.195  31.248  1.00  0.00    -0.354 N 
ATOM     21  C   UNL A   1      38.886  32.162  35.133  1.00  0.00     0.074 A 
ATOM     22  C   UNL A   1      37.574  32.763  35.191  1.00  0.00     0.031 C 
ATOM     23  C   UNL A   1      38.701  29.659  29.187  1.00  0.00     0.029 A 
ATOM     24  C   UNL A   1      39.631  29.284  30.239  1.00  0.00     0.049 A 
ATOM     25  H   UNL A   1      39.853  30.187  32.111  1.00  0.00     0.167 HD
ATOM     26  C   UNL A   1      39.797  32.140  36.136  1.00  0.00     0.034 A 
ATOM     27  C   UNL A   1      40.557  28.304  30.156  1.00  0.00     0.034 A 
ATOM     28  C   UNL A   1      41.063  31.458  35.996  1.00  0.00     0.049 A 
ATOM     29  C   UNL A   1      41.548  28.250  31.294  1.00  0.00     0.074 A 
ATOM     30  C   UNL A   1      42.175  31.478  36.815  1.00  0.00     0.029 A 
ATOM     31  N   UNL A   1      41.361  30.592  34.943  1.00  0.00    -0.354 N 
ATOM     32  N   UNL A   1      41.537  28.921  32.426  1.00  0.00    -0.248 NA
ATOM     33  C   UNL A   1      42.713  27.377  31.119  1.00  0.00     0.031 C 
ATOM     34  C   UNL A   1      43.158  30.666  36.233  1.00  0.00     0.029 A 
ATOM     35  C   UNL A   1      42.635  30.076  35.090  1.00  0.00     0.049 A 
ATOM     36  H   UNL A   1      40.750  30.379  34.202  1.00  0.00     0.167 HD
ATOM     37  C   UNL A   1      42.718  28.591  33.076  1.00  0.00     0.074 A 
ATOM     38  C   UNL A   1      43.374  27.593  32.248  1.00  0.00     0.031 C 
ATOM     39  C   UNL A   1      43.246  29.095  34.222  1.00  0.00     0.034 A 
BRANCH  26  40
ATOM     40  C   UNL A   1      39.523  33.045  37.315  1.00  0.00     0.023 A 
ATOM     41  C   UNL A   1      38.849  32.621  38.472  1.00  0.00     0.031 A 
ATOM     42  C   UNL A   1      39.816  34.419  37.198  1.00  0.00     0.131 A 
ATOM     43  C   UNL A   1      38.402  33.571  39.409  1.00  0.00     0.055 A 
ATOM     44  C   UNL A   1      39.450  35.344  38.177  1.00  0.00     0.041 A 
ATOM     45  F   UNL A   1      40.422  34.896  36.099  1.00  0.00    -0.206 F 
ATOM     46  C   UNL A   1      38.718  34.926  39.281  1.00  0.00     0.022 A 
BRANCH  43  47
ATOM     47  S   UNL A   1      37.237  33.040  40.697  1.00  0.00     0.124 S 
ATOM     48  O   UNL A   1      37.019  34.289  41.425  1.00  0.00    -0.237 OA
ATOM     49  O   UNL A   1      36.106  32.551  39.919  1.00  0.00    -0.237 OA
ATOM     50  O   UNL A   1      37.978  32.018  41.433  1.00  0.00    -0.744 OA
ENDBRANCH  43  47
ENDBRANCH  26  40
BRANCH  27  51
ATOM     51  C   UNL A   1      40.688  27.416  28.950  1.00  0.00     0.023 A 
ATOM     52  C   UNL A   1      41.625  27.690  27.936  1.00  0.00     0.031 A 
ATOM     53  C   UNL A   1      39.850  26.299  28.756  1.00  0.00     0.131 A 
ATOM     54  C   UNL A   1      41.690  26.875  26.789  1.00  0.00     0.055 A 
ATOM     55  C   UNL A   1      39.972  25.448  27.654  1.00  0.00     0.041 A 
ATOM     56  F   UNL A   1      38.889  26.001  29.645  1.00  0.00    -0.206 F 
ATOM     57  C   UNL A   1      40.890  25.740  26.656  1.00  0.00     0.022 A 
BRANCH  54  58
ATOM     58  S   UNL A   1      42.769  27.371  25.415  1.00  0.00     0.124 S 
ATOM     59  O   UNL A   1      44.015  27.675  26.109  1.00  0.00    -0.237 OA
ATOM     60  O   UNL A   1      42.767  26.170  24.587  1.00  0.00    -0.237 OA
ATOM     61  O   UNL A   1      42.079  28.523  24.838  1.00  0.00    -0.744 OA
ENDBRANCH  54  58
ENDBRANCH  27  51
BRANCH  39  62
ATOM     62  C   UNL A   1      44.591  28.552  34.618  1.00  0.00     0.023 A 
ATOM     63  C   UNL A   1      44.705  27.438  35.465  1.00  0.00     0.031 A 
ATOM     64  C   UNL A   1      45.765  29.179  34.171  1.00  0.00     0.131 A 
ATOM     65  C   UNL A   1      45.969  27.025  35.901  1.00  0.00     0.055 A 
ATOM     66  C   UNL A   1      47.024  28.723  34.558  1.00  0.00     0.041 A 
ATOM     67  F   UNL A   1      45.704  30.247  33.362  1.00  0.00    -0.206 F 
ATOM     68  C   UNL A   1      47.132  27.650  35.441  1.00  0.00     0.022 A 
BRANCH  65  69
ATOM     69  S   UNL A   1      46.068  25.734  37.171  1.00  0.00     0.124 S 
ATOM     70  O   UNL A   1      44.957  26.088  38.049  1.00  0.00    -0.237 OA
ATOM     71  O   UNL A   1      45.898  24.514  36.388  1.00  0.00    -0.237 OA
ATOM     72  O   UNL A   1      47.398  25.922  37.747  1.00  0.00    -0.744 OA
ENDBRANCH  65  69
ENDBRANCH  39  62
ENDBRANCH  13  14
ENDBRANCH   6   8
ENDBRANCH   5   6
ENDBRANCH   4   5
ENDBRANCH   3   4
ENDBRANCH   2   3
ENDBRANCH   1   2
BRANCH   1  73
ATOM     73  C   UNL A   1      33.682  28.415  26.006  1.00  0.00     0.188 C 
BRANCH  73  74
ATOM     74  O   UNL A   1      33.760  27.022  26.267  1.00  0.00    -0.376 OA
BRANCH  74  75
ATOM     75  C   UNL A   1      32.679  26.220  25.803  1.00  0.00     0.202 C 
BRANCH  75  76
ATOM     76  C   UNL A   1      32.157  25.125  26.739  1.00  0.00     0.261 C 
BRANCH  76  77
ATOM     77  O   UNL A   1      32.000  23.818  26.149  1.00  0.00    -0.461 OA
BRANCH  77  78
ATOM     78  C   UNL A   1      33.128  23.040  26.185  1.00  0.00     0.336 C 
ATOM     79  O   UNL A   1      33.694  22.739  27.233  1.00  0.00    -0.249 OA
BRANCH  78  80
ATOM     80  C   UNL A   1      33.613  22.574  24.771  1.00  0.00     0.164 C 
ATOM     81  C   UNL A   1      32.624  21.496  24.244  1.00  0.00     0.046 C 
ATOM     82  C   UNL A   1      35.040  21.972  24.856  1.00  0.00    -0.008 A 
ATOM     83  C   UNL A   1      32.765  20.176  24.998  1.00  0.00     0.008 C 
ATOM     84  C   UNL A   1      35.262  20.579  24.886  1.00  0.00    -0.042 A 
ATOM     85  C   UNL A   1      36.165  22.827  24.874  1.00  0.00     0.007 A 
ATOM     86  C   UNL A   1      34.144  19.576  24.768  1.00  0.00     0.036 C 
ATOM     87  C   UNL A   1      36.578  20.086  24.939  1.00  0.00     0.004 A 
ATOM     88  C   UNL A   1      37.464  22.322  24.914  1.00  0.00     0.000 A 
ATOM     89  C   UNL A   1      37.670  20.951  24.957  1.00  0.00     0.000 A 
BRANCH  80  90
ATOM     90  N   UNL A   1      33.687  23.704  23.804  1.00  0.00    -0.336 N 
ATOM     91  C   UNL A   1      33.205  23.700  22.519  1.00  0.00     0.224 C 
ATOM     92  H   UNL A   1      34.121  24.530  24.116  1.00  0.00     0.164 HD
ATOM     93  O   UNL A   1      33.740  23.010  21.660  1.00  0.00    -0.275 OA
BRANCH  91  94
ATOM     94  C   UNL A   1      32.057  24.695  22.225  1.00  0.00     0.082 C 
ATOM     95  C   UNL A   1      32.931  26.371  21.832  1.00  0.00     0.035 C 
ATOM     96  C   UNL A   1      30.357  24.794  23.213  1.00  0.00     0.035 C 
ATOM     97  C   UNL A   1      32.144  28.016  22.384  1.00  0.00     0.120 C 
ATOM     98  C   UNL A   1      29.696  26.541  23.810  1.00  0.00     0.120 C 
ATOM     99  N   UNL A   1      30.490  28.041  23.151  1.00  0.00    -0.342 N 
ATOM    100  C   UNL A   1      29.921  29.317  23.024  1.00  0.00     0.225 C 
ATOM    101  O   UNL A   1      30.572  30.217  22.487  1.00  0.00    -0.275 OA
BRANCH 100 102
ATOM    102  C   UNL A   1      28.547  29.711  23.431  1.00  0.00     0.079 C 
ATOM    103  C   UNL A   1      27.561  30.683  22.867  1.00  0.00     0.014 C 
ATOM    104  C   UNL A   1      27.350  29.208  22.673  1.00  0.00     0.014 C 
ENDBRANCH 100 102
ENDBRANCH  91  94
ENDBRANCH  80  90
ENDBRANCH  78  80
ENDBRANCH  77  78
ENDBRANCH  76  77
ENDBRANCH  75  76
ENDBRANCH  74  75
ENDBRANCH  73  74
ENDBRANCH   1  73
TORSDOF 23
ENDMDL
