MODEL 1
REMARK VINA RESULT:     -10.0      0.000      0.000
REMARK SMILES CS(=O)(=O)c1ccc(/C=C(/C(=O)OCCOCCOCCOC(=O)c2ccc(-c3c4nc(c(-c5cc(S(=O)(=O)[O-])ccc5F)c5ccc([nH]5)c(-c5cc(S(=O)(=O)[O-])ccc5F)c5nc(c(-c6cc(S(=O)(=O)[O-])ccc6F)c6ccc3[nH]6)C=C5)C=C4)cc2)c2ccc(F)cc2)cc1
REMARK SMILES IDX 18 1 17 2 16 3 15 4 14 5 13 6 11 7 12 8 10 9 9 10 8 11 5 12
REMARK SMILES IDX 6 13 96 14 7 15 95 16 2 17 1 18 3 19 4 20 88 21 89 22 94 23
REMARK SMILES IDX 90 24 93 25 91 26 92 27 19 28 20 29 21 30 22 31 23 32 24 33
REMARK SMILES IDX 25 34 26 35 87 36 27 37 86 38 28 39 29 40 30 41 80 42 31 43
REMARK SMILES IDX 85 44 79 45 81 46 32 47 84 48 78 49 77 50 33 52 65 53 45 54
REMARK SMILES IDX 64 55 46 56 49 57 63 58 82 59 47 60 48 61 62 63 83 64 50 65
REMARK SMILES IDX 34 66 35 67 43 68 36 69 42 70 44 71 41 72 37 73 38 74 39 75
REMARK SMILES IDX 40 76 66 77 67 78 75 79 68 80 74 81 76 82 73 83 69 84 70 85
REMARK SMILES IDX 71 86 72 87 51 88 52 89 60 90 53 91 59 92 61 93 58 94 54 95
REMARK SMILES IDX 55 96 56 97 57 98
REMARK H PARENT 81 51 49 62
REMARK Flexibility Score: inf
ROOT
ATOM      1  C   UNL A   1      41.101  20.875  27.447  1.00  0.00     0.188 C 
ENDROOT
BRANCH   1   2
ATOM      2  C   UNL A   1      41.714  22.291  27.444  1.00  0.00     0.188 C 
BRANCH   2   3
ATOM      3  O   UNL A   1      40.744  23.306  27.322  1.00  0.00    -0.376 OA
BRANCH   3   4
ATOM      4  C   UNL A   1      39.607  23.058  26.516  1.00  0.00     0.202 C 
BRANCH   4   5
ATOM      5  C   UNL A   1      38.287  23.852  26.641  1.00  0.00     0.261 C 
BRANCH   5   6
ATOM      6  O   UNL A   1      37.376  23.826  25.534  1.00  0.00    -0.460 OA
BRANCH   6   7
ATOM      7  C   UNL A   1      36.325  22.970  25.608  1.00  0.00     0.338 C 
ATOM      8  O   UNL A   1      36.381  21.826  26.032  1.00  0.00    -0.246 OA
BRANCH   7   9
ATOM      9  C   UNL A   1      35.042  23.648  25.209  1.00  0.00     0.067 C 
ATOM     10  C   UNL A   1      34.750  24.883  25.688  1.00  0.00     0.024 C 
BRANCH  10  11
ATOM     11  C   UNL A   1      33.625  25.779  25.315  1.00  0.00    -0.025 A 
ATOM     12  C   UNL A   1      31.509  27.266  24.200  1.00  0.00     0.067 A 
ATOM     13  C   UNL A   1      31.250  26.359  25.224  1.00  0.00     0.021 A 
ATOM     14  C   UNL A   1      32.825  27.521  23.808  1.00  0.00     0.021 A 
ATOM     15  C   UNL A   1      32.314  25.652  25.798  1.00  0.00     0.009 A 
ATOM     16  C   UNL A   1      33.875  26.783  24.368  1.00  0.00     0.009 A 
BRANCH  12  17
ATOM     17  S   UNL A   1      30.198  28.051  23.293  1.00  0.00     0.175 S 
ATOM     18  C   UNL A   1      28.706  27.165  23.655  1.00  0.00     0.163 C 
ATOM     19  O   UNL A   1      30.487  27.830  21.886  1.00  0.00    -0.224 OA
ATOM     20  O   UNL A   1      30.074  29.397  23.820  1.00  0.00    -0.224 OA
ENDBRANCH  12  17
ENDBRANCH  10  11
BRANCH   9  21
ATOM     21  C   UNL A   1      34.148  22.919  24.286  1.00  0.00    -0.011 A 
ATOM     22  C   UNL A   1      33.250  21.975  24.811  1.00  0.00     0.012 A 
ATOM     23  C   UNL A   1      34.089  23.234  22.919  1.00  0.00     0.012 A 
ATOM     24  C   UNL A   1      32.292  21.381  23.992  1.00  0.00     0.040 A 
ATOM     25  C   UNL A   1      33.126  22.634  22.104  1.00  0.00     0.040 A 
ATOM     26  C   UNL A   1      32.235  21.718  22.649  1.00  0.00     0.123 A 
ATOM     27  F   UNL A   1      31.290  21.171  21.877  1.00  0.00    -0.207 F 
ENDBRANCH   9  21
ENDBRANCH   7   9
ENDBRANCH   6   7
ENDBRANCH   5   6
ENDBRANCH   4   5
ENDBRANCH   3   4
ENDBRANCH   2   3
ENDBRANCH   1   2
BRANCH   1  28
ATOM     28  O   UNL A   1      41.946  19.734  27.475  1.00  0.00    -0.376 OA
BRANCH  28  29
ATOM     29  C   UNL A   1      42.027  18.893  26.335  1.00  0.00     0.202 C 
BRANCH  29  30
ATOM     30  C   UNL A   1      43.324  18.747  25.513  1.00  0.00     0.261 C 
BRANCH  30  31
ATOM     31  O   UNL A   1      43.600  19.751  24.526  1.00  0.00    -0.460 OA
BRANCH  31  32
ATOM     32  C   UNL A   1      44.843  20.283  24.575  1.00  0.00     0.338 C 
ATOM     33  O   UNL A   1      45.863  19.805  24.083  1.00  0.00    -0.246 OA
BRANCH  32  34
ATOM     34  C   UNL A   1      44.789  21.643  25.148  1.00  0.00     0.060 A 
ATOM     35  C   UNL A   1      44.308  22.681  24.341  1.00  0.00     0.016 A 
ATOM     36  C   UNL A   1      45.262  21.913  26.436  1.00  0.00     0.016 A 
ATOM     37  C   UNL A   1      44.330  23.996  24.803  1.00  0.00     0.010 A 
ATOM     38  C   UNL A   1      45.307  23.239  26.889  1.00  0.00     0.010 A 
ATOM     39  C   UNL A   1      44.873  24.291  26.061  1.00  0.00    -0.014 A 
BRANCH  39  40
ATOM     40  C   UNL A   1      45.145  25.713  26.400  1.00  0.00     0.031 A 
ATOM     41  C   UNL A   1      44.033  26.542  26.984  1.00  0.00     0.074 A 
ATOM     42  C   UNL A   1      46.380  26.232  26.282  1.00  0.00     0.049 A 
ATOM     43  N   UNL A   1      44.058  27.771  27.429  1.00  0.00    -0.248 NA
ATOM     44  C   UNL A   1      42.714  25.898  27.066  1.00  0.00     0.031 C 
ATOM     45  C   UNL A   1      47.534  25.524  25.738  1.00  0.00     0.029 A 
ATOM     46  N   UNL A   1      46.876  27.463  26.634  1.00  0.00    -0.354 N 
ATOM     47  C   UNL A   1      42.759  28.053  27.839  1.00  0.00     0.074 A 
ATOM     48  C   UNL A   1      41.967  26.875  27.555  1.00  0.00     0.031 C 
ATOM     49  C   UNL A   1      48.619  26.311  25.844  1.00  0.00     0.029 A 
ATOM     50  C   UNL A   1      48.226  27.603  26.404  1.00  0.00     0.049 A 
ATOM     51  H   UNL A   1      46.318  28.179  27.015  1.00  0.00     0.167 HD
ATOM     52  C   UNL A   1      42.274  29.187  28.404  1.00  0.00     0.034 A 
ATOM     53  C   UNL A   1      49.045  28.657  26.607  1.00  0.00     0.034 A 
ATOM     54  C   UNL A   1      43.072  30.363  28.659  1.00  0.00     0.049 A 
ATOM     55  C   UNL A   1      48.468  29.929  27.186  1.00  0.00     0.074 A 
ATOM     56  C   UNL A   1      42.677  31.566  29.218  1.00  0.00     0.029 A 
ATOM     57  N   UNL A   1      44.423  30.492  28.361  1.00  0.00    -0.354 N 
ATOM     58  N   UNL A   1      47.237  30.180  27.574  1.00  0.00    -0.248 NA
ATOM     59  C   UNL A   1      49.391  31.057  27.356  1.00  0.00     0.031 C 
ATOM     60  C   UNL A   1      43.766  32.445  29.185  1.00  0.00     0.029 A 
ATOM     61  C   UNL A   1      44.868  31.763  28.696  1.00  0.00     0.049 A 
ATOM     62  H   UNL A   1      44.984  29.785  27.967  1.00  0.00     0.167 HD
ATOM     63  C   UNL A   1      47.251  31.487  28.061  1.00  0.00     0.074 A 
ATOM     64  C   UNL A   1      48.614  31.957  27.940  1.00  0.00     0.031 C 
ATOM     65  C   UNL A   1      46.230  32.231  28.561  1.00  0.00     0.034 A 
BRANCH  52  66
ATOM     66  C   UNL A   1      40.797  29.224  28.719  1.00  0.00     0.023 A 
ATOM     67  C   UNL A   1      40.316  29.133  30.038  1.00  0.00     0.031 A 
ATOM     68  C   UNL A   1      39.853  29.313  27.681  1.00  0.00     0.131 A 
ATOM     69  C   UNL A   1      38.936  29.058  30.275  1.00  0.00     0.055 A 
ATOM     70  C   UNL A   1      38.480  29.326  27.931  1.00  0.00     0.041 A 
ATOM     71  F   UNL A   1      40.250  29.374  26.399  1.00  0.00    -0.206 F 
ATOM     72  C   UNL A   1      38.014  29.182  29.234  1.00  0.00     0.022 A 
BRANCH  69  73
ATOM     73  S   UNL A   1      38.365  28.641  31.946  1.00  0.00     0.124 S 
ATOM     74  O   UNL A   1      36.969  29.064  31.894  1.00  0.00    -0.237 OA
ATOM     75  O   UNL A   1      38.596  27.202  32.007  1.00  0.00    -0.237 OA
ATOM     76  O   UNL A   1      39.222  29.448  32.812  1.00  0.00    -0.744 OA
ENDBRANCH  69  73
ENDBRANCH  52  66
BRANCH  53  77
ATOM     77  C   UNL A   1      50.489  28.588  26.226  1.00  0.00     0.023 A 
ATOM     78  C   UNL A   1      50.912  28.821  24.906  1.00  0.00     0.031 A 
ATOM     79  C   UNL A   1      51.464  28.210  27.169  1.00  0.00     0.131 A 
ATOM     80  C   UNL A   1      52.258  28.623  24.555  1.00  0.00     0.055 A 
ATOM     81  C   UNL A   1      52.811  28.080  26.830  1.00  0.00     0.041 A 
ATOM     82  F   UNL A   1      51.117  27.964  28.443  1.00  0.00    -0.206 F 
ATOM     83  C   UNL A   1      53.213  28.271  25.512  1.00  0.00     0.022 A 
BRANCH  80  84
ATOM     84  S   UNL A   1      52.728  28.722  22.805  1.00  0.00     0.124 S 
ATOM     85  O   UNL A   1      53.350  27.420  22.591  1.00  0.00    -0.237 OA
ATOM     86  O   UNL A   1      51.440  28.933  22.153  1.00  0.00    -0.237 OA
ATOM     87  O   UNL A   1      53.639  29.864  22.761  1.00  0.00    -0.744 OA
ENDBRANCH  80  84
ENDBRANCH  53  77
BRANCH  65  88
ATOM     88  C   UNL A   1      46.569  33.616  29.068  1.00  0.00     0.023 A 
ATOM     89  C   UNL A   1      46.493  34.752  28.243  1.00  0.00     0.031 A 
ATOM     90  C   UNL A   1      47.009  33.795  30.393  1.00  0.00     0.131 A 
ATOM     91  C   UNL A   1      46.926  35.999  28.725  1.00  0.00     0.055 A 
ATOM     92  C   UNL A   1      47.366  35.050  30.889  1.00  0.00     0.041 A 
ATOM     93  F   UNL A   1      47.106  32.749  31.229  1.00  0.00    -0.206 F 
ATOM     94  C   UNL A   1      47.345  36.158  30.048  1.00  0.00     0.022 A 
BRANCH  91  95
ATOM     95  S   UNL A   1      47.065  37.383  27.559  1.00  0.00     0.124 S 
ATOM     96  O   UNL A   1      46.542  36.798  26.329  1.00  0.00    -0.237 OA
ATOM     97  O   UNL A   1      46.230  38.402  28.186  1.00  0.00    -0.237 OA
ATOM     98  O   UNL A   1      48.497  37.677  27.545  1.00  0.00    -0.744 OA
ENDBRANCH  91  95
ENDBRANCH  65  88
ENDBRANCH  39  40
ENDBRANCH  32  34
ENDBRANCH  31  32
ENDBRANCH  30  31
ENDBRANCH  29  30
ENDBRANCH  28  29
ENDBRANCH   1  28
TORSDOF 23
ENDMDL
MODEL 2
REMARK VINA RESULT:      -9.4      5.465     12.430
REMARK SMILES CS(=O)(=O)c1ccc(/C=C(/C(=O)OCCOCCOCCOC(=O)c2ccc(-c3c4nc(c(-c5cc(S(=O)(=O)[O-])ccc5F)c5ccc([nH]5)c(-c5cc(S(=O)(=O)[O-])ccc5F)c5nc(c(-c6cc(S(=O)(=O)[O-])ccc6F)c6ccc3[nH]6)C=C5)C=C4)cc2)c2ccc(F)cc2)cc1
REMARK SMILES IDX 18 1 17 2 16 3 15 4 14 5 13 6 11 7 12 8 10 9 9 10 8 11 5 12
REMARK SMILES IDX 6 13 96 14 7 15 95 16 2 17 1 18 3 19 4 20 88 21 89 22 94 23
REMARK SMILES IDX 90 24 93 25 91 26 92 27 19 28 20 29 21 30 22 31 23 32 24 33
REMARK SMILES IDX 25 34 26 35 87 36 27 37 86 38 28 39 29 40 30 41 80 42 31 43
REMARK SMILES IDX 85 44 79 45 81 46 32 47 84 48 78 49 77 50 33 52 65 53 45 54
REMARK SMILES IDX 64 55 46 56 49 57 63 58 82 59 47 60 48 61 62 63 83 64 50 65
REMARK SMILES IDX 34 66 35 67 43 68 36 69 42 70 44 71 41 72 37 73 38 74 39 75
REMARK SMILES IDX 40 76 66 77 67 78 75 79 68 80 74 81 76 82 73 83 69 84 70 85
REMARK SMILES IDX 71 86 72 87 51 88 52 89 60 90 53 91 59 92 61 93 58 94 54 95
REMARK SMILES IDX 55 96 56 97 57 98
REMARK H PARENT 81 51 49 62
REMARK Flexibility Score: inf
ROOT
ATOM      1  C   UNL A   1      37.268  32.658  34.310  1.00  0.00     0.188 C 
ENDROOT
BRANCH   1   2
ATOM      2  C   UNL A   1      37.267  34.120  34.802  1.00  0.00     0.188 C 
BRANCH   2   3
ATOM      3  O   UNL A   1      38.459  34.473  35.465  1.00  0.00    -0.376 OA
BRANCH   3   4
ATOM      4  C   UNL A   1      39.467  35.142  34.730  1.00  0.00     0.202 C 
BRANCH   4   5
ATOM      5  C   UNL A   1      40.780  34.465  34.276  1.00  0.00     0.261 C 
BRANCH   5   6
ATOM      6  O   UNL A   1      41.402  34.936  33.073  1.00  0.00    -0.460 OA
BRANCH   6   7
ATOM      7  C   UNL A   1      40.864  34.539  31.892  1.00  0.00     0.338 C 
ATOM      8  O   UNL A   1      39.673  34.570  31.619  1.00  0.00    -0.246 OA
BRANCH   7   9
ATOM      9  C   UNL A   1      41.935  34.160  30.905  1.00  0.00     0.067 C 
ATOM     10  C   UNL A   1      42.630  33.007  31.068  1.00  0.00     0.024 C 
BRANCH  10  11
ATOM     11  C   UNL A   1      43.613  32.381  30.147  1.00  0.00    -0.025 A 
ATOM     12  C   UNL A   1      45.275  31.444  28.075  1.00  0.00     0.067 A 
ATOM     13  C   UNL A   1      45.806  32.260  29.069  1.00  0.00     0.021 A 
ATOM     14  C   UNL A   1      43.954  30.999  28.168  1.00  0.00     0.021 A 
ATOM     15  C   UNL A   1      44.982  32.690  30.117  1.00  0.00     0.009 A 
ATOM     16  C   UNL A   1      43.133  31.463  29.202  1.00  0.00     0.009 A 
BRANCH  12  17
ATOM     17  S   UNL A   1      46.201  31.021  26.618  1.00  0.00     0.175 S 
ATOM     18  C   UNL A   1      46.017  29.275  26.370  1.00  0.00     0.163 C 
ATOM     19  O   UNL A   1      47.598  31.255  26.941  1.00  0.00    -0.224 OA
ATOM     20  O   UNL A   1      45.572  31.712  25.509  1.00  0.00    -0.224 OA
ENDBRANCH  12  17
ENDBRANCH  10  11
BRANCH   9  21
ATOM     21  C   UNL A   1      42.175  35.084  29.777  1.00  0.00    -0.011 A 
ATOM     22  C   UNL A   1      41.303  35.055  28.676  1.00  0.00     0.012 A 
ATOM     23  C   UNL A   1      43.173  36.069  29.835  1.00  0.00     0.012 A 
ATOM     24  C   UNL A   1      41.408  36.010  27.667  1.00  0.00     0.040 A 
ATOM     25  C   UNL A   1      43.273  37.023  28.820  1.00  0.00     0.040 A 
ATOM     26  C   UNL A   1      42.388  36.987  27.750  1.00  0.00     0.123 A 
ATOM     27  F   UNL A   1      42.461  37.923  26.796  1.00  0.00    -0.207 F 
ENDBRANCH   9  21
ENDBRANCH   7   9
ENDBRANCH   6   7
ENDBRANCH   5   6
ENDBRANCH   4   5
ENDBRANCH   3   4
ENDBRANCH   2   3
ENDBRANCH   1   2
BRANCH   1  28
ATOM     28  O   UNL A   1      36.372  32.251  33.286  1.00  0.00    -0.376 OA
BRANCH  28  29
ATOM     29  C   UNL A   1      35.245  33.059  32.980  1.00  0.00     0.202 C 
BRANCH  29  30
ATOM     30  C   UNL A   1      34.851  33.399  31.527  1.00  0.00     0.261 C 
BRANCH  30  31
ATOM     31  O   UNL A   1      34.367  32.329  30.704  1.00  0.00    -0.460 OA
BRANCH  31  32
ATOM     32  C   UNL A   1      34.888  32.279  29.456  1.00  0.00     0.338 C 
ATOM     33  O   UNL A   1      34.496  32.908  28.474  1.00  0.00    -0.246 OA
BRANCH  32  34
ATOM     34  C   UNL A   1      36.141  31.497  29.461  1.00  0.00     0.060 A 
ATOM     35  C   UNL A   1      36.149  30.269  30.134  1.00  0.00     0.016 A 
ATOM     36  C   UNL A   1      37.310  31.985  28.872  1.00  0.00     0.016 A 
ATOM     37  C   UNL A   1      37.333  29.542  30.251  1.00  0.00     0.010 A 
ATOM     38  C   UNL A   1      38.505  31.264  29.012  1.00  0.00     0.010 A 
ATOM     39  C   UNL A   1      38.529  30.056  29.732  1.00  0.00    -0.014 A 
BRANCH  39  40
ATOM     40  C   UNL A   1      39.808  29.405  30.120  1.00  0.00     0.031 A 
ATOM     41  C   UNL A   1      40.490  29.847  31.387  1.00  0.00     0.074 A 
ATOM     42  C   UNL A   1      40.306  28.375  29.412  1.00  0.00     0.049 A 
ATOM     43  N   UNL A   1      41.563  29.371  31.963  1.00  0.00    -0.248 NA
ATOM     44  C   UNL A   1      39.883  30.987  32.090  1.00  0.00     0.031 C 
ATOM     45  C   UNL A   1      39.730  27.857  28.176  1.00  0.00     0.029 A 
ATOM     46  N   UNL A   1      41.391  27.567  29.643  1.00  0.00    -0.354 N 
ATOM     47  C   UNL A   1      41.765  30.154  33.094  1.00  0.00     0.074 A 
ATOM     48  C   UNL A   1      40.722  31.158  33.099  1.00  0.00     0.031 C 
ATOM     49  C   UNL A   1      40.433  26.779  27.785  1.00  0.00     0.029 A 
ATOM     50  C   UNL A   1      41.548  26.570  28.706  1.00  0.00     0.049 A 
ATOM     51  H   UNL A   1      42.001  27.689  30.407  1.00  0.00     0.167 HD
ATOM     52  C   UNL A   1      42.730  30.044  34.042  1.00  0.00     0.034 A 
ATOM     53  C   UNL A   1      42.492  25.610  28.598  1.00  0.00     0.034 A 
ATOM     54  C   UNL A   1      43.778  29.052  34.010  1.00  0.00     0.049 A 
ATOM     55  C   UNL A   1      43.588  25.544  29.638  1.00  0.00     0.074 A 
ATOM     56  C   UNL A   1      44.808  28.859  34.915  1.00  0.00     0.029 A 
ATOM     57  N   UNL A   1      43.942  28.094  33.017  1.00  0.00    -0.354 N 
ATOM     58  N   UNL A   1      43.765  26.289  30.706  1.00  0.00    -0.248 NA
ATOM     59  C   UNL A   1      44.609  24.504  29.457  1.00  0.00     0.031 C 
ATOM     60  C   UNL A   1      45.636  27.841  34.430  1.00  0.00     0.029 A 
ATOM     61  C   UNL A   1      45.072  27.329  33.272  1.00  0.00     0.049 A 
ATOM     62  H   UNL A   1      43.344  27.975  32.244  1.00  0.00     0.167 HD
ATOM     63  C   UNL A   1      44.902  25.786  31.337  1.00  0.00     0.074 A 
ATOM     64  C   UNL A   1      45.350  24.661  30.544  1.00  0.00     0.031 C 
ATOM     65  C   UNL A   1      45.521  26.215  32.468  1.00  0.00     0.034 A 
BRANCH  52  66
ATOM     66  C   UNL A   1      42.725  31.068  35.153  1.00  0.00     0.023 A 
ATOM     67  C   UNL A   1      43.517  32.228  35.098  1.00  0.00     0.031 A 
ATOM     68  C   UNL A   1      41.943  30.860  36.304  1.00  0.00     0.131 A 
ATOM     69  C   UNL A   1      43.567  33.095  36.201  1.00  0.00     0.055 A 
ATOM     70  C   UNL A   1      41.930  31.771  37.361  1.00  0.00     0.041 A 
ATOM     71  F   UNL A   1      41.187  29.757  36.427  1.00  0.00    -0.206 F 
ATOM     72  C   UNL A   1      42.758  32.889  37.320  1.00  0.00     0.022 A 
BRANCH  69  73
ATOM     73  S   UNL A   1      44.818  34.408  36.215  1.00  0.00     0.124 S 
ATOM     74  O   UNL A   1      44.986  34.638  37.647  1.00  0.00    -0.237 OA
ATOM     75  O   UNL A   1      45.943  33.779  35.532  1.00  0.00    -0.237 OA
ATOM     76  O   UNL A   1      44.177  35.501  35.487  1.00  0.00    -0.744 OA
ENDBRANCH  69  73
ENDBRANCH  52  66
BRANCH  53  77
ATOM     77  C   UNL A   1      42.483  24.655  27.447  1.00  0.00     0.023 A 
ATOM     78  C   UNL A   1      41.650  23.524  27.440  1.00  0.00     0.031 A 
ATOM     79  C   UNL A   1      43.370  24.823  26.367  1.00  0.00     0.131 A 
ATOM     80  C   UNL A   1      41.758  22.579  26.405  1.00  0.00     0.055 A 
ATOM     81  C   UNL A   1      43.426  23.917  25.307  1.00  0.00     0.041 A 
ATOM     82  F   UNL A   1      44.197  25.880  26.325  1.00  0.00    -0.206 F 
ATOM     83  C   UNL A   1      42.628  22.778  25.330  1.00  0.00     0.022 A 
BRANCH  80  84
ATOM     84  S   UNL A   1      40.826  21.027  26.537  1.00  0.00     0.124 S 
ATOM     85  O   UNL A   1      39.551  21.395  25.933  1.00  0.00    -0.237 OA
ATOM     86  O   UNL A   1      41.658  20.106  25.770  1.00  0.00    -0.237 OA
ATOM     87  O   UNL A   1      40.786  20.774  27.976  1.00  0.00    -0.744 OA
ENDBRANCH  80  84
ENDBRANCH  53  77
BRANCH  65  88
ATOM     88  C   UNL A   1      46.719  25.421  32.942  1.00  0.00     0.023 A 
ATOM     89  C   UNL A   1      46.602  24.384  33.885  1.00  0.00     0.031 A 
ATOM     90  C   UNL A   1      48.007  25.734  32.468  1.00  0.00     0.131 A 
ATOM     91  C   UNL A   1      47.755  23.752  34.379  1.00  0.00     0.055 A 
ATOM     92  C   UNL A   1      49.142  25.051  32.907  1.00  0.00     0.041 A 
ATOM     93  F   UNL A   1      48.184  26.717  31.570  1.00  0.00    -0.206 F 
ATOM     94  C   UNL A   1      49.022  24.068  33.883  1.00  0.00     0.022 A 
BRANCH  91  95
ATOM     95  S   UNL A   1      47.591  22.610  35.780  1.00  0.00     0.124 S 
ATOM     96  O   UNL A   1      48.941  22.068  35.890  1.00  0.00    -0.237 OA
ATOM     97  O   UNL A   1      47.171  23.499  36.859  1.00  0.00    -0.237 OA
ATOM     98  O   UNL A   1      46.575  21.659  35.330  1.00  0.00    -0.744 OA
ENDBRANCH  91  95
ENDBRANCH  65  88
ENDBRANCH  39  40
ENDBRANCH  32  34
ENDBRANCH  31  32
ENDBRANCH  30  31
ENDBRANCH  29  30
ENDBRANCH  28  29
ENDBRANCH   1  28
TORSDOF 23
ENDMDL
MODEL 3
REMARK VINA RESULT:      -9.0      5.023      8.568
REMARK SMILES CS(=O)(=O)c1ccc(/C=C(/C(=O)OCCOCCOCCOC(=O)c2ccc(-c3c4nc(c(-c5cc(S(=O)(=O)[O-])ccc5F)c5ccc([nH]5)c(-c5cc(S(=O)(=O)[O-])ccc5F)c5nc(c(-c6cc(S(=O)(=O)[O-])ccc6F)c6ccc3[nH]6)C=C5)C=C4)cc2)c2ccc(F)cc2)cc1
REMARK SMILES IDX 18 1 17 2 16 3 15 4 14 5 13 6 11 7 12 8 10 9 9 10 8 11 5 12
REMARK SMILES IDX 6 13 96 14 7 15 95 16 2 17 1 18 3 19 4 20 88 21 89 22 94 23
REMARK SMILES IDX 90 24 93 25 91 26 92 27 19 28 20 29 21 30 22 31 23 32 24 33
REMARK SMILES IDX 25 34 26 35 87 36 27 37 86 38 28 39 29 40 30 41 80 42 31 43
REMARK SMILES IDX 85 44 79 45 81 46 32 47 84 48 78 49 77 50 33 52 65 53 45 54
REMARK SMILES IDX 64 55 46 56 49 57 63 58 82 59 47 60 48 61 62 63 83 64 50 65
REMARK SMILES IDX 34 66 35 67 43 68 36 69 42 70 44 71 41 72 37 73 38 74 39 75
REMARK SMILES IDX 40 76 66 77 67 78 75 79 68 80 74 81 76 82 73 83 69 84 70 85
REMARK SMILES IDX 71 86 72 87 51 88 52 89 60 90 53 91 59 92 61 93 58 94 54 95
REMARK SMILES IDX 55 96 56 97 57 98
REMARK H PARENT 81 51 49 62
REMARK Flexibility Score: inf
ROOT
ATOM      1  C   UNL A   1      38.380  24.083  26.644  1.00  0.00     0.188 C 
ENDROOT
BRANCH   1   2
ATOM      2  C   UNL A   1      37.699  23.097  25.674  1.00  0.00     0.188 C 
BRANCH   2   3
ATOM      3  O   UNL A   1      36.305  23.289  25.590  1.00  0.00    -0.376 OA
BRANCH   3   4
ATOM      4  C   UNL A   1      35.455  22.329  26.189  1.00  0.00     0.202 C 
BRANCH   4   5
ATOM      5  C   UNL A   1      34.045  22.661  26.729  1.00  0.00     0.261 C 
BRANCH   5   6
ATOM      6  O   UNL A   1      33.164  23.423  25.893  1.00  0.00    -0.460 OA
BRANCH   6   7
ATOM      7  C   UNL A   1      32.071  23.977  26.476  1.00  0.00     0.338 C 
ATOM      8  O   UNL A   1      31.546  23.576  27.504  1.00  0.00    -0.246 OA
BRANCH   7   9
ATOM      9  C   UNL A   1      31.648  25.231  25.759  1.00  0.00     0.067 C 
ATOM     10  C   UNL A   1      30.849  25.150  24.666  1.00  0.00     0.024 C 
BRANCH  10  11
ATOM     11  C   UNL A   1      30.206  26.253  23.906  1.00  0.00    -0.025 A 
ATOM     12  C   UNL A   1      28.915  28.534  22.877  1.00  0.00     0.067 A 
ATOM     13  C   UNL A   1      30.274  28.347  22.643  1.00  0.00     0.021 A 
ATOM     14  C   UNL A   1      28.172  27.541  23.518  1.00  0.00     0.021 A 
ATOM     15  C   UNL A   1      30.899  27.190  23.125  1.00  0.00     0.009 A 
ATOM     16  C   UNL A   1      28.817  26.406  24.025  1.00  0.00     0.009 A 
BRANCH  12  17
ATOM     17  S   UNL A   1      28.097  30.059  22.468  1.00  0.00     0.175 S 
ATOM     18  C   UNL A   1      29.144  31.378  23.022  1.00  0.00     0.163 C 
ATOM     19  O   UNL A   1      26.894  30.106  23.282  1.00  0.00    -0.224 OA
ATOM     20  O   UNL A   1      28.014  30.113  21.022  1.00  0.00    -0.224 OA
ENDBRANCH  12  17
ENDBRANCH  10  11
BRANCH   9  21
ATOM     21  C   UNL A   1      32.129  26.518  26.303  1.00  0.00    -0.011 A 
ATOM     22  C   UNL A   1      33.402  26.980  25.930  1.00  0.00     0.012 A 
ATOM     23  C   UNL A   1      31.301  27.343  27.079  1.00  0.00     0.012 A 
ATOM     24  C   UNL A   1      33.826  28.255  26.300  1.00  0.00     0.040 A 
ATOM     25  C   UNL A   1      31.732  28.619  27.447  1.00  0.00     0.040 A 
ATOM     26  C   UNL A   1      32.987  29.064  27.050  1.00  0.00     0.123 A 
ATOM     27  F   UNL A   1      33.386  30.300  27.372  1.00  0.00    -0.207 F 
ENDBRANCH   9  21
ENDBRANCH   7   9
ENDBRANCH   6   7
ENDBRANCH   5   6
ENDBRANCH   4   5
ENDBRANCH   3   4
ENDBRANCH   2   3
ENDBRANCH   1   2
BRANCH   1  28
ATOM     28  O   UNL A   1      39.681  23.806  27.142  1.00  0.00    -0.376 OA
BRANCH  28  29
ATOM     29  C   UNL A   1      40.543  24.880  27.489  1.00  0.00     0.202 C 
BRANCH  29  30
ATOM     30  C   UNL A   1      40.363  26.298  26.907  1.00  0.00     0.261 C 
BRANCH  30  31
ATOM     31  O   UNL A   1      41.509  27.159  26.895  1.00  0.00    -0.460 OA
BRANCH  31  32
ATOM     32  C   UNL A   1      42.439  26.869  25.956  1.00  0.00     0.338 C 
ATOM     33  O   UNL A   1      42.274  26.875  24.737  1.00  0.00    -0.246 OA
BRANCH  32  34
ATOM     34  C   UNL A   1      43.766  26.723  26.586  1.00  0.00     0.060 A 
ATOM     35  C   UNL A   1      44.324  27.840  27.220  1.00  0.00     0.016 A 
ATOM     36  C   UNL A   1      44.487  25.527  26.504  1.00  0.00     0.016 A 
ATOM     37  C   UNL A   1      45.614  27.779  27.742  1.00  0.00     0.010 A 
ATOM     38  C   UNL A   1      45.794  25.476  27.009  1.00  0.00     0.010 A 
ATOM     39  C   UNL A   1      46.376  26.612  27.599  1.00  0.00    -0.014 A 
BRANCH  39  40
ATOM     40  C   UNL A   1      47.830  26.672  27.905  1.00  0.00     0.031 A 
ATOM     41  C   UNL A   1      48.296  26.290  29.284  1.00  0.00     0.074 A 
ATOM     42  C   UNL A   1      48.730  26.970  26.950  1.00  0.00     0.049 A 
ATOM     43  N   UNL A   1      49.513  26.190  29.752  1.00  0.00    -0.248 NA
ATOM     44  C   UNL A   1      47.244  25.992  30.267  1.00  0.00     0.031 C 
ATOM     45  C   UNL A   1      48.398  27.347  25.580  1.00  0.00     0.029 A 
ATOM     46  N   UNL A   1      50.102  26.975  26.978  1.00  0.00    -0.354 N 
ATOM     47  C   UNL A   1      49.376  25.822  31.087  1.00  0.00     0.074 A 
ATOM     48  C   UNL A   1      47.955  25.754  31.358  1.00  0.00     0.031 C 
ATOM     49  C   UNL A   1      49.536  27.493  24.880  1.00  0.00     0.029 A 
ATOM     50  C   UNL A   1      50.680  27.283  25.766  1.00  0.00     0.049 A 
ATOM     51  H   UNL A   1      50.625  26.778  27.788  1.00  0.00     0.167 HD
ATOM     52  C   UNL A   1      50.345  25.562  32.000  1.00  0.00     0.034 A 
ATOM     53  C   UNL A   1      51.979  27.397  25.419  1.00  0.00     0.034 A 
ATOM     54  C   UNL A   1      51.758  25.658  31.721  1.00  0.00     0.049 A 
ATOM     55  C   UNL A   1      53.040  27.156  26.469  1.00  0.00     0.074 A 
ATOM     56  C   UNL A   1      52.822  25.424  32.576  1.00  0.00     0.029 A 
ATOM     57  N   UNL A   1      52.309  26.028  30.500  1.00  0.00    -0.354 N 
ATOM     58  N   UNL A   1      52.896  26.805  27.727  1.00  0.00    -0.248 NA
ATOM     59  C   UNL A   1      54.437  27.326  26.051  1.00  0.00     0.031 C 
ATOM     60  C   UNL A   1      54.008  25.729  31.897  1.00  0.00     0.029 A 
ATOM     61  C   UNL A   1      53.693  26.059  30.589  1.00  0.00     0.049 A 
ATOM     62  H   UNL A   1      51.792  26.239  29.689  1.00  0.00     0.167 HD
ATOM     63  C   UNL A   1      54.188  26.684  28.239  1.00  0.00     0.074 A 
ATOM     64  C   UNL A   1      55.092  26.974  27.147  1.00  0.00     0.031 C 
ATOM     65  C   UNL A   1      54.591  26.363  29.496  1.00  0.00     0.034 A 
BRANCH  52  66
ATOM     66  C   UNL A   1      49.898  25.215  33.401  1.00  0.00     0.023 A 
ATOM     67  C   UNL A   1      49.437  26.195  34.298  1.00  0.00     0.031 A 
ATOM     68  C   UNL A   1      49.970  23.887  33.858  1.00  0.00     0.131 A 
ATOM     69  C   UNL A   1      49.139  25.845  35.624  1.00  0.00     0.055 A 
ATOM     70  C   UNL A   1      49.588  23.531  35.153  1.00  0.00     0.041 A 
ATOM     71  F   UNL A   1      50.428  22.911  33.057  1.00  0.00    -0.206 F 
ATOM     72  C   UNL A   1      49.185  24.516  36.049  1.00  0.00     0.022 A 
BRANCH  69  73
ATOM     73  S   UNL A   1      48.841  27.172  36.824  1.00  0.00     0.124 S 
ATOM     74  O   UNL A   1      50.025  27.072  37.673  1.00  0.00    -0.237 OA
ATOM     75  O   UNL A   1      48.761  28.354  35.974  1.00  0.00    -0.237 OA
ATOM     76  O   UNL A   1      47.589  26.778  37.466  1.00  0.00    -0.744 OA
ENDBRANCH  69  73
ENDBRANCH  52  66
BRANCH  53  77
ATOM     77  C   UNL A   1      52.368  27.798  24.031  1.00  0.00     0.023 A 
ATOM     78  C   UNL A   1      52.241  29.126  23.589  1.00  0.00     0.031 A 
ATOM     79  C   UNL A   1      52.801  26.836  23.100  1.00  0.00     0.131 A 
ATOM     80  C   UNL A   1      52.493  29.445  22.244  1.00  0.00     0.055 A 
ATOM     81  C   UNL A   1      53.115  27.170  21.782  1.00  0.00     0.041 A 
ATOM     82  F   UNL A   1      52.931  25.550  23.463  1.00  0.00    -0.206 F 
ATOM     83  C   UNL A   1      52.946  28.478  21.342  1.00  0.00     0.022 A 
BRANCH  80  84
ATOM     84  S   UNL A   1      52.114  31.120  21.656  1.00  0.00     0.124 S 
ATOM     85  O   UNL A   1      53.343  31.473  20.956  1.00  0.00    -0.237 OA
ATOM     86  O   UNL A   1      50.941  30.891  20.819  1.00  0.00    -0.237 OA
ATOM     87  O   UNL A   1      51.859  31.864  22.888  1.00  0.00    -0.744 OA
ENDBRANCH  80  84
ENDBRANCH  53  77
BRANCH  65  88
ATOM     88  C   UNL A   1      56.081  26.254  29.737  1.00  0.00     0.023 A 
ATOM     89  C   UNL A   1      56.768  25.032  29.628  1.00  0.00     0.031 A 
ATOM     90  C   UNL A   1      56.820  27.390  30.118  1.00  0.00     0.131 A 
ATOM     91  C   UNL A   1      58.128  24.959  29.971  1.00  0.00     0.055 A 
ATOM     92  C   UNL A   1      58.188  27.326  30.384  1.00  0.00     0.041 A 
ATOM     93  F   UNL A   1      56.220  28.585  30.243  1.00  0.00    -0.206 F 
ATOM     94  C   UNL A   1      58.846  26.101  30.331  1.00  0.00     0.022 A 
BRANCH  91  95
ATOM     95  S   UNL A   1      58.914  23.326  30.074  1.00  0.00     0.124 S 
ATOM     96  O   UNL A   1      59.175  23.205  31.505  1.00  0.00    -0.237 OA
ATOM     97  O   UNL A   1      57.878  22.448  29.540  1.00  0.00    -0.237 OA
ATOM     98  O   UNL A   1      60.103  23.464  29.236  1.00  0.00    -0.744 OA
ENDBRANCH  91  95
ENDBRANCH  65  88
ENDBRANCH  39  40
ENDBRANCH  32  34
ENDBRANCH  31  32
ENDBRANCH  30  31
ENDBRANCH  29  30
ENDBRANCH  28  29
ENDBRANCH   1  28
TORSDOF 23
ENDMDL
