MODEL 1
REMARK VINA RESULT:     -12.5      0.000      0.000
REMARK SMILES Cc1ccc(-c2cc(Cl)cc3c2O[C@H](C(F)(F)F)C(C(=O)OCCOCCOCCOC(=O)c2ccc(-c4c5nc(c(-c6cc(S(=O)(=O)[O-])ccc6F)c6ccc([nH]6)c(-c6cc(S(=O)(=O)[O-])ccc6F)c6nc(c(-c7cc(S(=O)(=O)[O-])ccc7F)c7ccc4[nH]7)C=C6)C=C5)cc2)=C3)cc1F
REMARK SMILES IDX 27 1 26 2 25 3 24 4 23 5 22 6 20 7 21 8 19 9 6 10 7 11 12 12
REMARK SMILES IDX 8 13 11 14 13 15 9 16 10 17 97 18 14 19 5 20 1 21 2 22 3 23
REMARK SMILES IDX 99 24 4 25 98 26 100 27 15 28 16 29 17 30 18 31 28 32 29 33
REMARK SMILES IDX 30 34 31 35 32 36 33 37 34 38 35 39 96 40 36 41 95 42 37 43
REMARK SMILES IDX 38 44 39 45 89 46 40 47 94 48 88 49 90 50 41 51 93 52 87 53
REMARK SMILES IDX 86 54 42 56 74 57 54 58 73 59 55 60 58 61 72 62 91 63 56 64
REMARK SMILES IDX 57 65 71 67 92 68 59 69 43 70 44 71 52 72 45 73 51 74 53 75
REMARK SMILES IDX 50 76 46 77 47 78 48 79 49 80 75 81 76 82 84 83 77 84 83 85
REMARK SMILES IDX 85 86 82 87 78 88 79 89 80 90 81 91 60 92 61 93 69 94 62 95
REMARK SMILES IDX 68 96 70 97 67 98 63 99 64 100 65 101 66 102
REMARK H PARENT 90 55 58 66
REMARK Flexibility Score: inf
ROOT
ATOM      1  C   UNL A   1      33.912  30.565  27.161  1.00  0.00     0.188 C 
ENDROOT
BRANCH   1   2
ATOM      2  C   UNL A   1      32.261  30.347  26.776  1.00  0.00     0.188 C 
BRANCH   2   3
ATOM      3  O   UNL A   1      31.393  29.068  25.455  1.00  0.00    -0.376 OA
BRANCH   3   4
ATOM      4  C   UNL A   1      31.420  29.084  23.666  1.00  0.00     0.202 C 
BRANCH   4   5
ATOM      5  C   UNL A   1      30.681  27.780  22.581  1.00  0.00     0.261 C 
BRANCH   5   6
ATOM      6  O   UNL A   1      31.382  26.333  22.236  1.00  0.00    -0.460 OA
BRANCH   6   7
ATOM      7  C   UNL A   1      31.305  25.152  22.958  1.00  0.00     0.338 C 
ATOM      8  O   UNL A   1      30.362  24.857  23.691  1.00  0.00    -0.246 OA
BRANCH   7   9
ATOM      9  C   UNL A   1      32.458  24.144  22.951  1.00  0.00     0.087 C 
ATOM     10  C   UNL A   1      35.382  21.570  24.705  1.00  0.00     0.026 A 
ATOM     11  C   UNL A   1      35.085  20.229  24.989  1.00  0.00     0.033 A 
ATOM     12  C   UNL A   1      34.447  22.388  24.014  1.00  0.00     0.135 A 
ATOM     13  C   UNL A   1      33.845  19.733  24.639  1.00  0.00     0.042 A 
ATOM     14  C   UNL A   1      33.226  21.889  23.607  1.00  0.00     0.019 A 
ATOM     15  O   UNL A   1      34.797  23.682  23.703  1.00  0.00    -0.475 OA
ATOM     16  Cl  UNL A   1      33.455  18.092  24.991  1.00  0.00    -0.084 Cl
ATOM     17  C   UNL A   1      32.921  20.563  23.988  1.00  0.00     0.032 A 
ATOM     18  C   UNL A   1      32.342  22.801  22.833  1.00  0.00     0.027 C 
ATOM     19  C   UNL A   1      33.711  24.660  23.609  1.00  0.00     0.316 C 
BRANCH  10  20
ATOM     20  C   UNL A   1      36.637  22.150  25.158  1.00  0.00    -0.012 A 
ATOM     21  C   UNL A   1      40.142  23.429  27.253  1.00  0.00     0.047 C 
ATOM     22  C   UNL A   1      38.946  23.041  26.449  1.00  0.00    -0.015 A 
ATOM     23  C   UNL A   1      37.847  23.897  26.309  1.00  0.00     0.007 A 
ATOM     24  C   UNL A   1      38.902  21.772  25.871  1.00  0.00     0.126 A 
ATOM     25  C   UNL A   1      36.696  23.454  25.661  1.00  0.00     0.009 A 
ATOM     26  C   UNL A   1      37.772  21.332  25.211  1.00  0.00     0.048 A 
ATOM     27  F   UNL A   1      39.942  20.938  25.998  1.00  0.00    -0.207 F 
ENDBRANCH  10  20
BRANCH  19  28
ATOM     28  C   UNL A   1      33.502  25.348  24.962  1.00  0.00     0.430 C 
ATOM     29  F   UNL A   1      34.689  25.485  25.607  1.00  0.00    -0.167 F 
ATOM     30  F   UNL A   1      33.024  26.606  24.815  1.00  0.00    -0.167 F 
ATOM     31  F   UNL A   1      32.681  24.659  25.782  1.00  0.00    -0.167 F 
ENDBRANCH  19  28
ENDBRANCH   7   9
ENDBRANCH   6   7
ENDBRANCH   5   6
ENDBRANCH   4   5
ENDBRANCH   3   4
ENDBRANCH   2   3
ENDBRANCH   1   2
BRANCH   1  32
ATOM     32  O   UNL A   1      34.634  31.743  27.554  1.00  0.00    -0.376 OA
BRANCH  32  33
ATOM     33  C   UNL A   1      35.495  31.660  28.691  1.00  0.00     0.202 C 
BRANCH  33  34
ATOM     34  C   UNL A   1      34.935  31.657  30.136  1.00  0.00     0.261 C 
BRANCH  34  35
ATOM     35  O   UNL A   1      34.408  32.891  30.636  1.00  0.00    -0.460 OA
BRANCH  35  36
ATOM     36  C   UNL A   1      34.574  33.175  31.943  1.00  0.00     0.338 C 
ATOM     37  O   UNL A   1      33.717  33.068  32.804  1.00  0.00    -0.246 OA
BRANCH  36  38
ATOM     38  C   UNL A   1      36.050  33.258  32.208  1.00  0.00     0.060 A 
ATOM     39  C   UNL A   1      36.948  34.009  31.419  1.00  0.00     0.016 A 
ATOM     40  C   UNL A   1      36.544  32.230  33.007  1.00  0.00     0.016 A 
ATOM     41  C   UNL A   1      38.283  33.578  31.261  1.00  0.00     0.010 A 
ATOM     42  C   UNL A   1      37.869  31.837  32.865  1.00  0.00     0.010 A 
ATOM     43  C   UNL A   1      38.720  32.420  31.910  1.00  0.00    -0.014 A 
BRANCH  43  44
ATOM     44  C   UNL A   1      40.080  31.860  31.796  1.00  0.00     0.031 A 
ATOM     45  C   UNL A   1      40.176  30.651  30.961  1.00  0.00     0.074 A 
ATOM     46  C   UNL A   1      41.227  32.418  32.277  1.00  0.00     0.049 A 
ATOM     47  N   UNL A   1      41.144  29.813  31.021  1.00  0.00    -0.248 NA
ATOM     48  C   UNL A   1      39.143  30.271  29.996  1.00  0.00     0.031 C 
ATOM     49  C   UNL A   1      42.630  32.180  31.932  1.00  0.00     0.029 A 
ATOM     50  N   UNL A   1      41.397  33.344  33.286  1.00  0.00    -0.354 N 
ATOM     51  C   UNL A   1      41.068  29.053  29.879  1.00  0.00     0.074 A 
ATOM     52  C   UNL A   1      39.730  29.241  29.377  1.00  0.00     0.031 C 
ATOM     53  C   UNL A   1      43.428  32.601  32.938  1.00  0.00     0.029 A 
ATOM     54  C   UNL A   1      42.549  33.043  34.002  1.00  0.00     0.049 A 
ATOM     55  H   UNL A   1      40.795  34.101  33.470  1.00  0.00     0.167 HD
ATOM     56  C   UNL A   1      42.222  28.546  29.366  1.00  0.00     0.034 A 
ATOM     57  C   UNL A   1      42.512  32.762  35.329  1.00  0.00     0.034 A 
ATOM     58  C   UNL A   1      43.354  28.886  30.236  1.00  0.00     0.049 A 
ATOM     59  C   UNL A   1      43.198  31.456  35.476  1.00  0.00     0.074 A 
ATOM     60  C   UNL A   1      44.316  29.880  30.162  1.00  0.00     0.029 A 
ATOM     61  N   UNL A   1      43.386  28.409  31.543  1.00  0.00    -0.354 N 
ATOM     62  N   UNL A   1      43.079  30.536  34.554  1.00  0.00    -0.248 NA
ATOM     63  C   UNL A   1      44.249  31.182  36.448  1.00  0.00     0.031 C 
ATOM     64  C   UNL A   1      44.905  30.019  31.447  1.00  0.00     0.029 A 
ATOM     65  C   UNL A   1      44.267  29.145  32.316  1.00  0.00     0.049 A 
ATOM     66  H   UNL A   1      42.855  27.648  31.874  1.00  0.00     0.167 HD
ATOM     67  C   UNL A   1      44.137  29.690  34.673  1.00  0.00     0.074 A 
ATOM     68  C   UNL A   1      44.800  30.080  35.909  1.00  0.00     0.031 C 
ATOM     69  C   UNL A   1      44.507  28.803  33.712  1.00  0.00     0.034 A 
BRANCH  56  70
ATOM     70  C   UNL A   1      42.364  28.039  27.948  1.00  0.00     0.023 A 
ATOM     71  C   UNL A   1      43.002  26.830  27.588  1.00  0.00     0.031 A 
ATOM     72  C   UNL A   1      41.830  28.784  26.873  1.00  0.00     0.131 A 
ATOM     73  C   UNL A   1      43.052  26.402  26.244  1.00  0.00     0.055 A 
ATOM     74  C   UNL A   1      41.909  28.374  25.539  1.00  0.00     0.041 A 
ATOM     75  F   UNL A   1      41.174  29.937  27.061  1.00  0.00    -0.206 F 
ATOM     76  C   UNL A   1      42.515  27.175  25.218  1.00  0.00     0.022 A 
BRANCH  73  77
ATOM     77  S   UNL A   1      43.776  24.804  25.771  1.00  0.00     0.124 S 
ATOM     78  O   UNL A   1      44.899  25.209  24.926  1.00  0.00    -0.237 OA
ATOM     79  O   UNL A   1      44.148  24.235  27.064  1.00  0.00    -0.237 OA
ATOM     80  O   UNL A   1      42.693  24.122  25.068  1.00  0.00    -0.744 OA
ENDBRANCH  73  77
ENDBRANCH  56  70
BRANCH  57  81
ATOM     81  C   UNL A   1      41.338  33.384  36.024  1.00  0.00     0.023 A 
ATOM     82  C   UNL A   1      41.301  34.885  36.876  1.00  0.00     0.031 A 
ATOM     83  C   UNL A   1      40.071  32.179  36.343  1.00  0.00     0.131 A 
ATOM     84  C   UNL A   1      40.046  35.259  38.071  1.00  0.00     0.055 A 
ATOM     85  C   UNL A   1      38.728  32.493  37.637  1.00  0.00     0.041 A 
ATOM     86  F   UNL A   1      39.974  31.378  35.284  1.00  0.00    -0.206 F 
ATOM     87  C   UNL A   1      38.718  34.135  38.440  1.00  0.00     0.022 A 
BRANCH  84  88
ATOM     88  S   UNL A   1      40.687  36.243  39.521  1.00  0.00     0.124 S 
ATOM     89  O   UNL A   1      41.535  35.280  40.209  1.00  0.00    -0.237 OA
ATOM     90  O   UNL A   1      41.389  37.345  38.870  1.00  0.00    -0.237 OA
ATOM     91  O   UNL A   1      39.464  36.641  40.215  1.00  0.00    -0.744 OA
ENDBRANCH  84  88
ENDBRANCH  57  81
BRANCH  69  92
ATOM     92  C   UNL A   1      45.215  27.528  34.032  1.00  0.00     0.023 A 
ATOM     93  C   UNL A   1      44.496  26.516  34.698  1.00  0.00     0.031 A 
ATOM     94  C   UNL A   1      46.607  27.363  33.930  1.00  0.00     0.131 A 
ATOM     95  C   UNL A   1      45.159  25.424  35.253  1.00  0.00     0.055 A 
ATOM     96  C   UNL A   1      47.250  26.217  34.388  1.00  0.00     0.041 A 
ATOM     97  F   UNL A   1      47.407  28.330  33.459  1.00  0.00    -0.206 F 
ATOM     98  C   UNL A   1      46.528  25.250  35.069  1.00  0.00     0.022 A 
BRANCH  95  99
ATOM     99  S   UNL A   1      44.293  24.317  36.392  1.00  0.00     0.124 S 
ATOM    100  O   UNL A   1      43.601  23.428  35.465  1.00  0.00    -0.237 OA
ATOM    101  O   UNL A   1      45.404  23.718  37.130  1.00  0.00    -0.237 OA
ATOM    102  O   UNL A   1      43.440  25.207  37.170  1.00  0.00    -0.744 OA
ENDBRANCH  95  99
ENDBRANCH  69  92
ENDBRANCH  43  44
ENDBRANCH  36  38
ENDBRANCH  35  36
ENDBRANCH  34  35
ENDBRANCH  33  34
ENDBRANCH  32  33
ENDBRANCH   1  32
TORSDOF 22
ENDMDL
MODEL 2
REMARK VINA RESULT:     -12.2      3.519      9.671
REMARK SMILES Cc1ccc(-c2cc(Cl)cc3c2O[C@H](C(F)(F)F)C(C(=O)OCCOCCOCCOC(=O)c2ccc(-c4c5nc(c(-c6cc(S(=O)(=O)[O-])ccc6F)c6ccc([nH]6)c(-c6cc(S(=O)(=O)[O-])ccc6F)c6nc(c(-c7cc(S(=O)(=O)[O-])ccc7F)c7ccc4[nH]7)C=C6)C=C5)cc2)=C3)cc1F
REMARK SMILES IDX 27 1 26 2 25 3 24 4 23 5 22 6 20 7 21 8 19 9 6 10 7 11 12 12
REMARK SMILES IDX 8 13 11 14 13 15 9 16 10 17 97 18 14 19 5 20 1 21 2 22 3 23
REMARK SMILES IDX 99 24 4 25 98 26 100 27 15 28 16 29 17 30 18 31 28 32 29 33
REMARK SMILES IDX 30 34 31 35 32 36 33 37 34 38 35 39 96 40 36 41 95 42 37 43
REMARK SMILES IDX 38 44 39 45 89 46 40 47 94 48 88 49 90 50 41 51 93 52 87 53
REMARK SMILES IDX 86 54 42 56 74 57 54 58 73 59 55 60 58 61 72 62 91 63 56 64
REMARK SMILES IDX 57 65 71 67 92 68 59 69 43 70 44 71 52 72 45 73 51 74 53 75
REMARK SMILES IDX 50 76 46 77 47 78 48 79 49 80 75 81 76 82 84 83 77 84 83 85
REMARK SMILES IDX 85 86 82 87 78 88 79 89 80 90 81 91 60 92 61 93 69 94 62 95
REMARK SMILES IDX 68 96 70 97 67 98 63 99 64 100 65 101 66 102
REMARK H PARENT 90 55 58 66
REMARK Flexibility Score: inf
ROOT
ATOM      1  C   UNL A   1      40.521  23.784  27.659  1.00  0.00     0.188 C 
ENDROOT
BRANCH   1   2
ATOM      2  C   UNL A   1      40.207  22.171  27.184  1.00  0.00     0.188 C 
BRANCH   2   3
ATOM      3  O   UNL A   1      38.928  21.459  25.774  1.00  0.00    -0.376 OA
BRANCH   3   4
ATOM      4  C   UNL A   1      37.309  22.053  25.297  1.00  0.00     0.202 C 
BRANCH   4   5
ATOM      5  C   UNL A   1      35.811  20.989  25.074  1.00  0.00     0.261 C 
BRANCH   5   6
ATOM      6  O   UNL A   1      34.273  21.550  24.921  1.00  0.00    -0.460 OA
BRANCH   6   7
ATOM      7  C   UNL A   1      33.679  22.125  23.808  1.00  0.00     0.338 C 
ATOM      8  O   UNL A   1      33.223  21.481  22.864  1.00  0.00    -0.246 OA
BRANCH   7   9
ATOM      9  C   UNL A   1      33.623  23.646  23.639  1.00  0.00     0.087 C 
ATOM     10  C   UNL A   1      32.104  27.580  24.323  1.00  0.00     0.026 A 
ATOM     11  C   UNL A   1      32.605  28.376  25.363  1.00  0.00     0.033 A 
ATOM     12  C   UNL A   1      32.693  26.321  24.026  1.00  0.00     0.135 A 
ATOM     13  C   UNL A   1      33.645  27.890  26.133  1.00  0.00     0.042 A 
ATOM     14  C   UNL A   1      33.769  25.849  24.750  1.00  0.00     0.019 A 
ATOM     15  O   UNL A   1      32.210  25.594  22.962  1.00  0.00    -0.475 OA
ATOM     16  Cl  UNL A   1      34.266  28.847  27.424  1.00  0.00    -0.084 Cl
ATOM     17  C   UNL A   1      34.193  26.631  25.848  1.00  0.00     0.032 A 
ATOM     18  C   UNL A   1      34.361  24.552  24.322  1.00  0.00     0.027 C 
ATOM     19  C   UNL A   1      32.330  24.138  23.043  1.00  0.00     0.316 C 
BRANCH  10  20
ATOM     20  C   UNL A   1      30.942  28.018  23.566  1.00  0.00    -0.012 A 
ATOM     21  C   UNL A   1      27.520  29.989  21.918  1.00  0.00     0.047 C 
ATOM     22  C   UNL A   1      28.697  29.229  22.431  1.00  0.00    -0.015 A 
ATOM     23  C   UNL A   1      28.545  28.122  23.275  1.00  0.00     0.007 A 
ATOM     24  C   UNL A   1      29.981  29.668  22.105  1.00  0.00     0.126 A 
ATOM     25  C   UNL A   1      29.665  27.515  23.838  1.00  0.00     0.009 A 
ATOM     26  C   UNL A   1      31.097  29.060  22.644  1.00  0.00     0.048 A 
ATOM     27  F   UNL A   1      30.146  30.728  21.303  1.00  0.00    -0.207 F 
ENDBRANCH  10  20
BRANCH  19  28
ATOM     28  C   UNL A   1      31.060  23.539  23.656  1.00  0.00     0.430 C 
ATOM     29  F   UNL A   1      30.044  24.437  23.603  1.00  0.00    -0.167 F 
ATOM     30  F   UNL A   1      30.626  22.463  22.958  1.00  0.00    -0.167 F 
ATOM     31  F   UNL A   1      31.214  23.188  24.951  1.00  0.00    -0.167 F 
ENDBRANCH  19  28
ENDBRANCH   7   9
ENDBRANCH   6   7
ENDBRANCH   5   6
ENDBRANCH   4   5
ENDBRANCH   3   4
ENDBRANCH   2   3
ENDBRANCH   1   2
BRANCH   1  32
ATOM     32  O   UNL A   1      41.730  24.557  27.604  1.00  0.00    -0.376 OA
BRANCH  32  33
ATOM     33  C   UNL A   1      41.692  25.905  28.076  1.00  0.00     0.202 C 
BRANCH  33  34
ATOM     34  C   UNL A   1      42.057  27.098  27.157  1.00  0.00     0.261 C 
BRANCH  34  35
ATOM     35  O   UNL A   1      41.938  28.413  27.712  1.00  0.00    -0.460 OA
BRANCH  35  36
ATOM     36  C   UNL A   1      42.804  28.781  28.676  1.00  0.00     0.338 C 
ATOM     37  O   UNL A   1      43.990  28.497  28.707  1.00  0.00    -0.246 OA
BRANCH  36  38
ATOM     38  C   UNL A   1      42.168  29.890  29.463  1.00  0.00     0.060 A 
ATOM     39  C   UNL A   1      42.733  31.176  29.606  1.00  0.00     0.016 A 
ATOM     40  C   UNL A   1      41.214  29.462  30.383  1.00  0.00     0.016 A 
ATOM     41  C   UNL A   1      42.514  31.919  30.787  1.00  0.00     0.010 A 
ATOM     42  C   UNL A   1      40.984  30.219  31.525  1.00  0.00     0.010 A 
ATOM     43  C   UNL A   1      41.714  31.388  31.802  1.00  0.00    -0.014 A 
BRANCH  43  44
ATOM     44  C   UNL A   1      41.439  32.059  33.087  1.00  0.00     0.031 A 
ATOM     45  C   UNL A   1      42.122  31.462  34.247  1.00  0.00     0.074 A 
ATOM     46  C   UNL A   1      40.735  33.213  33.262  1.00  0.00     0.049 A 
ATOM     47  N   UNL A   1      41.754  31.636  35.462  1.00  0.00    -0.248 NA
ATOM     48  C   UNL A   1      43.279  30.576  34.115  1.00  0.00     0.031 C 
ATOM     49  C   UNL A   1      40.699  34.157  34.381  1.00  0.00     0.029 A 
ATOM     50  N   UNL A   1      39.795  33.802  32.440  1.00  0.00    -0.354 N 
ATOM     51  C   UNL A   1      42.813  31.243  36.245  1.00  0.00     0.074 A 
ATOM     52  C   UNL A   1      43.646  30.433  35.393  1.00  0.00     0.031 C 
ATOM     53  C   UNL A   1      39.564  34.888  34.329  1.00  0.00     0.029 A 
ATOM     54  C   UNL A   1      38.792  34.369  33.217  1.00  0.00     0.049 A 
ATOM     55  H   UNL A   1      39.830  33.816  31.457  1.00  0.00     0.167 HD
ATOM     56  C   UNL A   1      42.979  31.850  37.452  1.00  0.00     0.034 A 
ATOM     57  C   UNL A   1      37.498  33.977  33.111  1.00  0.00     0.034 A 
ATOM     58  C   UNL A   1      41.886  32.798  37.696  1.00  0.00     0.049 A 
ATOM     59  C   UNL A   1      37.078  33.622  34.488  1.00  0.00     0.074 A 
ATOM     60  C   UNL A   1      41.798  34.172  37.552  1.00  0.00     0.029 A 
ATOM     61  N   UNL A   1      40.576  32.331  37.787  1.00  0.00    -0.354 N 
ATOM     62  N   UNL A   1      37.922  33.064  35.317  1.00  0.00    -0.248 NA
ATOM     63  C   UNL A   1      35.856  34.098  35.125  1.00  0.00     0.031 C 
ATOM     64  C   UNL A   1      40.423  34.526  37.522  1.00  0.00     0.029 A 
ATOM     65  C   UNL A   1      39.672  33.361  37.598  1.00  0.00     0.049 A 
ATOM     66  H   UNL A   1      40.327  31.395  37.961  1.00  0.00     0.167 HD
ATOM     67  C   UNL A   1      37.474  33.292  36.581  1.00  0.00     0.074 A 
ATOM     68  C   UNL A   1      36.148  33.871  36.417  1.00  0.00     0.031 C 
ATOM     69  C   UNL A   1      38.237  33.126  37.694  1.00  0.00     0.034 A 
BRANCH  56  70
ATOM     70  C   UNL A   1      44.271  31.823  38.239  1.00  0.00     0.023 A 
ATOM     71  C   UNL A   1      44.446  31.151  39.471  1.00  0.00     0.031 A 
ATOM     72  C   UNL A   1      45.413  32.494  37.748  1.00  0.00     0.131 A 
ATOM     73  C   UNL A   1      45.699  31.133  40.121  1.00  0.00     0.055 A 
ATOM     74  C   UNL A   1      46.644  32.502  38.410  1.00  0.00     0.041 A 
ATOM     75  F   UNL A   1      45.407  33.152  36.581  1.00  0.00    -0.206 F 
ATOM     76  C   UNL A   1      46.795  31.815  39.599  1.00  0.00     0.022 A 
BRANCH  73  77
ATOM     77  S   UNL A   1      45.973  30.191  41.651  1.00  0.00     0.124 S 
ATOM     78  O   UNL A   1      46.909  31.046  42.380  1.00  0.00    -0.237 OA
ATOM     79  O   UNL A   1      44.630  30.118  42.217  1.00  0.00    -0.237 OA
ATOM     80  O   UNL A   1      46.533  28.925  41.187  1.00  0.00    -0.744 OA
ENDBRANCH  73  77
ENDBRANCH  56  70
BRANCH  57  81
ATOM     81  C   UNL A   1      37.170  33.405  31.764  1.00  0.00     0.023 A 
ATOM     82  C   UNL A   1      36.449  34.224  30.427  1.00  0.00     0.031 A 
ATOM     83  C   UNL A   1      37.120  31.629  31.817  1.00  0.00     0.131 A 
ATOM     84  C   UNL A   1      35.646  33.351  29.109  1.00  0.00     0.055 A 
ATOM     85  C   UNL A   1      36.241  30.635  30.469  1.00  0.00     0.041 A 
ATOM     86  F   UNL A   1      38.118  31.202  32.588  1.00  0.00    -0.206 F 
ATOM     87  C   UNL A   1      35.568  31.575  29.053  1.00  0.00     0.022 A 
BRANCH  84  88
ATOM     88  S   UNL A   1      34.141  34.238  28.454  1.00  0.00     0.124 S 
ATOM     89  O   UNL A   1      33.745  33.405  27.328  1.00  0.00    -0.237 OA
ATOM     90  O   UNL A   1      33.236  34.215  29.601  1.00  0.00    -0.237 OA
ATOM     91  O   UNL A   1      34.657  35.565  28.129  1.00  0.00    -0.744 OA
ENDBRANCH  84  88
ENDBRANCH  57  81
BRANCH  69  92
ATOM     92  C   UNL A   1      37.648  32.786  39.022  1.00  0.00     0.023 A 
ATOM     93  C   UNL A   1      37.854  33.680  40.091  1.00  0.00     0.031 A 
ATOM     94  C   UNL A   1      37.111  31.527  39.337  1.00  0.00     0.131 A 
ATOM     95  C   UNL A   1      37.562  33.301  41.399  1.00  0.00     0.055 A 
ATOM     96  C   UNL A   1      36.717  31.193  40.629  1.00  0.00     0.041 A 
ATOM     97  F   UNL A   1      37.018  30.544  38.429  1.00  0.00    -0.206 F 
ATOM     98  C   UNL A   1      36.959  32.075  41.670  1.00  0.00     0.022 A 
BRANCH  95  99
ATOM     99  S   UNL A   1      38.143  34.303  42.789  1.00  0.00     0.124 S 
ATOM    100  O   UNL A   1      38.184  35.634  42.191  1.00  0.00    -0.237 OA
ATOM    101  O   UNL A   1      37.087  34.087  43.776  1.00  0.00    -0.237 OA
ATOM    102  O   UNL A   1      39.437  33.722  43.126  1.00  0.00    -0.744 OA
ENDBRANCH  95  99
ENDBRANCH  69  92
ENDBRANCH  43  44
ENDBRANCH  36  38
ENDBRANCH  35  36
ENDBRANCH  34  35
ENDBRANCH  33  34
ENDBRANCH  32  33
ENDBRANCH   1  32
TORSDOF 22
ENDMDL
MODEL 3
REMARK VINA RESULT:     -11.9      5.502      9.789
REMARK SMILES Cc1ccc(-c2cc(Cl)cc3c2O[C@H](C(F)(F)F)C(C(=O)OCCOCCOCCOC(=O)c2ccc(-c4c5nc(c(-c6cc(S(=O)(=O)[O-])ccc6F)c6ccc([nH]6)c(-c6cc(S(=O)(=O)[O-])ccc6F)c6nc(c(-c7cc(S(=O)(=O)[O-])ccc7F)c7ccc4[nH]7)C=C6)C=C5)cc2)=C3)cc1F
REMARK SMILES IDX 27 1 26 2 25 3 24 4 23 5 22 6 20 7 21 8 19 9 6 10 7 11 12 12
REMARK SMILES IDX 8 13 11 14 13 15 9 16 10 17 97 18 14 19 5 20 1 21 2 22 3 23
REMARK SMILES IDX 99 24 4 25 98 26 100 27 15 28 16 29 17 30 18 31 28 32 29 33
REMARK SMILES IDX 30 34 31 35 32 36 33 37 34 38 35 39 96 40 36 41 95 42 37 43
REMARK SMILES IDX 38 44 39 45 89 46 40 47 94 48 88 49 90 50 41 51 93 52 87 53
REMARK SMILES IDX 86 54 42 56 74 57 54 58 73 59 55 60 58 61 72 62 91 63 56 64
REMARK SMILES IDX 57 65 71 67 92 68 59 69 43 70 44 71 52 72 45 73 51 74 53 75
REMARK SMILES IDX 50 76 46 77 47 78 48 79 49 80 75 81 76 82 84 83 77 84 83 85
REMARK SMILES IDX 85 86 82 87 78 88 79 89 80 90 81 91 60 92 61 93 69 94 62 95
REMARK SMILES IDX 68 96 70 97 67 98 63 99 64 100 65 101 66 102
REMARK H PARENT 90 55 58 66
REMARK Flexibility Score: inf
ROOT
ATOM      1  C   UNL A   1      49.322  31.130  27.318  1.00  0.00     0.188 C 
ENDROOT
BRANCH   1   2
ATOM      2  C   UNL A   1      50.690  30.167  26.963  1.00  0.00     0.188 C 
BRANCH   2   3
ATOM      3  O   UNL A   1      50.821  28.163  26.654  1.00  0.00    -0.376 OA
BRANCH   3   4
ATOM      4  C   UNL A   1      49.520  26.952  26.446  1.00  0.00     0.202 C 
BRANCH   4   5
ATOM      5  C   UNL A   1      49.238  25.495  27.552  1.00  0.00     0.261 C 
BRANCH   5   6
ATOM      6  O   UNL A   1      47.780  25.050  28.169  1.00  0.00    -0.460 OA
BRANCH   6   7
ATOM      7  C   UNL A   1      46.784  24.306  27.556  1.00  0.00     0.338 C 
ATOM      8  O   UNL A   1      46.954  23.640  26.536  1.00  0.00    -0.246 OA
BRANCH   7   9
ATOM      9  C   UNL A   1      45.345  24.327  28.081  1.00  0.00     0.087 C 
ATOM     10  C   UNL A   1      41.125  24.939  27.830  1.00  0.00     0.026 A 
ATOM     11  C   UNL A   1      40.267  23.901  27.440  1.00  0.00     0.033 A 
ATOM     12  C   UNL A   1      42.512  24.698  28.026  1.00  0.00     0.135 A 
ATOM     13  C   UNL A   1      40.802  22.652  27.192  1.00  0.00     0.042 A 
ATOM     14  C   UNL A   1      43.050  23.442  27.838  1.00  0.00     0.019 A 
ATOM     15  O   UNL A   1      43.311  25.729  28.464  1.00  0.00    -0.475 OA
ATOM     16  Cl  UNL A   1      39.768  21.365  26.699  1.00  0.00    -0.084 Cl
ATOM     17  C   UNL A   1      42.178  22.439  27.358  1.00  0.00     0.032 A 
ATOM     18  C   UNL A   1      44.499  23.272  28.132  1.00  0.00     0.027 C 
ATOM     19  C   UNL A   1      44.718  25.697  28.060  1.00  0.00     0.316 C 
BRANCH  10  20
ATOM     20  C   UNL A   1      40.606  26.289  27.993  1.00  0.00    -0.012 A 
ATOM     21  C   UNL A   1      38.331  29.910  28.137  1.00  0.00     0.047 C 
ATOM     22  C   UNL A   1      39.202  28.698  28.114  1.00  0.00    -0.015 A 
ATOM     23  C   UNL A   1      40.120  28.474  27.082  1.00  0.00     0.007 A 
ATOM     24  C   UNL A   1      39.056  27.741  29.119  1.00  0.00     0.126 A 
ATOM     25  C   UNL A   1      40.824  27.273  27.023  1.00  0.00     0.009 A 
ATOM     26  C   UNL A   1      39.764  26.557  29.078  1.00  0.00     0.048 A 
ATOM     27  F   UNL A   1      38.179  27.937  30.113  1.00  0.00    -0.207 F 
ENDBRANCH  10  20
BRANCH  19  28
ATOM     28  C   UNL A   1      44.911  26.483  26.760  1.00  0.00     0.430 C 
ATOM     29  F   UNL A   1      44.779  25.660  25.689  1.00  0.00    -0.167 F 
ATOM     30  F   UNL A   1      43.960  27.433  26.603  1.00  0.00    -0.167 F 
ATOM     31  F   UNL A   1      46.128  27.060  26.669  1.00  0.00    -0.167 F 
ENDBRANCH  19  28
ENDBRANCH   7   9
ENDBRANCH   6   7
ENDBRANCH   5   6
ENDBRANCH   4   5
ENDBRANCH   3   4
ENDBRANCH   2   3
ENDBRANCH   1   2
BRANCH   1  32
ATOM     32  O   UNL A   1      48.575  32.036  26.491  1.00  0.00    -0.376 OA
BRANCH  32  33
ATOM     33  C   UNL A   1      47.585  32.857  27.112  1.00  0.00     0.202 C 
BRANCH  33  34
ATOM     34  C   UNL A   1      46.078  32.696  26.790  1.00  0.00     0.261 C 
BRANCH  34  35
ATOM     35  O   UNL A   1      45.217  32.299  27.863  1.00  0.00    -0.460 OA
BRANCH  35  36
ATOM     36  C   UNL A   1      44.843  31.006  27.938  1.00  0.00     0.338 C 
ATOM     37  O   UNL A   1      44.817  30.223  27.003  1.00  0.00    -0.246 OA
BRANCH  36  38
ATOM     38  C   UNL A   1      44.847  30.612  29.386  1.00  0.00     0.060 A 
ATOM     39  C   UNL A   1      45.636  31.245  30.371  1.00  0.00     0.016 A 
ATOM     40  C   UNL A   1      44.359  29.330  29.629  1.00  0.00     0.016 A 
ATOM     41  C   UNL A   1      46.117  30.508  31.475  1.00  0.00     0.010 A 
ATOM     42  C   UNL A   1      44.815  28.628  30.738  1.00  0.00     0.010 A 
ATOM     43  C   UNL A   1      45.787  29.157  31.604  1.00  0.00    -0.014 A 
BRANCH  43  44
ATOM     44  C   UNL A   1      46.254  28.283  32.697  1.00  0.00     0.031 A 
ATOM     45  C   UNL A   1      47.204  27.237  32.281  1.00  0.00     0.074 A 
ATOM     46  C   UNL A   1      45.987  28.436  34.025  1.00  0.00     0.049 A 
ATOM     47  N   UNL A   1      47.442  26.175  32.958  1.00  0.00    -0.248 NA
ATOM     48  C   UNL A   1      47.948  27.299  31.022  1.00  0.00     0.031 C 
ATOM     49  C   UNL A   1      46.657  27.893  35.209  1.00  0.00     0.029 A 
ATOM     50  N   UNL A   1      44.956  29.116  34.641  1.00  0.00    -0.354 N 
ATOM     51  C   UNL A   1      48.608  25.651  32.454  1.00  0.00     0.074 A 
ATOM     52  C   UNL A   1      48.780  26.261  31.159  1.00  0.00     0.031 C 
ATOM     53  C   UNL A   1      45.817  27.927  36.267  1.00  0.00     0.029 A 
ATOM     54  C   UNL A   1      44.546  28.413  35.767  1.00  0.00     0.049 A 
ATOM     55  H   UNL A   1      44.570  29.966  34.330  1.00  0.00     0.167 HD
ATOM     56  C   UNL A   1      49.411  24.944  33.295  1.00  0.00     0.034 A 
ATOM     57  C   UNL A   1      43.278  27.948  35.897  1.00  0.00     0.034 A 
ATOM     58  C   UNL A   1      48.786  24.833  34.617  1.00  0.00     0.049 A 
ATOM     59  C   UNL A   1      43.416  26.501  36.189  1.00  0.00     0.074 A 
ATOM     60  C   UNL A   1      48.973  25.537  35.795  1.00  0.00     0.029 A 
ATOM     61  N   UNL A   1      47.571  24.165  34.751  1.00  0.00    -0.354 N 
ATOM     62  N   UNL A   1      44.373  25.800  35.639  1.00  0.00    -0.248 NA
ATOM     63  C   UNL A   1      42.733  25.810  37.277  1.00  0.00     0.031 C 
ATOM     64  C   UNL A   1      47.844  25.313  36.627  1.00  0.00     0.029 A 
ATOM     65  C   UNL A   1      46.944  24.514  35.935  1.00  0.00     0.049 A 
ATOM     66  H   UNL A   1      47.206  23.530  34.093  1.00  0.00     0.167 HD
ATOM     67  C   UNL A   1      44.575  24.697  36.409  1.00  0.00     0.074 A 
ATOM     68  C   UNL A   1      43.486  24.701  37.374  1.00  0.00     0.031 C 
ATOM     69  C   UNL A   1      45.677  23.906  36.320  1.00  0.00     0.034 A 
BRANCH  56  70
ATOM     70  C   UNL A   1      50.869  24.645  33.017  1.00  0.00     0.023 A 
ATOM     71  C   UNL A   1      51.461  23.367  33.129  1.00  0.00     0.031 A 
ATOM     72  C   UNL A   1      51.738  25.681  32.607  1.00  0.00     0.131 A 
ATOM     73  C   UNL A   1      52.819  23.161  32.806  1.00  0.00     0.055 A 
ATOM     74  C   UNL A   1      53.091  25.481  32.320  1.00  0.00     0.041 A 
ATOM     75  F   UNL A   1      51.314  26.940  32.433  1.00  0.00    -0.206 F 
ATOM     76  C   UNL A   1      53.637  24.216  32.411  1.00  0.00     0.022 A 
BRANCH  73  77
ATOM     77  S   UNL A   1      53.575  21.508  32.843  1.00  0.00     0.124 S 
ATOM     78  O   UNL A   1      52.405  20.630  32.824  1.00  0.00    -0.237 OA
ATOM     79  O   UNL A   1      54.374  21.502  31.621  1.00  0.00    -0.237 OA
ATOM     80  O   UNL A   1      54.330  21.496  34.092  1.00  0.00    -0.744 OA
ENDBRANCH  73  77
ENDBRANCH  56  70
BRANCH  57  81
ATOM     81  C   UNL A   1      42.282  28.741  35.105  1.00  0.00     0.023 A 
ATOM     82  C   UNL A   1      41.385  30.118  35.630  1.00  0.00     0.031 A 
ATOM     83  C   UNL A   1      41.705  27.820  33.698  1.00  0.00     0.131 A 
ATOM     84  C   UNL A   1      39.896  30.639  34.820  1.00  0.00     0.055 A 
ATOM     85  C   UNL A   1      40.101  28.291  32.814  1.00  0.00     0.041 A 
ATOM     86  F   UNL A   1      42.738  27.171  33.166  1.00  0.00    -0.206 F 
ATOM     87  C   UNL A   1      39.251  29.805  33.388  1.00  0.00     0.022 A 
BRANCH  84  88
ATOM     88  S   UNL A   1      38.615  31.305  36.002  1.00  0.00     0.124 S 
ATOM     89  O   UNL A   1      37.706  32.018  35.117  1.00  0.00    -0.237 OA
ATOM     90  O   UNL A   1      38.079  30.088  36.606  1.00  0.00    -0.237 OA
ATOM     91  O   UNL A   1      39.406  32.125  36.916  1.00  0.00    -0.744 OA
ENDBRANCH  84  88
ENDBRANCH  57  81
BRANCH  69  92
ATOM     92  C   UNL A   1      45.649  22.456  36.674  1.00  0.00     0.023 A 
ATOM     93  C   UNL A   1      45.976  22.086  37.993  1.00  0.00     0.031 A 
ATOM     94  C   UNL A   1      45.555  21.424  35.726  1.00  0.00     0.131 A 
ATOM     95  C   UNL A   1      46.222  20.754  38.316  1.00  0.00     0.055 A 
ATOM     96  C   UNL A   1      45.693  20.084  36.075  1.00  0.00     0.041 A 
ATOM     97  F   UNL A   1      45.406  21.670  34.416  1.00  0.00    -0.206 F 
ATOM     98  C   UNL A   1      46.046  19.746  37.372  1.00  0.00     0.022 A 
BRANCH  95  99
ATOM     99  S   UNL A   1      46.971  20.326  39.906  1.00  0.00     0.124 S 
ATOM    100  O   UNL A   1      45.855  20.545  40.821  1.00  0.00    -0.237 OA
ATOM    101  O   UNL A   1      47.348  18.929  39.694  1.00  0.00    -0.237 OA
ATOM    102  O   UNL A   1      48.085  21.257  40.034  1.00  0.00    -0.744 OA
ENDBRANCH  95  99
ENDBRANCH  69  92
ENDBRANCH  43  44
ENDBRANCH  36  38
ENDBRANCH  35  36
ENDBRANCH  34  35
ENDBRANCH  33  34
ENDBRANCH  32  33
ENDBRANCH   1  32
TORSDOF 22
ENDMDL
