MODEL 1
REMARK VINA RESULT:      -9.8      0.000      0.000
REMARK SMILES [NH3+][C@]1(C(=O)OCCOCCOCCOC(=O)c2ccc(-c3c4nc(c(-c5cc(S(=O)(=O)[O-])ccc5F)c5ccc([nH]5)c(-c5cc(S(=O)(=O)[O-])ccc5F)c5nc(c(-c6cc(S(=O)(=O)[O-])ccc6F)c6ccc3[nH]6)C=C5)C=C4)cc2)CCC[C@@H]1CCOc1ccc(CO)cc1
REMARK SMILES IDX 8 1 7 2 6 3 5 4 3 5 4 6 2 7 80 8 83 9 81 10 82 11 1 12 84 16
REMARK SMILES IDX 85 17 86 18 87 19 88 20 94 21 89 22 93 23 90 24 91 25 92 26
REMARK SMILES IDX 9 28 10 29 11 30 12 31 13 32 14 33 15 34 16 35 17 36 18 37
REMARK SMILES IDX 79 38 19 39 78 40 20 41 21 42 22 43 72 44 23 45 77 46 71 47
REMARK SMILES IDX 73 48 24 49 76 50 70 51 69 52 25 54 57 55 37 56 56 57 38 58
REMARK SMILES IDX 41 59 55 60 74 61 39 62 40 63 54 65 75 66 42 67 26 68 27 69
REMARK SMILES IDX 35 70 28 71 34 72 36 73 33 74 29 75 30 76 31 77 32 78 58 79
REMARK SMILES IDX 59 80 67 81 60 82 66 83 68 84 65 85 61 86 62 87 63 88 64 89
REMARK SMILES IDX 43 90 44 91 52 92 45 93 51 94 53 95 50 96 46 97 47 98 48 99
REMARK SMILES IDX 49 100
REMARK H PARENT 1 13 1 14 1 15 92 27 73 53 41 64
REMARK Flexibility Score: inf
ROOT
ATOM      1  O   UNL A   1      39.246  21.328  26.107  1.00  0.00    -0.376 OA
ENDROOT
BRANCH   1   2
ATOM      2  C   UNL A   1      38.036  21.852  25.570  1.00  0.00     0.202 C 
BRANCH   2   3
ATOM      3  C   UNL A   1      37.144  20.866  24.809  1.00  0.00     0.261 C 
BRANCH   3   4
ATOM      4  O   UNL A   1      35.786  21.307  24.600  1.00  0.00    -0.459 OA
BRANCH   4   5
ATOM      5  C   UNL A   1      34.738  20.516  24.939  1.00  0.00     0.368 C 
ATOM      6  O   UNL A   1      34.646  19.333  24.636  1.00  0.00    -0.245 OA
BRANCH   5   7
ATOM      7  C   UNL A   1      33.658  21.321  25.763  1.00  0.00     0.195 C 
ATOM      8  C   UNL A   1      34.121  21.456  27.237  1.00  0.00     0.081 C 
ATOM      9  C   UNL A   1      33.511  22.793  25.232  1.00  0.00     0.066 C 
ATOM     10  C   UNL A   1      33.843  22.893  27.631  1.00  0.00     0.008 C 
ATOM     11  C   UNL A   1      34.093  23.656  26.348  1.00  0.00     0.011 C 
BRANCH   7  12
ATOM     12  N   UNL A   1      32.372  20.587  25.723  1.00  0.00    -0.343 N 
ATOM     13  H   UNL A   1      31.605  21.235  25.904  1.00  0.00     0.345 HD
ATOM     14  H   UNL A   1      32.375  19.857  26.435  1.00  0.00     0.345 HD
ATOM     15  H   UNL A   1      32.250  20.164  24.803  1.00  0.00     0.345 HD
ENDBRANCH   7  12
BRANCH   9  16
ATOM     16  C   UNL A   1      32.128  23.281  24.712  1.00  0.00     0.052 C 
BRANCH  16  17
ATOM     17  C   UNL A   1      31.603  24.670  25.124  1.00  0.00     0.230 C 
BRANCH  17  18
ATOM     18  O   UNL A   1      30.219  24.861  24.730  1.00  0.00    -0.494 OA
BRANCH  18  19
ATOM     19  C   UNL A   1      30.006  25.958  23.940  1.00  0.00     0.119 A 
ATOM     20  C   UNL A   1      28.763  26.575  23.830  1.00  0.00     0.047 A 
ATOM     21  C   UNL A   1      31.114  26.504  23.292  1.00  0.00     0.047 A 
ATOM     22  C   UNL A   1      28.672  27.848  23.257  1.00  0.00     0.010 A 
ATOM     23  C   UNL A   1      31.031  27.789  22.748  1.00  0.00     0.010 A 
ATOM     24  C   UNL A   1      29.819  28.496  22.777  1.00  0.00    -0.022 A 
BRANCH  24  25
ATOM     25  C   UNL A   1      29.776  29.965  22.428  1.00  0.00     0.191 C 
BRANCH  25  26
ATOM     26  O   UNL A   1      30.362  30.241  21.165  1.00  0.00    -0.392 OA
ATOM     27  H   UNL A   1      30.408  31.201  21.032  1.00  0.00     0.211 HD
ENDBRANCH  25  26
ENDBRANCH  24  25
ENDBRANCH  18  19
ENDBRANCH  17  18
ENDBRANCH  16  17
ENDBRANCH   9  16
ENDBRANCH   5   7
ENDBRANCH   4   5
ENDBRANCH   3   4
ENDBRANCH   2   3
ENDBRANCH   1   2
BRANCH   1  28
ATOM     28  C   UNL A   1      40.099  22.280  26.734  1.00  0.00     0.188 C 
BRANCH  28  29
ATOM     29  C   UNL A   1      41.173  21.585  27.581  1.00  0.00     0.188 C 
BRANCH  29  30
ATOM     30  O   UNL A   1      40.966  20.179  27.664  1.00  0.00    -0.376 OA
BRANCH  30  31
ATOM     31  C   UNL A   1      42.140  19.393  27.519  1.00  0.00     0.202 C 
BRANCH  31  32
ATOM     32  C   UNL A   1      42.285  18.718  26.150  1.00  0.00     0.261 C 
BRANCH  32  33
ATOM     33  O   UNL A   1      42.740  19.548  25.063  1.00  0.00    -0.460 OA
BRANCH  33  34
ATOM     34  C   UNL A   1      44.072  19.660  24.832  1.00  0.00     0.338 C 
ATOM     35  O   UNL A   1      44.802  18.820  24.361  1.00  0.00    -0.246 OA
BRANCH  34  36
ATOM     36  C   UNL A   1      44.446  21.079  25.078  1.00  0.00     0.060 A 
ATOM     37  C   UNL A   1      44.937  21.459  26.335  1.00  0.00     0.016 A 
ATOM     38  C   UNL A   1      44.323  22.027  24.061  1.00  0.00     0.016 A 
ATOM     39  C   UNL A   1      45.280  22.796  26.582  1.00  0.00     0.010 A 
ATOM     40  C   UNL A   1      44.655  23.361  24.312  1.00  0.00     0.010 A 
ATOM     41  C   UNL A   1      45.112  23.763  25.580  1.00  0.00    -0.014 A 
BRANCH  41  42
ATOM     42  C   UNL A   1      45.229  25.220  25.866  1.00  0.00     0.031 A 
ATOM     43  C   UNL A   1      46.595  25.849  25.802  1.00  0.00     0.074 A 
ATOM     44  C   UNL A   1      44.175  25.960  26.254  1.00  0.00     0.049 A 
ATOM     45  N   UNL A   1      46.990  27.031  26.196  1.00  0.00    -0.248 NA
ATOM     46  C   UNL A   1      47.659  25.014  25.227  1.00  0.00     0.031 C 
ATOM     47  C   UNL A   1      42.792  25.492  26.322  1.00  0.00     0.029 A 
ATOM     48  N   UNL A   1      44.114  27.260  26.700  1.00  0.00    -0.354 N 
ATOM     49  C   UNL A   1      48.357  27.075  25.943  1.00  0.00     0.074 A 
ATOM     50  C   UNL A   1      48.720  25.791  25.379  1.00  0.00     0.031 C 
ATOM     51  C   UNL A   1      42.024  26.480  26.817  1.00  0.00     0.029 A 
ATOM     52  C   UNL A   1      42.867  27.630  27.151  1.00  0.00     0.049 A 
ATOM     53  H   UNL A   1      44.888  27.868  26.697  1.00  0.00     0.167 HD
ATOM     54  C   UNL A   1      49.231  28.089  26.165  1.00  0.00     0.034 A 
ATOM     55  C   UNL A   1      42.461  28.740  27.804  1.00  0.00     0.034 A 
ATOM     56  C   UNL A   1      48.862  29.359  26.742  1.00  0.00     0.049 A 
ATOM     57  C   UNL A   1      43.463  29.828  28.124  1.00  0.00     0.074 A 
ATOM     58  C   UNL A   1      49.663  30.463  26.976  1.00  0.00     0.029 A 
ATOM     59  N   UNL A   1      47.592  29.687  27.199  1.00  0.00    -0.354 N 
ATOM     60  N   UNL A   1      44.751  29.868  27.871  1.00  0.00    -0.248 NA
ATOM     61  C   UNL A   1      42.956  31.020  28.822  1.00  0.00     0.031 C 
ATOM     62  C   UNL A   1      48.901  31.424  27.647  1.00  0.00     0.029 A 
ATOM     63  C   UNL A   1      47.600  30.959  27.752  1.00  0.00     0.049 A 
ATOM     64  H   UNL A   1      46.802  29.103  27.139  1.00  0.00     0.167 HD
ATOM     65  C   UNL A   1      45.198  31.100  28.348  1.00  0.00     0.074 A 
ATOM     66  C   UNL A   1      44.046  31.773  28.906  1.00  0.00     0.031 C 
ATOM     67  C   UNL A   1      46.448  31.628  28.313  1.00  0.00     0.034 A 
BRANCH  54  68
ATOM     68  C   UNL A   1      50.684  27.827  25.848  1.00  0.00     0.023 A 
ATOM     69  C   UNL A   1      51.204  27.997  24.554  1.00  0.00     0.031 A 
ATOM     70  C   UNL A   1      51.549  27.352  26.849  1.00  0.00     0.131 A 
ATOM     71  C   UNL A   1      52.523  27.609  24.275  1.00  0.00     0.055 A 
ATOM     72  C   UNL A   1      52.887  27.051  26.584  1.00  0.00     0.041 A 
ATOM     73  F   UNL A   1      51.104  27.147  28.099  1.00  0.00    -0.206 F 
ATOM     74  C   UNL A   1      53.376  27.160  25.287  1.00  0.00     0.022 A 
BRANCH  71  75
ATOM     75  S   UNL A   1      53.051  27.530  22.541  1.00  0.00     0.124 S 
ATOM     76  O   UNL A   1      51.770  27.424  21.847  1.00  0.00    -0.237 OA
ATOM     77  O   UNL A   1      53.766  28.789  22.374  1.00  0.00    -0.237 OA
ATOM     78  O   UNL A   1      53.880  26.328  22.490  1.00  0.00    -0.744 OA
ENDBRANCH  71  75
ENDBRANCH  54  68
BRANCH  55  79
ATOM     79  C   UNL A   1      41.049  28.857  28.276  1.00  0.00     0.023 A 
ATOM     80  C   UNL A   1      40.712  28.701  29.630  1.00  0.00     0.031 A 
ATOM     81  C   UNL A   1      40.007  29.090  27.360  1.00  0.00     0.131 A 
ATOM     82  C   UNL A   1      39.365  28.748  30.025  1.00  0.00     0.055 A 
ATOM     83  C   UNL A   1      38.674  29.185  27.764  1.00  0.00     0.041 A 
ATOM     84  F   UNL A   1      40.273  29.240  26.053  1.00  0.00    -0.206 F 
ATOM     85  C   UNL A   1      38.346  29.005  29.103  1.00  0.00     0.022 A 
BRANCH  82  86
ATOM     86  S   UNL A   1      38.950  28.407  31.758  1.00  0.00     0.124 S 
ATOM     87  O   UNL A   1      38.621  26.987  31.709  1.00  0.00    -0.237 OA
ATOM     88  O   UNL A   1      40.191  28.756  32.441  1.00  0.00    -0.237 OA
ATOM     89  O   UNL A   1      37.825  29.302  32.022  1.00  0.00    -0.744 OA
ENDBRANCH  82  86
ENDBRANCH  55  79
BRANCH  67  90
ATOM     90  C   UNL A   1      46.636  33.035  28.832  1.00  0.00     0.023 A 
ATOM     91  C   UNL A   1      46.391  34.168  28.038  1.00  0.00     0.031 A 
ATOM     92  C   UNL A   1      47.026  33.236  30.170  1.00  0.00     0.131 A 
ATOM     93  C   UNL A   1      46.565  35.452  28.582  1.00  0.00     0.055 A 
ATOM     94  C   UNL A   1      47.148  34.514  30.718  1.00  0.00     0.041 A 
ATOM     95  F   UNL A   1      47.274  32.190  30.974  1.00  0.00    -0.206 F 
ATOM     96  C   UNL A   1      46.922  35.631  29.921  1.00  0.00     0.022 A 
BRANCH  93  97
ATOM     97  S   UNL A   1      46.363  36.899  27.504  1.00  0.00     0.124 S 
ATOM     98  O   UNL A   1      47.213  37.887  28.162  1.00  0.00    -0.237 OA
ATOM     99  O   UNL A   1      46.841  36.402  26.218  1.00  0.00    -0.237 OA
ATOM    100  O   UNL A   1      44.929  37.177  27.565  1.00  0.00    -0.744 OA
ENDBRANCH  93  97
ENDBRANCH  67  90
ENDBRANCH  41  42
ENDBRANCH  34  36
ENDBRANCH  33  34
ENDBRANCH  32  33
ENDBRANCH  31  32
ENDBRANCH  30  31
ENDBRANCH  29  30
ENDBRANCH  28  29
ENDBRANCH   1  28
TORSDOF 27
ENDMDL
MODEL 2
REMARK VINA RESULT:      -9.7      2.807      4.382
REMARK SMILES [NH3+][C@]1(C(=O)OCCOCCOCCOC(=O)c2ccc(-c3c4nc(c(-c5cc(S(=O)(=O)[O-])ccc5F)c5ccc([nH]5)c(-c5cc(S(=O)(=O)[O-])ccc5F)c5nc(c(-c6cc(S(=O)(=O)[O-])ccc6F)c6ccc3[nH]6)C=C5)C=C4)cc2)CCC[C@@H]1CCOc1ccc(CO)cc1
REMARK SMILES IDX 8 1 7 2 6 3 5 4 3 5 4 6 2 7 80 8 83 9 81 10 82 11 1 12 84 16
REMARK SMILES IDX 85 17 86 18 87 19 88 20 94 21 89 22 93 23 90 24 91 25 92 26
REMARK SMILES IDX 9 28 10 29 11 30 12 31 13 32 14 33 15 34 16 35 17 36 18 37
REMARK SMILES IDX 79 38 19 39 78 40 20 41 21 42 22 43 72 44 23 45 77 46 71 47
REMARK SMILES IDX 73 48 24 49 76 50 70 51 69 52 25 54 57 55 37 56 56 57 38 58
REMARK SMILES IDX 41 59 55 60 74 61 39 62 40 63 54 65 75 66 42 67 26 68 27 69
REMARK SMILES IDX 35 70 28 71 34 72 36 73 33 74 29 75 30 76 31 77 32 78 58 79
REMARK SMILES IDX 59 80 67 81 60 82 66 83 68 84 65 85 61 86 62 87 63 88 64 89
REMARK SMILES IDX 43 90 44 91 52 92 45 93 51 94 53 95 50 96 46 97 47 98 48 99
REMARK SMILES IDX 49 100
REMARK H PARENT 1 13 1 14 1 15 92 27 73 53 41 64
REMARK Flexibility Score: inf
ROOT
ATOM      1  O   UNL A   1      32.953  20.644  25.537  1.00  0.00    -0.376 OA
ENDROOT
BRANCH   1   2
ATOM      2  C   UNL A   1      32.082  21.737  25.812  1.00  0.00     0.202 C 
BRANCH   2   3
ATOM      3  C   UNL A   1      32.439  22.607  27.022  1.00  0.00     0.261 C 
BRANCH   3   4
ATOM      4  O   UNL A   1      32.321  24.029  26.807  1.00  0.00    -0.459 OA
BRANCH   4   5
ATOM      5  C   UNL A   1      33.130  24.669  25.926  1.00  0.00     0.368 C 
ATOM      6  O   UNL A   1      34.351  24.588  25.934  1.00  0.00    -0.245 OA
BRANCH   5   7
ATOM      7  C   UNL A   1      32.291  25.531  24.904  1.00  0.00     0.195 C 
ATOM      8  C   UNL A   1      32.994  25.532  23.522  1.00  0.00     0.081 C 
ATOM      9  C   UNL A   1      30.871  24.905  24.654  1.00  0.00     0.066 C 
ATOM     10  C   UNL A   1      31.898  25.317  22.497  1.00  0.00     0.008 C 
ATOM     11  C   UNL A   1      30.931  24.400  23.214  1.00  0.00     0.011 C 
BRANCH   7  12
ATOM     12  N   UNL A   1      32.201  26.923  25.404  1.00  0.00    -0.343 N 
ATOM     13  H   UNL A   1      32.654  26.987  26.315  1.00  0.00     0.345 HD
ATOM     14  H   UNL A   1      31.221  27.190  25.492  1.00  0.00     0.345 HD
ATOM     15  H   UNL A   1      32.666  27.551  24.748  1.00  0.00     0.345 HD
ENDBRANCH   7  12
BRANCH   9  16
ATOM     16  C   UNL A   1      29.600  25.743  24.977  1.00  0.00     0.052 C 
BRANCH  16  17
ATOM     17  C   UNL A   1      29.005  26.674  23.904  1.00  0.00     0.230 C 
BRANCH  17  18
ATOM     18  O   UNL A   1      29.846  27.835  23.673  1.00  0.00    -0.494 OA
BRANCH  18  19
ATOM     19  C   UNL A   1      29.238  28.837  22.966  1.00  0.00     0.119 A 
ATOM     20  C   UNL A   1      27.964  29.307  23.272  1.00  0.00     0.047 A 
ATOM     21  C   UNL A   1      29.979  29.446  21.954  1.00  0.00     0.047 A 
ATOM     22  C   UNL A   1      27.522  30.514  22.720  1.00  0.00     0.010 A 
ATOM     23  C   UNL A   1      29.553  30.668  21.425  1.00  0.00     0.010 A 
ATOM     24  C   UNL A   1      28.344  31.241  21.848  1.00  0.00    -0.022 A 
BRANCH  24  25
ATOM     25  C   UNL A   1      27.997  32.665  21.481  1.00  0.00     0.191 C 
BRANCH  25  26
ATOM     26  O   UNL A   1      28.339  33.588  22.503  1.00  0.00    -0.392 OA
ATOM     27  H   UNL A   1      27.919  34.444  22.321  1.00  0.00     0.211 HD
ENDBRANCH  25  26
ENDBRANCH  24  25
ENDBRANCH  18  19
ENDBRANCH  17  18
ENDBRANCH  16  17
ENDBRANCH   9  16
ENDBRANCH   5   7
ENDBRANCH   4   5
ENDBRANCH   3   4
ENDBRANCH   2   3
ENDBRANCH   1   2
BRANCH   1  28
ATOM     28  C   UNL A   1      34.344  20.948  25.568  1.00  0.00     0.188 C 
BRANCH  28  29
ATOM     29  C   UNL A   1      34.774  21.692  24.297  1.00  0.00     0.188 C 
BRANCH  29  30
ATOM     30  O   UNL A   1      36.186  21.838  24.211  1.00  0.00    -0.376 OA
BRANCH  30  31
ATOM     31  C   UNL A   1      36.932  20.822  24.866  1.00  0.00     0.202 C 
BRANCH  31  32
ATOM     32  C   UNL A   1      37.951  21.343  25.888  1.00  0.00     0.261 C 
BRANCH  32  33
ATOM     33  O   UNL A   1      39.300  20.854  25.763  1.00  0.00    -0.460 OA
BRANCH  33  34
ATOM     34  C   UNL A   1      40.129  20.924  26.836  1.00  0.00     0.338 C 
ATOM     35  O   UNL A   1      40.688  20.003  27.384  1.00  0.00    -0.246 OA
BRANCH  34  36
ATOM     36  C   UNL A   1      40.389  22.364  27.102  1.00  0.00     0.060 A 
ATOM     37  C   UNL A   1      39.712  23.340  26.358  1.00  0.00     0.016 A 
ATOM     38  C   UNL A   1      41.292  22.745  28.096  1.00  0.00     0.016 A 
ATOM     39  C   UNL A   1      39.960  24.701  26.593  1.00  0.00     0.010 A 
ATOM     40  C   UNL A   1      41.546  24.101  28.320  1.00  0.00     0.010 A 
ATOM     41  C   UNL A   1      40.902  25.090  27.555  1.00  0.00    -0.014 A 
BRANCH  41  42
ATOM     42  C   UNL A   1      41.375  26.497  27.669  1.00  0.00     0.031 A 
ATOM     43  C   UNL A   1      42.738  26.834  27.124  1.00  0.00     0.074 A 
ATOM     44  C   UNL A   1      40.664  27.443  28.309  1.00  0.00     0.049 A 
ATOM     45  N   UNL A   1      43.453  27.918  27.275  1.00  0.00    -0.248 NA
ATOM     46  C   UNL A   1      43.380  25.791  26.313  1.00  0.00     0.031 C 
ATOM     47  C   UNL A   1      39.318  27.267  28.850  1.00  0.00     0.029 A 
ATOM     48  N   UNL A   1      40.996  28.736  28.644  1.00  0.00    -0.354 N 
ATOM     49  C   UNL A   1      44.645  27.680  26.599  1.00  0.00     0.074 A 
ATOM     50  C   UNL A   1      44.558  26.340  26.057  1.00  0.00     0.031 C 
ATOM     51  C   UNL A   1      38.952  28.397  29.480  1.00  0.00     0.029 A 
ATOM     52  C   UNL A   1      40.057  29.359  29.435  1.00  0.00     0.049 A 
ATOM     53  H   UNL A   1      41.826  29.173  28.346  1.00  0.00     0.167 HD
ATOM     54  C   UNL A   1      45.717  28.498  26.449  1.00  0.00     0.034 A 
ATOM     55  C   UNL A   1      40.101  30.539  30.089  1.00  0.00     0.034 A 
ATOM     56  C   UNL A   1      45.800  29.827  27.007  1.00  0.00     0.049 A 
ATOM     57  C   UNL A   1      41.337  31.406  29.985  1.00  0.00     0.074 A 
ATOM     58  C   UNL A   1      46.825  30.749  26.883  1.00  0.00     0.029 A 
ATOM     59  N   UNL A   1      44.834  30.414  27.814  1.00  0.00    -0.354 N 
ATOM     60  N   UNL A   1      42.455  31.179  29.334  1.00  0.00    -0.248 NA
ATOM     61  C   UNL A   1      41.318  32.687  30.707  1.00  0.00     0.031 C 
ATOM     62  C   UNL A   1      46.517  31.856  27.680  1.00  0.00     0.029 A 
ATOM     63  C   UNL A   1      45.259  31.667  28.230  1.00  0.00     0.049 A 
ATOM     64  H   UNL A   1      43.974  30.001  28.055  1.00  0.00     0.167 HD
ATOM     65  C   UNL A   1      43.254  32.302  29.543  1.00  0.00     0.074 A 
ATOM     66  C   UNL A   1      42.495  33.204  30.380  1.00  0.00     0.031 C 
ATOM     67  C   UNL A   1      44.500  32.564  29.070  1.00  0.00     0.034 A 
BRANCH  54  68
ATOM     68  C   UNL A   1      46.910  27.943  25.711  1.00  0.00     0.023 A 
ATOM     69  C   UNL A   1      47.152  28.239  24.358  1.00  0.00     0.031 A 
ATOM     70  C   UNL A   1      47.792  27.060  26.359  1.00  0.00     0.131 A 
ATOM     71  C   UNL A   1      48.191  27.590  23.676  1.00  0.00     0.055 A 
ATOM     72  C   UNL A   1      48.878  26.486  25.697  1.00  0.00     0.041 A 
ATOM     73  F   UNL A   1      47.599  26.721  27.644  1.00  0.00    -0.206 F 
ATOM     74  C   UNL A   1      49.072  26.734  24.342  1.00  0.00     0.022 A 
BRANCH  71  75
ATOM     75  S   UNL A   1      48.265  27.743  21.870  1.00  0.00     0.124 S 
ATOM     76  O   UNL A   1      49.368  28.684  21.697  1.00  0.00    -0.237 OA
ATOM     77  O   UNL A   1      48.523  26.370  21.450  1.00  0.00    -0.237 OA
ATOM     78  O   UNL A   1      46.947  28.268  21.517  1.00  0.00    -0.744 OA
ENDBRANCH  71  75
ENDBRANCH  54  68
BRANCH  55  79
ATOM     79  C   UNL A   1      38.968  30.947  30.973  1.00  0.00     0.023 A 
ATOM     80  C   UNL A   1      37.944  31.789  30.511  1.00  0.00     0.031 A 
ATOM     81  C   UNL A   1      38.921  30.526  32.314  1.00  0.00     0.131 A 
ATOM     82  C   UNL A   1      36.933  32.209  31.391  1.00  0.00     0.055 A 
ATOM     83  C   UNL A   1      37.887  30.905  33.172  1.00  0.00     0.041 A 
ATOM     84  F   UNL A   1      39.878  29.726  32.808  1.00  0.00    -0.206 F 
ATOM     85  C   UNL A   1      36.890  31.759  32.714  1.00  0.00     0.022 A 
BRANCH  82  86
ATOM     86  S   UNL A   1      35.702  33.404  30.802  1.00  0.00     0.124 S 
ATOM     87  O   UNL A   1      35.792  34.446  31.819  1.00  0.00    -0.237 OA
ATOM     88  O   UNL A   1      36.219  33.747  29.483  1.00  0.00    -0.237 OA
ATOM     89  O   UNL A   1      34.457  32.637  30.799  1.00  0.00    -0.744 OA
ENDBRANCH  82  86
ENDBRANCH  55  79
BRANCH  67  90
ATOM     90  C   UNL A   1      45.106  33.913  29.386  1.00  0.00     0.023 A 
ATOM     91  C   UNL A   1      44.849  35.053  28.606  1.00  0.00     0.031 A 
ATOM     92  C   UNL A   1      45.922  34.059  30.523  1.00  0.00     0.131 A 
ATOM     93  C   UNL A   1      45.427  36.285  28.960  1.00  0.00     0.055 A 
ATOM     94  C   UNL A   1      46.452  35.295  30.898  1.00  0.00     0.041 A 
ATOM     95  F   UNL A   1      46.202  33.003  31.303  1.00  0.00    -0.206 F 
ATOM     96  C   UNL A   1      46.209  36.416  30.111  1.00  0.00     0.022 A 
BRANCH  93  97
ATOM     97  S   UNL A   1      45.183  37.717  27.871  1.00  0.00     0.124 S 
ATOM     98  O   UNL A   1      46.502  37.863  27.264  1.00  0.00    -0.237 OA
ATOM     99  O   UNL A   1      44.119  37.259  26.983  1.00  0.00    -0.237 OA
ATOM    100  O   UNL A   1      44.802  38.788  28.791  1.00  0.00    -0.744 OA
ENDBRANCH  93  97
ENDBRANCH  67  90
ENDBRANCH  41  42
ENDBRANCH  34  36
ENDBRANCH  33  34
ENDBRANCH  32  33
ENDBRANCH  31  32
ENDBRANCH  30  31
ENDBRANCH  29  30
ENDBRANCH  28  29
ENDBRANCH   1  28
TORSDOF 27
ENDMDL
MODEL 3
REMARK VINA RESULT:      -9.6      2.314      4.278
REMARK SMILES [NH3+][C@]1(C(=O)OCCOCCOCCOC(=O)c2ccc(-c3c4nc(c(-c5cc(S(=O)(=O)[O-])ccc5F)c5ccc([nH]5)c(-c5cc(S(=O)(=O)[O-])ccc5F)c5nc(c(-c6cc(S(=O)(=O)[O-])ccc6F)c6ccc3[nH]6)C=C5)C=C4)cc2)CCC[C@@H]1CCOc1ccc(CO)cc1
REMARK SMILES IDX 8 1 7 2 6 3 5 4 3 5 4 6 2 7 80 8 83 9 81 10 82 11 1 12 84 16
REMARK SMILES IDX 85 17 86 18 87 19 88 20 94 21 89 22 93 23 90 24 91 25 92 26
REMARK SMILES IDX 9 28 10 29 11 30 12 31 13 32 14 33 15 34 16 35 17 36 18 37
REMARK SMILES IDX 79 38 19 39 78 40 20 41 21 42 22 43 72 44 23 45 77 46 71 47
REMARK SMILES IDX 73 48 24 49 76 50 70 51 69 52 25 54 57 55 37 56 56 57 38 58
REMARK SMILES IDX 41 59 55 60 74 61 39 62 40 63 54 65 75 66 42 67 26 68 27 69
REMARK SMILES IDX 35 70 28 71 34 72 36 73 33 74 29 75 30 76 31 77 32 78 58 79
REMARK SMILES IDX 59 80 67 81 60 82 66 83 68 84 65 85 61 86 62 87 63 88 64 89
REMARK SMILES IDX 43 90 44 91 52 92 45 93 51 94 53 95 50 96 46 97 47 98 48 99
REMARK SMILES IDX 49 100
REMARK H PARENT 1 13 1 14 1 15 92 27 73 53 41 64
REMARK Flexibility Score: inf
ROOT
ATOM      1  O   UNL A   1      35.494  22.623  25.295  1.00  0.00    -0.376 OA
ENDROOT
BRANCH   1   2
ATOM      2  C   UNL A   1      35.592  23.088  23.952  1.00  0.00     0.202 C 
BRANCH   2   3
ATOM      3  C   UNL A   1      35.043  24.491  23.674  1.00  0.00     0.261 C 
BRANCH   3   4
ATOM      4  O   UNL A   1      33.985  24.550  22.694  1.00  0.00    -0.459 OA
BRANCH   4   5
ATOM      5  C   UNL A   1      33.442  25.738  22.329  1.00  0.00     0.368 C 
ATOM      6  O   UNL A   1      33.651  26.285  21.254  1.00  0.00    -0.245 OA
BRANCH   5   7
ATOM      7  C   UNL A   1      32.519  26.319  23.470  1.00  0.00     0.195 C 
ATOM      8  C   UNL A   1      31.430  27.230  22.847  1.00  0.00     0.081 C 
ATOM      9  C   UNL A   1      31.736  25.175  24.212  1.00  0.00     0.066 C 
ATOM     10  C   UNL A   1      30.134  26.867  23.544  1.00  0.00     0.008 C 
ATOM     11  C   UNL A   1      30.282  25.383  23.794  1.00  0.00     0.011 C 
BRANCH   7  12
ATOM     12  N   UNL A   1      33.346  27.118  24.403  1.00  0.00    -0.343 N 
ATOM     13  H   UNL A   1      33.226  28.110  24.200  1.00  0.00     0.345 HD
ATOM     14  H   UNL A   1      34.328  26.865  24.289  1.00  0.00     0.345 HD
ATOM     15  H   UNL A   1      33.056  26.929  25.362  1.00  0.00     0.345 HD
ENDBRANCH   7  12
BRANCH   9  16
ATOM     16  C   UNL A   1      31.932  24.987  25.745  1.00  0.00     0.052 C 
BRANCH  16  17
ATOM     17  C   UNL A   1      32.295  23.598  26.303  1.00  0.00     0.230 C 
BRANCH  17  18
ATOM     18  O   UNL A   1      31.399  22.568  25.808  1.00  0.00    -0.494 OA
BRANCH  18  19
ATOM     19  C   UNL A   1      32.028  21.542  25.157  1.00  0.00     0.119 A 
ATOM     20  C   UNL A   1      32.773  20.574  25.824  1.00  0.00     0.047 A 
ATOM     21  C   UNL A   1      31.832  21.443  23.780  1.00  0.00     0.047 A 
ATOM     22  C   UNL A   1      33.135  19.400  25.156  1.00  0.00     0.010 A 
ATOM     23  C   UNL A   1      32.165  20.257  23.119  1.00  0.00     0.010 A 
ATOM     24  C   UNL A   1      32.770  19.201  23.817  1.00  0.00    -0.022 A 
BRANCH  24  25
ATOM     25  C   UNL A   1      32.903  17.835  23.185  1.00  0.00     0.191 C 
BRANCH  25  26
ATOM     26  O   UNL A   1      32.131  17.707  22.000  1.00  0.00    -0.392 OA
ATOM     27  H   UNL A   1      31.885  18.588  21.676  1.00  0.00     0.211 HD
ENDBRANCH  25  26
ENDBRANCH  24  25
ENDBRANCH  18  19
ENDBRANCH  17  18
ENDBRANCH  16  17
ENDBRANCH   9  16
ENDBRANCH   5   7
ENDBRANCH   4   5
ENDBRANCH   3   4
ENDBRANCH   2   3
ENDBRANCH   1   2
BRANCH   1  28
ATOM     28  C   UNL A   1      36.304  21.495  25.611  1.00  0.00     0.188 C 
BRANCH  28  29
ATOM     29  C   UNL A   1      37.567  21.462  24.740  1.00  0.00     0.188 C 
BRANCH  29  30
ATOM     30  O   UNL A   1      38.717  21.059  25.475  1.00  0.00    -0.376 OA
BRANCH  30  31
ATOM     31  C   UNL A   1      39.026  19.675  25.386  1.00  0.00     0.202 C 
BRANCH  31  32
ATOM     32  C   UNL A   1      40.303  19.263  26.128  1.00  0.00     0.261 C 
BRANCH  32  33
ATOM     33  O   UNL A   1      41.534  19.326  25.382  1.00  0.00    -0.460 OA
BRANCH  33  34
ATOM     34  C   UNL A   1      42.679  19.667  26.026  1.00  0.00     0.338 C 
ATOM     35  O   UNL A   1      43.633  18.956  26.241  1.00  0.00    -0.246 OA
BRANCH  34  36
ATOM     36  C   UNL A   1      42.639  21.137  26.253  1.00  0.00     0.060 A 
ATOM     37  C   UNL A   1      42.634  22.008  25.155  1.00  0.00     0.016 A 
ATOM     38  C   UNL A   1      42.595  21.649  27.551  1.00  0.00     0.016 A 
ATOM     39  C   UNL A   1      42.610  23.396  25.358  1.00  0.00     0.010 A 
ATOM     40  C   UNL A   1      42.583  23.032  27.752  1.00  0.00     0.010 A 
ATOM     41  C   UNL A   1      42.615  23.918  26.660  1.00  0.00    -0.014 A 
BRANCH  41  42
ATOM     42  C   UNL A   1      42.836  25.366  26.925  1.00  0.00     0.031 A 
ATOM     43  C   UNL A   1      44.234  25.909  26.786  1.00  0.00     0.074 A 
ATOM     44  C   UNL A   1      41.851  26.173  27.359  1.00  0.00     0.049 A 
ATOM     45  N   UNL A   1      44.720  27.066  27.149  1.00  0.00    -0.248 NA
ATOM     46  C   UNL A   1      45.213  25.005  26.166  1.00  0.00     0.031 C 
ATOM     47  C   UNL A   1      40.447  25.793  27.502  1.00  0.00     0.029 A 
ATOM     48  N   UNL A   1      41.893  27.478  27.796  1.00  0.00    -0.354 N 
ATOM     49  C   UNL A   1      46.073  27.024  26.826  1.00  0.00     0.074 A 
ATOM     50  C   UNL A   1      46.326  25.717  26.257  1.00  0.00     0.031 C 
ATOM     51  C   UNL A   1      39.769  26.829  28.026  1.00  0.00     0.029 A 
ATOM     52  C   UNL A   1      40.697  27.927  28.306  1.00  0.00     0.049 A 
ATOM     53  H   UNL A   1      42.703  28.036  27.748  1.00  0.00     0.167 HD
ATOM     54  C   UNL A   1      47.018  27.983  26.994  1.00  0.00     0.034 A 
ATOM     55  C   UNL A   1      40.394  29.065  28.968  1.00  0.00     0.034 A 
ATOM     56  C   UNL A   1      46.758  29.277  27.576  1.00  0.00     0.049 A 
ATOM     57  C   UNL A   1      41.476  30.090  29.227  1.00  0.00     0.074 A 
ATOM     58  C   UNL A   1      47.637  30.331  27.758  1.00  0.00     0.029 A 
ATOM     59  N   UNL A   1      45.536  29.687  28.094  1.00  0.00    -0.354 N 
ATOM     60  N   UNL A   1      42.749  30.048  28.907  1.00  0.00    -0.248 NA
ATOM     61  C   UNL A   1      41.081  31.316  29.938  1.00  0.00     0.031 C 
ATOM     62  C   UNL A   1      46.971  31.341  28.458  1.00  0.00     0.029 A 
ATOM     63  C   UNL A   1      45.651  30.959  28.633  1.00  0.00     0.049 A 
ATOM     64  H   UNL A   1      44.710  29.153  28.079  1.00  0.00     0.167 HD
ATOM     65  C   UNL A   1      43.296  31.253  29.349  1.00  0.00     0.074 A 
ATOM     66  C   UNL A   1      42.218  32.000  29.959  1.00  0.00     0.031 C 
ATOM     67  C   UNL A   1      44.573  31.702  29.246  1.00  0.00     0.034 A 
BRANCH  54  68
ATOM     68  C   UNL A   1      48.433  27.629  26.606  1.00  0.00     0.023 A 
ATOM     69  C   UNL A   1      48.946  27.911  25.328  1.00  0.00     0.031 A 
ATOM     70  C   UNL A   1      49.266  26.954  27.515  1.00  0.00     0.131 A 
ATOM     71  C   UNL A   1      50.217  27.439  24.966  1.00  0.00     0.055 A 
ATOM     72  C   UNL A   1      50.564  26.567  27.178  1.00  0.00     0.041 A 
ATOM     73  F   UNL A   1      48.825  26.638  28.743  1.00  0.00    -0.206 F 
ATOM     74  C   UNL A   1      51.040  26.791  25.890  1.00  0.00     0.022 A 
BRANCH  71  75
ATOM     75  S   UNL A   1      50.705  27.529  23.221  1.00  0.00     0.124 S 
ATOM     76  O   UNL A   1      51.885  26.668  23.199  1.00  0.00    -0.237 OA
ATOM     77  O   UNL A   1      49.525  27.013  22.538  1.00  0.00    -0.237 OA
ATOM     78  O   UNL A   1      50.977  28.950  23.014  1.00  0.00    -0.744 OA
ENDBRANCH  71  75
ENDBRANCH  54  68
BRANCH  55  79
ATOM     79  C   UNL A   1      39.018  29.272  29.510  1.00  0.00     0.023 A 
ATOM     80  C   UNL A   1      38.069  30.049  28.826  1.00  0.00     0.031 A 
ATOM     81  C   UNL A   1      38.647  28.720  30.749  1.00  0.00     0.131 A 
ATOM     82  C   UNL A   1      36.808  30.279  29.400  1.00  0.00     0.055 A 
ATOM     83  C   UNL A   1      37.376  28.910  31.294  1.00  0.00     0.041 A 
ATOM     84  F   UNL A   1      39.518  27.974  31.447  1.00  0.00    -0.206 F 
ATOM     85  C   UNL A   1      36.450  29.702  30.622  1.00  0.00     0.022 A 
BRANCH  82  86
ATOM     86  S   UNL A   1      35.655  31.398  28.558  1.00  0.00     0.124 S 
ATOM     87  O   UNL A   1      34.808  31.836  29.662  1.00  0.00    -0.237 OA
ATOM     88  O   UNL A   1      36.556  32.401  28.002  1.00  0.00    -0.237 OA
ATOM     89  O   UNL A   1      35.003  30.536  27.573  1.00  0.00    -0.744 OA
ENDBRANCH  82  86
ENDBRANCH  55  79
BRANCH  67  90
ATOM     90  C   UNL A   1      44.873  33.097  29.741  1.00  0.00     0.023 A 
ATOM     91  C   UNL A   1      44.695  34.235  28.936  1.00  0.00     0.031 A 
ATOM     92  C   UNL A   1      45.305  33.287  31.068  1.00  0.00     0.131 A 
ATOM     93  C   UNL A   1      44.974  35.510  29.458  1.00  0.00     0.055 A 
ATOM     94  C   UNL A   1      45.532  34.559  31.595  1.00  0.00     0.041 A 
ATOM     95  F   UNL A   1      45.494  32.236  31.881  1.00  0.00    -0.206 F 
ATOM     96  C   UNL A   1      45.372  35.680  30.788  1.00  0.00     0.022 A 
BRANCH  93  97
ATOM     97  S   UNL A   1      44.855  36.954  28.364  1.00  0.00     0.124 S 
ATOM     98  O   UNL A   1      43.454  36.911  27.958  1.00  0.00    -0.237 OA
ATOM     99  O   UNL A   1      45.229  38.052  29.250  1.00  0.00    -0.237 OA
ATOM    100  O   UNL A   1      45.817  36.662  27.303  1.00  0.00    -0.744 OA
ENDBRANCH  93  97
ENDBRANCH  67  90
ENDBRANCH  41  42
ENDBRANCH  34  36
ENDBRANCH  33  34
ENDBRANCH  32  33
ENDBRANCH  31  32
ENDBRANCH  30  31
ENDBRANCH  29  30
ENDBRANCH  28  29
ENDBRANCH   1  28
TORSDOF 27
ENDMDL
