MODEL 1
REMARK VINA RESULT:      -9.4      0.000      0.000
REMARK SMILES CC[C@](C)(NC(=O)N1CCC[C@@H]1C)C(=O)OCCOCCOCCOC(=O)c1ccc(-c2c3nc(c(-c4cc(S(=O)(=O)[O-])ccc4F)c4ccc([nH]4)c(-c4cc(S(=O)(=O)[O-])ccc4F)c4nc(c(-c5cc(S(=O)(=O)[O-])ccc5F)c5ccc2[nH]5)C=C4)C=C3)cc1
REMARK SMILES IDX 21 1 20 2 19 3 18 4 17 5 16 6 14 7 15 8 3 9 4 10 2 11 1 12
REMARK SMILES IDX 5 13 6 14 7 16 8 17 9 18 12 19 10 20 11 21 13 22 22 23 23 24
REMARK SMILES IDX 24 25 25 26 26 27 27 28 28 29 29 30 90 31 30 32 89 33 31 34
REMARK SMILES IDX 32 35 33 36 83 37 34 38 88 39 82 40 84 41 35 42 87 43 81 44
REMARK SMILES IDX 80 45 36 47 68 48 48 49 67 50 49 51 52 52 66 53 85 54 50 55
REMARK SMILES IDX 51 56 65 58 86 59 53 60 37 61 38 62 46 63 39 64 45 65 47 66
REMARK SMILES IDX 44 67 40 68 41 69 42 70 43 71 69 72 70 73 78 74 71 75 77 76
REMARK SMILES IDX 79 77 76 78 72 79 73 80 74 81 75 82 54 83 55 84 63 85 56 86
REMARK SMILES IDX 62 87 64 88 61 89 57 90 58 91 59 92 60 93
REMARK H PARENT 5 15 84 46 52 57
REMARK Flexibility Score: inf
ROOT
ATOM      1  C   UNL A   1      31.768  30.632  26.732  1.00  0.00     0.188 C 
ENDROOT
BRANCH   1   2
ATOM      2  C   UNL A   1      33.204  30.120  26.494  1.00  0.00     0.188 C 
BRANCH   2   3
ATOM      3  O   UNL A   1      33.498  29.649  25.185  1.00  0.00    -0.376 OA
BRANCH   3   4
ATOM      4  C   UNL A   1      32.454  29.289  24.273  1.00  0.00     0.202 C 
BRANCH   4   5
ATOM      5  C   UNL A   1      32.611  28.765  22.826  1.00  0.00     0.261 C 
BRANCH   5   6
ATOM      6  O   UNL A   1      32.849  27.367  22.729  1.00  0.00    -0.462 OA
BRANCH   6   7
ATOM      7  C   UNL A   1      31.787  26.581  23.002  1.00  0.00     0.331 C 
ATOM      8  O   UNL A   1      30.638  26.842  22.661  1.00  0.00    -0.249 OA
BRANCH   7   9
ATOM      9  C   UNL A   1      32.195  25.315  23.799  1.00  0.00     0.136 C 
ATOM     10  C   UNL A   1      30.929  24.389  23.682  1.00  0.00     0.047 C 
BRANCH   9  11
ATOM     11  C   UNL A   1      32.375  25.601  25.314  1.00  0.00     0.037 C 
ATOM     12  C   UNL A   1      32.203  24.413  26.255  1.00  0.00     0.007 C 
ENDBRANCH   9  11
BRANCH   9  13
ATOM     13  N   UNL A   1      33.372  24.479  23.305  1.00  0.00    -0.322 N 
ATOM     14  C   UNL A   1      33.878  23.220  23.254  1.00  0.00     0.318 C 
ATOM     15  H   UNL A   1      34.005  25.081  22.851  1.00  0.00     0.166 HD
ATOM     16  O   UNL A   1      34.793  23.052  22.440  1.00  0.00    -0.249 OA
BRANCH  14  17
ATOM     17  N   UNL A   1      33.494  22.202  24.109  1.00  0.00    -0.322 N 
ATOM     18  C   UNL A   1      34.532  21.279  24.575  1.00  0.00     0.122 C 
ATOM     19  C   UNL A   1      32.334  21.376  23.783  1.00  0.00     0.083 C 
ATOM     20  C   UNL A   1      33.874  20.048  25.142  1.00  0.00     0.024 C 
ATOM     21  C   UNL A   1      32.611  19.951  24.335  1.00  0.00     0.027 C 
ATOM     22  C   UNL A   1      32.075  21.251  22.286  1.00  0.00     0.031 C 
ENDBRANCH  14  17
ENDBRANCH   9  13
ENDBRANCH   7   9
ENDBRANCH   6   7
ENDBRANCH   5   6
ENDBRANCH   4   5
ENDBRANCH   3   4
ENDBRANCH   2   3
ENDBRANCH   1   2
BRANCH   1  23
ATOM     23  O   UNL A   1      31.638  32.029  26.953  1.00  0.00    -0.376 OA
BRANCH  23  24
ATOM     24  C   UNL A   1      32.796  32.778  27.331  1.00  0.00     0.202 C 
BRANCH  24  25
ATOM     25  C   UNL A   1      32.486  34.229  27.760  1.00  0.00     0.261 C 
BRANCH  25  26
ATOM     26  O   UNL A   1      33.605  34.910  28.351  1.00  0.00    -0.460 OA
BRANCH  26  27
ATOM     27  C   UNL A   1      33.764  34.673  29.681  1.00  0.00     0.338 C 
ATOM     28  O   UNL A   1      32.953  34.892  30.553  1.00  0.00    -0.246 OA
BRANCH  27  29
ATOM     29  C   UNL A   1      34.930  33.773  29.832  1.00  0.00     0.060 A 
ATOM     30  C   UNL A   1      34.728  32.585  30.559  1.00  0.00     0.016 A 
ATOM     31  C   UNL A   1      36.144  34.016  29.189  1.00  0.00     0.016 A 
ATOM     32  C   UNL A   1      35.751  31.656  30.683  1.00  0.00     0.010 A 
ATOM     33  C   UNL A   1      37.204  33.131  29.394  1.00  0.00     0.010 A 
ATOM     34  C   UNL A   1      37.018  31.987  30.194  1.00  0.00    -0.014 A 
BRANCH  34  35
ATOM     35  C   UNL A   1      38.171  31.406  30.914  1.00  0.00     0.031 A 
ATOM     36  C   UNL A   1      38.955  30.358  30.165  1.00  0.00     0.074 A 
ATOM     37  C   UNL A   1      38.566  31.844  32.119  1.00  0.00     0.049 A 
ATOM     38  N   UNL A   1      39.991  29.657  30.539  1.00  0.00    -0.248 NA
ATOM     39  C   UNL A   1      38.503  30.070  28.793  1.00  0.00     0.031 C 
ATOM     40  C   UNL A   1      37.948  32.933  32.872  1.00  0.00     0.029 A 
ATOM     41  N   UNL A   1      39.599  31.421  32.913  1.00  0.00    -0.354 N 
ATOM     42  C   UNL A   1      40.302  28.845  29.453  1.00  0.00     0.074 A 
ATOM     43  C   UNL A   1      39.334  29.117  28.420  1.00  0.00     0.031 C 
ATOM     44  C   UNL A   1      38.612  33.086  34.031  1.00  0.00     0.029 A 
ATOM     45  C   UNL A   1      39.668  32.076  34.117  1.00  0.00     0.049 A 
ATOM     46  H   UNL A   1      40.231  30.716  32.645  1.00  0.00     0.167 HD
ATOM     47  C   UNL A   1      41.307  27.947  29.330  1.00  0.00     0.034 A 
ATOM     48  C   UNL A   1      40.478  31.853  35.172  1.00  0.00     0.034 A 
ATOM     49  C   UNL A   1      42.236  27.667  30.392  1.00  0.00     0.049 A 
ATOM     50  C   UNL A   1      41.507  30.750  35.071  1.00  0.00     0.074 A 
ATOM     51  C   UNL A   1      43.276  26.758  30.414  1.00  0.00     0.029 A 
ATOM     52  N   UNL A   1      42.219  28.286  31.638  1.00  0.00    -0.354 N 
ATOM     53  N   UNL A   1      41.775  29.953  34.059  1.00  0.00    -0.248 NA
ATOM     54  C   UNL A   1      42.346  30.521  36.253  1.00  0.00     0.031 C 
ATOM     55  C   UNL A   1      43.830  26.765  31.698  1.00  0.00     0.029 A 
ATOM     56  C   UNL A   1      43.208  27.753  32.447  1.00  0.00     0.049 A 
ATOM     57  H   UNL A   1      41.596  29.000  31.905  1.00  0.00     0.167 HD
ATOM     58  C   UNL A   1      42.845  29.159  34.470  1.00  0.00     0.074 A 
ATOM     59  C   UNL A   1      43.169  29.579  35.820  1.00  0.00     0.031 C 
ATOM     60  C   UNL A   1      43.507  28.184  33.794  1.00  0.00     0.034 A 
BRANCH  47  61
ATOM     61  C   UNL A   1      41.360  27.151  28.047  1.00  0.00     0.023 A 
ATOM     62  C   UNL A   1      40.931  25.813  27.977  1.00  0.00     0.031 A 
ATOM     63  C   UNL A   1      41.944  27.712  26.898  1.00  0.00     0.131 A 
ATOM     64  C   UNL A   1      41.179  25.056  26.822  1.00  0.00     0.055 A 
ATOM     65  C   UNL A   1      42.099  26.982  25.717  1.00  0.00     0.041 A 
ATOM     66  F   UNL A   1      42.409  28.971  26.911  1.00  0.00    -0.206 F 
ATOM     67  C   UNL A   1      41.734  25.640  25.681  1.00  0.00     0.022 A 
BRANCH  64  68
ATOM     68  S   UNL A   1      40.950  23.257  26.895  1.00  0.00     0.124 S 
ATOM     69  O   UNL A   1      41.374  22.961  28.262  1.00  0.00    -0.237 OA
ATOM     70  O   UNL A   1      39.526  23.108  26.619  1.00  0.00    -0.237 OA
ATOM     71  O   UNL A   1      41.844  22.755  25.852  1.00  0.00    -0.744 OA
ENDBRANCH  64  68
ENDBRANCH  47  61
BRANCH  48  72
ATOM     72  C   UNL A   1      40.327  32.650  36.423  1.00  0.00     0.023 A 
ATOM     73  C   UNL A   1      39.372  32.307  37.393  1.00  0.00     0.031 A 
ATOM     74  C   UNL A   1      41.110  33.796  36.648  1.00  0.00     0.131 A 
ATOM     75  C   UNL A   1      39.198  33.121  38.523  1.00  0.00     0.055 A 
ATOM     76  C   UNL A   1      40.971  34.574  37.799  1.00  0.00     0.041 A 
ATOM     77  F   UNL A   1      42.032  34.176  35.749  1.00  0.00    -0.206 F 
ATOM     78  C   UNL A   1      40.002  34.243  38.740  1.00  0.00     0.022 A 
BRANCH  75  79
ATOM     79  S   UNL A   1      37.848  32.738  39.674  1.00  0.00     0.124 S 
ATOM     80  O   UNL A   1      37.750  33.976  40.437  1.00  0.00    -0.237 OA
ATOM     81  O   UNL A   1      36.744  32.455  38.763  1.00  0.00    -0.237 OA
ATOM     82  O   UNL A   1      38.351  31.584  40.416  1.00  0.00    -0.744 OA
ENDBRANCH  75  79
ENDBRANCH  48  72
BRANCH  60  83
ATOM     83  C   UNL A   1      44.696  27.554  34.482  1.00  0.00     0.023 A 
ATOM     84  C   UNL A   1      44.565  26.456  35.348  1.00  0.00     0.031 A 
ATOM     85  C   UNL A   1      45.986  28.076  34.266  1.00  0.00     0.131 A 
ATOM     86  C   UNL A   1      45.693  25.959  36.019  1.00  0.00     0.055 A 
ATOM     87  C   UNL A   1      47.113  27.528  34.876  1.00  0.00     0.041 A 
ATOM     88  F   UNL A   1      46.172  29.126  33.450  1.00  0.00    -0.206 F 
ATOM     89  C   UNL A   1      46.969  26.473  35.772  1.00  0.00     0.022 A 
BRANCH  86  90
ATOM     90  S   UNL A   1      45.456  24.710  37.313  1.00  0.00     0.124 S 
ATOM     91  O   UNL A   1      45.277  23.492  36.529  1.00  0.00    -0.237 OA
ATOM     92  O   UNL A   1      46.701  24.804  38.069  1.00  0.00    -0.237 OA
ATOM     93  O   UNL A   1      44.264  25.173  38.020  1.00  0.00    -0.744 OA
ENDBRANCH  86  90
ENDBRANCH  60  83
ENDBRANCH  34  35
ENDBRANCH  27  29
ENDBRANCH  26  27
ENDBRANCH  25  26
ENDBRANCH  24  25
ENDBRANCH  23  24
ENDBRANCH   1  23
TORSDOF 23
ENDMDL
MODEL 2
REMARK VINA RESULT:      -9.3      2.473      3.224
REMARK SMILES CC[C@](C)(NC(=O)N1CCC[C@@H]1C)C(=O)OCCOCCOCCOC(=O)c1ccc(-c2c3nc(c(-c4cc(S(=O)(=O)[O-])ccc4F)c4ccc([nH]4)c(-c4cc(S(=O)(=O)[O-])ccc4F)c4nc(c(-c5cc(S(=O)(=O)[O-])ccc5F)c5ccc2[nH]5)C=C4)C=C3)cc1
REMARK SMILES IDX 21 1 20 2 19 3 18 4 17 5 16 6 14 7 15 8 3 9 4 10 2 11 1 12
REMARK SMILES IDX 5 13 6 14 7 16 8 17 9 18 12 19 10 20 11 21 13 22 22 23 23 24
REMARK SMILES IDX 24 25 25 26 26 27 27 28 28 29 29 30 90 31 30 32 89 33 31 34
REMARK SMILES IDX 32 35 33 36 83 37 34 38 88 39 82 40 84 41 35 42 87 43 81 44
REMARK SMILES IDX 80 45 36 47 68 48 48 49 67 50 49 51 52 52 66 53 85 54 50 55
REMARK SMILES IDX 51 56 65 58 86 59 53 60 37 61 38 62 46 63 39 64 45 65 47 66
REMARK SMILES IDX 44 67 40 68 41 69 42 70 43 71 69 72 70 73 78 74 71 75 77 76
REMARK SMILES IDX 79 77 76 78 72 79 73 80 74 81 75 82 54 83 55 84 63 85 56 86
REMARK SMILES IDX 62 87 64 88 61 89 57 90 58 91 59 92 60 93
REMARK H PARENT 5 15 84 46 52 57
REMARK Flexibility Score: inf
ROOT
ATOM      1  C   UNL A   1      31.330  29.260  25.070  1.00  0.00     0.188 C 
ENDROOT
BRANCH   1   2
ATOM      2  C   UNL A   1      30.956  28.710  23.677  1.00  0.00     0.188 C 
BRANCH   2   3
ATOM      3  O   UNL A   1      29.872  27.791  23.631  1.00  0.00    -0.376 OA
BRANCH   3   4
ATOM      4  C   UNL A   1      30.065  26.400  23.911  1.00  0.00     0.202 C 
BRANCH   4   5
ATOM      5  C   UNL A   1      30.067  25.713  25.298  1.00  0.00     0.261 C 
BRANCH   5   6
ATOM      6  O   UNL A   1      30.313  24.314  25.261  1.00  0.00    -0.462 OA
BRANCH   6   7
ATOM      7  C   UNL A   1      30.684  23.763  26.435  1.00  0.00     0.331 C 
ATOM      8  O   UNL A   1      29.930  23.625  27.393  1.00  0.00    -0.249 OA
BRANCH   7   9
ATOM      9  C   UNL A   1      32.173  23.332  26.427  1.00  0.00     0.136 C 
ATOM     10  C   UNL A   1      32.222  22.216  25.320  1.00  0.00     0.047 C 
BRANCH   9  11
ATOM     11  C   UNL A   1      32.596  22.638  27.750  1.00  0.00     0.037 C 
ATOM     12  C   UNL A   1      33.828  21.741  27.683  1.00  0.00     0.007 C 
ENDBRANCH   9  11
BRANCH   9  13
ATOM     13  N   UNL A   1      33.235  24.356  26.038  1.00  0.00    -0.322 N 
ATOM     14  C   UNL A   1      34.483  24.498  25.522  1.00  0.00     0.318 C 
ATOM     15  H   UNL A   1      32.882  25.253  26.235  1.00  0.00     0.166 HD
ATOM     16  O   UNL A   1      34.769  25.640  25.142  1.00  0.00    -0.249 OA
BRANCH  14  17
ATOM     17  N   UNL A   1      35.428  23.488  25.505  1.00  0.00    -0.322 N 
ATOM     18  C   UNL A   1      36.824  23.859  25.754  1.00  0.00     0.122 C 
ATOM     19  C   UNL A   1      35.455  22.534  24.398  1.00  0.00     0.083 C 
ATOM     20  C   UNL A   1      37.718  22.733  25.305  1.00  0.00     0.024 C 
ATOM     21  C   UNL A   1      36.937  22.126  24.174  1.00  0.00     0.027 C 
ATOM     22  C   UNL A   1      34.927  23.105  23.087  1.00  0.00     0.031 C 
ENDBRANCH  14  17
ENDBRANCH   9  13
ENDBRANCH   7   9
ENDBRANCH   6   7
ENDBRANCH   5   6
ENDBRANCH   4   5
ENDBRANCH   3   4
ENDBRANCH   2   3
ENDBRANCH   1   2
BRANCH   1  23
ATOM     23  O   UNL A   1      32.529  30.018  25.134  1.00  0.00    -0.376 OA
BRANCH  23  24
ATOM     24  C   UNL A   1      33.302  29.983  26.338  1.00  0.00     0.202 C 
BRANCH  24  25
ATOM     25  C   UNL A   1      33.102  31.220  27.242  1.00  0.00     0.261 C 
BRANCH  25  26
ATOM     26  O   UNL A   1      34.242  32.094  27.288  1.00  0.00    -0.460 OA
BRANCH  26  27
ATOM     27  C   UNL A   1      34.056  33.214  28.038  1.00  0.00     0.338 C 
ATOM     28  O   UNL A   1      33.130  33.989  27.956  1.00  0.00    -0.246 OA
BRANCH  27  29
ATOM     29  C   UNL A   1      34.969  33.121  29.201  1.00  0.00     0.060 A 
ATOM     30  C   UNL A   1      36.217  33.761  29.083  1.00  0.00     0.016 A 
ATOM     31  C   UNL A   1      34.579  32.536  30.406  1.00  0.00     0.016 A 
ATOM     32  C   UNL A   1      37.098  33.781  30.155  1.00  0.00     0.010 A 
ATOM     33  C   UNL A   1      35.502  32.470  31.452  1.00  0.00     0.010 A 
ATOM     34  C   UNL A   1      36.780  33.039  31.296  1.00  0.00    -0.014 A 
BRANCH  34  35
ATOM     35  C   UNL A   1      37.921  32.485  32.056  1.00  0.00     0.031 A 
ATOM     36  C   UNL A   1      38.676  31.364  31.388  1.00  0.00     0.074 A 
ATOM     37  C   UNL A   1      38.331  33.003  33.224  1.00  0.00     0.049 A 
ATOM     38  N   UNL A   1      39.696  30.668  31.812  1.00  0.00    -0.248 NA
ATOM     39  C   UNL A   1      38.212  30.986  30.042  1.00  0.00     0.031 C 
ATOM     40  C   UNL A   1      37.743  34.160  33.894  1.00  0.00     0.029 A 
ATOM     41  N   UNL A   1      39.355  32.615  34.046  1.00  0.00    -0.354 N 
ATOM     42  C   UNL A   1      39.982  29.768  30.790  1.00  0.00     0.074 A 
ATOM     43  C   UNL A   1      39.018  29.987  29.740  1.00  0.00     0.031 C 
ATOM     44  C   UNL A   1      38.414  34.383  35.038  1.00  0.00     0.029 A 
ATOM     45  C   UNL A   1      39.445  33.356  35.198  1.00  0.00     0.049 A 
ATOM     46  H   UNL A   1      39.968  31.876  33.832  1.00  0.00     0.167 HD
ATOM     47  C   UNL A   1      40.965  28.839  30.733  1.00  0.00     0.034 A 
ATOM     48  C   UNL A   1      40.252  33.193  36.266  1.00  0.00     0.034 A 
ATOM     49  C   UNL A   1      41.889  28.617  31.812  1.00  0.00     0.049 A 
ATOM     50  C   UNL A   1      41.253  32.060  36.246  1.00  0.00     0.074 A 
ATOM     51  C   UNL A   1      42.906  27.685  31.900  1.00  0.00     0.029 A 
ATOM     52  N   UNL A   1      41.892  29.328  33.008  1.00  0.00    -0.354 N 
ATOM     53  N   UNL A   1      41.497  31.183  35.297  1.00  0.00    -0.248 NA
ATOM     54  C   UNL A   1      42.090  31.900  37.441  1.00  0.00     0.031 C 
ATOM     55  C   UNL A   1      43.464  27.775  33.179  1.00  0.00     0.029 A 
ATOM     56  C   UNL A   1      42.870  28.832  33.854  1.00  0.00     0.049 A 
ATOM     57  H   UNL A   1      41.288  30.075  33.221  1.00  0.00     0.167 HD
ATOM     58  C   UNL A   1      42.548  30.395  35.765  1.00  0.00     0.074 A 
ATOM     59  C   UNL A   1      42.887  30.907  37.079  1.00  0.00     0.031 C 
ATOM     60  C   UNL A   1      43.184  29.355  35.164  1.00  0.00     0.034 A 
BRANCH  47  61
ATOM     61  C   UNL A   1      40.993  27.948  29.513  1.00  0.00     0.023 A 
ATOM     62  C   UNL A   1      41.923  28.130  28.473  1.00  0.00     0.031 A 
ATOM     63  C   UNL A   1      40.006  26.961  29.344  1.00  0.00     0.131 A 
ATOM     64  C   UNL A   1      41.787  27.408  27.277  1.00  0.00     0.055 A 
ATOM     65  C   UNL A   1      39.936  26.177  28.191  1.00  0.00     0.041 A 
ATOM     66  F   UNL A   1      39.067  26.765  30.282  1.00  0.00    -0.206 F 
ATOM     67  C   UNL A   1      40.818  26.412  27.140  1.00  0.00     0.022 A 
BRANCH  64  68
ATOM     68  S   UNL A   1      42.764  27.922  25.836  1.00  0.00     0.124 S 
ATOM     69  O   UNL A   1      42.287  26.996  24.811  1.00  0.00    -0.237 OA
ATOM     70  O   UNL A   1      42.371  29.317  25.670  1.00  0.00    -0.237 OA
ATOM     71  O   UNL A   1      44.145  27.708  26.264  1.00  0.00    -0.744 OA
ENDBRANCH  64  68
ENDBRANCH  47  61
BRANCH  48  72
ATOM     72  C   UNL A   1      40.125  34.085  37.453  1.00  0.00     0.023 A 
ATOM     73  C   UNL A   1      39.357  33.710  38.566  1.00  0.00     0.031 A 
ATOM     74  C   UNL A   1      40.738  35.351  37.474  1.00  0.00     0.131 A 
ATOM     75  C   UNL A   1      39.191  34.603  39.636  1.00  0.00     0.055 A 
ATOM     76  C   UNL A   1      40.614  36.216  38.563  1.00  0.00     0.041 A 
ATOM     77  F   UNL A   1      41.476  35.766  36.432  1.00  0.00    -0.206 F 
ATOM     78  C   UNL A   1      39.827  35.847  39.649  1.00  0.00     0.022 A 
BRANCH  75  79
ATOM     79  S   UNL A   1      38.063  34.149  40.983  1.00  0.00     0.124 S 
ATOM     80  O   UNL A   1      38.947  33.402  41.870  1.00  0.00    -0.237 OA
ATOM     81  O   UNL A   1      37.624  35.455  41.464  1.00  0.00    -0.237 OA
ATOM     82  O   UNL A   1      37.034  33.357  40.313  1.00  0.00    -0.744 OA
ENDBRANCH  75  79
ENDBRANCH  48  72
BRANCH  60  83
ATOM     83  C   UNL A   1      44.359  28.750  35.895  1.00  0.00     0.023 A 
ATOM     84  C   UNL A   1      45.672  29.221  35.722  1.00  0.00     0.031 A 
ATOM     85  C   UNL A   1      44.155  27.672  36.777  1.00  0.00     0.131 A 
ATOM     86  C   UNL A   1      46.736  28.573  36.368  1.00  0.00     0.055 A 
ATOM     87  C   UNL A   1      45.207  27.082  37.476  1.00  0.00     0.041 A 
ATOM     88  F   UNL A   1      42.923  27.178  36.980  1.00  0.00    -0.206 F 
ATOM     89  C   UNL A   1      46.510  27.521  37.260  1.00  0.00     0.022 A 
BRANCH  86  90
ATOM     90  S   UNL A   1      48.433  29.042  35.933  1.00  0.00     0.124 S 
ATOM     91  O   UNL A   1      49.085  27.742  35.815  1.00  0.00    -0.237 OA
ATOM     92  O   UNL A   1      48.244  29.775  34.685  1.00  0.00    -0.237 OA
ATOM     93  O   UNL A   1      48.866  29.852  37.069  1.00  0.00    -0.744 OA
ENDBRANCH  86  90
ENDBRANCH  60  83
ENDBRANCH  34  35
ENDBRANCH  27  29
ENDBRANCH  26  27
ENDBRANCH  25  26
ENDBRANCH  24  25
ENDBRANCH  23  24
ENDBRANCH   1  23
TORSDOF 23
ENDMDL
MODEL 3
REMARK VINA RESULT:      -9.3      1.936      7.871
REMARK SMILES CC[C@](C)(NC(=O)N1CCC[C@@H]1C)C(=O)OCCOCCOCCOC(=O)c1ccc(-c2c3nc(c(-c4cc(S(=O)(=O)[O-])ccc4F)c4ccc([nH]4)c(-c4cc(S(=O)(=O)[O-])ccc4F)c4nc(c(-c5cc(S(=O)(=O)[O-])ccc5F)c5ccc2[nH]5)C=C4)C=C3)cc1
REMARK SMILES IDX 21 1 20 2 19 3 18 4 17 5 16 6 14 7 15 8 3 9 4 10 2 11 1 12
REMARK SMILES IDX 5 13 6 14 7 16 8 17 9 18 12 19 10 20 11 21 13 22 22 23 23 24
REMARK SMILES IDX 24 25 25 26 26 27 27 28 28 29 29 30 90 31 30 32 89 33 31 34
REMARK SMILES IDX 32 35 33 36 83 37 34 38 88 39 82 40 84 41 35 42 87 43 81 44
REMARK SMILES IDX 80 45 36 47 68 48 48 49 67 50 49 51 52 52 66 53 85 54 50 55
REMARK SMILES IDX 51 56 65 58 86 59 53 60 37 61 38 62 46 63 39 64 45 65 47 66
REMARK SMILES IDX 44 67 40 68 41 69 42 70 43 71 69 72 70 73 78 74 71 75 77 76
REMARK SMILES IDX 79 77 76 78 72 79 73 80 74 81 75 82 54 83 55 84 63 85 56 86
REMARK SMILES IDX 62 87 64 88 61 89 57 90 58 91 59 92 60 93
REMARK H PARENT 5 15 84 46 52 57
REMARK Flexibility Score: inf
ROOT
ATOM      1  C   UNL A   1      31.795  30.392  25.598  1.00  0.00     0.188 C 
ENDROOT
BRANCH   1   2
ATOM      2  C   UNL A   1      32.084  29.049  26.299  1.00  0.00     0.188 C 
BRANCH   2   3
ATOM      3  O   UNL A   1      33.191  28.304  25.807  1.00  0.00    -0.376 OA
BRANCH   3   4
ATOM      4  C   UNL A   1      33.015  27.007  25.226  1.00  0.00     0.202 C 
BRANCH   4   5
ATOM      5  C   UNL A   1      33.164  25.636  25.928  1.00  0.00     0.261 C 
BRANCH   5   6
ATOM      6  O   UNL A   1      33.041  24.516  25.063  1.00  0.00    -0.462 OA
BRANCH   6   7
ATOM      7  C   UNL A   1      32.299  23.496  25.543  1.00  0.00     0.331 C 
ATOM      8  O   UNL A   1      31.391  23.636  26.357  1.00  0.00    -0.249 OA
BRANCH   7   9
ATOM      9  C   UNL A   1      32.734  22.132  24.947  1.00  0.00     0.136 C 
ATOM     10  C   UNL A   1      34.262  22.342  24.639  1.00  0.00     0.047 C 
BRANCH   9  11
ATOM     11  C   UNL A   1      32.060  21.841  23.580  1.00  0.00     0.037 C 
ATOM     12  C   UNL A   1      32.756  22.404  22.346  1.00  0.00     0.007 C 
ENDBRANCH   9  11
BRANCH   9  13
ATOM     13  N   UNL A   1      32.650  20.885  25.822  1.00  0.00    -0.322 N 
ATOM     14  C   UNL A   1      32.875  19.545  25.845  1.00  0.00     0.318 C 
ATOM     15  H   UNL A   1      32.302  21.151  26.703  1.00  0.00     0.166 HD
ATOM     16  O   UNL A   1      32.895  19.034  26.971  1.00  0.00    -0.249 OA
BRANCH  14  17
ATOM     17  N   UNL A   1      32.970  18.762  24.709  1.00  0.00    -0.322 N 
ATOM     18  C   UNL A   1      32.448  17.395  24.780  1.00  0.00     0.122 C 
ATOM     19  C   UNL A   1      34.239  18.674  23.989  1.00  0.00     0.083 C 
ATOM     20  C   UNL A   1      32.994  16.600  23.622  1.00  0.00     0.024 C 
ATOM     21  C   UNL A   1      34.329  17.247  23.382  1.00  0.00     0.027 C 
ATOM     22  C   UNL A   1      35.460  18.877  24.879  1.00  0.00     0.031 C 
ENDBRANCH  14  17
ENDBRANCH   9  13
ENDBRANCH   7   9
ENDBRANCH   6   7
ENDBRANCH   5   6
ENDBRANCH   4   5
ENDBRANCH   3   4
ENDBRANCH   2   3
ENDBRANCH   1   2
BRANCH   1  23
ATOM     23  O   UNL A   1      30.976  31.303  26.317  1.00  0.00    -0.376 OA
BRANCH  23  24
ATOM     24  C   UNL A   1      31.435  32.645  26.499  1.00  0.00     0.202 C 
BRANCH  24  25
ATOM     25  C   UNL A   1      32.658  32.764  27.435  1.00  0.00     0.261 C 
BRANCH  25  26
ATOM     26  O   UNL A   1      33.015  34.119  27.752  1.00  0.00    -0.460 OA
BRANCH  26  27
ATOM     27  C   UNL A   1      33.579  34.274  28.980  1.00  0.00     0.338 C 
ATOM     28  O   UNL A   1      33.052  34.753  29.959  1.00  0.00    -0.246 OA
BRANCH  27  29
ATOM     29  C   UNL A   1      34.798  33.433  29.015  1.00  0.00     0.060 A 
ATOM     30  C   UNL A   1      34.620  32.066  29.299  1.00  0.00     0.016 A 
ATOM     31  C   UNL A   1      36.054  33.931  28.667  1.00  0.00     0.016 A 
ATOM     32  C   UNL A   1      35.703  31.200  29.278  1.00  0.00     0.010 A 
ATOM     33  C   UNL A   1      37.159  33.081  28.742  1.00  0.00     0.010 A 
ATOM     34  C   UNL A   1      36.984  31.733  29.109  1.00  0.00    -0.014 A 
BRANCH  34  35
ATOM     35  C   UNL A   1      38.088  31.011  29.776  1.00  0.00     0.031 A 
ATOM     36  C   UNL A   1      38.317  31.352  31.227  1.00  0.00     0.074 A 
ATOM     37  C   UNL A   1      38.788  30.040  29.169  1.00  0.00     0.049 A 
ATOM     38  N   UNL A   1      39.216  30.908  32.063  1.00  0.00    -0.248 NA
ATOM     39  C   UNL A   1      37.386  32.330  31.815  1.00  0.00     0.031 C 
ATOM     40  C   UNL A   1      38.565  29.555  27.810  1.00  0.00     0.029 A 
ATOM     41  N   UNL A   1      39.828  29.282  29.638  1.00  0.00    -0.354 N 
ATOM     42  C   UNL A   1      38.960  31.561  33.265  1.00  0.00     0.074 A 
ATOM     43  C   UNL A   1      37.845  32.448  33.045  1.00  0.00     0.031 C 
ATOM     44  C   UNL A   1      39.455  28.581  27.548  1.00  0.00     0.029 A 
ATOM     45  C   UNL A   1      40.336  28.412  28.705  1.00  0.00     0.049 A 
ATOM     46  H   UNL A   1      40.177  29.354  30.554  1.00  0.00     0.167 HD
ATOM     47  C   UNL A   1      39.603  31.433  34.449  1.00  0.00     0.034 A 
ATOM     48  C   UNL A   1      41.409  27.600  28.781  1.00  0.00     0.034 A 
ATOM     49  C   UNL A   1      40.738  30.568  34.629  1.00  0.00     0.049 A 
ATOM     50  C   UNL A   1      42.202  27.572  30.068  1.00  0.00     0.074 A 
ATOM     51  C   UNL A   1      41.504  30.372  35.763  1.00  0.00     0.029 A 
ATOM     52  N   UNL A   1      41.286  29.767  33.632  1.00  0.00    -0.354 N 
ATOM     53  N   UNL A   1      41.987  28.221  31.192  1.00  0.00    -0.248 NA
ATOM     54  C   UNL A   1      43.381  26.698  30.097  1.00  0.00     0.031 C 
ATOM     55  C   UNL A   1      42.563  29.522  35.428  1.00  0.00     0.029 A 
ATOM     56  C   UNL A   1      42.400  29.102  34.115  1.00  0.00     0.049 A 
ATOM     57  H   UNL A   1      40.931  29.683  32.717  1.00  0.00     0.167 HD
ATOM     58  C   UNL A   1      42.979  27.796  32.075  1.00  0.00     0.074 A 
ATOM     59  C   UNL A   1      43.787  26.836  31.349  1.00  0.00     0.031 C 
ATOM     60  C   UNL A   1      43.195  28.154  33.368  1.00  0.00     0.034 A 
BRANCH  47  61
ATOM     61  C   UNL A   1      39.146  32.329  35.576  1.00  0.00     0.023 A 
ATOM     62  C   UNL A   1      39.525  33.682  35.658  1.00  0.00     0.031 A 
ATOM     63  C   UNL A   1      38.399  31.793  36.639  1.00  0.00     0.131 A 
ATOM     64  C   UNL A   1      39.241  34.420  36.818  1.00  0.00     0.055 A 
ATOM     65  C   UNL A   1      38.035  32.561  37.747  1.00  0.00     0.041 A 
ATOM     66  F   UNL A   1      38.040  30.500  36.639  1.00  0.00    -0.206 F 
ATOM     67  C   UNL A   1      38.474  33.878  37.850  1.00  0.00     0.022 A 
BRANCH  64  68
ATOM     68  S   UNL A   1      40.053  36.028  37.045  1.00  0.00     0.124 S 
ATOM     69  O   UNL A   1      41.430  35.626  37.325  1.00  0.00    -0.237 OA
ATOM     70  O   UNL A   1      39.826  36.681  35.761  1.00  0.00    -0.237 OA
ATOM     71  O   UNL A   1      39.341  36.614  38.180  1.00  0.00    -0.744 OA
ENDBRANCH  64  68
ENDBRANCH  47  61
BRANCH  48  72
ATOM     72  C   UNL A   1      41.825  26.785  27.605  1.00  0.00     0.023 A 
ATOM     73  C   UNL A   1      41.500  25.422  27.512  1.00  0.00     0.031 A 
ATOM     74  C   UNL A   1      42.595  27.348  26.571  1.00  0.00     0.131 A 
ATOM     75  C   UNL A   1      41.973  24.661  26.432  1.00  0.00     0.055 A 
ATOM     76  C   UNL A   1      43.019  26.600  25.471  1.00  0.00     0.041 A 
ATOM     77  F   UNL A   1      42.943  28.644  26.613  1.00  0.00    -0.206 F 
ATOM     78  C   UNL A   1      42.716  25.245  25.403  1.00  0.00     0.022 A 
BRANCH  75  79
ATOM     79  S   UNL A   1      41.669  22.872  26.427  1.00  0.00     0.124 S 
ATOM     80  O   UNL A   1      42.231  22.473  27.712  1.00  0.00    -0.237 OA
ATOM     81  O   UNL A   1      40.216  22.812  26.314  1.00  0.00    -0.237 OA
ATOM     82  O   UNL A   1      42.402  22.406  25.252  1.00  0.00    -0.744 OA
ENDBRANCH  75  79
ENDBRANCH  48  72
BRANCH  60  83
ATOM     83  C   UNL A   1      44.312  27.447  34.101  1.00  0.00     0.023 A 
ATOM     84  C   UNL A   1      44.149  26.167  34.658  1.00  0.00     0.031 A 
ATOM     85  C   UNL A   1      45.562  28.077  34.248  1.00  0.00     0.131 A 
ATOM     86  C   UNL A   1      45.195  25.589  35.394  1.00  0.00     0.055 A 
ATOM     87  C   UNL A   1      46.622  27.465  34.914  1.00  0.00     0.041 A 
ATOM     88  F   UNL A   1      45.775  29.302  33.739  1.00  0.00    -0.206 F 
ATOM     89  C   UNL A   1      46.437  26.220  35.507  1.00  0.00     0.022 A 
BRANCH  86  90
ATOM     90  S   UNL A   1      44.872  24.056  36.307  1.00  0.00     0.124 S 
ATOM     91  O   UNL A   1      46.089  23.291  36.054  1.00  0.00    -0.237 OA
ATOM     92  O   UNL A   1      44.695  24.538  37.673  1.00  0.00    -0.237 OA
ATOM     93  O   UNL A   1      43.666  23.527  35.674  1.00  0.00    -0.744 OA
ENDBRANCH  86  90
ENDBRANCH  60  83
ENDBRANCH  34  35
ENDBRANCH  27  29
ENDBRANCH  26  27
ENDBRANCH  25  26
ENDBRANCH  24  25
ENDBRANCH  23  24
ENDBRANCH   1  23
TORSDOF 23
ENDMDL
