MODEL 1
REMARK VINA RESULT:     -10.3      0.000      0.000
REMARK SMILES COc1cccc(N2C(=O)/C(=C/c3ccccc3C(=O)OCCOCCOCCOC(=O)c3ccc(-c4c5nc(c(-c6cc(S(=O)(=O)[O-])ccc6F)c6ccc([nH]6)c(-c6cc(S(=O)(=O)[O-])ccc6F)c6nc(c(-c7cc(S(=O)(=O)[O-])ccc7F)c7ccc4[nH]7)C=C6)C=C5)cc3)SC2=S)c1
REMARK SMILES IDX 25 1 24 2 23 3 22 4 21 5 19 6 20 7 18 8 13 9 14 10 15 11
REMARK SMILES IDX 17 12 16 13 12 14 8 15 9 16 97 17 10 18 11 19 96 20 98 21
REMARK SMILES IDX 7 22 3 23 4 24 99 25 5 26 6 27 2 28 1 29 26 30 27 31 28 32
REMARK SMILES IDX 29 33 30 34 31 35 32 36 33 37 34 38 95 39 35 40 94 41 36 42
REMARK SMILES IDX 37 43 38 44 88 45 39 46 93 47 87 48 89 49 40 50 92 51 86 52
REMARK SMILES IDX 85 53 41 55 73 56 53 57 72 58 54 59 57 60 71 61 90 62 55 63
REMARK SMILES IDX 56 64 70 66 91 67 58 68 42 69 43 70 51 71 44 72 50 73 52 74
REMARK SMILES IDX 49 75 45 76 46 77 47 78 48 79 74 80 75 81 83 82 76 83 82 84
REMARK SMILES IDX 84 85 81 86 77 87 78 88 79 89 80 90 59 91 60 92 68 93 61 94
REMARK SMILES IDX 67 95 69 96 66 97 62 98 63 99 64 100 65 101
REMARK H PARENT 89 54 57 65
REMARK Flexibility Score: inf
ROOT
ATOM      1  C   UNL A   1      34.040  25.865  25.833  1.00  0.00     0.188 C 
ENDROOT
BRANCH   1   2
ATOM      2  O   UNL A   1      34.765  25.056  24.910  1.00  0.00    -0.376 OA
BRANCH   2   3
ATOM      3  C   UNL A   1      35.744  24.150  25.408  1.00  0.00     0.202 C 
BRANCH   3   4
ATOM      4  C   UNL A   1      35.235  22.859  26.054  1.00  0.00     0.261 C 
BRANCH   4   5
ATOM      5  O   UNL A   1      34.428  23.117  27.217  1.00  0.00    -0.460 OA
BRANCH   5   6
ATOM      6  C   UNL A   1      33.303  22.369  27.344  1.00  0.00     0.338 C 
ATOM      7  O   UNL A   1      32.518  22.415  28.278  1.00  0.00    -0.246 OA
BRANCH   6   8
ATOM      8  C   UNL A   1      33.053  21.542  26.127  1.00  0.00     0.067 A 
ATOM      9  C   UNL A   1      32.197  21.896  25.058  1.00  0.00    -0.010 A 
ATOM     10  C   UNL A   1      32.049  20.999  23.986  1.00  0.00     0.009 A 
ATOM     11  C   UNL A   1      32.728  19.778  23.973  1.00  0.00     0.001 A 
ATOM     12  C   UNL A   1      33.727  20.310  26.099  1.00  0.00     0.016 A 
ATOM     13  C   UNL A   1      33.559  19.429  25.032  1.00  0.00     0.001 A 
BRANCH   9  14
ATOM     14  C   UNL A   1      31.355  23.103  25.028  1.00  0.00     0.030 C 
ATOM     15  N   UNL A   1      31.263  26.342  23.496  1.00  0.00    -0.261 N 
ATOM     16  C   UNL A   1      30.715  25.381  24.342  1.00  0.00     0.270 C 
ATOM     17  C   UNL A   1      32.265  25.898  22.638  1.00  0.00     0.152 C 
ATOM     18  O   UNL A   1      29.800  25.517  25.145  1.00  0.00    -0.268 OA
ATOM     19  C   UNL A   1      31.401  24.081  24.116  1.00  0.00     0.081 C 
ATOM     20  S   UNL A   1      32.333  24.143  22.680  1.00  0.00    -0.054 SA
ATOM     21  S   UNL A   1      33.373  26.776  21.742  1.00  0.00    -0.051 S 
BRANCH  15  22
ATOM     22  C   UNL A   1      30.768  27.677  23.513  1.00  0.00     0.054 A 
ATOM     23  C   UNL A   1      29.329  29.380  22.537  1.00  0.00     0.120 A 
ATOM     24  C   UNL A   1      29.747  30.287  23.507  1.00  0.00     0.046 A 
ATOM     25  C   UNL A   1      29.859  28.091  22.529  1.00  0.00     0.073 A 
ATOM     26  C   UNL A   1      30.634  29.886  24.507  1.00  0.00     0.006 A 
ATOM     27  C   UNL A   1      31.126  28.578  24.525  1.00  0.00     0.027 A 
BRANCH  23  28
ATOM     28  O   UNL A   1      28.412  29.846  21.633  1.00  0.00    -0.497 OA
ATOM     29  C   UNL A   1      27.875  31.135  21.925  1.00  0.00     0.278 C 
ENDBRANCH  23  28
ENDBRANCH  15  22
ENDBRANCH   9  14
ENDBRANCH   6   8
ENDBRANCH   5   6
ENDBRANCH   4   5
ENDBRANCH   3   4
ENDBRANCH   2   3
ENDBRANCH   1   2
BRANCH   1  30
ATOM     30  C   UNL A   1      34.030  27.394  25.631  1.00  0.00     0.188 C 
BRANCH  30  31
ATOM     31  O   UNL A   1      33.711  28.130  26.800  1.00  0.00    -0.376 OA
BRANCH  31  32
ATOM     32  C   UNL A   1      34.503  29.285  27.041  1.00  0.00     0.202 C 
BRANCH  32  33
ATOM     33  C   UNL A   1      33.733  30.574  27.360  1.00  0.00     0.261 C 
BRANCH  33  34
ATOM     34  O   UNL A   1      34.520  31.772  27.462  1.00  0.00    -0.460 OA
BRANCH  34  35
ATOM     35  C   UNL A   1      34.716  32.287  28.699  1.00  0.00     0.338 C 
ATOM     36  O   UNL A   1      33.930  32.964  29.334  1.00  0.00    -0.246 OA
BRANCH  35  37
ATOM     37  C   UNL A   1      35.977  31.715  29.229  1.00  0.00     0.060 A 
ATOM     38  C   UNL A   1      37.201  32.195  28.744  1.00  0.00     0.016 A 
ATOM     39  C   UNL A   1      35.953  30.730  30.220  1.00  0.00     0.016 A 
ATOM     40  C   UNL A   1      38.403  31.673  29.235  1.00  0.00     0.010 A 
ATOM     41  C   UNL A   1      37.156  30.195  30.697  1.00  0.00     0.010 A 
ATOM     42  C   UNL A   1      38.388  30.646  30.190  1.00  0.00    -0.014 A 
BRANCH  42  43
ATOM     43  C   UNL A   1      39.639  29.915  30.527  1.00  0.00     0.031 A 
ATOM     44  C   UNL A   1      40.468  30.420  31.680  1.00  0.00     0.074 A 
ATOM     45  C   UNL A   1      40.041  28.836  29.829  1.00  0.00     0.049 A 
ATOM     46  N   UNL A   1      41.618  29.989  32.129  1.00  0.00    -0.248 NA
ATOM     47  C   UNL A   1      39.924  31.569  32.421  1.00  0.00     0.031 C 
ATOM     48  C   UNL A   1      39.312  28.229  28.717  1.00  0.00     0.029 A 
ATOM     49  N   UNL A   1      41.173  28.066  29.949  1.00  0.00    -0.354 N 
ATOM     50  C   UNL A   1      41.940  30.819  33.200  1.00  0.00     0.074 A 
ATOM     51  C   UNL A   1      40.873  31.789  33.317  1.00  0.00     0.031 C 
ATOM     52  C   UNL A   1      40.024  27.187  28.247  1.00  0.00     0.029 A 
ATOM     53  C   UNL A   1      41.274  27.075  28.998  1.00  0.00     0.049 A 
ATOM     54  H   UNL A   1      41.849  28.208  30.650  1.00  0.00     0.167 HD
ATOM     55  C   UNL A   1      43.025  30.775  34.010  1.00  0.00     0.034 A 
ATOM     56  C   UNL A   1      42.273  26.201  28.748  1.00  0.00     0.034 A 
ATOM     57  C   UNL A   1      44.088  29.810  33.883  1.00  0.00     0.049 A 
ATOM     58  C   UNL A   1      43.513  26.230  29.618  1.00  0.00     0.074 A 
ATOM     59  C   UNL A   1      45.210  29.658  34.680  1.00  0.00     0.029 A 
ATOM     60  N   UNL A   1      44.173  28.848  32.887  1.00  0.00    -0.354 N 
ATOM     61  N   UNL A   1      43.782  26.992  30.653  1.00  0.00    -0.248 NA
ATOM     62  C   UNL A   1      44.581  25.275  29.286  1.00  0.00     0.031 C 
ATOM     63  C   UNL A   1      46.008  28.651  34.124  1.00  0.00     0.029 A 
ATOM     64  C   UNL A   1      45.348  28.124  33.025  1.00  0.00     0.049 A 
ATOM     65  H   UNL A   1      43.500  28.700  32.185  1.00  0.00     0.167 HD
ATOM     66  C   UNL A   1      45.029  26.576  31.116  1.00  0.00     0.074 A 
ATOM     67  C   UNL A   1      45.455  25.493  30.257  1.00  0.00     0.031 C 
ATOM     68  C   UNL A   1      45.758  27.042  32.163  1.00  0.00     0.034 A 
BRANCH  55  69
ATOM     69  C   UNL A   1      43.143  31.837  35.072  1.00  0.00     0.023 A 
ATOM     70  C   UNL A   1      42.520  31.709  36.324  1.00  0.00     0.031 A 
ATOM     71  C   UNL A   1      43.892  33.000  34.820  1.00  0.00     0.131 A 
ATOM     72  C   UNL A   1      42.617  32.748  37.262  1.00  0.00     0.055 A 
ATOM     73  C   UNL A   1      44.039  34.002  35.781  1.00  0.00     0.041 A 
ATOM     74  F   UNL A   1      44.488  33.185  33.632  1.00  0.00    -0.206 F 
ATOM     75  C   UNL A   1      43.392  33.884  37.007  1.00  0.00     0.022 A 
BRANCH  72  76
ATOM     76  S   UNL A   1      41.631  32.646  38.780  1.00  0.00     0.124 S 
ATOM     77  O   UNL A   1      41.801  33.986  39.335  1.00  0.00    -0.237 OA
ATOM     78  O   UNL A   1      40.302  32.328  38.273  1.00  0.00    -0.237 OA
ATOM     79  O   UNL A   1      42.280  31.578  39.539  1.00  0.00    -0.744 OA
ENDBRANCH  72  76
ENDBRANCH  55  69
BRANCH  56  80
ATOM     80  C   UNL A   1      42.194  25.247  27.600  1.00  0.00     0.023 A 
ATOM     81  C   UNL A   1      41.603  23.981  27.750  1.00  0.00     0.031 A 
ATOM     82  C   UNL A   1      42.808  25.543  26.370  1.00  0.00     0.131 A 
ATOM     83  C   UNL A   1      41.696  23.036  26.714  1.00  0.00     0.055 A 
ATOM     84  C   UNL A   1      42.843  24.623  25.321  1.00  0.00     0.041 A 
ATOM     85  F   UNL A   1      43.396  26.734  26.174  1.00  0.00    -0.206 F 
ATOM     86  C   UNL A   1      42.301  23.352  25.497  1.00  0.00     0.022 A 
BRANCH  83  87
ATOM     87  S   UNL A   1      41.125  21.343  27.031  1.00  0.00     0.124 S 
ATOM     88  O   UNL A   1      42.310  20.562  26.695  1.00  0.00    -0.237 OA
ATOM     89  O   UNL A   1      40.775  21.402  28.446  1.00  0.00    -0.237 OA
ATOM     90  O   UNL A   1      39.996  21.188  26.117  1.00  0.00    -0.744 OA
ENDBRANCH  83  87
ENDBRANCH  56  80
BRANCH  68  91
ATOM     91  C   UNL A   1      47.055  26.336  32.474  1.00  0.00     0.023 A 
ATOM     92  C   UNL A   1      47.112  25.230  33.341  1.00  0.00     0.031 A 
ATOM     93  C   UNL A   1      48.255  26.782  31.893  1.00  0.00     0.131 A 
ATOM     94  C   UNL A   1      48.349  24.642  33.643  1.00  0.00     0.055 A 
ATOM     95  C   UNL A   1      49.475  26.156  32.150  1.00  0.00     0.041 A 
ATOM     96  F   UNL A   1      48.260  27.832  31.056  1.00  0.00    -0.206 F 
ATOM     97  C   UNL A   1      49.528  25.087  33.040  1.00  0.00     0.022 A 
BRANCH  94  98
ATOM     98  S   UNL A   1      48.412  23.333  34.898  1.00  0.00     0.124 S 
ATOM     99  O   UNL A   1      49.165  22.290  34.211  1.00  0.00    -0.237 OA
ATOM    100  O   UNL A   1      49.100  23.993  36.003  1.00  0.00    -0.237 OA
ATOM    101  O   UNL A   1      47.005  23.023  35.143  1.00  0.00    -0.744 OA
ENDBRANCH  94  98
ENDBRANCH  68  91
ENDBRANCH  42  43
ENDBRANCH  35  37
ENDBRANCH  34  35
ENDBRANCH  33  34
ENDBRANCH  32  33
ENDBRANCH  31  32
ENDBRANCH  30  31
ENDBRANCH   1  30
TORSDOF 23
ENDMDL
MODEL 2
REMARK VINA RESULT:     -10.2      3.725      6.165
REMARK SMILES COc1cccc(N2C(=O)/C(=C/c3ccccc3C(=O)OCCOCCOCCOC(=O)c3ccc(-c4c5nc(c(-c6cc(S(=O)(=O)[O-])ccc6F)c6ccc([nH]6)c(-c6cc(S(=O)(=O)[O-])ccc6F)c6nc(c(-c7cc(S(=O)(=O)[O-])ccc7F)c7ccc4[nH]7)C=C6)C=C5)cc3)SC2=S)c1
REMARK SMILES IDX 25 1 24 2 23 3 22 4 21 5 19 6 20 7 18 8 13 9 14 10 15 11
REMARK SMILES IDX 17 12 16 13 12 14 8 15 9 16 97 17 10 18 11 19 96 20 98 21
REMARK SMILES IDX 7 22 3 23 4 24 99 25 5 26 6 27 2 28 1 29 26 30 27 31 28 32
REMARK SMILES IDX 29 33 30 34 31 35 32 36 33 37 34 38 95 39 35 40 94 41 36 42
REMARK SMILES IDX 37 43 38 44 88 45 39 46 93 47 87 48 89 49 40 50 92 51 86 52
REMARK SMILES IDX 85 53 41 55 73 56 53 57 72 58 54 59 57 60 71 61 90 62 55 63
REMARK SMILES IDX 56 64 70 66 91 67 58 68 42 69 43 70 51 71 44 72 50 73 52 74
REMARK SMILES IDX 49 75 45 76 46 77 47 78 48 79 74 80 75 81 83 82 76 83 82 84
REMARK SMILES IDX 84 85 81 86 77 87 78 88 79 89 80 90 59 91 60 92 68 93 61 94
REMARK SMILES IDX 67 95 69 96 66 97 62 98 63 99 64 100 65 101
REMARK H PARENT 89 54 57 65
REMARK Flexibility Score: inf
ROOT
ATOM      1  C   UNL A   1      33.657  33.654  27.980  1.00  0.00     0.188 C 
ENDROOT
BRANCH   1   2
ATOM      2  O   UNL A   1      34.082  32.388  28.481  1.00  0.00    -0.376 OA
BRANCH   2   3
ATOM      3  C   UNL A   1      34.261  31.310  27.568  1.00  0.00     0.202 C 
BRANCH   3   4
ATOM      4  C   UNL A   1      33.029  30.468  27.233  1.00  0.00     0.261 C 
BRANCH   4   5
ATOM      5  O   UNL A   1      32.933  30.184  25.826  1.00  0.00    -0.460 OA
BRANCH   5   6
ATOM      6  C   UNL A   1      32.624  28.906  25.492  1.00  0.00     0.338 C 
ATOM      7  O   UNL A   1      33.062  27.902  26.033  1.00  0.00    -0.246 OA
BRANCH   6   8
ATOM      8  C   UNL A   1      31.569  28.853  24.438  1.00  0.00     0.067 A 
ATOM      9  C   UNL A   1      31.477  27.876  23.420  1.00  0.00    -0.010 A 
ATOM     10  C   UNL A   1      30.432  27.974  22.484  1.00  0.00     0.009 A 
ATOM     11  C   UNL A   1      29.504  29.015  22.550  1.00  0.00     0.001 A 
ATOM     12  C   UNL A   1      30.628  29.895  24.489  1.00  0.00     0.016 A 
ATOM     13  C   UNL A   1      29.607  29.980  23.545  1.00  0.00     0.001 A 
BRANCH   9  14
ATOM     14  C   UNL A   1      32.464  26.807  23.196  1.00  0.00     0.030 C 
ATOM     15  N   UNL A   1      33.615  23.778  24.728  1.00  0.00    -0.261 N 
ATOM     16  C   UNL A   1      33.675  24.724  23.708  1.00  0.00     0.270 C 
ATOM     17  C   UNL A   1      32.489  23.835  25.544  1.00  0.00     0.152 C 
ATOM     18  O   UNL A   1      34.534  24.846  22.842  1.00  0.00    -0.268 OA
ATOM     19  C   UNL A   1      32.481  25.606  23.785  1.00  0.00     0.081 C 
ATOM     20  S   UNL A   1      31.311  24.929  24.838  1.00  0.00    -0.054 SA
ATOM     21  S   UNL A   1      32.212  23.124  27.034  1.00  0.00    -0.051 S 
BRANCH  15  22
ATOM     22  C   UNL A   1      34.645  22.804  24.863  1.00  0.00     0.054 A 
ATOM     23  C   UNL A   1      36.969  22.282  25.363  1.00  0.00     0.120 A 
ATOM     24  C   UNL A   1      36.707  20.930  25.160  1.00  0.00     0.046 A 
ATOM     25  C   UNL A   1      35.946  23.213  25.189  1.00  0.00     0.073 A 
ATOM     26  C   UNL A   1      35.414  20.504  24.857  1.00  0.00     0.006 A 
ATOM     27  C   UNL A   1      34.379  21.434  24.731  1.00  0.00     0.027 A 
BRANCH  23  28
ATOM     28  O   UNL A   1      38.253  22.600  25.715  1.00  0.00    -0.497 OA
ATOM     29  C   UNL A   1      38.388  23.765  26.526  1.00  0.00     0.278 C 
ENDBRANCH  23  28
ENDBRANCH  15  22
ENDBRANCH   9  14
ENDBRANCH   6   8
ENDBRANCH   5   6
ENDBRANCH   4   5
ENDBRANCH   3   4
ENDBRANCH   2   3
ENDBRANCH   1   2
BRANCH   1  30
ATOM     30  C   UNL A   1      33.689  34.874  28.923  1.00  0.00     0.188 C 
BRANCH  30  31
ATOM     31  O   UNL A   1      32.640  34.894  29.877  1.00  0.00    -0.376 OA
BRANCH  31  32
ATOM     32  C   UNL A   1      32.658  35.979  30.794  1.00  0.00     0.202 C 
BRANCH  32  33
ATOM     33  C   UNL A   1      32.744  35.602  32.280  1.00  0.00     0.261 C 
BRANCH  33  34
ATOM     34  O   UNL A   1      34.000  35.059  32.722  1.00  0.00    -0.460 OA
BRANCH  34  35
ATOM     35  C   UNL A   1      34.063  33.722  32.929  1.00  0.00     0.338 C 
ATOM     36  O   UNL A   1      33.139  32.992  33.236  1.00  0.00    -0.246 OA
BRANCH  35  37
ATOM     37  C   UNL A   1      35.414  33.268  32.520  1.00  0.00     0.060 A 
ATOM     38  C   UNL A   1      36.103  32.359  33.334  1.00  0.00     0.016 A 
ATOM     39  C   UNL A   1      35.987  33.714  31.326  1.00  0.00     0.016 A 
ATOM     40  C   UNL A   1      37.377  31.912  32.965  1.00  0.00     0.010 A 
ATOM     41  C   UNL A   1      37.269  33.281  30.967  1.00  0.00     0.010 A 
ATOM     42  C   UNL A   1      37.982  32.396  31.796  1.00  0.00    -0.014 A 
BRANCH  42  43
ATOM     43  C   UNL A   1      39.421  32.128  31.528  1.00  0.00     0.031 A 
ATOM     44  C   UNL A   1      40.440  33.077  32.103  1.00  0.00     0.074 A 
ATOM     45  C   UNL A   1      39.820  31.077  30.788  1.00  0.00     0.049 A 
ATOM     46  N   UNL A   1      41.740  33.086  31.964  1.00  0.00    -0.248 NA
ATOM     47  C   UNL A   1      39.917  34.165  32.945  1.00  0.00     0.031 C 
ATOM     48  C   UNL A   1      38.937  30.067  30.206  1.00  0.00     0.029 A 
ATOM     49  N   UNL A   1      41.078  30.691  30.390  1.00  0.00    -0.354 N 
ATOM     50  C   UNL A   1      42.191  34.183  32.693  1.00  0.00     0.074 A 
ATOM     51  C   UNL A   1      41.021  34.824  33.254  1.00  0.00     0.031 C 
ATOM     52  C   UNL A   1      39.682  29.185  29.513  1.00  0.00     0.029 A 
ATOM     53  C   UNL A   1      41.087  29.585  29.569  1.00  0.00     0.049 A 
ATOM     54  H   UNL A   1      41.897  31.161  30.666  1.00  0.00     0.167 HD
ATOM     55  C   UNL A   1      43.462  34.614  32.878  1.00  0.00     0.034 A 
ATOM     56  C   UNL A   1      42.108  28.986  28.919  1.00  0.00     0.034 A 
ATOM     57  C   UNL A   1      44.621  33.974  32.309  1.00  0.00     0.049 A 
ATOM     58  C   UNL A   1      43.509  29.541  29.077  1.00  0.00     0.074 A 
ATOM     59  C   UNL A   1      45.954  34.311  32.470  1.00  0.00     0.029 A 
ATOM     60  N   UNL A   1      44.587  32.881  31.455  1.00  0.00    -0.354 N 
ATOM     61  N   UNL A   1      43.923  30.553  29.805  1.00  0.00    -0.248 NA
ATOM     62  C   UNL A   1      44.579  28.867  28.326  1.00  0.00     0.031 C 
ATOM     63  C   UNL A   1      46.720  33.467  31.659  1.00  0.00     0.029 A 
ATOM     64  C   UNL A   1      45.873  32.555  31.050  1.00  0.00     0.049 A 
ATOM     65  H   UNL A   1      43.771  32.406  31.178  1.00  0.00     0.167 HD
ATOM     66  C   UNL A   1      45.305  30.605  29.630  1.00  0.00     0.074 A 
ATOM     67  C   UNL A   1      45.655  29.521  28.738  1.00  0.00     0.031 C 
ATOM     68  C   UNL A   1      46.208  31.467  30.164  1.00  0.00     0.034 A 
BRANCH  55  69
ATOM     69  C   UNL A   1      43.659  35.871  33.684  1.00  0.00     0.023 A 
ATOM     70  C   UNL A   1      43.503  37.148  33.120  1.00  0.00     0.031 A 
ATOM     71  C   UNL A   1      44.011  35.786  35.043  1.00  0.00     0.131 A 
ATOM     72  C   UNL A   1      43.747  38.290  33.898  1.00  0.00     0.055 A 
ATOM     73  C   UNL A   1      44.189  36.925  35.829  1.00  0.00     0.041 A 
ATOM     74  F   UNL A   1      44.196  34.591  35.627  1.00  0.00    -0.206 F 
ATOM     75  C   UNL A   1      44.066  38.187  35.255  1.00  0.00     0.022 A 
BRANCH  72  76
ATOM     76  S   UNL A   1      43.746  39.912  33.088  1.00  0.00     0.124 S 
ATOM     77  O   UNL A   1      44.982  40.499  33.598  1.00  0.00    -0.237 OA
ATOM     78  O   UNL A   1      43.743  39.559  31.674  1.00  0.00    -0.237 OA
ATOM     79  O   UNL A   1      42.518  40.538  33.578  1.00  0.00    -0.744 OA
ENDBRANCH  72  76
ENDBRANCH  55  69
BRANCH  56  80
ATOM     80  C   UNL A   1      41.869  27.823  28.012  1.00  0.00     0.023 A 
ATOM     81  C   UNL A   1      42.174  26.512  28.419  1.00  0.00     0.031 A 
ATOM     82  C   UNL A   1      41.437  28.015  26.688  1.00  0.00     0.131 A 
ATOM     83  C   UNL A   1      42.108  25.457  27.493  1.00  0.00     0.055 A 
ATOM     84  C   UNL A   1      41.313  26.954  25.789  1.00  0.00     0.041 A 
ATOM     85  F   UNL A   1      41.140  29.246  26.242  1.00  0.00    -0.206 F 
ATOM     86  C   UNL A   1      41.668  25.667  26.185  1.00  0.00     0.022 A 
BRANCH  83  87
ATOM     87  S   UNL A   1      42.728  23.826  27.991  1.00  0.00     0.124 S 
ATOM     88  O   UNL A   1      43.779  24.185  28.937  1.00  0.00    -0.237 OA
ATOM     89  O   UNL A   1      41.535  23.211  28.562  1.00  0.00    -0.237 OA
ATOM     90  O   UNL A   1      43.191  23.240  26.736  1.00  0.00    -0.744 OA
ENDBRANCH  83  87
ENDBRANCH  56  80
BRANCH  68  91
ATOM     91  C   UNL A   1      47.665  31.229  29.849  1.00  0.00     0.023 A 
ATOM     92  C   UNL A   1      48.462  30.365  30.621  1.00  0.00     0.031 A 
ATOM     93  C   UNL A   1      48.264  31.881  28.757  1.00  0.00     0.131 A 
ATOM     94  C   UNL A   1      49.825  30.218  30.323  1.00  0.00     0.055 A 
ATOM     95  C   UNL A   1      49.607  31.686  28.429  1.00  0.00     0.041 A 
ATOM     96  F   UNL A   1      47.550  32.716  27.984  1.00  0.00    -0.206 F 
ATOM     97  C   UNL A   1      50.398  30.860  29.222  1.00  0.00     0.022 A 
BRANCH  94  98
ATOM     98  S   UNL A   1      50.864  29.237  31.440  1.00  0.00     0.124 S 
ATOM     99  O   UNL A   1      49.942  28.193  31.874  1.00  0.00    -0.237 OA
ATOM    100  O   UNL A   1      51.946  28.805  30.562  1.00  0.00    -0.237 OA
ATOM    101  O   UNL A   1      51.252  30.192  32.476  1.00  0.00    -0.744 OA
ENDBRANCH  94  98
ENDBRANCH  68  91
ENDBRANCH  42  43
ENDBRANCH  35  37
ENDBRANCH  34  35
ENDBRANCH  33  34
ENDBRANCH  32  33
ENDBRANCH  31  32
ENDBRANCH  30  31
ENDBRANCH   1  30
TORSDOF 23
ENDMDL
MODEL 3
REMARK VINA RESULT:     -10.1      6.287     10.213
REMARK SMILES COc1cccc(N2C(=O)/C(=C/c3ccccc3C(=O)OCCOCCOCCOC(=O)c3ccc(-c4c5nc(c(-c6cc(S(=O)(=O)[O-])ccc6F)c6ccc([nH]6)c(-c6cc(S(=O)(=O)[O-])ccc6F)c6nc(c(-c7cc(S(=O)(=O)[O-])ccc7F)c7ccc4[nH]7)C=C6)C=C5)cc3)SC2=S)c1
REMARK SMILES IDX 25 1 24 2 23 3 22 4 21 5 19 6 20 7 18 8 13 9 14 10 15 11
REMARK SMILES IDX 17 12 16 13 12 14 8 15 9 16 97 17 10 18 11 19 96 20 98 21
REMARK SMILES IDX 7 22 3 23 4 24 99 25 5 26 6 27 2 28 1 29 26 30 27 31 28 32
REMARK SMILES IDX 29 33 30 34 31 35 32 36 33 37 34 38 95 39 35 40 94 41 36 42
REMARK SMILES IDX 37 43 38 44 88 45 39 46 93 47 87 48 89 49 40 50 92 51 86 52
REMARK SMILES IDX 85 53 41 55 73 56 53 57 72 58 54 59 57 60 71 61 90 62 55 63
REMARK SMILES IDX 56 64 70 66 91 67 58 68 42 69 43 70 51 71 44 72 50 73 52 74
REMARK SMILES IDX 49 75 45 76 46 77 47 78 48 79 74 80 75 81 83 82 76 83 82 84
REMARK SMILES IDX 84 85 81 86 77 87 78 88 79 89 80 90 59 91 60 92 68 93 61 94
REMARK SMILES IDX 67 95 69 96 66 97 62 98 63 99 64 100 65 101
REMARK H PARENT 89 54 57 65
REMARK Flexibility Score: inf
ROOT
ATOM      1  C   UNL A   1      35.124  32.828  27.994  1.00  0.00     0.188 C 
ENDROOT
BRANCH   1   2
ATOM      2  O   UNL A   1      33.755  32.437  27.915  1.00  0.00    -0.376 OA
BRANCH   2   3
ATOM      3  C   UNL A   1      33.422  31.221  27.254  1.00  0.00     0.202 C 
BRANCH   3   4
ATOM      4  C   UNL A   1      32.028  31.123  26.633  1.00  0.00     0.261 C 
BRANCH   4   5
ATOM      5  O   UNL A   1      31.667  29.765  26.323  1.00  0.00    -0.460 OA
BRANCH   5   6
ATOM      6  C   UNL A   1      31.945  29.343  25.064  1.00  0.00     0.338 C 
ATOM      7  O   UNL A   1      33.061  29.222  24.583  1.00  0.00    -0.246 OA
BRANCH   6   8
ATOM      8  C   UNL A   1      30.711  28.913  24.344  1.00  0.00     0.067 A 
ATOM      9  C   UNL A   1      30.212  27.591  24.292  1.00  0.00    -0.010 A 
ATOM     10  C   UNL A   1      29.043  27.340  23.551  1.00  0.00     0.009 A 
ATOM     11  C   UNL A   1      28.386  28.370  22.875  1.00  0.00     0.001 A 
ATOM     12  C   UNL A   1      30.039  29.938  23.657  1.00  0.00     0.016 A 
ATOM     13  C   UNL A   1      28.888  29.666  22.920  1.00  0.00     0.001 A 
BRANCH   9  14
ATOM     14  C   UNL A   1      30.888  26.420  24.874  1.00  0.00     0.030 C 
ATOM     15  N   UNL A   1      32.761  23.546  23.839  1.00  0.00    -0.261 N 
ATOM     16  C   UNL A   1      32.184  24.326  24.838  1.00  0.00     0.270 C 
ATOM     17  C   UNL A   1      32.870  24.142  22.586  1.00  0.00     0.152 C 
ATOM     18  O   UNL A   1      32.023  24.041  26.018  1.00  0.00    -0.268 OA
ATOM     19  C   UNL A   1      31.789  25.640  24.265  1.00  0.00     0.081 C 
ATOM     20  S   UNL A   1      32.501  25.854  22.722  1.00  0.00    -0.054 SA
ATOM     21  S   UNL A   1      33.180  23.449  21.095  1.00  0.00    -0.051 S 
BRANCH  15  22
ATOM     22  C   UNL A   1      33.237  22.236  24.138  1.00  0.00     0.054 A 
ATOM     23  C   UNL A   1      35.051  20.797  24.885  1.00  0.00     0.120 A 
ATOM     24  C   UNL A   1      34.221  19.687  24.756  1.00  0.00     0.046 A 
ATOM     25  C   UNL A   1      34.564  22.060  24.552  1.00  0.00     0.073 A 
ATOM     26  C   UNL A   1      32.891  19.847  24.365  1.00  0.00     0.006 A 
ATOM     27  C   UNL A   1      32.392  21.120  24.079  1.00  0.00     0.027 A 
BRANCH  23  28
ATOM     28  O   UNL A   1      36.322  20.549  25.330  1.00  0.00    -0.497 OA
ATOM     29  C   UNL A   1      37.349  21.290  24.673  1.00  0.00     0.278 C 
ENDBRANCH  23  28
ENDBRANCH  15  22
ENDBRANCH   9  14
ENDBRANCH   6   8
ENDBRANCH   5   6
ENDBRANCH   4   5
ENDBRANCH   3   4
ENDBRANCH   2   3
ENDBRANCH   1   2
BRANCH   1  30
ATOM     30  C   UNL A   1      35.750  33.060  29.384  1.00  0.00     0.188 C 
BRANCH  30  31
ATOM     31  O   UNL A   1      35.573  31.981  30.285  1.00  0.00    -0.376 OA
BRANCH  31  32
ATOM     32  C   UNL A   1      35.442  32.333  31.656  1.00  0.00     0.202 C 
BRANCH  32  33
ATOM     33  C   UNL A   1      36.026  31.333  32.665  1.00  0.00     0.261 C 
BRANCH  33  34
ATOM     34  O   UNL A   1      36.302  30.015  32.162  1.00  0.00    -0.460 OA
BRANCH  34  35
ATOM     35  C   UNL A   1      37.465  29.434  32.540  1.00  0.00     0.338 C 
ATOM     36  O   UNL A   1      37.586  28.389  33.152  1.00  0.00    -0.246 OA
BRANCH  35  37
ATOM     37  C   UNL A   1      38.572  30.186  31.903  1.00  0.00     0.060 A 
ATOM     38  C   UNL A   1      38.611  30.288  30.506  1.00  0.00     0.016 A 
ATOM     39  C   UNL A   1      39.550  30.813  32.680  1.00  0.00     0.016 A 
ATOM     40  C   UNL A   1      39.644  30.999  29.884  1.00  0.00     0.010 A 
ATOM     41  C   UNL A   1      40.593  31.508  32.055  1.00  0.00     0.010 A 
ATOM     42  C   UNL A   1      40.660  31.584  30.653  1.00  0.00    -0.014 A 
BRANCH  42  43
ATOM     43  C   UNL A   1      41.885  32.118  29.998  1.00  0.00     0.031 A 
ATOM     44  C   UNL A   1      43.006  31.157  29.697  1.00  0.00     0.074 A 
ATOM     45  C   UNL A   1      42.011  33.421  29.684  1.00  0.00     0.049 A 
ATOM     46  N   UNL A   1      44.186  31.390  29.185  1.00  0.00    -0.248 NA
ATOM     47  C   UNL A   1      42.759  29.743  30.023  1.00  0.00     0.031 C 
ATOM     48  C   UNL A   1      40.987  34.444  29.891  1.00  0.00     0.029 A 
ATOM     49  N   UNL A   1      43.065  34.109  29.132  1.00  0.00    -0.354 N 
ATOM     50  C   UNL A   1      44.827  30.155  29.134  1.00  0.00     0.074 A 
ATOM     51  C   UNL A   1      43.909  29.182  29.687  1.00  0.00     0.031 C 
ATOM     52  C   UNL A   1      41.470  35.633  29.484  1.00  0.00     0.029 A 
ATOM     53  C   UNL A   1      42.847  35.464  29.022  1.00  0.00     0.049 A 
ATOM     54  H   UNL A   1      43.898  33.673  28.841  1.00  0.00     0.167 HD
ATOM     55  C   UNL A   1      46.064  29.860  28.669  1.00  0.00     0.034 A 
ATOM     56  C   UNL A   1      43.676  36.454  28.622  1.00  0.00     0.034 A 
ATOM     57  C   UNL A   1      46.975  30.836  28.127  1.00  0.00     0.049 A 
ATOM     58  C   UNL A   1      45.084  36.105  28.187  1.00  0.00     0.074 A 
ATOM     59  C   UNL A   1      48.236  30.631  27.593  1.00  0.00     0.029 A 
ATOM     60  N   UNL A   1      46.735  32.202  28.067  1.00  0.00    -0.354 N 
ATOM     61  N   UNL A   1      45.659  34.927  28.104  1.00  0.00    -0.248 NA
ATOM     62  C   UNL A   1      45.952  37.222  27.787  1.00  0.00     0.031 C 
ATOM     63  C   UNL A   1      48.786  31.879  27.276  1.00  0.00     0.029 A 
ATOM     64  C   UNL A   1      47.839  32.855  27.541  1.00  0.00     0.049 A 
ATOM     65  H   UNL A   1      45.903  32.642  28.354  1.00  0.00     0.167 HD
ATOM     66  C   UNL A   1      46.938  35.163  27.603  1.00  0.00     0.074 A 
ATOM     67  C   UNL A   1      47.048  36.591  27.393  1.00  0.00     0.031 C 
ATOM     68  C   UNL A   1      47.933  34.280  27.332  1.00  0.00     0.034 A 
BRANCH  55  69
ATOM     69  C   UNL A   1      46.526  28.431  28.781  1.00  0.00     0.023 A 
ATOM     70  C   UNL A   1      46.348  27.509  27.736  1.00  0.00     0.031 A 
ATOM     71  C   UNL A   1      47.154  27.986  29.957  1.00  0.00     0.131 A 
ATOM     72  C   UNL A   1      46.749  26.175  27.906  1.00  0.00     0.055 A 
ATOM     73  C   UNL A   1      47.610  26.674  30.096  1.00  0.00     0.041 A 
ATOM     74  F   UNL A   1      47.329  28.818  30.995  1.00  0.00    -0.206 F 
ATOM     75  C   UNL A   1      47.400  25.757  29.070  1.00  0.00     0.022 A 
BRANCH  72  76
ATOM     76  S   UNL A   1      46.315  24.966  26.627  1.00  0.00     0.124 S 
ATOM     77  O   UNL A   1      47.130  23.817  27.016  1.00  0.00    -0.237 OA
ATOM     78  O   UNL A   1      44.876  24.818  26.807  1.00  0.00    -0.237 OA
ATOM     79  O   UNL A   1      46.724  25.619  25.384  1.00  0.00    -0.744 OA
ENDBRANCH  72  76
ENDBRANCH  55  69
BRANCH  56  80
ATOM     80  C   UNL A   1      43.241  37.883  28.652  1.00  0.00     0.023 A 
ATOM     81  C   UNL A   1      43.528  38.704  29.756  1.00  0.00     0.031 A 
ATOM     82  C   UNL A   1      42.438  38.417  27.629  1.00  0.00     0.131 A 
ATOM     83  C   UNL A   1      42.962  39.987  29.843  1.00  0.00     0.055 A 
ATOM     84  C   UNL A   1      41.928  39.715  27.691  1.00  0.00     0.041 A 
ATOM     85  F   UNL A   1      42.125  37.675  26.555  1.00  0.00    -0.206 F 
ATOM     86  C   UNL A   1      42.174  40.502  28.813  1.00  0.00     0.022 A 
BRANCH  83  87
ATOM     87  S   UNL A   1      43.167  40.924  31.384  1.00  0.00     0.124 S 
ATOM     88  O   UNL A   1      44.004  40.023  32.169  1.00  0.00    -0.237 OA
ATOM     89  O   UNL A   1      43.808  42.145  30.911  1.00  0.00    -0.237 OA
ATOM     90  O   UNL A   1      41.798  41.086  31.868  1.00  0.00    -0.744 OA
ENDBRANCH  83  87
ENDBRANCH  56  80
BRANCH  68  91
ATOM     91  C   UNL A   1      49.198  34.827  26.718  1.00  0.00     0.023 A 
ATOM     92  C   UNL A   1      50.352  35.074  27.483  1.00  0.00     0.031 A 
ATOM     93  C   UNL A   1      49.247  35.109  25.341  1.00  0.00     0.131 A 
ATOM     94  C   UNL A   1      51.486  35.636  26.877  1.00  0.00     0.055 A 
ATOM     95  C   UNL A   1      50.397  35.612  24.732  1.00  0.00     0.041 A 
ATOM     96  F   UNL A   1      48.175  34.890  24.561  1.00  0.00    -0.206 F 
ATOM     97  C   UNL A   1      51.521  35.890  25.504  1.00  0.00     0.022 A 
BRANCH  94  98
ATOM     98  S   UNL A   1      52.893  36.106  27.921  1.00  0.00     0.124 S 
ATOM     99  O   UNL A   1      52.691  35.268  29.099  1.00  0.00    -0.237 OA
ATOM    100  O   UNL A   1      54.035  35.758  27.081  1.00  0.00    -0.237 OA
ATOM    101  O   UNL A   1      52.698  37.538  28.137  1.00  0.00    -0.744 OA
ENDBRANCH  94  98
ENDBRANCH  68  91
ENDBRANCH  42  43
ENDBRANCH  35  37
ENDBRANCH  34  35
ENDBRANCH  33  34
ENDBRANCH  32  33
ENDBRANCH  31  32
ENDBRANCH  30  31
ENDBRANCH   1  30
TORSDOF 23
ENDMDL
