MODEL 1
REMARK VINA RESULT:      -9.8      0.000      0.000
REMARK SMILES CCc1cc(/C=C/C(=O)OCCOCCOCCOC(=O)c2ccc(-c3c4nc(c(-c5cc(S(=O)(=O)[O-])ccc5F)c5ccc([nH]5)c(-c5cc(S(=O)(=O)[O-])ccc5F)c5nc(c(-c6cc(S(=O)(=O)[O-])ccc6F)c6ccc3[nH]6)C=C5)C=C4)cc2)cc(C(=O)c2ccccc2)c1
REMARK SMILES IDX 14 1 13 2 12 3 11 4 10 5 8 6 9 7 7 8 6 9 5 10 3 11 4 12
REMARK SMILES IDX 95 13 86 14 85 15 2 16 1 17 87 18 88 19 89 20 90 21 94 22
REMARK SMILES IDX 91 23 93 24 92 25 15 26 16 27 17 28 18 29 19 30 20 31 21 32
REMARK SMILES IDX 22 33 23 34 84 35 24 36 83 37 25 38 26 39 27 40 77 41 28 42
REMARK SMILES IDX 82 43 76 44 78 45 29 46 81 47 75 48 74 49 30 51 62 52 42 53
REMARK SMILES IDX 61 54 43 55 46 56 60 57 79 58 44 59 45 60 59 62 80 63 47 64
REMARK SMILES IDX 31 65 32 66 40 67 33 68 39 69 41 70 38 71 34 72 35 73 36 74
REMARK SMILES IDX 37 75 63 76 64 77 72 78 65 79 71 80 73 81 70 82 66 83 67 84
REMARK SMILES IDX 68 85 69 86 48 87 49 88 57 89 50 90 56 91 58 92 55 93 51 94
REMARK SMILES IDX 52 95 53 96 54 97
REMARK H PARENT 78 50 46 61
REMARK Flexibility Score: inf
ROOT
ATOM      1  C   UNL A   1      35.731  22.462  25.593  1.00  0.00     0.188 C 
ENDROOT
BRANCH   1   2
ATOM      2  O   UNL A   1      34.566  21.672  25.814  1.00  0.00    -0.376 OA
BRANCH   2   3
ATOM      3  C   UNL A   1      34.173  21.352  27.140  1.00  0.00     0.202 C 
BRANCH   3   4
ATOM      4  C   UNL A   1      33.477  22.428  27.983  1.00  0.00     0.261 C 
BRANCH   4   5
ATOM      5  O   UNL A   1      32.045  22.310  28.037  1.00  0.00    -0.460 OA
BRANCH   5   6
ATOM      6  C   UNL A   1      31.377  22.834  26.979  1.00  0.00     0.330 C 
ATOM      7  O   UNL A   1      30.574  22.247  26.269  1.00  0.00    -0.247 OA
BRANCH   6   8
ATOM      8  C   UNL A   1      31.626  24.283  26.817  1.00  0.00     0.094 C 
ATOM      9  C   UNL A   1      31.581  24.968  25.662  1.00  0.00     0.015 C 
BRANCH   9  10
ATOM     10  C   UNL A   1      31.881  26.410  25.569  1.00  0.00    -0.024 A 
ATOM     11  C   UNL A   1      32.921  28.446  26.440  1.00  0.00    -0.047 A 
ATOM     12  C   UNL A   1      32.662  27.070  26.531  1.00  0.00     0.011 A 
ATOM     13  C   UNL A   1      32.405  29.168  25.358  1.00  0.00     0.016 A 
ATOM     14  C   UNL A   1      31.670  28.522  24.356  1.00  0.00     0.023 A 
ATOM     15  C   UNL A   1      31.413  27.145  24.471  1.00  0.00     0.020 A 
BRANCH  11  16
ATOM     16  C   UNL A   1      33.752  29.137  27.496  1.00  0.00     0.032 C 
ATOM     17  C   UNL A   1      35.232  29.145  27.143  1.00  0.00     0.009 C 
ENDBRANCH  11  16
BRANCH  14  18
ATOM     18  C   UNL A   1      31.087  29.258  23.193  1.00  0.00     0.193 C 
ATOM     19  O   UNL A   1      31.706  29.322  22.132  1.00  0.00    -0.289 OA
BRANCH  18  20
ATOM     20  C   UNL A   1      29.744  29.882  23.248  1.00  0.00     0.022 A 
ATOM     21  C   UNL A   1      29.638  31.177  23.766  1.00  0.00     0.012 A 
ATOM     22  C   UNL A   1      28.599  29.200  22.823  1.00  0.00     0.012 A 
ATOM     23  C   UNL A   1      28.395  31.809  23.813  1.00  0.00     0.001 A 
ATOM     24  C   UNL A   1      27.357  29.837  22.870  1.00  0.00     0.001 A 
ATOM     25  C   UNL A   1      27.257  31.142  23.358  1.00  0.00     0.000 A 
ENDBRANCH  18  20
ENDBRANCH  14  18
ENDBRANCH   9  10
ENDBRANCH   6   8
ENDBRANCH   5   6
ENDBRANCH   4   5
ENDBRANCH   3   4
ENDBRANCH   2   3
ENDBRANCH   1   2
BRANCH   1  26
ATOM     26  C   UNL A   1      36.839  21.970  24.638  1.00  0.00     0.188 C 
BRANCH  26  27
ATOM     27  O   UNL A   1      37.295  20.650  24.882  1.00  0.00    -0.376 OA
BRANCH  27  28
ATOM     28  C   UNL A   1      38.634  20.537  25.345  1.00  0.00     0.202 C 
BRANCH  28  29
ATOM     29  C   UNL A   1      39.175  21.761  26.098  1.00  0.00     0.261 C 
BRANCH  29  30
ATOM     30  O   UNL A   1      40.432  21.567  26.771  1.00  0.00    -0.460 OA
BRANCH  30  31
ATOM     31  C   UNL A   1      41.502  22.215  26.263  1.00  0.00     0.338 C 
ATOM     32  O   UNL A   1      42.235  21.820  25.368  1.00  0.00    -0.246 OA
BRANCH  31  33
ATOM     33  C   UNL A   1      41.538  23.573  26.845  1.00  0.00     0.060 A 
ATOM     34  C   UNL A   1      41.370  24.675  25.998  1.00  0.00     0.016 A 
ATOM     35  C   UNL A   1      41.736  23.762  28.216  1.00  0.00     0.016 A 
ATOM     36  C   UNL A   1      41.420  25.969  26.520  1.00  0.00     0.010 A 
ATOM     37  C   UNL A   1      41.799  25.062  28.734  1.00  0.00     0.010 A 
ATOM     38  C   UNL A   1      41.665  26.175  27.886  1.00  0.00    -0.014 A 
BRANCH  38  39
ATOM     39  C   UNL A   1      41.903  27.555  28.387  1.00  0.00     0.031 A 
ATOM     40  C   UNL A   1      43.314  28.079  28.449  1.00  0.00     0.074 A 
ATOM     41  C   UNL A   1      40.877  28.350  28.738  1.00  0.00     0.049 A 
ATOM     42  N   UNL A   1      43.748  29.265  28.792  1.00  0.00    -0.248 NA
ATOM     43  C   UNL A   1      44.376  27.135  28.070  1.00  0.00     0.031 C 
ATOM     44  C   UNL A   1      39.466  27.968  28.712  1.00  0.00     0.029 A 
ATOM     45  N   UNL A   1      40.863  29.651  29.181  1.00  0.00    -0.354 N 
ATOM     46  C   UNL A   1      45.132  29.217  28.660  1.00  0.00     0.074 A 
ATOM     47  C   UNL A   1      45.465  27.868  28.254  1.00  0.00     0.031 C 
ATOM     48  C   UNL A   1      38.723  29.012  29.118  1.00  0.00     0.029 A 
ATOM     49  C   UNL A   1      39.603  30.129  29.457  1.00  0.00     0.049 A 
ATOM     50  H   UNL A   1      41.680  30.190  29.292  1.00  0.00     0.167 HD
ATOM     51  C   UNL A   1      46.039  30.208  28.845  1.00  0.00     0.034 A 
ATOM     52  C   UNL A   1      39.206  31.327  29.935  1.00  0.00     0.034 A 
ATOM     53  C   UNL A   1      45.700  31.544  29.277  1.00  0.00     0.049 A 
ATOM     54  C   UNL A   1      40.242  32.392  30.208  1.00  0.00     0.074 A 
ATOM     55  C   UNL A   1      46.540  32.626  29.476  1.00  0.00     0.029 A 
ATOM     56  N   UNL A   1      44.420  31.976  29.599  1.00  0.00    -0.354 N 
ATOM     57  N   UNL A   1      41.544  32.346  30.038  1.00  0.00    -0.248 NA
ATOM     58  C   UNL A   1      39.749  33.676  30.724  1.00  0.00     0.031 C 
ATOM     59  C   UNL A   1      45.781  33.686  29.987  1.00  0.00     0.029 A 
ATOM     60  C   UNL A   1      44.453  33.296  30.029  1.00  0.00     0.049 A 
ATOM     61  H   UNL A   1      43.605  31.426  29.531  1.00  0.00     0.167 HD
ATOM     62  C   UNL A   1      42.020  33.604  30.402  1.00  0.00     0.074 A 
ATOM     63  C   UNL A   1      40.864  34.392  30.774  1.00  0.00     0.031 C 
ATOM     64  C   UNL A   1      43.297  34.068  30.425  1.00  0.00     0.034 A 
BRANCH  51  65
ATOM     65  C   UNL A   1      47.493  29.863  28.625  1.00  0.00     0.023 A 
ATOM     66  C   UNL A   1      48.304  29.379  29.668  1.00  0.00     0.031 A 
ATOM     67  C   UNL A   1      48.086  30.048  27.363  1.00  0.00     0.131 A 
ATOM     68  C   UNL A   1      49.674  29.166  29.448  1.00  0.00     0.055 A 
ATOM     69  C   UNL A   1      49.432  29.757  27.132  1.00  0.00     0.041 A 
ATOM     70  F   UNL A   1      47.368  30.527  26.335  1.00  0.00    -0.206 F 
ATOM     71  C   UNL A   1      50.238  29.328  28.182  1.00  0.00     0.022 A 
BRANCH  68  72
ATOM     72  S   UNL A   1      50.735  28.809  30.876  1.00  0.00     0.124 S 
ATOM     73  O   UNL A   1      51.626  27.784  30.335  1.00  0.00    -0.237 OA
ATOM     74  O   UNL A   1      51.345  30.105  31.149  1.00  0.00    -0.237 OA
ATOM     75  O   UNL A   1      49.798  28.334  31.891  1.00  0.00    -0.744 OA
ENDBRANCH  68  72
ENDBRANCH  51  65
BRANCH  52  76
ATOM     76  C   UNL A   1      37.765  31.589  30.221  1.00  0.00     0.023 A 
ATOM     77  C   UNL A   1      36.930  32.189  29.265  1.00  0.00     0.031 A 
ATOM     78  C   UNL A   1      37.218  31.300  31.483  1.00  0.00     0.131 A 
ATOM     79  C   UNL A   1      35.607  32.522  29.600  1.00  0.00     0.055 A 
ATOM     80  C   UNL A   1      35.888  31.585  31.796  1.00  0.00     0.041 A 
ATOM     81  F   UNL A   1      37.974  30.730  32.436  1.00  0.00    -0.206 F 
ATOM     82  C   UNL A   1      35.078  32.212  30.855  1.00  0.00     0.022 A 
BRANCH  79  83
ATOM     83  S   UNL A   1      34.611  33.447  28.398  1.00  0.00     0.124 S 
ATOM     84  O   UNL A   1      35.612  33.819  27.406  1.00  0.00    -0.237 OA
ATOM     85  O   UNL A   1      33.636  32.443  27.981  1.00  0.00    -0.237 OA
ATOM     86  O   UNL A   1      34.066  34.551  29.185  1.00  0.00    -0.744 OA
ENDBRANCH  79  83
ENDBRANCH  52  76
BRANCH  64  87
ATOM     87  C   UNL A   1      43.495  35.508  30.844  1.00  0.00     0.023 A 
ATOM     88  C   UNL A   1      43.487  35.892  32.197  1.00  0.00     0.031 A 
ATOM     89  C   UNL A   1      43.655  36.515  29.875  1.00  0.00     0.131 A 
ATOM     90  C   UNL A   1      43.559  37.252  32.539  1.00  0.00     0.055 A 
ATOM     91  C   UNL A   1      43.798  37.859  30.225  1.00  0.00     0.041 A 
ATOM     92  F   UNL A   1      43.669  36.210  28.566  1.00  0.00    -0.206 F 
ATOM     93  C   UNL A   1      43.732  38.236  31.563  1.00  0.00     0.022 A 
BRANCH  90  94
ATOM     94  S   UNL A   1      43.301  37.727  34.271  1.00  0.00     0.124 S 
ATOM     95  O   UNL A   1      42.979  39.146  34.152  1.00  0.00    -0.237 OA
ATOM     96  O   UNL A   1      42.204  36.855  34.674  1.00  0.00    -0.237 OA
ATOM     97  O   UNL A   1      44.588  37.436  34.901  1.00  0.00    -0.744 OA
ENDBRANCH  90  94
ENDBRANCH  64  87
ENDBRANCH  38  39
ENDBRANCH  31  33
ENDBRANCH  30  31
ENDBRANCH  29  30
ENDBRANCH  28  29
ENDBRANCH  27  28
ENDBRANCH  26  27
ENDBRANCH   1  26
TORSDOF 24
ENDMDL
MODEL 2
REMARK VINA RESULT:      -9.4      6.173      9.399
REMARK SMILES CCc1cc(/C=C/C(=O)OCCOCCOCCOC(=O)c2ccc(-c3c4nc(c(-c5cc(S(=O)(=O)[O-])ccc5F)c5ccc([nH]5)c(-c5cc(S(=O)(=O)[O-])ccc5F)c5nc(c(-c6cc(S(=O)(=O)[O-])ccc6F)c6ccc3[nH]6)C=C5)C=C4)cc2)cc(C(=O)c2ccccc2)c1
REMARK SMILES IDX 14 1 13 2 12 3 11 4 10 5 8 6 9 7 7 8 6 9 5 10 3 11 4 12
REMARK SMILES IDX 95 13 86 14 85 15 2 16 1 17 87 18 88 19 89 20 90 21 94 22
REMARK SMILES IDX 91 23 93 24 92 25 15 26 16 27 17 28 18 29 19 30 20 31 21 32
REMARK SMILES IDX 22 33 23 34 84 35 24 36 83 37 25 38 26 39 27 40 77 41 28 42
REMARK SMILES IDX 82 43 76 44 78 45 29 46 81 47 75 48 74 49 30 51 62 52 42 53
REMARK SMILES IDX 61 54 43 55 46 56 60 57 79 58 44 59 45 60 59 62 80 63 47 64
REMARK SMILES IDX 31 65 32 66 40 67 33 68 39 69 41 70 38 71 34 72 35 73 36 74
REMARK SMILES IDX 37 75 63 76 64 77 72 78 65 79 71 80 73 81 70 82 66 83 67 84
REMARK SMILES IDX 68 85 69 86 48 87 49 88 57 89 50 90 56 91 58 92 55 93 51 94
REMARK SMILES IDX 52 95 53 96 54 97
REMARK H PARENT 78 50 46 61
REMARK Flexibility Score: inf
ROOT
ATOM      1  C   UNL A   1      46.031  22.014  25.187  1.00  0.00     0.188 C 
ENDROOT
BRANCH   1   2
ATOM      2  O   UNL A   1      46.620  20.725  25.045  1.00  0.00    -0.376 OA
BRANCH   2   3
ATOM      3  C   UNL A   1      45.970  19.735  24.262  1.00  0.00     0.202 C 
BRANCH   3   4
ATOM      4  C   UNL A   1      44.925  18.835  24.931  1.00  0.00     0.261 C 
BRANCH   4   5
ATOM      5  O   UNL A   1      43.561  19.200  24.660  1.00  0.00    -0.460 OA
BRANCH   5   6
ATOM      6  C   UNL A   1      42.687  18.981  25.673  1.00  0.00     0.330 C 
ATOM      7  O   UNL A   1      42.155  17.916  25.951  1.00  0.00    -0.247 OA
BRANCH   6   8
ATOM      8  C   UNL A   1      42.509  20.172  26.532  1.00  0.00     0.094 C 
ATOM      9  C   UNL A   1      42.858  21.431  26.220  1.00  0.00     0.015 C 
BRANCH   9  10
ATOM     10  C   UNL A   1      42.687  22.567  27.146  1.00  0.00    -0.024 A 
ATOM     11  C   UNL A   1      43.517  24.033  28.920  1.00  0.00    -0.047 A 
ATOM     12  C   UNL A   1      43.703  22.964  28.030  1.00  0.00     0.011 A 
ATOM     13  C   UNL A   1      42.302  24.728  28.909  1.00  0.00     0.016 A 
ATOM     14  C   UNL A   1      41.294  24.387  27.998  1.00  0.00     0.023 A 
ATOM     15  C   UNL A   1      41.496  23.306  27.122  1.00  0.00     0.020 A 
BRANCH  11  16
ATOM     16  C   UNL A   1      44.619  24.432  29.873  1.00  0.00     0.032 C 
ATOM     17  C   UNL A   1      44.123  24.542  31.307  1.00  0.00     0.009 C 
ENDBRANCH  11  16
BRANCH  14  18
ATOM     18  C   UNL A   1      39.977  25.091  27.964  1.00  0.00     0.193 C 
ATOM     19  O   UNL A   1      38.937  24.447  27.839  1.00  0.00    -0.289 OA
BRANCH  18  20
ATOM     20  C   UNL A   1      39.864  26.559  28.132  1.00  0.00     0.022 A 
ATOM     21  C   UNL A   1      40.355  27.380  27.111  1.00  0.00     0.012 A 
ATOM     22  C   UNL A   1      39.310  27.128  29.283  1.00  0.00     0.012 A 
ATOM     23  C   UNL A   1      40.247  28.767  27.219  1.00  0.00     0.001 A 
ATOM     24  C   UNL A   1      39.201  28.517  29.386  1.00  0.00     0.001 A 
ATOM     25  C   UNL A   1      39.663  29.334  28.352  1.00  0.00     0.000 A 
ENDBRANCH  18  20
ENDBRANCH  14  18
ENDBRANCH   9  10
ENDBRANCH   6   8
ENDBRANCH   5   6
ENDBRANCH   4   5
ENDBRANCH   3   4
ENDBRANCH   2   3
ENDBRANCH   1   2
BRANCH   1  26
ATOM     26  C   UNL A   1      46.405  23.156  24.218  1.00  0.00     0.188 C 
BRANCH  26  27
ATOM     27  O   UNL A   1      47.063  24.258  24.819  1.00  0.00    -0.376 OA
BRANCH  27  28
ATOM     28  C   UNL A   1      47.821  25.078  23.939  1.00  0.00     0.202 C 
BRANCH  28  29
ATOM     29  C   UNL A   1      48.632  26.193  24.615  1.00  0.00     0.261 C 
BRANCH  29  30
ATOM     30  O   UNL A   1      48.355  27.527  24.151  1.00  0.00    -0.460 OA
BRANCH  30  31
ATOM     31  C   UNL A   1      47.078  27.954  24.253  1.00  0.00     0.338 C 
ATOM     32  O   UNL A   1      46.314  28.190  23.328  1.00  0.00    -0.246 OA
BRANCH  31  33
ATOM     33  C   UNL A   1      46.691  27.917  25.678  1.00  0.00     0.060 A 
ATOM     34  C   UNL A   1      47.278  28.831  26.562  1.00  0.00     0.016 A 
ATOM     35  C   UNL A   1      45.753  26.991  26.144  1.00  0.00     0.016 A 
ATOM     36  C   UNL A   1      46.943  28.804  27.917  1.00  0.00     0.010 A 
ATOM     37  C   UNL A   1      45.428  26.958  27.507  1.00  0.00     0.010 A 
ATOM     38  C   UNL A   1      46.039  27.848  28.406  1.00  0.00    -0.014 A 
BRANCH  38  39
ATOM     39  C   UNL A   1      45.841  27.713  29.874  1.00  0.00     0.031 A 
ATOM     40  C   UNL A   1      46.921  27.069  30.703  1.00  0.00     0.074 A 
ATOM     41  C   UNL A   1      44.737  28.199  30.471  1.00  0.00     0.049 A 
ATOM     42  N   UNL A   1      46.987  26.903  32.000  1.00  0.00    -0.248 NA
ATOM     43  C   UNL A   1      48.081  26.545  29.968  1.00  0.00     0.031 C 
ATOM     44  C   UNL A   1      43.626  28.854  29.784  1.00  0.00     0.029 A 
ATOM     45  N   UNL A   1      44.371  28.220  31.795  1.00  0.00    -0.354 N 
ATOM     46  C   UNL A   1      48.200  26.265  32.239  1.00  0.00     0.074 A 
ATOM     47  C   UNL A   1      48.811  26.033  30.947  1.00  0.00     0.031 C 
ATOM     48  C   UNL A   1      42.704  29.217  30.692  1.00  0.00     0.029 A 
ATOM     49  C   UNL A   1      43.144  28.799  32.022  1.00  0.00     0.049 A 
ATOM     50  H   UNL A   1      44.935  27.854  32.515  1.00  0.00     0.167 HD
ATOM     51  C   UNL A   1      48.761  25.920  33.425  1.00  0.00     0.034 A 
ATOM     52  C   UNL A   1      42.452  28.964  33.168  1.00  0.00     0.034 A 
ATOM     53  C   UNL A   1      48.132  26.132  34.708  1.00  0.00     0.049 A 
ATOM     54  C   UNL A   1      43.063  28.503  34.471  1.00  0.00     0.074 A 
ATOM     55  C   UNL A   1      48.622  25.837  35.969  1.00  0.00     0.029 A 
ATOM     56  N   UNL A   1      46.866  26.672  34.895  1.00  0.00    -0.354 N 
ATOM     57  N   UNL A   1      44.230  27.940  34.687  1.00  0.00    -0.248 NA
ATOM     58  C   UNL A   1      42.264  28.713  35.686  1.00  0.00     0.031 C 
ATOM     59  C   UNL A   1      47.626  26.129  36.909  1.00  0.00     0.029 A 
ATOM     60  C   UNL A   1      46.544  26.683  36.246  1.00  0.00     0.049 A 
ATOM     61  H   UNL A   1      46.280  26.999  34.174  1.00  0.00     0.167 HD
ATOM     62  C   UNL A   1      44.314  27.754  36.065  1.00  0.00     0.074 A 
ATOM     63  C   UNL A   1      43.092  28.289  36.630  1.00  0.00     0.031 C 
ATOM     64  C   UNL A   1      45.310  27.194  36.800  1.00  0.00     0.034 A 
BRANCH  51  65
ATOM     65  C   UNL A   1      50.105  25.233  33.380  1.00  0.00     0.023 A 
ATOM     66  C   UNL A   1      50.218  23.841  33.203  1.00  0.00     0.031 A 
ATOM     67  C   UNL A   1      51.290  25.972  33.545  1.00  0.00     0.131 A 
ATOM     68  C   UNL A   1      51.479  23.227  33.267  1.00  0.00     0.055 A 
ATOM     69  C   UNL A   1      52.546  25.365  33.528  1.00  0.00     0.041 A 
ATOM     70  F   UNL A   1      51.244  27.300  33.739  1.00  0.00    -0.206 F 
ATOM     71  C   UNL A   1      52.645  23.982  33.404  1.00  0.00     0.022 A 
BRANCH  68  72
ATOM     72  S   UNL A   1      51.559  21.416  33.312  1.00  0.00     0.124 S 
ATOM     73  O   UNL A   1      52.231  21.180  34.587  1.00  0.00    -0.237 OA
ATOM     74  O   UNL A   1      50.153  21.035  33.251  1.00  0.00    -0.237 OA
ATOM     75  O   UNL A   1      52.349  21.078  32.129  1.00  0.00    -0.744 OA
ENDBRANCH  68  72
ENDBRANCH  51  65
BRANCH  52  76
ATOM     76  C   UNL A   1      41.088  29.570  33.150  1.00  0.00     0.023 A 
ATOM     77  C   UNL A   1      40.894  30.937  33.402  1.00  0.00     0.031 A 
ATOM     78  C   UNL A   1      39.950  28.770  32.942  1.00  0.00     0.131 A 
ATOM     79  C   UNL A   1      39.591  31.456  33.485  1.00  0.00     0.055 A 
ATOM     80  C   UNL A   1      38.659  29.299  32.974  1.00  0.00     0.041 A 
ATOM     81  F   UNL A   1      40.079  27.455  32.702  1.00  0.00    -0.206 F 
ATOM     82  C   UNL A   1      38.474  30.649  33.260  1.00  0.00     0.022 A 
BRANCH  79  83
ATOM     83  S   UNL A   1      39.374  33.189  33.977  1.00  0.00     0.124 S 
ATOM     84  O   UNL A   1      38.802  33.050  35.311  1.00  0.00    -0.237 OA
ATOM     85  O   UNL A   1      40.743  33.692  33.915  1.00  0.00    -0.237 OA
ATOM     86  O   UNL A   1      38.471  33.722  32.960  1.00  0.00    -0.744 OA
ENDBRANCH  79  83
ENDBRANCH  52  76
BRANCH  64  87
ATOM     87  C   UNL A   1      45.121  27.163  38.300  1.00  0.00     0.023 A 
ATOM     88  C   UNL A   1      45.519  28.236  39.118  1.00  0.00     0.031 A 
ATOM     89  C   UNL A   1      44.571  26.029  38.924  1.00  0.00     0.131 A 
ATOM     90  C   UNL A   1      45.433  28.122  40.515  1.00  0.00     0.055 A 
ATOM     91  C   UNL A   1      44.422  25.950  40.311  1.00  0.00     0.041 A 
ATOM     92  F   UNL A   1      44.175  24.971  38.197  1.00  0.00    -0.206 F 
ATOM     93  C   UNL A   1      44.871  26.993  41.115  1.00  0.00     0.022 A 
BRANCH  90  94
ATOM     94  S   UNL A   1      46.177  29.420  41.541  1.00  0.00     0.124 S 
ATOM     95  O   UNL A   1      47.597  29.267  41.240  1.00  0.00    -0.237 OA
ATOM     96  O   UNL A   1      45.543  30.628  41.025  1.00  0.00    -0.237 OA
ATOM     97  O   UNL A   1      45.789  29.048  42.900  1.00  0.00    -0.744 OA
ENDBRANCH  90  94
ENDBRANCH  64  87
ENDBRANCH  38  39
ENDBRANCH  31  33
ENDBRANCH  30  31
ENDBRANCH  29  30
ENDBRANCH  28  29
ENDBRANCH  27  28
ENDBRANCH  26  27
ENDBRANCH   1  26
TORSDOF 24
ENDMDL
MODEL 3
REMARK VINA RESULT:      -8.5      5.483      9.387
REMARK SMILES CCc1cc(/C=C/C(=O)OCCOCCOCCOC(=O)c2ccc(-c3c4nc(c(-c5cc(S(=O)(=O)[O-])ccc5F)c5ccc([nH]5)c(-c5cc(S(=O)(=O)[O-])ccc5F)c5nc(c(-c6cc(S(=O)(=O)[O-])ccc6F)c6ccc3[nH]6)C=C5)C=C4)cc2)cc(C(=O)c2ccccc2)c1
REMARK SMILES IDX 14 1 13 2 12 3 11 4 10 5 8 6 9 7 7 8 6 9 5 10 3 11 4 12
REMARK SMILES IDX 95 13 86 14 85 15 2 16 1 17 87 18 88 19 89 20 90 21 94 22
REMARK SMILES IDX 91 23 93 24 92 25 15 26 16 27 17 28 18 29 19 30 20 31 21 32
REMARK SMILES IDX 22 33 23 34 84 35 24 36 83 37 25 38 26 39 27 40 77 41 28 42
REMARK SMILES IDX 82 43 76 44 78 45 29 46 81 47 75 48 74 49 30 51 62 52 42 53
REMARK SMILES IDX 61 54 43 55 46 56 60 57 79 58 44 59 45 60 59 62 80 63 47 64
REMARK SMILES IDX 31 65 32 66 40 67 33 68 39 69 41 70 38 71 34 72 35 73 36 74
REMARK SMILES IDX 37 75 63 76 64 77 72 78 65 79 71 80 73 81 70 82 66 83 67 84
REMARK SMILES IDX 68 85 69 86 48 87 49 88 57 89 50 90 56 91 58 92 55 93 51 94
REMARK SMILES IDX 52 95 53 96 54 97
REMARK H PARENT 78 50 46 61
REMARK Flexibility Score: inf
ROOT
ATOM      1  C   UNL A   1      44.882  22.530  26.187  1.00  0.00     0.188 C 
ENDROOT
BRANCH   1   2
ATOM      2  O   UNL A   1      45.900  21.696  25.641  1.00  0.00    -0.376 OA
BRANCH   2   3
ATOM      3  C   UNL A   1      45.573  20.753  24.632  1.00  0.00     0.202 C 
BRANCH   3   4
ATOM      4  C   UNL A   1      44.956  19.412  25.047  1.00  0.00     0.261 C 
BRANCH   4   5
ATOM      5  O   UNL A   1      43.567  19.263  24.707  1.00  0.00    -0.460 OA
BRANCH   5   6
ATOM      6  C   UNL A   1      42.707  19.278  25.755  1.00  0.00     0.330 C 
ATOM      7  O   UNL A   1      42.611  18.424  26.624  1.00  0.00    -0.247 OA
BRANCH   6   8
ATOM      8  C   UNL A   1      41.931  20.535  25.829  1.00  0.00     0.094 C 
ATOM      9  C   UNL A   1      40.977  20.823  26.731  1.00  0.00     0.015 C 
BRANCH   9  10
ATOM     10  C   UNL A   1      40.214  22.085  26.721  1.00  0.00    -0.024 A 
ATOM     11  C   UNL A   1      38.241  23.394  26.105  1.00  0.00    -0.047 A 
ATOM     12  C   UNL A   1      38.946  22.181  26.126  1.00  0.00     0.011 A 
ATOM     13  C   UNL A   1      38.807  24.524  26.707  1.00  0.00     0.016 A 
ATOM     14  C   UNL A   1      40.046  24.440  27.356  1.00  0.00     0.023 A 
ATOM     15  C   UNL A   1      40.740  23.218  27.356  1.00  0.00     0.020 A 
BRANCH  11  16
ATOM     16  C   UNL A   1      36.884  23.476  25.445  1.00  0.00     0.032 C 
ATOM     17  C   UNL A   1      35.806  22.784  26.267  1.00  0.00     0.009 C 
ENDBRANCH  11  16
BRANCH  14  18
ATOM     18  C   UNL A   1      40.693  25.625  27.996  1.00  0.00     0.193 C 
ATOM     19  O   UNL A   1      41.914  25.658  28.139  1.00  0.00    -0.289 OA
BRANCH  18  20
ATOM     20  C   UNL A   1      39.915  26.810  28.428  1.00  0.00     0.022 A 
ATOM     21  C   UNL A   1      39.263  26.758  29.664  1.00  0.00     0.012 A 
ATOM     22  C   UNL A   1      39.802  27.949  27.623  1.00  0.00     0.012 A 
ATOM     23  C   UNL A   1      38.539  27.861  30.118  1.00  0.00     0.001 A 
ATOM     24  C   UNL A   1      39.079  29.052  28.082  1.00  0.00     0.001 A 
ATOM     25  C   UNL A   1      38.454  29.010  29.331  1.00  0.00     0.000 A 
ENDBRANCH  18  20
ENDBRANCH  14  18
ENDBRANCH   9  10
ENDBRANCH   6   8
ENDBRANCH   5   6
ENDBRANCH   4   5
ENDBRANCH   3   4
ENDBRANCH   2   3
ENDBRANCH   1   2
BRANCH   1  26
ATOM     26  C   UNL A   1      44.679  23.965  25.657  1.00  0.00     0.188 C 
BRANCH  26  27
ATOM     27  O   UNL A   1      45.772  24.841  25.870  1.00  0.00    -0.376 OA
BRANCH  27  28
ATOM     28  C   UNL A   1      46.719  24.915  24.812  1.00  0.00     0.202 C 
BRANCH  28  29
ATOM     29  C   UNL A   1      48.142  25.314  25.230  1.00  0.00     0.261 C 
BRANCH  29  30
ATOM     30  O   UNL A   1      48.589  26.595  24.753  1.00  0.00    -0.460 OA
BRANCH  30  31
ATOM     31  C   UNL A   1      47.640  27.439  24.295  1.00  0.00     0.338 C 
ATOM     32  O   UNL A   1      47.252  27.541  23.139  1.00  0.00    -0.246 OA
BRANCH  31  33
ATOM     33  C   UNL A   1      47.011  28.102  25.456  1.00  0.00     0.060 A 
ATOM     34  C   UNL A   1      47.833  28.679  26.432  1.00  0.00     0.016 A 
ATOM     35  C   UNL A   1      45.620  28.158  25.584  1.00  0.00     0.016 A 
ATOM     36  C   UNL A   1      47.263  29.293  27.548  1.00  0.00     0.010 A 
ATOM     37  C   UNL A   1      45.051  28.764  26.712  1.00  0.00     0.010 A 
ATOM     38  C   UNL A   1      45.870  29.315  27.713  1.00  0.00    -0.014 A 
BRANCH  38  39
ATOM     39  C   UNL A   1      45.293  29.803  28.994  1.00  0.00     0.031 A 
ATOM     40  C   UNL A   1      44.674  31.176  29.044  1.00  0.00     0.074 A 
ATOM     41  C   UNL A   1      45.274  29.019  30.088  1.00  0.00     0.049 A 
ATOM     42  N   UNL A   1      44.061  31.777  30.032  1.00  0.00    -0.248 NA
ATOM     43  C   UNL A   1      44.759  31.973  27.812  1.00  0.00     0.031 C 
ATOM     44  C   UNL A   1      45.828  27.669  30.167  1.00  0.00     0.029 A 
ATOM     45  N   UNL A   1      44.765  29.247  31.343  1.00  0.00    -0.354 N 
ATOM     46  C   UNL A   1      43.676  33.020  29.539  1.00  0.00     0.074 A 
ATOM     47  C   UNL A   1      44.170  33.101  28.181  1.00  0.00     0.031 C 
ATOM     48  C   UNL A   1      45.624  27.186  31.405  1.00  0.00     0.029 A 
ATOM     49  C   UNL A   1      44.950  28.198  32.215  1.00  0.00     0.049 A 
ATOM     50  H   UNL A   1      44.310  30.083  31.597  1.00  0.00     0.167 HD
ATOM     51  C   UNL A   1      42.964  33.996  30.156  1.00  0.00     0.034 A 
ATOM     52  C   UNL A   1      44.621  28.074  33.517  1.00  0.00     0.034 A 
ATOM     53  C   UNL A   1      42.499  33.917  31.520  1.00  0.00     0.049 A 
ATOM     54  C   UNL A   1      43.895  29.205  34.206  1.00  0.00     0.074 A 
ATOM     55  C   UNL A   1      41.753  34.842  32.233  1.00  0.00     0.029 A 
ATOM     56  N   UNL A   1      42.751  32.864  32.389  1.00  0.00    -0.354 N 
ATOM     57  N   UNL A   1      43.499  30.358  33.715  1.00  0.00    -0.248 NA
ATOM     58  C   UNL A   1      43.560  29.009  35.623  1.00  0.00     0.031 C 
ATOM     59  C   UNL A   1      41.620  34.381  33.548  1.00  0.00     0.029 A 
ATOM     60  C   UNL A   1      42.209  33.132  33.639  1.00  0.00     0.049 A 
ATOM     61  H   UNL A   1      43.244  32.044  32.153  1.00  0.00     0.167 HD
ATOM     62  C   UNL A   1      42.846  31.011  34.758  1.00  0.00     0.074 A 
ATOM     63  C   UNL A   1      42.879  30.114  35.894  1.00  0.00     0.031 C 
ATOM     64  C   UNL A   1      42.269  32.241  34.776  1.00  0.00     0.034 A 
BRANCH  51  65
ATOM     65  C   UNL A   1      42.688  35.254  29.365  1.00  0.00     0.023 A 
ATOM     66  C   UNL A   1      43.625  36.302  29.293  1.00  0.00     0.031 A 
ATOM     67  C   UNL A   1      41.462  35.422  28.699  1.00  0.00     0.131 A 
ATOM     68  C   UNL A   1      43.292  37.494  28.633  1.00  0.00     0.055 A 
ATOM     69  C   UNL A   1      41.168  36.580  27.977  1.00  0.00     0.041 A 
ATOM     70  F   UNL A   1      40.520  34.467  28.749  1.00  0.00    -0.206 F 
ATOM     71  C   UNL A   1      42.080  37.631  27.953  1.00  0.00     0.022 A 
BRANCH  68  72
ATOM     72  S   UNL A   1      44.408  38.915  28.795  1.00  0.00     0.124 S 
ATOM     73  O   UNL A   1      45.442  38.381  29.679  1.00  0.00    -0.237 OA
ATOM     74  O   UNL A   1      44.812  39.160  27.415  1.00  0.00    -0.237 OA
ATOM     75  O   UNL A   1      43.564  39.949  29.391  1.00  0.00    -0.744 OA
ENDBRANCH  68  72
ENDBRANCH  51  65
BRANCH  52  76
ATOM     76  C   UNL A   1      44.994  26.845  34.279  1.00  0.00     0.023 A 
ATOM     77  C   UNL A   1      44.356  25.617  34.041  1.00  0.00     0.031 A 
ATOM     78  C   UNL A   1      45.954  26.900  35.305  1.00  0.00     0.131 A 
ATOM     79  C   UNL A   1      44.652  24.506  34.847  1.00  0.00     0.055 A 
ATOM     80  C   UNL A   1      46.283  25.780  36.071  1.00  0.00     0.041 A 
ATOM     81  F   UNL A   1      46.591  28.050  35.578  1.00  0.00    -0.206 F 
ATOM     82  C   UNL A   1      45.620  24.576  35.851  1.00  0.00     0.022 A 
BRANCH  79  83
ATOM     83  S   UNL A   1      43.689  22.986  34.620  1.00  0.00     0.124 S 
ATOM     84  O   UNL A   1      44.499  22.010  35.339  1.00  0.00    -0.237 OA
ATOM     85  O   UNL A   1      42.415  23.341  35.238  1.00  0.00    -0.237 OA
ATOM     86  O   UNL A   1      43.649  22.820  33.169  1.00  0.00    -0.744 OA
ENDBRANCH  79  83
ENDBRANCH  52  76
BRANCH  64  87
ATOM     87  C   UNL A   1      41.603  32.667  36.066  1.00  0.00     0.023 A 
ATOM     88  C   UNL A   1      40.315  32.221  36.415  1.00  0.00     0.031 A 
ATOM     89  C   UNL A   1      42.249  33.561  36.939  1.00  0.00     0.131 A 
ATOM     90  C   UNL A   1      39.686  32.728  37.563  1.00  0.00     0.055 A 
ATOM     91  C   UNL A   1      41.644  34.007  38.117  1.00  0.00     0.041 A 
ATOM     92  F   UNL A   1      43.478  34.024  36.659  1.00  0.00    -0.206 F 
ATOM     93  C   UNL A   1      40.349  33.605  38.424  1.00  0.00     0.022 A 
BRANCH  90  94
ATOM     94  S   UNL A   1      37.941  32.319  37.849  1.00  0.00     0.124 S 
ATOM     95  O   UNL A   1      37.810  31.044  37.152  1.00  0.00    -0.237 OA
ATOM     96  O   UNL A   1      37.868  32.261  39.305  1.00  0.00    -0.237 OA
ATOM     97  O   UNL A   1      37.224  33.436  37.237  1.00  0.00    -0.744 OA
ENDBRANCH  90  94
ENDBRANCH  64  87
ENDBRANCH  38  39
ENDBRANCH  31  33
ENDBRANCH  30  31
ENDBRANCH  29  30
ENDBRANCH  28  29
ENDBRANCH  27  28
ENDBRANCH  26  27
ENDBRANCH   1  26
TORSDOF 24
ENDMDL
