MODEL 1
REMARK VINA RESULT:     -10.3      0.000      0.000
REMARK SMILES O=C(OCCOCCOCCOC(=O)c1c(-c2ccc(Cl)cc2)noc1CO[C@@H]1CCCCO1)c1ccc(-c2c3nc(c(-c4cc(S(=O)(=O)[O-])ccc4F)c4ccc([nH]4)c(-c4cc(S(=O)(=O)[O-])ccc4F)c4nc(c(-c5cc(S(=O)(=O)[O-])ccc5F)c5ccc2[nH]5)C=C4)C=C3)cc1
REMARK SMILES IDX 7 1 6 2 5 3 4 4 3 5 2 6 1 7 35 8 36 9 97 10 37 11 96 12
REMARK SMILES IDX 38 13 39 14 40 15 90 16 41 17 95 18 89 19 91 20 42 21 94 22
REMARK SMILES IDX 88 23 87 24 43 26 75 27 55 28 74 29 56 30 59 31 73 32 92 33
REMARK SMILES IDX 57 34 58 35 72 37 93 38 60 39 44 40 45 41 53 42 46 43 52 44
REMARK SMILES IDX 54 45 51 46 47 47 48 48 49 49 50 50 76 51 77 52 85 53 78 54
REMARK SMILES IDX 84 55 86 56 83 57 79 58 80 59 81 60 82 61 61 62 62 63 70 64
REMARK SMILES IDX 63 65 69 66 71 67 68 68 64 69 65 70 66 71 67 72 8 73 9 74
REMARK SMILES IDX 10 75 11 76 12 77 13 78 14 79 15 80 16 81 26 82 24 83 25 84
REMARK SMILES IDX 17 85 18 86 23 87 19 88 22 89 20 90 21 91 27 92 28 93 29 94
REMARK SMILES IDX 30 95 34 96 31 97 33 98 32 99
REMARK H PARENT 91 25 59 36
REMARK Flexibility Score: inf
ROOT
ATOM      1  C   UNL A   1      33.833  31.048  27.074  1.00  0.00     0.188 C 
ENDROOT
BRANCH   1   2
ATOM      2  O   UNL A   1      32.421  30.829  27.215  1.00  0.00    -0.376 OA
BRANCH   2   3
ATOM      3  C   UNL A   1      31.636  32.009  27.037  1.00  0.00     0.202 C 
BRANCH   3   4
ATOM      4  C   UNL A   1      32.531  33.253  27.021  1.00  0.00     0.261 C 
BRANCH   4   5
ATOM      5  O   UNL A   1      32.396  34.071  28.202  1.00  0.00    -0.460 OA
BRANCH   5   6
ATOM      6  C   UNL A   1      33.464  34.716  28.736  1.00  0.00     0.338 C 
ATOM      7  O   UNL A   1      33.409  35.900  29.048  1.00  0.00    -0.246 OA
BRANCH   6   8
ATOM      8  C   UNL A   1      34.561  33.851  29.244  1.00  0.00     0.060 A 
ATOM      9  C   UNL A   1      34.347  32.714  30.028  1.00  0.00     0.016 A 
ATOM     10  C   UNL A   1      35.866  34.172  28.848  1.00  0.00     0.016 A 
ATOM     11  C   UNL A   1      35.428  31.965  30.498  1.00  0.00     0.010 A 
ATOM     12  C   UNL A   1      36.948  33.401  29.285  1.00  0.00     0.010 A 
ATOM     13  C   UNL A   1      36.737  32.313  30.143  1.00  0.00    -0.014 A 
BRANCH  13  14
ATOM     14  C   UNL A   1      37.879  31.579  30.733  1.00  0.00     0.031 A 
ATOM     15  C   UNL A   1      38.323  31.900  32.133  1.00  0.00     0.074 A 
ATOM     16  C   UNL A   1      38.502  30.613  30.035  1.00  0.00     0.049 A 
ATOM     17  N   UNL A   1      39.297  31.379  32.831  1.00  0.00    -0.248 NA
ATOM     18  C   UNL A   1      37.569  32.950  32.833  1.00  0.00     0.031 C 
ATOM     19  C   UNL A   1      38.163  30.201  28.672  1.00  0.00     0.029 A 
ATOM     20  N   UNL A   1      39.557  29.808  30.378  1.00  0.00    -0.354 N 
ATOM     21  C   UNL A   1      39.275  32.034  34.056  1.00  0.00     0.074 A 
ATOM     22  C   UNL A   1      38.213  33.016  33.988  1.00  0.00     0.031 C 
ATOM     23  C   UNL A   1      38.998  29.218  28.296  1.00  0.00     0.029 A 
ATOM     24  C   UNL A   1      39.944  28.953  29.375  1.00  0.00     0.049 A 
ATOM     25  H   UNL A   1      39.995  29.840  31.260  1.00  0.00     0.167 HD
ATOM     26  C   UNL A   1      40.054  31.827  35.145  1.00  0.00     0.034 A 
ATOM     27  C   UNL A   1      40.964  28.076  29.322  1.00  0.00     0.034 A 
ATOM     28  C   UNL A   1      41.107  30.849  35.217  1.00  0.00     0.049 A 
ATOM     29  C   UNL A   1      41.886  27.943  30.500  1.00  0.00     0.074 A 
ATOM     30  C   UNL A   1      41.897  30.499  36.298  1.00  0.00     0.029 A 
ATOM     31  N   UNL A   1      41.531  30.072  34.148  1.00  0.00    -0.354 N 
ATOM     32  N   UNL A   1      41.832  28.549  31.662  1.00  0.00    -0.248 NA
ATOM     33  C   UNL A   1      43.017  27.017  30.351  1.00  0.00     0.031 C 
ATOM     34  C   UNL A   1      42.828  29.541  35.870  1.00  0.00     0.029 A 
ATOM     35  C   UNL A   1      42.596  29.274  34.531  1.00  0.00     0.049 A 
ATOM     36  H   UNL A   1      41.132  30.086  33.248  1.00  0.00     0.167 HD
ATOM     37  C   UNL A   1      42.918  28.070  32.386  1.00  0.00     0.074 A 
ATOM     38  C   UNL A   1      43.614  27.131  31.530  1.00  0.00     0.031 C 
ATOM     39  C   UNL A   1      43.297  28.370  33.654  1.00  0.00     0.034 A 
BRANCH  26  40
ATOM     40  C   UNL A   1      39.794  32.715  36.329  1.00  0.00     0.023 A 
ATOM     41  C   UNL A   1      40.656  33.780  36.641  1.00  0.00     0.031 A 
ATOM     42  C   UNL A   1      38.728  32.439  37.200  1.00  0.00     0.131 A 
ATOM     43  C   UNL A   1      40.477  34.491  37.835  1.00  0.00     0.055 A 
ATOM     44  C   UNL A   1      38.522  33.188  38.360  1.00  0.00     0.041 A 
ATOM     45  F   UNL A   1      37.895  31.415  36.956  1.00  0.00    -0.206 F 
ATOM     46  C   UNL A   1      39.407  34.212  38.690  1.00  0.00     0.022 A 
BRANCH  43  47
ATOM     47  S   UNL A   1      41.737  35.703  38.319  1.00  0.00     0.124 S 
ATOM     48  O   UNL A   1      41.304  36.060  39.668  1.00  0.00    -0.237 OA
ATOM     49  O   UNL A   1      42.969  34.929  38.228  1.00  0.00    -0.237 OA
ATOM     50  O   UNL A   1      41.592  36.765  37.325  1.00  0.00    -0.744 OA
ENDBRANCH  43  47
ENDBRANCH  26  40
BRANCH  27  51
ATOM     51  C   UNL A   1      41.204  27.294  28.083  1.00  0.00     0.023 A 
ATOM     52  C   UNL A   1      40.910  25.925  28.026  1.00  0.00     0.031 A 
ATOM     53  C   UNL A   1      41.745  27.915  26.944  1.00  0.00     0.131 A 
ATOM     54  C   UNL A   1      41.169  25.210  26.847  1.00  0.00     0.055 A 
ATOM     55  C   UNL A   1      41.984  27.204  25.769  1.00  0.00     0.041 A 
ATOM     56  F   UNL A   1      42.044  29.223  26.966  1.00  0.00    -0.206 F 
ATOM     57  C   UNL A   1      41.701  25.841  25.718  1.00  0.00     0.022 A 
BRANCH  54  58
ATOM     58  S   UNL A   1      40.851  23.424  26.827  1.00  0.00     0.124 S 
ATOM     59  O   UNL A   1      39.420  23.374  26.544  1.00  0.00    -0.237 OA
ATOM     60  O   UNL A   1      41.729  22.971  25.753  1.00  0.00    -0.237 OA
ATOM     61  O   UNL A   1      41.232  22.992  28.170  1.00  0.00    -0.744 OA
ENDBRANCH  54  58
ENDBRANCH  27  51
BRANCH  39  62
ATOM     62  C   UNL A   1      44.505  27.651  34.178  1.00  0.00     0.023 A 
ATOM     63  C   UNL A   1      44.381  26.461  34.913  1.00  0.00     0.031 A 
ATOM     64  C   UNL A   1      45.789  28.180  33.964  1.00  0.00     0.131 A 
ATOM     65  C   UNL A   1      45.528  25.851  35.442  1.00  0.00     0.055 A 
ATOM     66  C   UNL A   1      46.928  27.554  34.469  1.00  0.00     0.041 A 
ATOM     67  F   UNL A   1      45.950  29.318  33.270  1.00  0.00    -0.206 F 
ATOM     68  C   UNL A   1      46.800  26.385  35.217  1.00  0.00     0.022 A 
BRANCH  65  69
ATOM     69  S   UNL A   1      45.344  24.353  36.448  1.00  0.00     0.124 S 
ATOM     70  O   UNL A   1      46.731  23.935  36.622  1.00  0.00    -0.237 OA
ATOM     71  O   UNL A   1      44.674  24.851  37.645  1.00  0.00    -0.237 OA
ATOM     72  O   UNL A   1      44.532  23.476  35.608  1.00  0.00    -0.744 OA
ENDBRANCH  65  69
ENDBRANCH  39  62
ENDBRANCH  13  14
ENDBRANCH   6   8
ENDBRANCH   5   6
ENDBRANCH   4   5
ENDBRANCH   3   4
ENDBRANCH   2   3
ENDBRANCH   1   2
BRANCH   1  73
ATOM     73  C   UNL A   1      34.636  29.838  27.554  1.00  0.00     0.188 C 
BRANCH  73  74
ATOM     74  O   UNL A   1      33.859  28.640  27.546  1.00  0.00    -0.376 OA
BRANCH  74  75
ATOM     75  C   UNL A   1      33.963  27.869  26.353  1.00  0.00     0.202 C 
BRANCH  75  76
ATOM     76  C   UNL A   1      32.577  27.769  25.715  1.00  0.00     0.261 C 
BRANCH  76  77
ATOM     77  O   UNL A   1      32.559  28.294  24.371  1.00  0.00    -0.459 OA
BRANCH  77  78
ATOM     78  C   UNL A   1      32.529  27.401  23.344  1.00  0.00     0.344 C 
ATOM     79  O   UNL A   1      33.166  27.511  22.306  1.00  0.00    -0.246 OA
BRANCH  78  80
ATOM     80  C   UNL A   1      31.580  26.333  23.564  1.00  0.00     0.133 A 
ATOM     81  C   UNL A   1      31.843  24.948  23.743  1.00  0.00     0.128 A 
ATOM     82  C   UNL A   1      30.200  26.413  23.561  1.00  0.00     0.177 A 
ATOM     83  N   UNL A   1      30.705  24.246  23.810  1.00  0.00    -0.079 NA
ATOM     84  O   UNL A   1      29.681  25.165  23.707  1.00  0.00    -0.357 OA
BRANCH  81  85
ATOM     85  C   UNL A   1      33.131  24.287  23.866  1.00  0.00     0.005 A 
ATOM     86  C   UNL A   1      33.747  23.732  22.737  1.00  0.00     0.012 A 
ATOM     87  C   UNL A   1      33.759  24.196  25.114  1.00  0.00     0.012 A 
ATOM     88  C   UNL A   1      34.979  23.083  22.859  1.00  0.00     0.021 A 
ATOM     89  C   UNL A   1      34.987  23.541  25.235  1.00  0.00     0.021 A 
ATOM     90  C   UNL A   1      35.590  22.985  24.107  1.00  0.00     0.041 A 
ATOM     91  Cl  UNL A   1      37.101  22.177  24.260  1.00  0.00    -0.084 Cl
ENDBRANCH  81  85
BRANCH  82  92
ATOM     92  C   UNL A   1      29.221  27.518  23.438  1.00  0.00     0.242 C 
BRANCH  92  93
ATOM     93  O   UNL A   1      29.432  28.305  22.278  1.00  0.00    -0.345 OA
BRANCH  93  94
ATOM     94  C   UNL A   1      29.927  29.630  22.365  1.00  0.00     0.250 C 
ATOM     95  C   UNL A   1      29.519  30.504  23.559  1.00  0.00     0.062 C 
ATOM     96  O   UNL A   1      29.556  30.345  21.174  1.00  0.00    -0.353 OA
ATOM     97  C   UNL A   1      28.035  30.853  23.550  1.00  0.00     0.008 C 
ATOM     98  C   UNL A   1      28.140  30.506  21.066  1.00  0.00     0.163 C 
ATOM     99  C   UNL A   1      27.620  31.395  22.189  1.00  0.00     0.029 C 
ENDBRANCH  93  94
ENDBRANCH  92  93
ENDBRANCH  82  92
ENDBRANCH  78  80
ENDBRANCH  77  78
ENDBRANCH  76  77
ENDBRANCH  75  76
ENDBRANCH  74  75
ENDBRANCH  73  74
ENDBRANCH   1  73
TORSDOF 24
ENDMDL
MODEL 2
REMARK VINA RESULT:     -10.3      2.164      4.051
REMARK SMILES O=C(OCCOCCOCCOC(=O)c1c(-c2ccc(Cl)cc2)noc1CO[C@@H]1CCCCO1)c1ccc(-c2c3nc(c(-c4cc(S(=O)(=O)[O-])ccc4F)c4ccc([nH]4)c(-c4cc(S(=O)(=O)[O-])ccc4F)c4nc(c(-c5cc(S(=O)(=O)[O-])ccc5F)c5ccc2[nH]5)C=C4)C=C3)cc1
REMARK SMILES IDX 7 1 6 2 5 3 4 4 3 5 2 6 1 7 35 8 36 9 97 10 37 11 96 12
REMARK SMILES IDX 38 13 39 14 40 15 90 16 41 17 95 18 89 19 91 20 42 21 94 22
REMARK SMILES IDX 88 23 87 24 43 26 75 27 55 28 74 29 56 30 59 31 73 32 92 33
REMARK SMILES IDX 57 34 58 35 72 37 93 38 60 39 44 40 45 41 53 42 46 43 52 44
REMARK SMILES IDX 54 45 51 46 47 47 48 48 49 49 50 50 76 51 77 52 85 53 78 54
REMARK SMILES IDX 84 55 86 56 83 57 79 58 80 59 81 60 82 61 61 62 62 63 70 64
REMARK SMILES IDX 63 65 69 66 71 67 68 68 64 69 65 70 66 71 67 72 8 73 9 74
REMARK SMILES IDX 10 75 11 76 12 77 13 78 14 79 15 80 16 81 26 82 24 83 25 84
REMARK SMILES IDX 17 85 18 86 23 87 19 88 22 89 20 90 21 91 27 92 28 93 29 94
REMARK SMILES IDX 30 95 34 96 31 97 33 98 32 99
REMARK H PARENT 91 25 59 36
REMARK Flexibility Score: inf
ROOT
ATOM      1  C   UNL A   1      33.562  30.820  26.874  1.00  0.00     0.188 C 
ENDROOT
BRANCH   1   2
ATOM      2  O   UNL A   1      32.142  30.679  27.029  1.00  0.00    -0.376 OA
BRANCH   2   3
ATOM      3  C   UNL A   1      31.422  31.903  26.871  1.00  0.00     0.202 C 
BRANCH   3   4
ATOM      4  C   UNL A   1      32.385  33.094  26.850  1.00  0.00     0.261 C 
BRANCH   4   5
ATOM      5  O   UNL A   1      32.348  33.883  28.057  1.00  0.00    -0.460 OA
BRANCH   5   6
ATOM      6  C   UNL A   1      33.448  34.542  28.501  1.00  0.00     0.338 C 
ATOM      7  O   UNL A   1      33.430  35.747  28.722  1.00  0.00    -0.246 OA
BRANCH   6   8
ATOM      8  C   UNL A   1      34.545  33.693  29.034  1.00  0.00     0.060 A 
ATOM      9  C   UNL A   1      34.335  32.606  29.887  1.00  0.00     0.016 A 
ATOM     10  C   UNL A   1      35.846  33.973  28.592  1.00  0.00     0.016 A 
ATOM     11  C   UNL A   1      35.417  31.871  30.376  1.00  0.00     0.010 A 
ATOM     12  C   UNL A   1      36.927  33.213  29.049  1.00  0.00     0.010 A 
ATOM     13  C   UNL A   1      36.722  32.180  29.974  1.00  0.00    -0.014 A 
BRANCH  13  14
ATOM     14  C   UNL A   1      37.868  31.466  30.581  1.00  0.00     0.031 A 
ATOM     15  C   UNL A   1      38.291  31.799  31.984  1.00  0.00     0.074 A 
ATOM     16  C   UNL A   1      38.513  30.506  29.894  1.00  0.00     0.049 A 
ATOM     17  N   UNL A   1      39.264  31.296  32.696  1.00  0.00    -0.248 NA
ATOM     18  C   UNL A   1      37.512  32.840  32.670  1.00  0.00     0.031 C 
ATOM     19  C   UNL A   1      38.198  30.084  28.529  1.00  0.00     0.029 A 
ATOM     20  N   UNL A   1      39.577  29.719  30.253  1.00  0.00    -0.354 N 
ATOM     21  C   UNL A   1      39.217  31.955  33.918  1.00  0.00     0.074 A 
ATOM     22  C   UNL A   1      38.141  32.921  33.833  1.00  0.00     0.031 C 
ATOM     23  C   UNL A   1      39.052  29.112  28.167  1.00  0.00     0.029 A 
ATOM     24  C   UNL A   1      39.988  28.866  29.259  1.00  0.00     0.049 A 
ATOM     25  H   UNL A   1      40.003  29.761  31.140  1.00  0.00     0.167 HD
ATOM     26  C   UNL A   1      39.986  31.764  35.017  1.00  0.00     0.034 A 
ATOM     27  C   UNL A   1      41.022  28.004  29.221  1.00  0.00     0.034 A 
ATOM     28  C   UNL A   1      41.052  30.802  35.106  1.00  0.00     0.049 A 
ATOM     29  C   UNL A   1      41.932  27.890  30.411  1.00  0.00     0.074 A 
ATOM     30  C   UNL A   1      41.835  30.470  36.198  1.00  0.00     0.029 A 
ATOM     31  N   UNL A   1      41.501  30.028  34.045  1.00  0.00    -0.354 N 
ATOM     32  N   UNL A   1      41.855  28.500  31.570  1.00  0.00    -0.248 NA
ATOM     33  C   UNL A   1      43.079  26.980  30.279  1.00  0.00     0.031 C 
ATOM     34  C   UNL A   1      42.785  29.523  35.785  1.00  0.00     0.029 A 
ATOM     35  C   UNL A   1      42.573  29.248  34.444  1.00  0.00     0.049 A 
ATOM     36  H   UNL A   1      41.113  30.032  33.140  1.00  0.00     0.167 HD
ATOM     37  C   UNL A   1      42.939  28.040  32.308  1.00  0.00     0.074 A 
ATOM     38  C   UNL A   1      43.659  27.108  31.465  1.00  0.00     0.031 C 
ATOM     39  C   UNL A   1      43.298  28.351  33.580  1.00  0.00     0.034 A 
BRANCH  26  40
ATOM     40  C   UNL A   1      39.698  32.653  36.194  1.00  0.00     0.023 A 
ATOM     41  C   UNL A   1      38.845  32.233  37.229  1.00  0.00     0.031 A 
ATOM     42  C   UNL A   1      40.208  33.960  36.236  1.00  0.00     0.131 A 
ATOM     43  C   UNL A   1      38.472  33.138  38.232  1.00  0.00     0.055 A 
ATOM     44  C   UNL A   1      39.877  34.840  37.268  1.00  0.00     0.041 A 
ATOM     45  F   UNL A   1      41.005  34.413  35.255  1.00  0.00    -0.206 F 
ATOM     46  C   UNL A   1      38.993  34.435  38.266  1.00  0.00     0.022 A 
BRANCH  43  47
ATOM     47  S   UNL A   1      37.195  32.638  39.419  1.00  0.00     0.124 S 
ATOM     48  O   UNL A   1      37.390  33.609  40.493  1.00  0.00    -0.237 OA
ATOM     49  O   UNL A   1      35.969  32.781  38.643  1.00  0.00    -0.237 OA
ATOM     50  O   UNL A   1      37.561  31.264  39.758  1.00  0.00    -0.744 OA
ENDBRANCH  43  47
ENDBRANCH  26  40
BRANCH  27  51
ATOM     51  C   UNL A   1      41.288  27.221  27.989  1.00  0.00     0.023 A 
ATOM     52  C   UNL A   1      41.016  25.847  27.934  1.00  0.00     0.031 A 
ATOM     53  C   UNL A   1      41.835  27.845  26.854  1.00  0.00     0.131 A 
ATOM     54  C   UNL A   1      41.300  25.131  26.761  1.00  0.00     0.055 A 
ATOM     55  C   UNL A   1      42.099  27.133  25.685  1.00  0.00     0.041 A 
ATOM     56  F   UNL A   1      42.114  29.157  26.874  1.00  0.00    -0.206 F 
ATOM     57  C   UNL A   1      41.836  25.766  25.636  1.00  0.00     0.022 A 
BRANCH  54  58
ATOM     58  S   UNL A   1      41.007  23.341  26.745  1.00  0.00     0.124 S 
ATOM     59  O   UNL A   1      39.582  23.268  26.440  1.00  0.00    -0.237 OA
ATOM     60  O   UNL A   1      41.908  22.896  25.686  1.00  0.00    -0.237 OA
ATOM     61  O   UNL A   1      41.374  22.921  28.095  1.00  0.00    -0.744 OA
ENDBRANCH  54  58
ENDBRANCH  27  51
BRANCH  39  62
ATOM     62  C   UNL A   1      44.511  27.652  34.121  1.00  0.00     0.023 A 
ATOM     63  C   UNL A   1      44.427  26.352  34.643  1.00  0.00     0.031 A 
ATOM     64  C   UNL A   1      45.753  28.308  34.140  1.00  0.00     0.131 A 
ATOM     65  C   UNL A   1      45.568  25.754  35.200  1.00  0.00     0.055 A 
ATOM     66  C   UNL A   1      46.890  27.698  34.670  1.00  0.00     0.041 A 
ATOM     67  F   UNL A   1      45.873  29.554  33.655  1.00  0.00    -0.206 F 
ATOM     68  C   UNL A   1      46.800  26.417  35.208  1.00  0.00     0.022 A 
BRANCH  65  69
ATOM     69  S   UNL A   1      45.428  24.102  35.934  1.00  0.00     0.124 S 
ATOM     70  O   UNL A   1      46.049  24.299  37.239  1.00  0.00    -0.237 OA
ATOM     71  O   UNL A   1      43.987  23.876  35.942  1.00  0.00    -0.237 OA
ATOM     72  O   UNL A   1      46.179  23.254  35.011  1.00  0.00    -0.744 OA
ENDBRANCH  65  69
ENDBRANCH  39  62
ENDBRANCH  13  14
ENDBRANCH   6   8
ENDBRANCH   5   6
ENDBRANCH   4   5
ENDBRANCH   3   4
ENDBRANCH   2   3
ENDBRANCH   1   2
BRANCH   1  73
ATOM     73  C   UNL A   1      34.290  29.512  27.187  1.00  0.00     0.188 C 
BRANCH  73  74
ATOM     74  O   UNL A   1      33.389  28.412  27.312  1.00  0.00    -0.376 OA
BRANCH  74  75
ATOM     75  C   UNL A   1      33.455  27.464  26.250  1.00  0.00     0.202 C 
BRANCH  75  76
ATOM     76  C   UNL A   1      32.195  26.598  26.292  1.00  0.00     0.261 C 
BRANCH  76  77
ATOM     77  O   UNL A   1      32.468  25.227  25.933  1.00  0.00    -0.459 OA
BRANCH  77  78
ATOM     78  C   UNL A   1      31.942  24.763  24.766  1.00  0.00     0.344 C 
ATOM     79  O   UNL A   1      31.032  23.950  24.686  1.00  0.00    -0.246 OA
BRANCH  78  80
ATOM     80  C   UNL A   1      32.640  25.264  23.603  1.00  0.00     0.133 A 
ATOM     81  C   UNL A   1      32.225  26.281  22.701  1.00  0.00     0.128 A 
ATOM     82  C   UNL A   1      33.827  24.803  23.064  1.00  0.00     0.177 A 
ATOM     83  N   UNL A   1      33.082  26.398  21.680  1.00  0.00    -0.079 NA
ATOM     84  O   UNL A   1      34.086  25.481  21.915  1.00  0.00    -0.357 OA
BRANCH  81  85
ATOM     85  C   UNL A   1      31.058  27.142  22.793  1.00  0.00     0.005 A 
ATOM     86  C   UNL A   1      31.141  28.483  22.397  1.00  0.00     0.012 A 
ATOM     87  C   UNL A   1      29.849  26.636  23.283  1.00  0.00     0.012 A 
ATOM     88  C   UNL A   1      30.021  29.314  22.500  1.00  0.00     0.021 A 
ATOM     89  C   UNL A   1      28.732  27.471  23.392  1.00  0.00     0.021 A 
ATOM     90  C   UNL A   1      28.826  28.806  23.002  1.00  0.00     0.041 A 
ATOM     91  Cl  UNL A   1      27.450  29.831  23.139  1.00  0.00    -0.084 Cl
ENDBRANCH  81  85
BRANCH  82  92
ATOM     92  C   UNL A   1      34.820  23.777  23.457  1.00  0.00     0.242 C 
BRANCH  92  93
ATOM     93  O   UNL A   1      34.225  22.519  23.727  1.00  0.00    -0.345 OA
BRANCH  93  94
ATOM     94  C   UNL A   1      34.854  21.571  24.573  1.00  0.00     0.250 C 
ATOM     95  C   UNL A   1      33.988  20.674  25.466  1.00  0.00     0.062 C 
ATOM     96  O   UNL A   1      35.777  22.258  25.436  1.00  0.00    -0.353 OA
ATOM     97  C   UNL A   1      33.265  21.455  26.557  1.00  0.00     0.008 C 
ATOM     98  C   UNL A   1      35.110  23.144  26.338  1.00  0.00     0.163 C 
ATOM     99  C   UNL A   1      34.238  22.354  27.307  1.00  0.00     0.029 C 
ENDBRANCH  93  94
ENDBRANCH  92  93
ENDBRANCH  82  92
ENDBRANCH  78  80
ENDBRANCH  77  78
ENDBRANCH  76  77
ENDBRANCH  75  76
ENDBRANCH  74  75
ENDBRANCH  73  74
ENDBRANCH   1  73
TORSDOF 24
ENDMDL
MODEL 3
REMARK VINA RESULT:     -10.2      5.418     10.746
REMARK SMILES O=C(OCCOCCOCCOC(=O)c1c(-c2ccc(Cl)cc2)noc1CO[C@@H]1CCCCO1)c1ccc(-c2c3nc(c(-c4cc(S(=O)(=O)[O-])ccc4F)c4ccc([nH]4)c(-c4cc(S(=O)(=O)[O-])ccc4F)c4nc(c(-c5cc(S(=O)(=O)[O-])ccc5F)c5ccc2[nH]5)C=C4)C=C3)cc1
REMARK SMILES IDX 7 1 6 2 5 3 4 4 3 5 2 6 1 7 35 8 36 9 97 10 37 11 96 12
REMARK SMILES IDX 38 13 39 14 40 15 90 16 41 17 95 18 89 19 91 20 42 21 94 22
REMARK SMILES IDX 88 23 87 24 43 26 75 27 55 28 74 29 56 30 59 31 73 32 92 33
REMARK SMILES IDX 57 34 58 35 72 37 93 38 60 39 44 40 45 41 53 42 46 43 52 44
REMARK SMILES IDX 54 45 51 46 47 47 48 48 49 49 50 50 76 51 77 52 85 53 78 54
REMARK SMILES IDX 84 55 86 56 83 57 79 58 80 59 81 60 82 61 61 62 62 63 70 64
REMARK SMILES IDX 63 65 69 66 71 67 68 68 64 69 65 70 66 71 67 72 8 73 9 74
REMARK SMILES IDX 10 75 11 76 12 77 13 78 14 79 15 80 16 81 26 82 24 83 25 84
REMARK SMILES IDX 17 85 18 86 23 87 19 88 22 89 20 90 21 91 27 92 28 93 29 94
REMARK SMILES IDX 30 95 34 96 31 97 33 98 32 99
REMARK H PARENT 91 25 59 36
REMARK Flexibility Score: inf
ROOT
ATOM      1  C   UNL A   1      39.098  22.437  26.494  1.00  0.00     0.188 C 
ENDROOT
BRANCH   1   2
ATOM      2  O   UNL A   1      38.907  21.632  25.321  1.00  0.00    -0.376 OA
BRANCH   2   3
ATOM      3  C   UNL A   1      38.941  20.226  25.577  1.00  0.00     0.202 C 
BRANCH   3   4
ATOM      4  C   UNL A   1      40.195  19.856  26.376  1.00  0.00     0.261 C 
BRANCH   4   5
ATOM      5  O   UNL A   1      41.348  19.596  25.548  1.00  0.00    -0.460 OA
BRANCH   5   6
ATOM      6  C   UNL A   1      42.579  20.049  25.894  1.00  0.00     0.338 C 
ATOM      7  O   UNL A   1      43.593  19.411  25.636  1.00  0.00    -0.246 OA
BRANCH   6   8
ATOM      8  C   UNL A   1      42.664  21.484  26.271  1.00  0.00     0.060 A 
ATOM      9  C   UNL A   1      42.624  22.528  25.343  1.00  0.00     0.016 A 
ATOM     10  C   UNL A   1      42.720  21.786  27.638  1.00  0.00     0.016 A 
ATOM     11  C   UNL A   1      42.742  23.854  25.766  1.00  0.00     0.010 A 
ATOM     12  C   UNL A   1      42.798  23.115  28.066  1.00  0.00     0.010 A 
ATOM     13  C   UNL A   1      42.847  24.155  27.129  1.00  0.00    -0.014 A 
BRANCH  13  14
ATOM     14  C   UNL A   1      43.080  25.553  27.558  1.00  0.00     0.031 A 
ATOM     15  C   UNL A   1      44.463  26.134  27.473  1.00  0.00     0.074 A 
ATOM     16  C   UNL A   1      42.058  26.310  27.998  1.00  0.00     0.049 A 
ATOM     17  N   UNL A   1      44.880  27.330  27.798  1.00  0.00    -0.248 NA
ATOM     18  C   UNL A   1      45.514  25.246  26.955  1.00  0.00     0.031 C 
ATOM     19  C   UNL A   1      40.669  25.868  28.121  1.00  0.00     0.029 A 
ATOM     20  N   UNL A   1      42.038  27.611  28.430  1.00  0.00    -0.354 N 
ATOM     21  C   UNL A   1      46.241  27.342  27.524  1.00  0.00     0.074 A 
ATOM     22  C   UNL A   1      46.585  26.021  27.040  1.00  0.00     0.031 C 
ATOM     23  C   UNL A   1      39.931  26.884  28.598  1.00  0.00     0.029 A 
ATOM     24  C   UNL A   1      40.797  28.033  28.840  1.00  0.00     0.049 A 
ATOM     25  H   UNL A   1      42.836  28.187  28.442  1.00  0.00     0.167 HD
ATOM     26  C   UNL A   1      47.124  28.363  27.645  1.00  0.00     0.034 A 
ATOM     27  C   UNL A   1      40.409  29.205  29.378  1.00  0.00     0.034 A 
ATOM     28  C   UNL A   1      46.785  29.678  28.120  1.00  0.00     0.049 A 
ATOM     29  C   UNL A   1      41.427  30.285  29.610  1.00  0.00     0.074 A 
ATOM     30  C   UNL A   1      47.582  30.806  28.201  1.00  0.00     0.029 A 
ATOM     31  N   UNL A   1      45.540  30.036  28.619  1.00  0.00    -0.354 N 
ATOM     32  N   UNL A   1      42.705  30.290  29.316  1.00  0.00    -0.248 NA
ATOM     33  C   UNL A   1      40.948  31.513  30.261  1.00  0.00     0.031 C 
ATOM     34  C   UNL A   1      46.830  31.835  28.788  1.00  0.00     0.029 A 
ATOM     35  C   UNL A   1      45.557  31.353  29.045  1.00  0.00     0.049 A 
ATOM     36  H   UNL A   1      44.758  29.439  28.663  1.00  0.00     0.167 HD
ATOM     37  C   UNL A   1      43.182  31.525  29.739  1.00  0.00     0.074 A 
ATOM     38  C   UNL A   1      42.058  32.237  30.314  1.00  0.00     0.031 C 
ATOM     39  C   UNL A   1      44.437  32.032  29.646  1.00  0.00     0.034 A 
BRANCH  26  40
ATOM     40  C   UNL A   1      48.549  28.059  27.277  1.00  0.00     0.023 A 
ATOM     41  C   UNL A   1      49.020  28.264  25.969  1.00  0.00     0.031 A 
ATOM     42  C   UNL A   1      49.414  27.478  28.217  1.00  0.00     0.131 A 
ATOM     43  C   UNL A   1      50.304  27.827  25.617  1.00  0.00     0.055 A 
ATOM     44  C   UNL A   1      50.712  27.095  27.875  1.00  0.00     0.041 A 
ATOM     45  F   UNL A   1      48.999  27.239  29.471  1.00  0.00    -0.206 F 
ATOM     46  C   UNL A   1      51.159  27.256  26.565  1.00  0.00     0.022 A 
BRANCH  43  47
ATOM     47  S   UNL A   1      50.795  27.897  23.873  1.00  0.00     0.124 S 
ATOM     48  O   UNL A   1      49.506  27.783  23.195  1.00  0.00    -0.237 OA
ATOM     49  O   UNL A   1      51.452  29.196  23.781  1.00  0.00    -0.237 OA
ATOM     50  O   UNL A   1      51.676  26.740  23.718  1.00  0.00    -0.744 OA
ENDBRANCH  43  47
ENDBRANCH  26  40
BRANCH  27  51
ATOM     51  C   UNL A   1      38.996  29.397  29.791  1.00  0.00     0.023 A 
ATOM     52  C   UNL A   1      38.085  30.059  28.958  1.00  0.00     0.031 A 
ATOM     53  C   UNL A   1      38.550  28.927  31.038  1.00  0.00     0.131 A 
ATOM     54  C   UNL A   1      36.762  30.244  29.387  1.00  0.00     0.055 A 
ATOM     55  C   UNL A   1      37.230  29.097  31.453  1.00  0.00     0.041 A 
ATOM     56  F   UNL A   1      39.397  28.294  31.864  1.00  0.00    -0.206 F 
ATOM     57  C   UNL A   1      36.328  29.764  30.627  1.00  0.00     0.022 A 
BRANCH  54  58
ATOM     58  S   UNL A   1      35.624  31.171  28.321  1.00  0.00     0.124 S 
ATOM     59  O   UNL A   1      35.185  30.145  27.380  1.00  0.00    -0.237 OA
ATOM     60  O   UNL A   1      34.620  31.632  29.275  1.00  0.00    -0.237 OA
ATOM     61  O   UNL A   1      36.467  32.217  27.746  1.00  0.00    -0.744 OA
ENDBRANCH  54  58
ENDBRANCH  27  51
BRANCH  39  62
ATOM     62  C   UNL A   1      44.634  33.427  30.163  1.00  0.00     0.023 A 
ATOM     63  C   UNL A   1      44.377  34.545  29.353  1.00  0.00     0.031 A 
ATOM     64  C   UNL A   1      45.112  33.635  31.467  1.00  0.00     0.131 A 
ATOM     65  C   UNL A   1      44.634  35.832  29.848  1.00  0.00     0.055 A 
ATOM     66  C   UNL A   1      45.340  34.919  31.963  1.00  0.00     0.041 A 
ATOM     67  F   UNL A   1      45.374  32.593  32.271  1.00  0.00    -0.206 F 
ATOM     68  C   UNL A   1      45.105  36.025  31.150  1.00  0.00     0.022 A 
BRANCH  65  69
ATOM     69  S   UNL A   1      44.364  37.262  28.765  1.00  0.00     0.124 S 
ATOM     70  O   UNL A   1      44.649  36.701  27.449  1.00  0.00    -0.237 OA
ATOM     71  O   UNL A   1      42.970  37.602  29.025  1.00  0.00    -0.237 OA
ATOM     72  O   UNL A   1      45.337  38.242  29.246  1.00  0.00    -0.744 OA
ENDBRANCH  65  69
ENDBRANCH  39  62
ENDBRANCH  13  14
ENDBRANCH   6   8
ENDBRANCH   5   6
ENDBRANCH   4   5
ENDBRANCH   3   4
ENDBRANCH   2   3
ENDBRANCH   1   2
BRANCH   1  73
ATOM     73  C   UNL A   1      38.271  23.722  26.428  1.00  0.00     0.188 C 
BRANCH  73  74
ATOM     74  O   UNL A   1      37.340  23.708  25.346  1.00  0.00    -0.376 OA
BRANCH  74  75
ATOM     75  C   UNL A   1      36.013  24.092  25.697  1.00  0.00     0.202 C 
BRANCH  75  76
ATOM     76  C   UNL A   1      35.183  24.198  24.417  1.00  0.00     0.261 C 
BRANCH  76  77
ATOM     77  O   UNL A   1      34.527  22.954  24.092  1.00  0.00    -0.459 OA
BRANCH  77  78
ATOM     78  C   UNL A   1      33.165  22.934  24.116  1.00  0.00     0.344 C 
ATOM     79  O   UNL A   1      32.451  22.938  23.123  1.00  0.00    -0.246 OA
BRANCH  78  80
ATOM     80  C   UNL A   1      32.631  23.000  25.457  1.00  0.00     0.133 A 
ATOM     81  C   UNL A   1      31.877  24.048  26.052  1.00  0.00     0.128 A 
ATOM     82  C   UNL A   1      32.811  22.094  26.486  1.00  0.00     0.177 A 
ATOM     83  N   UNL A   1      31.651  23.803  27.348  1.00  0.00    -0.079 NA
ATOM     84  O   UNL A   1      32.226  22.577  27.613  1.00  0.00    -0.357 OA
BRANCH  81  85
ATOM     85  C   UNL A   1      31.362  25.252  25.423  1.00  0.00     0.005 A 
ATOM     86  C   UNL A   1      30.119  25.231  24.776  1.00  0.00     0.012 A 
ATOM     87  C   UNL A   1      32.107  26.436  25.455  1.00  0.00     0.012 A 
ATOM     88  C   UNL A   1      29.632  26.386  24.158  1.00  0.00     0.021 A 
ATOM     89  C   UNL A   1      31.621  27.588  24.831  1.00  0.00     0.021 A 
ATOM     90  C   UNL A   1      30.387  27.556  24.183  1.00  0.00     0.041 A 
ATOM     91  Cl  UNL A   1      29.791  28.976  23.413  1.00  0.00    -0.084 Cl
ENDBRANCH  81  85
BRANCH  82  92
ATOM     92  C   UNL A   1      33.475  20.775  26.608  1.00  0.00     0.242 C 
BRANCH  92  93
ATOM     93  O   UNL A   1      33.318  19.978  25.446  1.00  0.00    -0.345 OA
BRANCH  93  94
ATOM     94  C   UNL A   1      32.752  18.680  25.513  1.00  0.00     0.250 C 
ATOM     95  C   UNL A   1      33.682  17.459  25.536  1.00  0.00     0.062 C 
ATOM     96  O   UNL A   1      31.855  18.505  24.403  1.00  0.00    -0.353 OA
ATOM     97  C   UNL A   1      34.437  17.273  24.225  1.00  0.00     0.008 C 
ATOM     98  C   UNL A   1      32.544  18.524  23.150  1.00  0.00     0.163 C 
ATOM     99  C   UNL A   1      33.479  17.325  23.042  1.00  0.00     0.029 C 
ENDBRANCH  93  94
ENDBRANCH  92  93
ENDBRANCH  82  92
ENDBRANCH  78  80
ENDBRANCH  77  78
ENDBRANCH  76  77
ENDBRANCH  75  76
ENDBRANCH  74  75
ENDBRANCH  73  74
ENDBRANCH   1  73
TORSDOF 24
ENDMDL
