MODEL 1
REMARK VINA RESULT:      -8.8      0.000      0.000
REMARK SMILES Cc1oc2cc3c(cc2c1C)[C@H](C)[C@@H](CC(=O)N[C@H](CC1=c2ccccc2=NC1)C(=O)OCCOCCOCCOC(=O)c1ccc(-c2c4nc(c(-c5cc(S(=O)(=O)[O-])ccc5F)c5ccc([nH]5)c(-c5cc(S(=O)(=O)[O-])ccc5F)c5nc(c(-c6cc(S(=O)(=O)[O-])ccc6F)c6ccc2[nH]6)C=C5)C=C4)cc1)C(=O)O3
REMARK SMILES IDX 36 1 35 2 34 3 33 4 32 5 30 6 31 7 19 8 18 9 16 10 17 11
REMARK SMILES IDX 15 13 14 14 1 15 2 16 3 17 10 18 4 19 9 20 11 21 5 22 8 23
REMARK SMILES IDX 6 24 7 25 109 26 12 27 107 28 13 29 108 30 20 31 21 32 22 33
REMARK SMILES IDX 29 34 23 35 27 36 28 37 24 38 26 39 25 40 37 41 38 42 39 43
REMARK SMILES IDX 40 44 41 45 42 46 43 47 44 48 45 49 106 50 46 51 105 52
REMARK SMILES IDX 47 53 48 54 49 55 99 56 50 57 104 58 98 59 100 60 51 61
REMARK SMILES IDX 103 62 97 63 96 64 52 66 84 67 64 68 83 69 65 70 68 71 82 72
REMARK SMILES IDX 101 73 66 74 67 75 81 77 102 78 69 79 53 80 54 81 62 82
REMARK SMILES IDX 55 83 61 84 63 85 60 86 56 87 57 88 58 89 59 90 85 91 86 92
REMARK SMILES IDX 94 93 87 94 93 95 95 96 92 97 88 98 89 99 90 100 91 101
REMARK SMILES IDX 70 102 71 103 79 104 72 105 78 106 80 107 77 108 73 109
REMARK SMILES IDX 74 110 75 111 76 112
REMARK H PARENT 18 12 100 65 68 76
REMARK Flexibility Score: inf
ROOT
ATOM      1  C   UNL A   1      41.830  27.377  26.571  1.00  0.00     0.188 C 
ENDROOT
BRANCH   1   2
ATOM      2  O   UNL A   1      40.880  28.382  26.774  1.00  0.00    -0.376 OA
BRANCH   2   3
ATOM      3  C   UNL A   1      40.244  28.230  28.019  1.00  0.00     0.202 C 
BRANCH   3   4
ATOM      4  C   UNL A   1      39.100  29.194  28.510  1.00  0.00     0.261 C 
BRANCH   4   5
ATOM      5  O   UNL A   1      37.843  29.433  27.761  1.00  0.00    -0.462 OA
BRANCH   5   6
ATOM      6  C   UNL A   1      36.590  29.466  28.347  1.00  0.00     0.329 C 
ATOM      7  O   UNL A   1      36.419  29.098  29.508  1.00  0.00    -0.250 OA
BRANCH   6   8
ATOM      8  C   UNL A   1      35.353  30.035  27.421  1.00  0.00     0.196 C 
BRANCH   8   9
ATOM      9  N   UNL A   1      35.375  31.575  27.405  1.00  0.00    -0.342 N 
ATOM     10  C   UNL A   1      35.101  32.637  28.215  1.00  0.00     0.221 C 
ATOM     11  O   UNL A   1      35.284  33.755  27.698  1.00  0.00    -0.275 OA
ATOM     12  H   UNL A   1      35.688  31.897  26.528  1.00  0.00     0.164 HD
BRANCH  10  13
ATOM     13  C   UNL A   1      34.615  32.658  29.688  1.00  0.00     0.116 C 
BRANCH  13  14
ATOM     14  C   UNL A   1      35.595  33.152  30.771  1.00  0.00     0.116 C 
ATOM     15  C   UNL A   1      38.823  33.061  38.674  1.00  0.00     0.088 C 
ATOM     16  C   UNL A   1      38.299  32.851  37.308  1.00  0.00     0.105 A 
ATOM     17  O   UNL A   1      37.348  33.739  36.907  1.00  0.00    -0.461 OA
ATOM     18  C   UNL A   1      38.600  31.970  36.283  1.00  0.00    -0.002 A 
ATOM     19  C   UNL A   1      37.065  33.461  35.607  1.00  0.00     0.138 A 
ATOM     20  C   UNL A   1      37.765  32.340  35.184  1.00  0.00     0.024 A 
ATOM     21  C   UNL A   1      39.634  30.912  36.256  1.00  0.00     0.049 C 
ATOM     22  C   UNL A   1      36.248  34.217  34.785  1.00  0.00     0.095 A 
ATOM     23  C   UNL A   1      37.561  31.862  33.868  1.00  0.00     0.020 A 
ATOM     24  C   UNL A   1      36.191  33.796  33.452  1.00  0.00     0.138 A 
ATOM     25  C   UNL A   1      36.765  32.600  32.975  1.00  0.00    -0.001 A 
ATOM     26  O   UNL A   1      35.558  34.680  32.589  1.00  0.00    -0.426 OA
ATOM     27  C   UNL A   1      36.352  32.066  31.588  1.00  0.00     0.035 C 
ATOM     28  C   UNL A   1      34.821  33.871  31.798  1.00  0.00     0.315 C 
ATOM     29  C   UNL A   1      37.504  31.460  30.782  1.00  0.00     0.014 C 
ATOM     30  O   UNL A   1      33.647  33.672  31.993  1.00  0.00    -0.251 OA
ENDBRANCH  13  14
ENDBRANCH  10  13
ENDBRANCH   8   9
BRANCH   8  31
ATOM     31  C   UNL A   1      33.808  29.297  26.845  1.00  0.00     0.070 C 
BRANCH  31  32
ATOM     32  C   UNL A   1      33.102  29.136  25.211  1.00  0.00    -0.037 C 
ATOM     33  C   UNL A   1      33.594  28.410  24.116  1.00  0.00     0.001 A 
ATOM     34  C   UNL A   1      31.903  28.445  25.736  1.00  0.00     0.174 C 
ATOM     35  C   UNL A   1      33.022  27.818  22.412  1.00  0.00     0.010 A 
ATOM     36  C   UNL A   1      33.697  27.113  25.312  1.00  0.00     0.065 A 
ATOM     37  N   UNL A   1      32.634  27.207  26.128  1.00  0.00    -0.280 NA
ATOM     38  C   UNL A   1      33.085  26.161  21.983  1.00  0.00     0.001 A 
ATOM     39  C   UNL A   1      34.179  25.443  24.893  1.00  0.00     0.028 A 
ATOM     40  C   UNL A   1      33.667  24.847  23.536  1.00  0.00     0.002 A 
ENDBRANCH  31  32
ENDBRANCH   8  31
ENDBRANCH   6   8
ENDBRANCH   5   6
ENDBRANCH   4   5
ENDBRANCH   3   4
ENDBRANCH   2   3
ENDBRANCH   1   2
BRANCH   1  41
ATOM     41  C   UNL A   1      41.492  26.105  25.782  1.00  0.00     0.188 C 
BRANCH  41  42
ATOM     42  O   UNL A   1      42.454  25.475  24.988  1.00  0.00    -0.376 OA
BRANCH  42  43
ATOM     43  C   UNL A   1      43.748  25.999  25.002  1.00  0.00     0.202 C 
BRANCH  43  44
ATOM     44  C   UNL A   1      44.917  25.291  25.711  1.00  0.00     0.261 C 
BRANCH  44  45
ATOM     45  O   UNL A   1      46.227  25.361  25.116  1.00  0.00    -0.460 OA
BRANCH  45  46
ATOM     46  C   UNL A   1      46.751  26.605  24.930  1.00  0.00     0.338 C 
ATOM     47  O   UNL A   1      46.857  27.209  23.876  1.00  0.00    -0.246 OA
BRANCH  46  48
ATOM     48  C   UNL A   1      46.947  27.246  26.243  1.00  0.00     0.060 A 
ATOM     49  C   UNL A   1      47.746  26.575  27.581  1.00  0.00     0.016 A 
ATOM     50  C   UNL A   1      46.136  28.786  26.458  1.00  0.00     0.016 A 
ATOM     51  C   UNL A   1      47.796  27.317  29.172  1.00  0.00     0.010 A 
ATOM     52  C   UNL A   1      46.124  29.717  28.264  1.00  0.00     0.010 A 
ATOM     53  C   UNL A   1      46.935  28.788  29.611  1.00  0.00    -0.014 A 
BRANCH  53  54
ATOM     54  C   UNL A   1      46.288  28.694  31.041  1.00  0.00     0.031 A 
ATOM     55  C   UNL A   1      47.149  29.557  31.896  1.00  0.00     0.074 A 
ATOM     56  C   UNL A   1      44.962  28.384  31.353  1.00  0.00     0.049 A 
ATOM     57  N   UNL A   1      47.001  30.807  32.195  1.00  0.00    -0.248 NA
ATOM     58  C   UNL A   1      48.500  29.039  32.139  1.00  0.00     0.031 C 
ATOM     59  C   UNL A   1      43.790  29.299  31.309  1.00  0.00     0.029 A 
ATOM     60  N   UNL A   1      44.498  27.404  32.310  1.00  0.00    -0.354 N 
ATOM     61  C   UNL A   1      48.228  31.236  32.711  1.00  0.00     0.074 A 
ATOM     62  C   UNL A   1      49.143  30.131  32.561  1.00  0.00     0.031 C 
ATOM     63  C   UNL A   1      42.845  28.938  32.203  1.00  0.00     0.029 A 
ATOM     64  C   UNL A   1      43.281  27.772  32.955  1.00  0.00     0.049 A 
ATOM     65  H   UNL A   1      44.977  26.564  32.497  1.00  0.00     0.167 HD
ATOM     66  C   UNL A   1      48.418  32.442  33.314  1.00  0.00     0.034 A 
ATOM     67  C   UNL A   1      42.913  27.523  34.263  1.00  0.00     0.034 A 
ATOM     68  C   UNL A   1      47.203  33.182  33.502  1.00  0.00     0.049 A 
ATOM     69  C   UNL A   1      43.384  28.788  34.947  1.00  0.00     0.074 A 
ATOM     70  C   UNL A   1      46.620  34.354  33.090  1.00  0.00     0.029 A 
ATOM     71  N   UNL A   1      46.275  32.598  34.333  1.00  0.00    -0.354 N 
ATOM     72  N   UNL A   1      42.830  29.971  34.862  1.00  0.00    -0.248 NA
ATOM     73  C   UNL A   1      44.818  28.782  35.246  1.00  0.00     0.031 C 
ATOM     74  C   UNL A   1      45.221  34.197  33.350  1.00  0.00     0.029 A 
ATOM     75  C   UNL A   1      45.012  32.953  33.946  1.00  0.00     0.049 A 
ATOM     76  H   UNL A   1      46.490  32.010  35.093  1.00  0.00     0.167 HD
ATOM     77  C   UNL A   1      43.910  30.849  34.699  1.00  0.00     0.074 A 
ATOM     78  C   UNL A   1      45.090  30.023  34.874  1.00  0.00     0.031 C 
ATOM     79  C   UNL A   1      43.839  32.134  34.231  1.00  0.00     0.034 A 
BRANCH  66  80
ATOM     80  C   UNL A   1      49.660  32.801  34.059  1.00  0.00     0.023 A 
ATOM     81  C   UNL A   1      49.919  32.458  35.398  1.00  0.00     0.031 A 
ATOM     82  C   UNL A   1      50.674  33.462  33.337  1.00  0.00     0.131 A 
ATOM     83  C   UNL A   1      51.173  32.776  35.961  1.00  0.00     0.055 A 
ATOM     84  C   UNL A   1      51.919  33.750  33.892  1.00  0.00     0.041 A 
ATOM     85  F   UNL A   1      50.462  33.837  32.065  1.00  0.00    -0.206 F 
ATOM     86  C   UNL A   1      52.176  33.404  35.210  1.00  0.00     0.022 A 
BRANCH  83  87
ATOM     87  S   UNL A   1      51.581  32.399  37.694  1.00  0.00     0.124 S 
ATOM     88  O   UNL A   1      50.608  33.203  38.429  1.00  0.00    -0.237 OA
ATOM     89  O   UNL A   1      51.361  30.955  37.748  1.00  0.00    -0.237 OA
ATOM     90  O   UNL A   1      52.971  32.824  37.826  1.00  0.00    -0.744 OA
ENDBRANCH  83  87
ENDBRANCH  66  80
BRANCH  67  91
ATOM     91  C   UNL A   1      43.155  26.157  34.840  1.00  0.00     0.023 A 
ATOM     92  C   UNL A   1      44.406  25.534  34.986  1.00  0.00     0.031 A 
ATOM     93  C   UNL A   1      42.023  25.378  35.139  1.00  0.00     0.131 A 
ATOM     94  C   UNL A   1      44.474  24.133  35.066  1.00  0.00     0.055 A 
ATOM     95  C   UNL A   1      42.094  23.994  35.305  1.00  0.00     0.041 A 
ATOM     96  F   UNL A   1      40.811  25.953  35.222  1.00  0.00    -0.206 F 
ATOM     97  C   UNL A   1      43.321  23.357  35.192  1.00  0.00     0.022 A 
BRANCH  94  98
ATOM     98  S   UNL A   1      46.047  23.265  34.795  1.00  0.00     0.124 S 
ATOM     99  O   UNL A   1      46.781  24.203  33.949  1.00  0.00    -0.237 OA
ATOM    100  O   UNL A   1      46.538  23.136  36.163  1.00  0.00    -0.237 OA
ATOM    101  O   UNL A   1      45.644  22.021  34.149  1.00  0.00    -0.744 OA
ENDBRANCH  94  98
ENDBRANCH  67  91
BRANCH  79 102
ATOM    102  C   UNL A   1      42.487  32.737  33.950  1.00  0.00     0.023 A 
ATOM    103  C   UNL A   1      41.955  32.783  32.633  1.00  0.00     0.031 A 
ATOM    104  C   UNL A   1      41.849  33.489  34.948  1.00  0.00     0.131 A 
ATOM    105  C   UNL A   1      40.901  33.661  32.339  1.00  0.00     0.055 A 
ATOM    106  C   UNL A   1      40.755  34.304  34.660  1.00  0.00     0.041 A 
ATOM    107  F   UNL A   1      42.333  33.527  36.199  1.00  0.00    -0.206 F 
ATOM    108  C   UNL A   1      40.298  34.416  33.351  1.00  0.00     0.022 A 
BRANCH 105 109
ATOM    109  S   UNL A   1      40.364  34.032  30.638  1.00  0.00     0.124 S 
ATOM    110  O   UNL A   1      41.372  34.995  30.195  1.00  0.00    -0.237 OA
ATOM    111  O   UNL A   1      40.444  32.716  30.006  1.00  0.00    -0.237 OA
ATOM    112  O   UNL A   1      39.016  34.567  30.769  1.00  0.00    -0.744 OA
ENDBRANCH 105 109
ENDBRANCH  79 102
ENDBRANCH  53  54
ENDBRANCH  46  48
ENDBRANCH  45  46
ENDBRANCH  44  45
ENDBRANCH  43  44
ENDBRANCH  42  43
ENDBRANCH  41  42
ENDBRANCH   1  41
TORSDOF 25
ENDMDL
MODEL 2
REMARK VINA RESULT:      -8.6      4.241     11.344
REMARK SMILES Cc1oc2cc3c(cc2c1C)[C@H](C)[C@@H](CC(=O)N[C@H](CC1=c2ccccc2=NC1)C(=O)OCCOCCOCCOC(=O)c1ccc(-c2c4nc(c(-c5cc(S(=O)(=O)[O-])ccc5F)c5ccc([nH]5)c(-c5cc(S(=O)(=O)[O-])ccc5F)c5nc(c(-c6cc(S(=O)(=O)[O-])ccc6F)c6ccc2[nH]6)C=C5)C=C4)cc1)C(=O)O3
REMARK SMILES IDX 36 1 35 2 34 3 33 4 32 5 30 6 31 7 19 8 18 9 16 10 17 11
REMARK SMILES IDX 15 13 14 14 1 15 2 16 3 17 10 18 4 19 9 20 11 21 5 22 8 23
REMARK SMILES IDX 6 24 7 25 109 26 12 27 107 28 13 29 108 30 20 31 21 32 22 33
REMARK SMILES IDX 29 34 23 35 27 36 28 37 24 38 26 39 25 40 37 41 38 42 39 43
REMARK SMILES IDX 40 44 41 45 42 46 43 47 44 48 45 49 106 50 46 51 105 52
REMARK SMILES IDX 47 53 48 54 49 55 99 56 50 57 104 58 98 59 100 60 51 61
REMARK SMILES IDX 103 62 97 63 96 64 52 66 84 67 64 68 83 69 65 70 68 71 82 72
REMARK SMILES IDX 101 73 66 74 67 75 81 77 102 78 69 79 53 80 54 81 62 82
REMARK SMILES IDX 55 83 61 84 63 85 60 86 56 87 57 88 58 89 59 90 85 91 86 92
REMARK SMILES IDX 94 93 87 94 93 95 95 96 92 97 88 98 89 99 90 100 91 101
REMARK SMILES IDX 70 102 71 103 79 104 72 105 78 106 80 107 77 108 73 109
REMARK SMILES IDX 74 110 75 111 76 112
REMARK H PARENT 18 12 100 65 68 76
REMARK Flexibility Score: inf
ROOT
ATOM      1  C   UNL A   1      48.359  37.115  27.273  1.00  0.00     0.188 C 
ENDROOT
BRANCH   1   2
ATOM      2  O   UNL A   1      48.297  36.115  28.247  1.00  0.00    -0.376 OA
BRANCH   2   3
ATOM      3  C   UNL A   1      47.833  34.905  27.699  1.00  0.00     0.202 C 
BRANCH   3   4
ATOM      4  C   UNL A   1      47.295  33.722  28.588  1.00  0.00     0.261 C 
BRANCH   4   5
ATOM      5  O   UNL A   1      46.835  32.422  28.044  1.00  0.00    -0.462 OA
BRANCH   5   6
ATOM      6  C   UNL A   1      47.470  31.749  27.014  1.00  0.00     0.329 C 
ATOM      7  O   UNL A   1      48.514  32.173  26.522  1.00  0.00    -0.250 OA
BRANCH   6   8
ATOM      8  C   UNL A   1      46.767  30.351  26.499  1.00  0.00     0.196 C 
BRANCH   8   9
ATOM      9  N   UNL A   1      45.236  30.515  26.465  1.00  0.00    -0.342 N 
ATOM     10  C   UNL A   1      44.102  29.872  26.865  1.00  0.00     0.221 C 
ATOM     11  O   UNL A   1      43.039  30.449  26.571  1.00  0.00    -0.275 OA
ATOM     12  H   UNL A   1      44.999  31.355  26.007  1.00  0.00     0.164 HD
BRANCH  10  13
ATOM     13  C   UNL A   1      43.944  28.541  27.645  1.00  0.00     0.116 C 
BRANCH  13  14
ATOM     14  C   UNL A   1      43.665  27.255  26.842  1.00  0.00     0.116 C 
ATOM     15  C   UNL A   1      40.905  19.205  26.152  1.00  0.00     0.088 C 
ATOM     16  C   UNL A   1      41.179  20.641  26.368  1.00  0.00     0.105 A 
ATOM     17  O   UNL A   1      42.490  20.962  26.554  1.00  0.00    -0.461 OA
ATOM     18  C   UNL A   1      40.399  21.786  26.365  1.00  0.00    -0.002 A 
ATOM     19  C   UNL A   1      42.563  22.317  26.628  1.00  0.00     0.138 A 
ATOM     20  C   UNL A   1      41.296  22.878  26.577  1.00  0.00     0.024 A 
ATOM     21  C   UNL A   1      38.947  21.905  26.104  1.00  0.00     0.049 C 
ATOM     22  C   UNL A   1      43.732  23.055  26.679  1.00  0.00     0.095 A 
ATOM     23  C   UNL A   1      41.163  24.282  26.693  1.00  0.00     0.020 A 
ATOM     24  C   UNL A   1      43.563  24.443  26.641  1.00  0.00     0.138 A 
ATOM     25  C   UNL A   1      42.312  25.089  26.720  1.00  0.00    -0.001 A 
ATOM     26  O   UNL A   1      44.733  25.168  26.466  1.00  0.00    -0.426 OA
ATOM     27  C   UNL A   1      42.263  26.602  27.017  1.00  0.00     0.035 C 
ATOM     28  C   UNL A   1      44.588  26.209  27.314  1.00  0.00     0.315 C 
ATOM     29  C   UNL A   1      41.189  27.360  26.232  1.00  0.00     0.014 C 
ATOM     30  O   UNL A   1      45.086  26.221  28.412  1.00  0.00    -0.251 OA
ENDBRANCH  13  14
ENDBRANCH  10  13
ENDBRANCH   8   9
BRANCH   8  31
ATOM     31  C   UNL A   1      47.345  28.642  26.421  1.00  0.00     0.070 C 
BRANCH  31  32
ATOM     32  C   UNL A   1      48.362  27.783  25.229  1.00  0.00    -0.037 C 
ATOM     33  C   UNL A   1      49.762  27.694  25.181  1.00  0.00     0.001 A 
ATOM     34  C   UNL A   1      47.819  26.465  25.630  1.00  0.00     0.174 C 
ATOM     35  C   UNL A   1      51.108  26.712  24.283  1.00  0.00     0.010 A 
ATOM     36  C   UNL A   1      49.564  27.228  26.874  1.00  0.00     0.065 A 
ATOM     37  N   UNL A   1      48.459  26.472  26.976  1.00  0.00    -0.280 NA
ATOM     38  C   UNL A   1      52.301  25.844  25.153  1.00  0.00     0.001 A 
ATOM     39  C   UNL A   1      50.931  26.707  27.903  1.00  0.00     0.028 A 
ATOM     40  C   UNL A   1      52.043  25.812  27.253  1.00  0.00     0.002 A 
ENDBRANCH  31  32
ENDBRANCH   8  31
ENDBRANCH   6   8
ENDBRANCH   5   6
ENDBRANCH   4   5
ENDBRANCH   3   4
ENDBRANCH   2   3
ENDBRANCH   1   2
BRANCH   1  41
ATOM     41  C   UNL A   1      47.430  37.099  26.051  1.00  0.00     0.188 C 
BRANCH  41  42
ATOM     42  O   UNL A   1      46.664  38.219  25.716  1.00  0.00    -0.376 OA
BRANCH  42  43
ATOM     43  C   UNL A   1      46.781  39.349  26.529  1.00  0.00     0.202 C 
BRANCH  43  44
ATOM     44  C   UNL A   1      45.709  39.734  27.565  1.00  0.00     0.261 C 
BRANCH  44  45
ATOM     45  O   UNL A   1      45.433  38.818  28.642  1.00  0.00    -0.460 OA
BRANCH  45  46
ATOM     46  C   UNL A   1      44.196  38.891  29.208  1.00  0.00     0.338 C 
ATOM     47  O   UNL A   1      43.406  39.817  29.135  1.00  0.00    -0.246 OA
BRANCH  46  48
ATOM     48  C   UNL A   1      43.825  37.562  29.727  1.00  0.00     0.060 A 
ATOM     49  C   UNL A   1      42.975  36.356  28.889  1.00  0.00     0.016 A 
ATOM     50  C   UNL A   1      44.180  37.289  31.422  1.00  0.00     0.016 A 
ATOM     51  C   UNL A   1      42.410  34.861  29.619  1.00  0.00     0.010 A 
ATOM     52  C   UNL A   1      43.557  35.598  32.361  1.00  0.00     0.010 A 
ATOM     53  C   UNL A   1      42.556  34.473  31.329  1.00  0.00    -0.014 A 
BRANCH  53  54
ATOM     54  C   UNL A   1      41.260  33.784  31.894  1.00  0.00     0.031 A 
ATOM     55  C   UNL A   1      41.704  32.414  32.273  1.00  0.00     0.074 A 
ATOM     56  C   UNL A   1      40.141  34.408  32.448  1.00  0.00     0.049 A 
ATOM     57  N   UNL A   1      42.120  31.984  33.421  1.00  0.00    -0.248 NA
ATOM     58  C   UNL A   1      42.047  31.538  31.146  1.00  0.00     0.031 C 
ATOM     59  C   UNL A   1      39.996  34.933  33.833  1.00  0.00     0.029 A 
ATOM     60  N   UNL A   1      38.755  34.177  32.106  1.00  0.00    -0.354 N 
ATOM     61  C   UNL A   1      42.742  30.756  33.179  1.00  0.00     0.074 A 
ATOM     62  C   UNL A   1      42.754  30.578  31.748  1.00  0.00     0.031 C 
ATOM     63  C   UNL A   1      38.712  34.894  34.247  1.00  0.00     0.029 A 
ATOM     64  C   UNL A   1      37.864  34.325  33.210  1.00  0.00     0.049 A 
ATOM     65  H   UNL A   1      38.456  33.940  31.198  1.00  0.00     0.167 HD
ATOM     66  C   UNL A   1      43.142  29.901  34.161  1.00  0.00     0.034 A 
ATOM     67  C   UNL A   1      36.719  33.599  33.470  1.00  0.00     0.034 A 
ATOM     68  C   UNL A   1      42.736  30.312  35.474  1.00  0.00     0.049 A 
ATOM     69  C   UNL A   1      37.263  32.500  34.358  1.00  0.00     0.074 A 
ATOM     70  C   UNL A   1      43.294  30.708  36.664  1.00  0.00     0.029 A 
ATOM     71  N   UNL A   1      41.378  30.364  35.685  1.00  0.00    -0.354 N 
ATOM     72  N   UNL A   1      37.645  32.624  35.605  1.00  0.00    -0.248 NA
ATOM     73  C   UNL A   1      37.899  31.414  33.608  1.00  0.00     0.031 C 
ATOM     74  C   UNL A   1      42.247  31.381  37.372  1.00  0.00     0.029 A 
ATOM     75  C   UNL A   1      41.083  31.335  36.604  1.00  0.00     0.049 A 
ATOM     76  H   UNL A   1      40.715  29.788  35.240  1.00  0.00     0.167 HD
ATOM     77  C   UNL A   1      38.843  31.901  35.674  1.00  0.00     0.074 A 
ATOM     78  C   UNL A   1      38.960  31.251  34.383  1.00  0.00     0.031 C 
ATOM     79  C   UNL A   1      39.790  32.006  36.658  1.00  0.00     0.034 A 
BRANCH  66  80
ATOM     80  C   UNL A   1      43.595  28.504  33.899  1.00  0.00     0.023 A 
ATOM     81  C   UNL A   1      44.909  28.138  33.557  1.00  0.00     0.031 A 
ATOM     82  C   UNL A   1      42.650  27.475  34.088  1.00  0.00     0.131 A 
ATOM     83  C   UNL A   1      45.232  26.771  33.425  1.00  0.00     0.055 A 
ATOM     84  C   UNL A   1      42.982  26.126  33.981  1.00  0.00     0.041 A 
ATOM     85  F   UNL A   1      41.375  27.776  34.386  1.00  0.00    -0.206 F 
ATOM     86  C   UNL A   1      44.280  25.768  33.652  1.00  0.00     0.022 A 
BRANCH  83  87
ATOM     87  S   UNL A   1      46.897  26.210  32.953  1.00  0.00     0.124 S 
ATOM     88  O   UNL A   1      46.751  25.955  31.522  1.00  0.00    -0.237 OA
ATOM     89  O   UNL A   1      47.715  27.372  33.295  1.00  0.00    -0.237 OA
ATOM     90  O   UNL A   1      47.115  25.028  33.780  1.00  0.00    -0.744 OA
ENDBRANCH  83  87
ENDBRANCH  66  80
BRANCH  67  91
ATOM     91  C   UNL A   1      35.759  33.326  32.347  1.00  0.00     0.023 A 
ATOM     92  C   UNL A   1      35.860  32.282  31.412  1.00  0.00     0.031 A 
ATOM     93  C   UNL A   1      34.741  34.272  32.130  1.00  0.00     0.131 A 
ATOM     94  C   UNL A   1      35.223  32.408  30.167  1.00  0.00     0.055 A 
ATOM     95  C   UNL A   1      34.043  34.351  30.925  1.00  0.00     0.041 A 
ATOM     96  F   UNL A   1      34.448  35.177  33.079  1.00  0.00    -0.206 F 
ATOM     97  C   UNL A   1      34.340  33.457  29.906  1.00  0.00     0.022 A 
BRANCH  94  98
ATOM     98  S   UNL A   1      35.685  31.333  28.776  1.00  0.00     0.124 S 
ATOM     99  O   UNL A   1      35.747  30.016  29.405  1.00  0.00    -0.237 OA
ATOM    100  O   UNL A   1      34.561  31.544  27.869  1.00  0.00    -0.237 OA
ATOM    101  O   UNL A   1      36.964  31.877  28.334  1.00  0.00    -0.744 OA
ENDBRANCH  94  98
ENDBRANCH  67  91
BRANCH  79 102
ATOM    102  C   UNL A   1      39.516  32.892  37.846  1.00  0.00     0.023 A 
ATOM    103  C   UNL A   1      38.653  32.477  38.895  1.00  0.00     0.031 A 
ATOM    104  C   UNL A   1      39.908  34.239  37.804  1.00  0.00     0.131 A 
ATOM    105  C   UNL A   1      38.121  33.432  39.776  1.00  0.00     0.055 A 
ATOM    106  C   UNL A   1      39.431  35.166  38.729  1.00  0.00     0.041 A 
ATOM    107  F   UNL A   1      40.680  34.702  36.809  1.00  0.00    -0.206 F 
ATOM    108  C   UNL A   1      38.514  34.772  39.697  1.00  0.00     0.022 A 
BRANCH 105 109
ATOM    109  S   UNL A   1      36.770  33.062  40.941  1.00  0.00     0.124 S 
ATOM    110  O   UNL A   1      35.673  32.700  40.044  1.00  0.00    -0.237 OA
ATOM    111  O   UNL A   1      37.334  31.953  41.710  1.00  0.00    -0.237 OA
ATOM    112  O   UNL A   1      36.569  34.290  41.698  1.00  0.00    -0.744 OA
ENDBRANCH 105 109
ENDBRANCH  79 102
ENDBRANCH  53  54
ENDBRANCH  46  48
ENDBRANCH  45  46
ENDBRANCH  44  45
ENDBRANCH  43  44
ENDBRANCH  42  43
ENDBRANCH  41  42
ENDBRANCH   1  41
TORSDOF 25
ENDMDL
MODEL 3
REMARK VINA RESULT:      -8.4     10.664     15.504
REMARK SMILES Cc1oc2cc3c(cc2c1C)[C@H](C)[C@@H](CC(=O)N[C@H](CC1=c2ccccc2=NC1)C(=O)OCCOCCOCCOC(=O)c1ccc(-c2c4nc(c(-c5cc(S(=O)(=O)[O-])ccc5F)c5ccc([nH]5)c(-c5cc(S(=O)(=O)[O-])ccc5F)c5nc(c(-c6cc(S(=O)(=O)[O-])ccc6F)c6ccc2[nH]6)C=C5)C=C4)cc1)C(=O)O3
REMARK SMILES IDX 36 1 35 2 34 3 33 4 32 5 30 6 31 7 19 8 18 9 16 10 17 11
REMARK SMILES IDX 15 13 14 14 1 15 2 16 3 17 10 18 4 19 9 20 11 21 5 22 8 23
REMARK SMILES IDX 6 24 7 25 109 26 12 27 107 28 13 29 108 30 20 31 21 32 22 33
REMARK SMILES IDX 29 34 23 35 27 36 28 37 24 38 26 39 25 40 37 41 38 42 39 43
REMARK SMILES IDX 40 44 41 45 42 46 43 47 44 48 45 49 106 50 46 51 105 52
REMARK SMILES IDX 47 53 48 54 49 55 99 56 50 57 104 58 98 59 100 60 51 61
REMARK SMILES IDX 103 62 97 63 96 64 52 66 84 67 64 68 83 69 65 70 68 71 82 72
REMARK SMILES IDX 101 73 66 74 67 75 81 77 102 78 69 79 53 80 54 81 62 82
REMARK SMILES IDX 55 83 61 84 63 85 60 86 56 87 57 88 58 89 59 90 85 91 86 92
REMARK SMILES IDX 94 93 87 94 93 95 95 96 92 97 88 98 89 99 90 100 91 101
REMARK SMILES IDX 70 102 71 103 79 104 72 105 78 106 80 107 77 108 73 109
REMARK SMILES IDX 74 110 75 111 76 112
REMARK H PARENT 18 12 100 65 68 76
REMARK Flexibility Score: inf
ROOT
ATOM      1  C   UNL A   1      45.844  40.557  25.086  1.00  0.00     0.188 C 
ENDROOT
BRANCH   1   2
ATOM      2  O   UNL A   1      45.503  41.911  25.146  1.00  0.00    -0.376 OA
BRANCH   2   3
ATOM      3  C   UNL A   1      44.110  42.075  25.256  1.00  0.00     0.202 C 
BRANCH   3   4
ATOM      4  C   UNL A   1      43.245  42.755  24.130  1.00  0.00     0.261 C 
BRANCH   4   5
ATOM      5  O   UNL A   1      43.436  42.509  22.680  1.00  0.00    -0.462 OA
BRANCH   5   6
ATOM      6  C   UNL A   1      42.512  42.857  21.711  1.00  0.00     0.329 C 
ATOM      7  O   UNL A   1      41.313  42.625  21.860  1.00  0.00    -0.250 OA
BRANCH   6   8
ATOM      8  C   UNL A   1      43.095  43.606  20.365  1.00  0.00     0.196 C 
BRANCH   8   9
ATOM      9  N   UNL A   1      44.221  44.583  20.755  1.00  0.00    -0.342 N 
ATOM     10  C   UNL A   1      45.558  44.771  20.568  1.00  0.00     0.221 C 
ATOM     11  O   UNL A   1      46.033  45.770  21.138  1.00  0.00    -0.275 OA
ATOM     12  H   UNL A   1      43.857  45.303  21.320  1.00  0.00     0.164 HD
BRANCH  10  13
ATOM     13  C   UNL A   1      46.568  43.936  19.738  1.00  0.00     0.116 C 
BRANCH  13  14
ATOM     14  C   UNL A   1      48.068  44.265  19.873  1.00  0.00     0.116 C 
ATOM     15  C   UNL A   1      56.262  43.285  17.685  1.00  0.00     0.088 C 
ATOM     16  C   UNL A   1      54.807  43.487  17.840  1.00  0.00     0.105 A 
ATOM     17  O   UNL A   1      54.237  42.834  18.891  1.00  0.00    -0.461 OA
ATOM     18  C   UNL A   1      53.862  44.258  17.183  1.00  0.00    -0.002 A 
ATOM     19  C   UNL A   1      52.934  43.217  18.941  1.00  0.00     0.138 A 
ATOM     20  C   UNL A   1      52.629  44.051  17.875  1.00  0.00     0.024 A 
ATOM     21  C   UNL A   1      54.066  45.194  16.055  1.00  0.00     0.049 C 
ATOM     22  C   UNL A   1      52.039  42.886  19.943  1.00  0.00     0.095 A 
ATOM     23  C   UNL A   1      51.300  44.513  17.725  1.00  0.00     0.020 A 
ATOM     24  C   UNL A   1      50.779  43.485  19.838  1.00  0.00     0.138 A 
ATOM     25  C   UNL A   1      50.351  44.236  18.724  1.00  0.00    -0.001 A 
ATOM     26  O   UNL A   1      49.967  43.333  20.953  1.00  0.00    -0.426 OA
ATOM     27  C   UNL A   1      48.850  44.551  18.558  1.00  0.00     0.035 C 
ATOM     28  C   UNL A   1      48.751  43.081  20.424  1.00  0.00     0.315 C 
ATOM     29  C   UNL A   1      48.560  45.957  18.028  1.00  0.00     0.014 C 
ATOM     30  O   UNL A   1      48.315  41.962  20.311  1.00  0.00    -0.251 OA
ENDBRANCH  13  14
ENDBRANCH  10  13
ENDBRANCH   8   9
BRANCH   8  31
ATOM     31  C   UNL A   1      42.423  43.852  18.707  1.00  0.00     0.070 C 
BRANCH  31  32
ATOM     32  C   UNL A   1      41.789  45.306  17.883  1.00  0.00    -0.037 C 
ATOM     33  C   UNL A   1      42.257  46.627  17.963  1.00  0.00     0.001 A 
ATOM     34  C   UNL A   1      42.125  44.765  16.547  1.00  0.00     0.174 C 
ATOM     35  C   UNL A   1      42.027  48.286  17.082  1.00  0.00     0.010 A 
ATOM     36  C   UNL A   1      43.809  45.857  17.617  1.00  0.00     0.065 A 
ATOM     37  N   UNL A   1      43.599  44.860  16.742  1.00  0.00    -0.280 NA
ATOM     38  C   UNL A   1      43.366  49.141  16.441  1.00  0.00     0.001 A 
ATOM     39  C   UNL A   1      45.315  46.785  17.353  1.00  0.00     0.028 A 
ATOM     40  C   UNL A   1      45.220  48.129  16.550  1.00  0.00     0.002 A 
ENDBRANCH  31  32
ENDBRANCH   8  31
ENDBRANCH   6   8
ENDBRANCH   5   6
ENDBRANCH   4   5
ENDBRANCH   3   4
ENDBRANCH   2   3
ENDBRANCH   1   2
BRANCH   1  41
ATOM     41  C   UNL A   1      46.568  39.863  26.248  1.00  0.00     0.188 C 
BRANCH  41  42
ATOM     42  O   UNL A   1      46.796  38.484  26.232  1.00  0.00    -0.376 OA
BRANCH  42  43
ATOM     43  C   UNL A   1      46.940  37.839  27.462  1.00  0.00     0.202 C 
BRANCH  43  44
ATOM     44  C   UNL A   1      47.121  36.314  27.577  1.00  0.00     0.261 C 
BRANCH  44  45
ATOM     45  O   UNL A   1      48.276  35.809  28.273  1.00  0.00    -0.460 OA
BRANCH  45  46
ATOM     46  C   UNL A   1      48.140  34.604  28.894  1.00  0.00     0.338 C 
ATOM     47  O   UNL A   1      48.972  33.716  28.971  1.00  0.00    -0.246 OA
BRANCH  46  48
ATOM     48  C   UNL A   1      46.907  34.615  29.702  1.00  0.00     0.060 A 
ATOM     49  C   UNL A   1      46.571  35.639  31.013  1.00  0.00     0.016 A 
ATOM     50  C   UNL A   1      45.759  33.338  29.343  1.00  0.00     0.016 A 
ATOM     51  C   UNL A   1      45.158  35.487  32.045  1.00  0.00     0.010 A 
ATOM     52  C   UNL A   1      44.101  33.071  30.487  1.00  0.00     0.010 A 
ATOM     53  C   UNL A   1      43.971  34.193  31.922  1.00  0.00    -0.014 A 
BRANCH  53  54
ATOM     54  C   UNL A   1      43.520  33.665  33.332  1.00  0.00     0.031 A 
ATOM     55  C   UNL A   1      42.053  33.449  33.195  1.00  0.00     0.074 A 
ATOM     56  C   UNL A   1      44.306  33.013  34.284  1.00  0.00     0.049 A 
ATOM     57  N   UNL A   1      41.419  32.366  32.875  1.00  0.00    -0.248 NA
ATOM     58  C   UNL A   1      41.255  34.673  33.060  1.00  0.00     0.031 C 
ATOM     59  C   UNL A   1      44.692  31.576  34.301  1.00  0.00     0.029 A 
ATOM     60  N   UNL A   1      44.419  33.335  35.689  1.00  0.00    -0.354 N 
ATOM     61  C   UNL A   1      40.120  32.758  32.538  1.00  0.00     0.074 A 
ATOM     62  C   UNL A   1      40.104  34.199  32.575  1.00  0.00     0.031 C 
ATOM     63  C   UNL A   1      44.886  31.129  35.560  1.00  0.00     0.029 A 
ATOM     64  C   UNL A   1      44.632  32.194  36.519  1.00  0.00     0.049 A 
ATOM     65  H   UNL A   1      44.355  34.253  36.039  1.00  0.00     0.167 HD
ATOM     66  C   UNL A   1      39.095  31.885  32.327  1.00  0.00     0.034 A 
ATOM     67  C   UNL A   1      44.147  31.977  37.793  1.00  0.00     0.034 A 
ATOM     68  C   UNL A   1      39.436  30.524  32.624  1.00  0.00     0.049 A 
ATOM     69  C   UNL A   1      42.864  31.229  37.496  1.00  0.00     0.074 A 
ATOM     70  C   UNL A   1      39.567  29.317  31.985  1.00  0.00     0.029 A 
ATOM     71  N   UNL A   1      39.756  30.266  33.937  1.00  0.00    -0.354 N 
ATOM     72  N   UNL A   1      42.764  29.989  37.087  1.00  0.00    -0.248 NA
ATOM     73  C   UNL A   1      41.757  32.111  37.118  1.00  0.00     0.031 C 
ATOM     74  C   UNL A   1      40.367  28.508  32.854  1.00  0.00     0.029 A 
ATOM     75  C   UNL A   1      40.660  29.241  34.006  1.00  0.00     0.049 A 
ATOM     76  H   UNL A   1      39.390  30.750  34.713  1.00  0.00     0.167 HD
ATOM     77  C   UNL A   1      41.796  30.034  36.075  1.00  0.00     0.074 A 
ATOM     78  C   UNL A   1      41.284  31.391  36.111  1.00  0.00     0.031 C 
ATOM     79  C   UNL A   1      41.584  29.075  35.121  1.00  0.00     0.034 A 
BRANCH  66  80
ATOM     80  C   UNL A   1      37.671  32.309  32.192  1.00  0.00     0.023 A 
ATOM     81  C   UNL A   1      37.022  32.563  30.970  1.00  0.00     0.031 A 
ATOM     82  C   UNL A   1      36.907  32.382  33.374  1.00  0.00     0.131 A 
ATOM     83  C   UNL A   1      35.645  32.868  30.970  1.00  0.00     0.055 A 
ATOM     84  C   UNL A   1      35.541  32.659  33.365  1.00  0.00     0.041 A 
ATOM     85  F   UNL A   1      37.488  32.178  34.567  1.00  0.00    -0.206 F 
ATOM     86  C   UNL A   1      34.902  32.900  32.158  1.00  0.00     0.022 A 
BRANCH  83  87
ATOM     87  S   UNL A   1      34.735  33.241  29.439  1.00  0.00     0.124 S 
ATOM     88  O   UNL A   1      34.495  31.912  28.883  1.00  0.00    -0.237 OA
ATOM     89  O   UNL A   1      33.549  33.922  29.953  1.00  0.00    -0.237 OA
ATOM     90  O   UNL A   1      35.657  34.080  28.681  1.00  0.00    -0.744 OA
ENDBRANCH  83  87
ENDBRANCH  66  80
BRANCH  67  91
ATOM     91  C   UNL A   1      44.214  33.092  38.798  1.00  0.00     0.023 A 
ATOM     92  C   UNL A   1      43.142  33.909  39.196  1.00  0.00     0.031 A 
ATOM     93  C   UNL A   1      45.487  33.438  39.287  1.00  0.00     0.131 A 
ATOM     94  C   UNL A   1      43.405  35.178  39.735  1.00  0.00     0.055 A 
ATOM     95  C   UNL A   1      45.740  34.665  39.902  1.00  0.00     0.041 A 
ATOM     96  F   UNL A   1      46.523  32.599  39.122  1.00  0.00    -0.206 F 
ATOM     97  C   UNL A   1      44.704  35.574  40.059  1.00  0.00     0.022 A 
BRANCH  94  98
ATOM     98  S   UNL A   1      42.094  36.433  39.835  1.00  0.00     0.124 S 
ATOM     99  O   UNL A   1      40.883  35.635  39.667  1.00  0.00    -0.237 OA
ATOM    100  O   UNL A   1      42.315  36.967  41.176  1.00  0.00    -0.237 OA
ATOM    101  O   UNL A   1      42.405  37.340  38.735  1.00  0.00    -0.744 OA
ENDBRANCH  94  98
ENDBRANCH  67  91
BRANCH  79 102
ATOM    102  C   UNL A   1      42.371  27.791  35.187  1.00  0.00     0.023 A 
ATOM    103  C   UNL A   1      43.415  27.514  34.265  1.00  0.00     0.031 A 
ATOM    104  C   UNL A   1      41.910  26.744  35.999  1.00  0.00     0.131 A 
ATOM    105  C   UNL A   1      43.867  26.195  34.101  1.00  0.00     0.055 A 
ATOM    106  C   UNL A   1      42.417  25.452  35.881  1.00  0.00     0.041 A 
ATOM    107  F   UNL A   1      40.891  26.931  36.853  1.00  0.00    -0.206 F 
ATOM    108  C   UNL A   1      43.374  25.168  34.912  1.00  0.00     0.022 A 
BRANCH 105 109
ATOM    109  S   UNL A   1      44.960  25.683  32.737  1.00  0.00     0.124 S 
ATOM    110  O   UNL A   1      44.210  24.583  32.132  1.00  0.00    -0.237 OA
ATOM    111  O   UNL A   1      45.027  26.903  31.934  1.00  0.00    -0.237 OA
ATOM    112  O   UNL A   1      46.213  25.299  33.372  1.00  0.00    -0.744 OA
ENDBRANCH 105 109
ENDBRANCH  79 102
ENDBRANCH  53  54
ENDBRANCH  46  48
ENDBRANCH  45  46
ENDBRANCH  44  45
ENDBRANCH  43  44
ENDBRANCH  42  43
ENDBRANCH  41  42
ENDBRANCH   1  41
TORSDOF 25
ENDMDL
