MODEL 1
REMARK VINA RESULT:     -11.3      0.000      0.000
REMARK SMILES CC1(C)S[C@H](c2ccc(-c3cccc([N+](=O)[O-])c3)o2)[NH2+][C@@H]1C(=O)OCCOCCOCCOC(=O)c1ccc(-c2c3nc(c(-c4cc(S(=O)(=O)[O-])ccc4F)c4ccc([nH]4)c(-c4cc(S(=O)(=O)[O-])ccc4F)c4nc(c(-c5cc(S(=O)(=O)[O-])ccc5F)c5ccc2[nH]5)C=C4)C=C3)cc1
REMARK SMILES IDX 28 1 27 2 26 3 25 4 24 5 22 6 23 7 21 8 1 9 2 10 3 11 4 12
REMARK SMILES IDX 5 13 20 14 6 17 7 18 19 19 8 20 9 21 10 22 11 23 18 24 12 25
REMARK SMILES IDX 14 26 13 27 15 28 16 29 17 30 29 31 30 32 31 33 32 34 33 35
REMARK SMILES IDX 34 36 35 37 36 38 37 39 98 40 38 41 97 42 39 43 40 44 41 45
REMARK SMILES IDX 91 46 42 47 96 48 90 49 92 50 43 51 95 52 89 53 88 54 44 56
REMARK SMILES IDX 76 57 56 58 75 59 57 60 60 61 74 62 93 63 58 64 59 65 73 67
REMARK SMILES IDX 94 68 61 69 45 70 46 71 54 72 47 73 53 74 55 75 52 76 48 77
REMARK SMILES IDX 49 78 50 79 51 80 77 81 78 82 86 83 79 84 85 85 87 86 84 87
REMARK SMILES IDX 80 88 81 89 82 90 83 91 62 92 63 93 71 94 64 95 70 96 72 97
REMARK SMILES IDX 69 98 65 99 66 100 67 101 68 102
REMARK H PARENT 20 15 20 16 92 55 60 66
REMARK Flexibility Score: inf
ROOT
ATOM      1  C   UNL A   1      31.779  29.133  26.231  1.00  0.00     0.188 C 
ENDROOT
BRANCH   1   2
ATOM      2  O   UNL A   1      33.154  28.818  26.133  1.00  0.00    -0.376 OA
BRANCH   2   3
ATOM      3  C   UNL A   1      33.500  27.448  26.223  1.00  0.00     0.202 C 
BRANCH   3   4
ATOM      4  C   UNL A   1      32.409  26.386  26.387  1.00  0.00     0.261 C 
BRANCH   4   5
ATOM      5  O   UNL A   1      32.507  25.213  25.592  1.00  0.00    -0.459 OA
BRANCH   5   6
ATOM      6  C   UNL A   1      31.365  24.771  24.997  1.00  0.00     0.366 C 
ATOM      7  O   UNL A   1      30.285  25.338  25.076  1.00  0.00    -0.245 OA
BRANCH   6   8
ATOM      8  C   UNL A   1      31.700  23.487  24.206  1.00  0.00     0.310 C 
ATOM      9  C   UNL A   1      33.184  21.445  23.937  1.00  0.00     0.030 C 
ATOM     10  C   UNL A   1      33.118  22.922  24.391  1.00  0.00     0.079 C 
ATOM     11  C   UNL A   1      33.630  22.966  25.835  1.00  0.00     0.030 C 
ATOM     12  S   UNL A   1      34.068  23.953  23.211  1.00  0.00    -0.078 SA
ATOM     13  C   UNL A   1      32.584  24.534  22.275  1.00  0.00     0.311 C 
ATOM     14  N   UNL A   1      31.458  23.722  22.753  1.00  0.00    -0.316 N 
ATOM     15  H   UNL A   1      31.426  22.834  22.252  1.00  0.00     0.348 HD
ATOM     16  H   UNL A   1      30.568  24.194  22.597  1.00  0.00     0.348 HD
BRANCH  13  17
ATOM     17  C   UNL A   1      32.362  26.031  22.384  1.00  0.00     0.172 A 
ATOM     18  C   UNL A   1      33.241  27.082  22.576  1.00  0.00     0.054 A 
ATOM     19  O   UNL A   1      31.082  26.547  22.254  1.00  0.00    -0.454 OA
ATOM     20  C   UNL A   1      32.475  28.271  22.619  1.00  0.00     0.051 A 
ATOM     21  C   UNL A   1      31.161  27.906  22.431  1.00  0.00     0.134 A 
BRANCH  21  22
ATOM     22  C   UNL A   1      29.914  28.667  22.459  1.00  0.00     0.024 A 
ATOM     23  C   UNL A   1      28.797  28.156  23.140  1.00  0.00     0.012 A 
ATOM     24  C   UNL A   1      29.820  29.952  21.915  1.00  0.00     0.097 A 
ATOM     25  C   UNL A   1      27.565  28.815  23.146  1.00  0.00     0.008 A 
ATOM     26  C   UNL A   1      28.610  30.665  22.022  1.00  0.00     0.270 A 
ATOM     27  C   UNL A   1      27.466  30.081  22.585  1.00  0.00     0.085 A 
BRANCH  26  28
ATOM     28  N   UNL A   1      28.555  32.076  21.621  1.00  0.00     0.062 N 
ATOM     29  O   UNL A   1      28.825  32.932  22.478  1.00  0.00    -0.258 OA
ATOM     30  O   UNL A   1      28.284  32.331  20.440  1.00  0.00    -0.258 OA
ENDBRANCH  26  28
ENDBRANCH  21  22
ENDBRANCH  13  17
ENDBRANCH   6   8
ENDBRANCH   5   6
ENDBRANCH   4   5
ENDBRANCH   3   4
ENDBRANCH   2   3
ENDBRANCH   1   2
BRANCH   1  31
ATOM     31  C   UNL A   1      31.396  30.393  25.423  1.00  0.00     0.188 C 
BRANCH  31  32
ATOM     32  O   UNL A   1      31.071  31.584  26.118  1.00  0.00    -0.376 OA
BRANCH  32  33
ATOM     33  C   UNL A   1      32.036  32.196  26.960  1.00  0.00     0.202 C 
BRANCH  33  34
ATOM     34  C   UNL A   1      32.086  33.713  27.260  1.00  0.00     0.261 C 
BRANCH  34  35
ATOM     35  O   UNL A   1      33.369  34.329  27.429  1.00  0.00    -0.460 OA
BRANCH  35  36
ATOM     36  C   UNL A   1      33.766  34.548  28.711  1.00  0.00     0.338 C 
ATOM     37  O   UNL A   1      33.220  35.256  29.532  1.00  0.00    -0.246 OA
BRANCH  36  38
ATOM     38  C   UNL A   1      34.848  33.586  29.036  1.00  0.00     0.060 A 
ATOM     39  C   UNL A   1      34.532  32.438  29.781  1.00  0.00     0.016 A 
ATOM     40  C   UNL A   1      36.149  33.788  28.574  1.00  0.00     0.016 A 
ATOM     41  C   UNL A   1      35.518  31.493  30.073  1.00  0.00     0.010 A 
ATOM     42  C   UNL A   1      37.145  32.864  28.906  1.00  0.00     0.010 A 
ATOM     43  C   UNL A   1      36.840  31.726  29.677  1.00  0.00    -0.014 A 
BRANCH  43  44
ATOM     44  C   UNL A   1      37.942  30.931  30.273  1.00  0.00     0.031 A 
ATOM     45  C   UNL A   1      38.300  31.207  31.709  1.00  0.00     0.074 A 
ATOM     46  C   UNL A   1      38.614  29.998  29.575  1.00  0.00     0.049 A 
ATOM     47  N   UNL A   1      39.281  30.734  32.431  1.00  0.00    -0.248 NA
ATOM     48  C   UNL A   1      37.428  32.156  32.420  1.00  0.00     0.031 C 
ATOM     49  C   UNL A   1      38.326  29.598  28.199  1.00  0.00     0.029 A 
ATOM     50  N   UNL A   1      39.696  29.227  29.930  1.00  0.00    -0.354 N 
ATOM     51  C   UNL A   1      39.152  31.334  33.678  1.00  0.00     0.074 A 
ATOM     52  C   UNL A   1      38.018  32.228  33.602  1.00  0.00     0.031 C 
ATOM     53  C   UNL A   1      39.224  28.670  27.819  1.00  0.00     0.029 A 
ATOM     54  C   UNL A   1      40.177  28.444  28.906  1.00  0.00     0.049 A 
ATOM     55  H   UNL A   1      40.089  29.236  30.832  1.00  0.00     0.167 HD
ATOM     56  C   UNL A   1      39.909  31.155  34.788  1.00  0.00     0.034 A 
ATOM     57  C   UNL A   1      41.278  27.665  28.847  1.00  0.00     0.034 A 
ATOM     58  C   UNL A   1      41.053  30.281  34.842  1.00  0.00     0.049 A 
ATOM     59  C   UNL A   1      42.174  27.562  30.064  1.00  0.00     0.074 A 
ATOM     60  C   UNL A   1      41.887  30.020  35.914  1.00  0.00     0.029 A 
ATOM     61  N   UNL A   1      41.537  29.538  33.773  1.00  0.00    -0.354 N 
ATOM     62  N   UNL A   1      42.041  28.131  31.241  1.00  0.00    -0.248 NA
ATOM     63  C   UNL A   1      43.366  26.712  29.942  1.00  0.00     0.031 C 
ATOM     64  C   UNL A   1      42.920  29.186  35.473  1.00  0.00     0.029 A 
ATOM     65  C   UNL A   1      42.679  28.850  34.150  1.00  0.00     0.049 A 
ATOM     66  H   UNL A   1      41.129  29.505  32.877  1.00  0.00     0.167 HD
ATOM     67  C   UNL A   1      43.113  27.674  32.008  1.00  0.00     0.074 A 
ATOM     68  C   UNL A   1      43.875  26.778  31.164  1.00  0.00     0.031 C 
ATOM     69  C   UNL A   1      43.434  27.961  33.296  1.00  0.00     0.034 A 
BRANCH  56  70
ATOM     70  C   UNL A   1      39.553  31.973  36.005  1.00  0.00     0.023 A 
ATOM     71  C   UNL A   1      38.659  31.498  36.981  1.00  0.00     0.031 A 
ATOM     72  C   UNL A   1      40.085  33.264  36.172  1.00  0.00     0.131 A 
ATOM     73  C   UNL A   1      38.268  32.335  38.037  1.00  0.00     0.055 A 
ATOM     74  C   UNL A   1      39.757  34.059  37.271  1.00  0.00     0.041 A 
ATOM     75  F   UNL A   1      40.922  33.781  35.258  1.00  0.00    -0.206 F 
ATOM     76  C   UNL A   1      38.832  33.602  38.204  1.00  0.00     0.022 A 
BRANCH  73  77
ATOM     77  S   UNL A   1      36.900  31.801  39.103  1.00  0.00     0.124 S 
ATOM     78  O   UNL A   1      36.771  30.393  38.733  1.00  0.00    -0.237 OA
ATOM     79  O   UNL A   1      37.420  32.065  40.439  1.00  0.00    -0.237 OA
ATOM     80  O   UNL A   1      35.789  32.652  38.684  1.00  0.00    -0.744 OA
ENDBRANCH  73  77
ENDBRANCH  56  70
BRANCH  57  81
ATOM     81  C   UNL A   1      41.643  26.955  27.585  1.00  0.00     0.023 A 
ATOM     82  C   UNL A   1      41.539  25.558  27.479  1.00  0.00     0.031 A 
ATOM     83  C   UNL A   1      42.173  27.659  26.488  1.00  0.00     0.131 A 
ATOM     84  C   UNL A   1      42.004  24.906  26.324  1.00  0.00     0.055 A 
ATOM     85  C   UNL A   1      42.579  27.011  25.320  1.00  0.00     0.041 A 
ATOM     86  F   UNL A   1      42.304  28.994  26.537  1.00  0.00    -0.206 F 
ATOM     87  C   UNL A   1      42.509  25.624  25.239  1.00  0.00     0.022 A 
BRANCH  84  88
ATOM     88  S   UNL A   1      42.030  23.092  26.302  1.00  0.00     0.124 S 
ATOM     89  O   UNL A   1      40.609  22.774  26.380  1.00  0.00    -0.237 OA
ATOM     90  O   UNL A   1      42.681  22.816  25.025  1.00  0.00    -0.237 OA
ATOM     91  O   UNL A   1      42.814  22.748  27.486  1.00  0.00    -0.744 OA
ENDBRANCH  84  88
ENDBRANCH  57  81
BRANCH  69  92
ATOM     92  C   UNL A   1      44.628  27.252  33.892  1.00  0.00     0.023 A 
ATOM     93  C   UNL A   1      44.562  25.921  34.339  1.00  0.00     0.031 A 
ATOM     94  C   UNL A   1      45.859  27.925  34.006  1.00  0.00     0.131 A 
ATOM     95  C   UNL A   1      45.689  25.323  34.925  1.00  0.00     0.055 A 
ATOM     96  C   UNL A   1      46.993  27.305  34.531  1.00  0.00     0.041 A 
ATOM     97  F   UNL A   1      45.982  29.199  33.599  1.00  0.00    -0.206 F 
ATOM     98  C   UNL A   1      46.909  25.999  35.005  1.00  0.00     0.022 A 
BRANCH  95  99
ATOM     99  S   UNL A   1      45.518  23.676  35.666  1.00  0.00     0.124 S 
ATOM    100  O   UNL A   1      46.182  22.830  34.680  1.00  0.00    -0.237 OA
ATOM    101  O   UNL A   1      46.209  23.833  36.941  1.00  0.00    -0.237 OA
ATOM    102  O   UNL A   1      44.070  23.492  35.765  1.00  0.00    -0.744 OA
ENDBRANCH  95  99
ENDBRANCH  69  92
ENDBRANCH  43  44
ENDBRANCH  36  38
ENDBRANCH  35  36
ENDBRANCH  34  35
ENDBRANCH  33  34
ENDBRANCH  32  33
ENDBRANCH  31  32
ENDBRANCH   1  31
TORSDOF 23
ENDMDL
MODEL 2
REMARK VINA RESULT:     -11.1      4.688      6.945
REMARK SMILES CC1(C)S[C@H](c2ccc(-c3cccc([N+](=O)[O-])c3)o2)[NH2+][C@@H]1C(=O)OCCOCCOCCOC(=O)c1ccc(-c2c3nc(c(-c4cc(S(=O)(=O)[O-])ccc4F)c4ccc([nH]4)c(-c4cc(S(=O)(=O)[O-])ccc4F)c4nc(c(-c5cc(S(=O)(=O)[O-])ccc5F)c5ccc2[nH]5)C=C4)C=C3)cc1
REMARK SMILES IDX 28 1 27 2 26 3 25 4 24 5 22 6 23 7 21 8 1 9 2 10 3 11 4 12
REMARK SMILES IDX 5 13 20 14 6 17 7 18 19 19 8 20 9 21 10 22 11 23 18 24 12 25
REMARK SMILES IDX 14 26 13 27 15 28 16 29 17 30 29 31 30 32 31 33 32 34 33 35
REMARK SMILES IDX 34 36 35 37 36 38 37 39 98 40 38 41 97 42 39 43 40 44 41 45
REMARK SMILES IDX 91 46 42 47 96 48 90 49 92 50 43 51 95 52 89 53 88 54 44 56
REMARK SMILES IDX 76 57 56 58 75 59 57 60 60 61 74 62 93 63 58 64 59 65 73 67
REMARK SMILES IDX 94 68 61 69 45 70 46 71 54 72 47 73 53 74 55 75 52 76 48 77
REMARK SMILES IDX 49 78 50 79 51 80 77 81 78 82 86 83 79 84 85 85 87 86 84 87
REMARK SMILES IDX 80 88 81 89 82 90 83 91 62 92 63 93 71 94 64 95 70 96 72 97
REMARK SMILES IDX 69 98 65 99 66 100 67 101 68 102
REMARK H PARENT 20 15 20 16 92 55 60 66
REMARK Flexibility Score: inf
ROOT
ATOM      1  C   UNL A   1      32.883  31.630  27.341  1.00  0.00     0.188 C 
ENDROOT
BRANCH   1   2
ATOM      2  O   UNL A   1      33.553  30.394  27.190  1.00  0.00    -0.376 OA
BRANCH   2   3
ATOM      3  C   UNL A   1      32.994  29.479  26.265  1.00  0.00     0.202 C 
BRANCH   3   4
ATOM      4  C   UNL A   1      33.284  27.980  26.390  1.00  0.00     0.261 C 
BRANCH   4   5
ATOM      5  O   UNL A   1      32.220  27.078  26.124  1.00  0.00    -0.459 OA
BRANCH   5   6
ATOM      6  C   UNL A   1      32.519  25.964  25.401  1.00  0.00     0.366 C 
ATOM      7  O   UNL A   1      33.441  25.889  24.603  1.00  0.00    -0.245 OA
BRANCH   6   8
ATOM      8  C   UNL A   1      31.526  24.850  25.802  1.00  0.00     0.310 C 
ATOM      9  C   UNL A   1      31.006  22.370  25.938  1.00  0.00     0.030 C 
ATOM     10  C   UNL A   1      31.737  23.477  25.144  1.00  0.00     0.079 C 
ATOM     11  C   UNL A   1      33.206  23.050  25.036  1.00  0.00     0.030 C 
ATOM     12  S   UNL A   1      30.891  23.718  23.537  1.00  0.00    -0.078 SA
ATOM     13  C   UNL A   1      29.944  25.211  24.078  1.00  0.00     0.311 C 
ATOM     14  N   UNL A   1      30.132  25.309  25.530  1.00  0.00    -0.316 N 
ATOM     15  H   UNL A   1      29.463  24.709  26.013  1.00  0.00     0.348 HD
ATOM     16  H   UNL A   1      29.984  26.261  25.861  1.00  0.00     0.348 HD
BRANCH  13  17
ATOM     17  C   UNL A   1      30.326  26.465  23.315  1.00  0.00     0.172 A 
ATOM     18  C   UNL A   1      31.349  26.726  22.419  1.00  0.00     0.054 A 
ATOM     19  O   UNL A   1      29.559  27.612  23.450  1.00  0.00    -0.454 OA
ATOM     20  C   UNL A   1      31.239  28.083  22.034  1.00  0.00     0.051 A 
ATOM     21  C   UNL A   1      30.143  28.596  22.692  1.00  0.00     0.134 A 
BRANCH  21  22
ATOM     22  C   UNL A   1      29.581  29.943  22.764  1.00  0.00     0.024 A 
ATOM     23  C   UNL A   1      29.782  30.724  23.915  1.00  0.00     0.012 A 
ATOM     24  C   UNL A   1      28.932  30.533  21.676  1.00  0.00     0.097 A 
ATOM     25  C   UNL A   1      29.215  31.993  24.059  1.00  0.00     0.008 A 
ATOM     26  C   UNL A   1      28.462  31.857  21.780  1.00  0.00     0.270 A 
ATOM     27  C   UNL A   1      28.551  32.569  22.984  1.00  0.00     0.085 A 
BRANCH  26  28
ATOM     28  N   UNL A   1      27.947  32.546  20.591  1.00  0.00     0.062 N 
ATOM     29  O   UNL A   1      28.157  32.025  19.485  1.00  0.00    -0.258 OA
ATOM     30  O   UNL A   1      27.296  33.586  20.762  1.00  0.00    -0.258 OA
ENDBRANCH  26  28
ENDBRANCH  21  22
ENDBRANCH  13  17
ENDBRANCH   6   8
ENDBRANCH   5   6
ENDBRANCH   4   5
ENDBRANCH   3   4
ENDBRANCH   2   3
ENDBRANCH   1   2
BRANCH   1  31
ATOM     31  C   UNL A   1      33.836  32.779  27.746  1.00  0.00     0.188 C 
BRANCH  31  32
ATOM     32  O   UNL A   1      33.464  33.639  28.808  1.00  0.00    -0.376 OA
BRANCH  32  33
ATOM     33  C   UNL A   1      34.389  33.917  29.849  1.00  0.00     0.202 C 
BRANCH  33  34
ATOM     34  C   UNL A   1      34.129  33.611  31.343  1.00  0.00     0.261 C 
BRANCH  34  35
ATOM     35  O   UNL A   1      34.774  32.470  31.923  1.00  0.00    -0.460 OA
BRANCH  35  36
ATOM     36  C   UNL A   1      35.984  32.694  32.503  1.00  0.00     0.338 C 
ATOM     37  O   UNL A   1      36.195  33.294  33.537  1.00  0.00    -0.246 OA
BRANCH  36  38
ATOM     38  C   UNL A   1      37.000  31.875  31.797  1.00  0.00     0.060 A 
ATOM     39  C   UNL A   1      37.907  31.119  32.558  1.00  0.00     0.016 A 
ATOM     40  C   UNL A   1      37.031  31.817  30.404  1.00  0.00     0.016 A 
ATOM     41  C   UNL A   1      38.852  30.308  31.926  1.00  0.00     0.010 A 
ATOM     42  C   UNL A   1      38.007  31.040  29.772  1.00  0.00     0.010 A 
ATOM     43  C   UNL A   1      38.937  30.302  30.529  1.00  0.00    -0.014 A 
BRANCH  43  44
ATOM     44  C   UNL A   1      40.139  29.740  29.863  1.00  0.00     0.031 A 
ATOM     45  C   UNL A   1      41.329  30.646  29.696  1.00  0.00     0.074 A 
ATOM     46  C   UNL A   1      40.183  28.473  29.412  1.00  0.00     0.049 A 
ATOM     47  N   UNL A   1      42.452  30.440  29.062  1.00  0.00    -0.248 NA
ATOM     48  C   UNL A   1      41.224  31.970  30.330  1.00  0.00     0.031 C 
ATOM     49  C   UNL A   1      39.120  27.481  29.565  1.00  0.00     0.029 A 
ATOM     50  N   UNL A   1      41.165  27.810  28.715  1.00  0.00    -0.354 N 
ATOM     51  C   UNL A   1      43.186  31.612  29.212  1.00  0.00     0.074 A 
ATOM     52  C   UNL A   1      42.367  32.532  29.968  1.00  0.00     0.031 C 
ATOM     53  C   UNL A   1      39.500  26.341  28.958  1.00  0.00     0.029 A 
ATOM     54  C   UNL A   1      40.810  26.536  28.336  1.00  0.00     0.049 A 
ATOM     55  H   UNL A   1      42.040  28.211  28.506  1.00  0.00     0.167 HD
ATOM     56  C   UNL A   1      44.433  31.895  28.761  1.00  0.00     0.034 A 
ATOM     57  C   UNL A   1      41.455  25.648  27.550  1.00  0.00     0.034 A 
ATOM     58  C   UNL A   1      45.230  30.977  27.986  1.00  0.00     0.049 A 
ATOM     59  C   UNL A   1      42.801  26.024  26.964  1.00  0.00     0.074 A 
ATOM     60  C   UNL A   1      46.505  31.158  27.482  1.00  0.00     0.029 A 
ATOM     61  N   UNL A   1      44.819  29.713  27.583  1.00  0.00    -0.354 N 
ATOM     62  N   UNL A   1      43.489  27.133  27.115  1.00  0.00    -0.248 NA
ATOM     63  C   UNL A   1      43.454  25.026  26.105  1.00  0.00     0.031 C 
ATOM     64  C   UNL A   1      46.834  30.039  26.710  1.00  0.00     0.029 A 
ATOM     65  C   UNL A   1      45.802  29.119  26.807  1.00  0.00     0.049 A 
ATOM     66  H   UNL A   1      43.957  29.299  27.814  1.00  0.00     0.167 HD
ATOM     67  C   UNL A   1      44.672  26.947  26.399  1.00  0.00     0.074 A 
ATOM     68  C   UNL A   1      44.607  25.619  25.828  1.00  0.00     0.031 C 
ATOM     69  C   UNL A   1      45.723  27.793  26.238  1.00  0.00     0.034 A 
BRANCH  56  70
ATOM     70  C   UNL A   1      44.974  33.274  29.047  1.00  0.00     0.023 A 
ATOM     71  C   UNL A   1      44.871  34.318  28.110  1.00  0.00     0.031 A 
ATOM     72  C   UNL A   1      45.639  33.538  30.257  1.00  0.00     0.131 A 
ATOM     73  C   UNL A   1      45.487  35.552  28.370  1.00  0.00     0.055 A 
ATOM     74  C   UNL A   1      46.176  34.794  30.544  1.00  0.00     0.041 A 
ATOM     75  F   UNL A   1      45.793  32.572  31.177  1.00  0.00    -0.206 F 
ATOM     76  C   UNL A   1      46.115  35.806  29.591  1.00  0.00     0.022 A 
BRANCH  73  77
ATOM     77  S   UNL A   1      45.586  36.768  27.027  1.00  0.00     0.124 S 
ATOM     78  O   UNL A   1      45.968  35.926  25.895  1.00  0.00    -0.237 OA
ATOM     79  O   UNL A   1      44.234  37.310  26.992  1.00  0.00    -0.237 OA
ATOM     80  O   UNL A   1      46.621  37.695  27.481  1.00  0.00    -0.744 OA
ENDBRANCH  73  77
ENDBRANCH  56  70
BRANCH  57  81
ATOM     81  C   UNL A   1      40.832  24.333  27.213  1.00  0.00     0.023 A 
ATOM     82  C   UNL A   1      39.639  24.261  26.476  1.00  0.00     0.031 A 
ATOM     83  C   UNL A   1      41.383  23.130  27.690  1.00  0.00     0.131 A 
ATOM     84  C   UNL A   1      39.011  23.020  26.279  1.00  0.00     0.055 A 
ATOM     85  C   UNL A   1      40.786  21.893  27.441  1.00  0.00     0.041 A 
ATOM     86  F   UNL A   1      42.518  23.139  28.408  1.00  0.00    -0.206 F 
ATOM     87  C   UNL A   1      39.584  21.834  26.744  1.00  0.00     0.022 A 
BRANCH  84  88
ATOM     88  S   UNL A   1      37.377  22.988  25.489  1.00  0.00     0.124 S 
ATOM     89  O   UNL A   1      37.668  23.565  24.182  1.00  0.00    -0.237 OA
ATOM     90  O   UNL A   1      37.062  21.563  25.506  1.00  0.00    -0.237 OA
ATOM     91  O   UNL A   1      36.557  23.816  26.370  1.00  0.00    -0.744 OA
ENDBRANCH  84  88
ENDBRANCH  57  81
BRANCH  69  92
ATOM     92  C   UNL A   1      46.914  27.286  25.458  1.00  0.00     0.023 A 
ATOM     93  C   UNL A   1      47.172  27.694  24.138  1.00  0.00     0.031 A 
ATOM     94  C   UNL A   1      47.810  26.380  26.055  1.00  0.00     0.131 A 
ATOM     95  C   UNL A   1      48.268  27.160  23.442  1.00  0.00     0.055 A 
ATOM     96  C   UNL A   1      48.934  25.901  25.380  1.00  0.00     0.041 A 
ATOM     97  F   UNL A   1      47.613  25.952  27.313  1.00  0.00    -0.206 F 
ATOM     98  C   UNL A   1      49.162  26.282  24.061  1.00  0.00     0.022 A 
BRANCH  95  99
ATOM     99  S   UNL A   1      48.464  27.556  21.682  1.00  0.00     0.124 S 
ATOM    100  O   UNL A   1      49.496  28.588  21.718  1.00  0.00    -0.237 OA
ATOM    101  O   UNL A   1      48.863  26.273  21.115  1.00  0.00    -0.237 OA
ATOM    102  O   UNL A   1      47.135  28.022  21.286  1.00  0.00    -0.744 OA
ENDBRANCH  95  99
ENDBRANCH  69  92
ENDBRANCH  43  44
ENDBRANCH  36  38
ENDBRANCH  35  36
ENDBRANCH  34  35
ENDBRANCH  33  34
ENDBRANCH  32  33
ENDBRANCH  31  32
ENDBRANCH   1  31
TORSDOF 23
ENDMDL
MODEL 3
REMARK VINA RESULT:     -10.8      1.907      2.450
REMARK SMILES CC1(C)S[C@H](c2ccc(-c3cccc([N+](=O)[O-])c3)o2)[NH2+][C@@H]1C(=O)OCCOCCOCCOC(=O)c1ccc(-c2c3nc(c(-c4cc(S(=O)(=O)[O-])ccc4F)c4ccc([nH]4)c(-c4cc(S(=O)(=O)[O-])ccc4F)c4nc(c(-c5cc(S(=O)(=O)[O-])ccc5F)c5ccc2[nH]5)C=C4)C=C3)cc1
REMARK SMILES IDX 28 1 27 2 26 3 25 4 24 5 22 6 23 7 21 8 1 9 2 10 3 11 4 12
REMARK SMILES IDX 5 13 20 14 6 17 7 18 19 19 8 20 9 21 10 22 11 23 18 24 12 25
REMARK SMILES IDX 14 26 13 27 15 28 16 29 17 30 29 31 30 32 31 33 32 34 33 35
REMARK SMILES IDX 34 36 35 37 36 38 37 39 98 40 38 41 97 42 39 43 40 44 41 45
REMARK SMILES IDX 91 46 42 47 96 48 90 49 92 50 43 51 95 52 89 53 88 54 44 56
REMARK SMILES IDX 76 57 56 58 75 59 57 60 60 61 74 62 93 63 58 64 59 65 73 67
REMARK SMILES IDX 94 68 61 69 45 70 46 71 54 72 47 73 53 74 55 75 52 76 48 77
REMARK SMILES IDX 49 78 50 79 51 80 77 81 78 82 86 83 79 84 85 85 87 86 84 87
REMARK SMILES IDX 80 88 81 89 82 90 83 91 62 92 63 93 71 94 64 95 70 96 72 97
REMARK SMILES IDX 69 98 65 99 66 100 67 101 68 102
REMARK H PARENT 20 15 20 16 92 55 60 66
REMARK Flexibility Score: inf
ROOT
ATOM      1  C   UNL A   1      33.226  29.075  24.477  1.00  0.00     0.188 C 
ENDROOT
BRANCH   1   2
ATOM      2  O   UNL A   1      33.735  27.845  23.999  1.00  0.00    -0.376 OA
BRANCH   2   3
ATOM      3  C   UNL A   1      33.483  27.538  22.640  1.00  0.00     0.202 C 
BRANCH   3   4
ATOM      4  C   UNL A   1      33.411  26.080  22.178  1.00  0.00     0.261 C 
BRANCH   4   5
ATOM      5  O   UNL A   1      34.556  25.265  22.385  1.00  0.00    -0.459 OA
BRANCH   5   6
ATOM      6  C   UNL A   1      34.395  24.156  23.157  1.00  0.00     0.366 C 
ATOM      7  O   UNL A   1      33.757  23.170  22.820  1.00  0.00    -0.245 OA
BRANCH   6   8
ATOM      8  C   UNL A   1      35.177  24.369  24.473  1.00  0.00     0.310 C 
ATOM      9  C   UNL A   1      36.688  23.397  26.266  1.00  0.00     0.030 C 
ATOM     10  C   UNL A   1      35.555  23.101  25.255  1.00  0.00     0.079 C 
ATOM     11  C   UNL A   1      36.036  21.939  24.378  1.00  0.00     0.030 C 
ATOM     12  S   UNL A   1      34.005  22.774  26.175  1.00  0.00    -0.078 SA
ATOM     13  C   UNL A   1      33.312  24.470  25.928  1.00  0.00     0.311 C 
ATOM     14  N   UNL A   1      34.403  25.277  25.367  1.00  0.00    -0.316 N 
ATOM     15  H   UNL A   1      35.000  25.630  26.115  1.00  0.00     0.348 HD
ATOM     16  H   UNL A   1      34.044  26.083  24.857  1.00  0.00     0.348 HD
BRANCH  13  17
ATOM     17  C   UNL A   1      32.042  24.478  25.099  1.00  0.00     0.172 A 
ATOM     18  C   UNL A   1      31.358  23.466  24.448  1.00  0.00     0.054 A 
ATOM     19  O   UNL A   1      31.346  25.663  24.920  1.00  0.00    -0.454 OA
ATOM     20  C   UNL A   1      30.241  24.054  23.808  1.00  0.00     0.051 A 
ATOM     21  C   UNL A   1      30.272  25.397  24.107  1.00  0.00     0.134 A 
BRANCH  21  22
ATOM     22  C   UNL A   1      29.445  26.521  23.674  1.00  0.00     0.024 A 
ATOM     23  C   UNL A   1      28.132  26.652  24.159  1.00  0.00     0.012 A 
ATOM     24  C   UNL A   1      29.951  27.543  22.866  1.00  0.00     0.097 A 
ATOM     25  C   UNL A   1      27.281  27.673  23.729  1.00  0.00     0.008 A 
ATOM     26  C   UNL A   1      29.127  28.635  22.527  1.00  0.00     0.270 A 
ATOM     27  C   UNL A   1      27.778  28.676  22.908  1.00  0.00     0.085 A 
BRANCH  26  28
ATOM     28  N   UNL A   1      29.699  29.796  21.838  1.00  0.00     0.062 N 
ATOM     29  O   UNL A   1      30.893  30.063  22.046  1.00  0.00    -0.258 OA
ATOM     30  O   UNL A   1      28.971  30.421  21.054  1.00  0.00    -0.258 OA
ENDBRANCH  26  28
ENDBRANCH  21  22
ENDBRANCH  13  17
ENDBRANCH   6   8
ENDBRANCH   5   6
ENDBRANCH   4   5
ENDBRANCH   3   4
ENDBRANCH   2   3
ENDBRANCH   1   2
BRANCH   1  31
ATOM     31  C   UNL A   1      33.271  29.182  26.018  1.00  0.00     0.188 C 
BRANCH  31  32
ATOM     32  O   UNL A   1      33.329  30.465  26.617  1.00  0.00    -0.376 OA
BRANCH  32  33
ATOM     33  C   UNL A   1      32.156  31.260  26.698  1.00  0.00     0.202 C 
BRANCH  33  34
ATOM     34  C   UNL A   1      32.141  32.735  27.163  1.00  0.00     0.261 C 
BRANCH  34  35
ATOM     35  O   UNL A   1      33.383  33.450  27.192  1.00  0.00    -0.460 OA
BRANCH  35  36
ATOM     36  C   UNL A   1      33.843  33.806  28.422  1.00  0.00     0.338 C 
ATOM     37  O   UNL A   1      33.297  34.540  29.219  1.00  0.00    -0.246 OA
BRANCH  36  38
ATOM     38  C   UNL A   1      35.015  32.956  28.746  1.00  0.00     0.060 A 
ATOM     39  C   UNL A   1      34.798  31.698  29.331  1.00  0.00     0.016 A 
ATOM     40  C   UNL A   1      36.310  33.374  28.437  1.00  0.00     0.016 A 
ATOM     41  C   UNL A   1      35.876  30.857  29.615  1.00  0.00     0.010 A 
ATOM     42  C   UNL A   1      37.392  32.550  28.764  1.00  0.00     0.010 A 
ATOM     43  C   UNL A   1      37.183  31.300  29.376  1.00  0.00    -0.014 A 
BRANCH  43  44
ATOM     44  C   UNL A   1      38.330  30.585  29.989  1.00  0.00     0.031 A 
ATOM     45  C   UNL A   1      38.726  30.978  31.387  1.00  0.00     0.074 A 
ATOM     46  C   UNL A   1      39.009  29.624  29.337  1.00  0.00     0.049 A 
ATOM     47  N   UNL A   1      39.746  30.589  32.105  1.00  0.00    -0.248 NA
ATOM     48  C   UNL A   1      37.848  31.950  32.057  1.00  0.00     0.031 C 
ATOM     49  C   UNL A   1      38.687  29.114  28.005  1.00  0.00     0.029 A 
ATOM     50  N   UNL A   1      40.126  28.915  29.708  1.00  0.00    -0.354 N 
ATOM     51  C   UNL A   1      39.639  31.277  33.310  1.00  0.00     0.074 A 
ATOM     52  C   UNL A   1      38.474  32.128  33.210  1.00  0.00     0.031 C 
ATOM     53  C   UNL A   1      39.603  28.190  27.661  1.00  0.00     0.029 A 
ATOM     54  C   UNL A   1      40.599  28.074  28.727  1.00  0.00     0.049 A 
ATOM     55  H   UNL A   1      40.549  29.003  30.593  1.00  0.00     0.167 HD
ATOM     56  C   UNL A   1      40.439  31.204  34.402  1.00  0.00     0.034 A 
ATOM     57  C   UNL A   1      41.722  27.326  28.685  1.00  0.00     0.034 A 
ATOM     58  C   UNL A   1      41.612  30.371  34.478  1.00  0.00     0.049 A 
ATOM     59  C   UNL A   1      42.662  27.342  29.873  1.00  0.00     0.074 A 
ATOM     60  C   UNL A   1      42.491  30.216  35.536  1.00  0.00     0.029 A 
ATOM     61  N   UNL A   1      42.084  29.566  33.449  1.00  0.00    -0.354 N 
ATOM     62  N   UNL A   1      42.550  27.992  31.010  1.00  0.00    -0.248 NA
ATOM     63  C   UNL A   1      43.876  26.521  29.771  1.00  0.00     0.031 C 
ATOM     64  C   UNL A   1      43.535  29.383  35.119  1.00  0.00     0.029 A 
ATOM     65  C   UNL A   1      43.261  28.943  33.834  1.00  0.00     0.049 A 
ATOM     66  H   UNL A   1      41.648  29.455  32.574  1.00  0.00     0.167 HD
ATOM     67  C   UNL A   1      43.662  27.626  31.770  1.00  0.00     0.074 A 
ATOM     68  C   UNL A   1      44.423  26.693  30.966  1.00  0.00     0.031 C 
ATOM     69  C   UNL A   1      44.016  28.017  33.021  1.00  0.00     0.034 A 
BRANCH  56  70
ATOM     70  C   UNL A   1      40.097  32.097  35.568  1.00  0.00     0.023 A 
ATOM     71  C   UNL A   1      39.125  31.737  36.518  1.00  0.00     0.031 A 
ATOM     72  C   UNL A   1      40.725  33.348  35.710  1.00  0.00     0.131 A 
ATOM     73  C   UNL A   1      38.758  32.647  37.521  1.00  0.00     0.055 A 
ATOM     74  C   UNL A   1      40.414  34.213  36.760  1.00  0.00     0.041 A 
ATOM     75  F   UNL A   1      41.640  33.758  34.817  1.00  0.00    -0.206 F 
ATOM     76  C   UNL A   1      39.414  33.871  37.666  1.00  0.00     0.022 A 
BRANCH  73  77
ATOM     77  S   UNL A   1      37.305  32.269  38.541  1.00  0.00     0.124 S 
ATOM     78  O   UNL A   1      37.734  32.749  39.853  1.00  0.00    -0.237 OA
ATOM     79  O   UNL A   1      36.254  33.042  37.891  1.00  0.00    -0.237 OA
ATOM     80  O   UNL A   1      37.176  30.818  38.427  1.00  0.00    -0.744 OA
ENDBRANCH  73  77
ENDBRANCH  56  70
BRANCH  57  81
ATOM     81  C   UNL A   1      42.068  26.536  27.466  1.00  0.00     0.023 A 
ATOM     82  C   UNL A   1      41.766  25.168  27.375  1.00  0.00     0.031 A 
ATOM     83  C   UNL A   1      42.775  27.125  26.401  1.00  0.00     0.131 A 
ATOM     84  C   UNL A   1      42.210  24.424  26.269  1.00  0.00     0.055 A 
ATOM     85  C   UNL A   1      43.164  26.393  25.278  1.00  0.00     0.041 A 
ATOM     86  F   UNL A   1      43.099  28.427  26.438  1.00  0.00    -0.206 F 
ATOM     87  C   UNL A   1      42.894  25.030  25.214  1.00  0.00     0.022 A 
BRANCH  84  88
ATOM     88  S   UNL A   1      41.968  22.625  26.278  1.00  0.00     0.124 S 
ATOM     89  O   UNL A   1      40.513  22.522  26.287  1.00  0.00    -0.237 OA
ATOM     90  O   UNL A   1      42.633  22.226  25.042  1.00  0.00    -0.237 OA
ATOM     91  O   UNL A   1      42.632  22.198  27.508  1.00  0.00    -0.744 OA
ENDBRANCH  84  88
ENDBRANCH  57  81
BRANCH  69  92
ATOM     92  C   UNL A   1      45.253  27.392  33.624  1.00  0.00     0.023 A 
ATOM     93  C   UNL A   1      46.522  27.985  33.509  1.00  0.00     0.031 A 
ATOM     94  C   UNL A   1      45.153  26.180  34.333  1.00  0.00     0.131 A 
ATOM     95  C   UNL A   1      47.646  27.341  34.049  1.00  0.00     0.055 A 
ATOM     96  C   UNL A   1      46.264  25.577  34.923  1.00  0.00     0.041 A 
ATOM     97  F   UNL A   1      43.967  25.566  34.473  1.00  0.00    -0.206 F 
ATOM     98  C   UNL A   1      47.523  26.152  34.773  1.00  0.00     0.022 A 
BRANCH  95  99
ATOM     99  S   UNL A   1      49.291  28.031  33.719  1.00  0.00     0.124 S 
ATOM    100  O   UNL A   1      49.768  27.174  32.639  1.00  0.00    -0.237 OA
ATOM    101  O   UNL A   1      48.984  29.409  33.352  1.00  0.00    -0.237 OA
ATOM    102  O   UNL A   1      49.993  27.871  34.992  1.00  0.00    -0.744 OA
ENDBRANCH  95  99
ENDBRANCH  69  92
ENDBRANCH  43  44
ENDBRANCH  36  38
ENDBRANCH  35  36
ENDBRANCH  34  35
ENDBRANCH  33  34
ENDBRANCH  32  33
ENDBRANCH  31  32
ENDBRANCH   1  31
TORSDOF 23
ENDMDL
