MODEL 1
REMARK VINA RESULT:     -10.0      0.000      0.000
REMARK SMILES O=C(NC(=S)Nc1cc(C(=O)OCCOCCOCCOC(=O)c2ccc(-c3c4nc(c(-c5cc(S(=O)(=O)[O-])ccc5F)c5ccc([nH]5)c(-c5cc(S(=O)(=O)[O-])ccc5F)c5nc(c(-c6cc(S(=O)(=O)[O-])ccc6F)c6ccc3[nH]6)C=C5)C=C4)cc2)ccc1Br)c1ccc(F)cc1
REMARK SMILES IDX 16 1 15 2 14 3 13 4 12 5 10 6 11 7 9 8 7 9 8 10 89 11 88 12
REMARK SMILES IDX 90 13 87 14 6 15 4 17 5 18 3 19 1 20 2 21 91 23 92 24 97 25
REMARK SMILES IDX 93 26 96 27 94 28 95 29 17 30 18 31 19 32 20 33 21 34 22 35
REMARK SMILES IDX 23 36 24 37 25 38 86 39 26 40 85 41 27 42 28 43 29 44 79 45
REMARK SMILES IDX 30 46 84 47 78 48 80 49 31 50 83 51 77 52 76 53 32 55 64 56
REMARK SMILES IDX 44 57 63 58 45 59 48 60 62 61 81 62 46 63 47 64 61 66 82 67
REMARK SMILES IDX 49 68 33 69 34 70 42 71 35 72 41 73 43 74 40 75 36 76 37 77
REMARK SMILES IDX 38 78 39 79 65 80 66 81 74 82 67 83 73 84 75 85 72 86 68 87
REMARK SMILES IDX 69 88 70 89 71 90 50 91 51 92 59 93 52 94 58 95 60 96 57 97
REMARK SMILES IDX 53 98 54 99 55 100 56 101
REMARK H PARENT 6 16 3 22 80 54 48 65
REMARK Flexibility Score: inf
ROOT
ATOM      1  C   UNL A   1      30.710  28.002  23.079  1.00  0.00     0.188 C 
ENDROOT
BRANCH   1   2
ATOM      2  O   UNL A   1      31.859  27.429  22.453  1.00  0.00    -0.376 OA
BRANCH   2   3
ATOM      3  C   UNL A   1      31.692  26.154  21.840  1.00  0.00     0.202 C 
BRANCH   3   4
ATOM      4  C   UNL A   1      31.998  24.978  22.766  1.00  0.00     0.261 C 
BRANCH   4   5
ATOM      5  O   UNL A   1      32.846  25.398  23.852  1.00  0.00    -0.460 OA
BRANCH   5   6
ATOM      6  C   UNL A   1      32.672  24.741  25.019  1.00  0.00     0.338 C 
ATOM      7  O   UNL A   1      31.826  24.938  25.872  1.00  0.00    -0.246 OA
BRANCH   6   8
ATOM      8  C   UNL A   1      33.649  23.650  25.105  1.00  0.00     0.062 A 
ATOM      9  C   UNL A   1      36.810  22.783  25.685  1.00  0.00     0.055 A 
ATOM     10  C   UNL A   1      35.427  24.232  25.719  1.00  0.00     0.043 A 
ATOM     11  C   UNL A   1      36.231  20.992  25.090  1.00  0.00     0.041 A 
ATOM     12  C   UNL A   1      34.443  20.418  24.481  1.00  0.00     0.019 A 
ATOM     13  Br  UNL A   1      37.560  19.610  25.042  1.00  0.00    -0.049 Br
ATOM     14  C   UNL A   1      33.071  21.876  24.487  1.00  0.00     0.017 A 
BRANCH   9  15
ATOM     15  N   UNL A   1      38.126  23.187  25.428  1.00  0.00    -0.331 N 
ATOM     16  H   UNL A   1      38.338  23.530  24.530  1.00  0.00     0.169 HD
BRANCH  15  17
ATOM     17  C   UNL A   1      39.126  23.134  26.341  1.00  0.00     0.177 C 
ATOM     18  S   UNL A   1      39.485  24.493  27.244  1.00  0.00    -0.040 S 
BRANCH  17  19
ATOM     19  N   UNL A   1      39.926  22.006  26.514  1.00  0.00    -0.299 N 
ATOM     20  O   UNL A   1      41.487  20.348  26.723  1.00  0.00    -0.269 OA
ATOM     21  C   UNL A   1      41.256  21.520  26.417  1.00  0.00     0.257 C 
ATOM     22  H   UNL A   1      39.352  21.267  26.817  1.00  0.00     0.172 HD
BRANCH  21  23
ATOM     23  C   UNL A   1      42.450  22.318  26.042  1.00  0.00     0.040 A 
ATOM     24  C   UNL A   1      43.264  21.853  25.155  1.00  0.00     0.017 A 
ATOM     25  C   UNL A   1      43.702  22.015  26.137  1.00  0.00     0.017 A 
ATOM     26  C   UNL A   1      44.974  20.904  24.539  1.00  0.00     0.040 A 
ATOM     27  C   UNL A   1      45.430  21.091  25.538  1.00  0.00     0.040 A 
ATOM     28  C   UNL A   1      46.063  20.269  24.786  1.00  0.00     0.123 A 
ATOM     29  F   UNL A   1      47.242  20.507  24.213  1.00  0.00    -0.207 F 
ENDBRANCH  21  23
ENDBRANCH  17  19
ENDBRANCH  15  17
ENDBRANCH   9  15
ENDBRANCH   6   8
ENDBRANCH   5   6
ENDBRANCH   4   5
ENDBRANCH   3   4
ENDBRANCH   2   3
ENDBRANCH   1   2
BRANCH   1  30
ATOM     30  C   UNL A   1      30.809  28.187  24.595  1.00  0.00     0.188 C 
BRANCH  30  31
ATOM     31  O   UNL A   1      31.154  29.542  24.898  1.00  0.00    -0.376 OA
BRANCH  31  32
ATOM     32  C   UNL A   1      32.452  29.672  25.481  1.00  0.00     0.202 C 
BRANCH  32  33
ATOM     33  C   UNL A   1      32.381  30.515  26.758  1.00  0.00     0.261 C 
BRANCH  33  34
ATOM     34  O   UNL A   1      33.550  30.386  27.584  1.00  0.00    -0.460 OA
BRANCH  34  35
ATOM     35  C   UNL A   1      34.338  31.485  27.659  1.00  0.00     0.338 C 
ATOM     36  O   UNL A   1      34.008  32.621  27.364  1.00  0.00    -0.246 OA
BRANCH  35  37
ATOM     37  C   UNL A   1      35.650  31.121  28.251  1.00  0.00     0.060 A 
ATOM     38  C   UNL A   1      35.839  29.804  28.689  1.00  0.00     0.016 A 
ATOM     39  C   UNL A   1      36.673  32.065  28.413  1.00  0.00     0.016 A 
ATOM     40  C   UNL A   1      37.030  29.438  29.321  1.00  0.00     0.010 A 
ATOM     41  C   UNL A   1      37.860  31.703  29.055  1.00  0.00     0.010 A 
ATOM     42  C   UNL A   1      38.032  30.395  29.535  1.00  0.00    -0.014 A 
BRANCH  42  43
ATOM     43  C   UNL A   1      39.194  30.075  30.394  1.00  0.00     0.031 A 
ATOM     44  C   UNL A   1      39.269  30.681  31.768  1.00  0.00     0.074 A 
ATOM     45  C   UNL A   1      40.180  29.278  29.951  1.00  0.00     0.049 A 
ATOM     46  N   UNL A   1      40.179  30.527  32.694  1.00  0.00    -0.248 NA
ATOM     47  C   UNL A   1      38.166  31.579  32.144  1.00  0.00     0.031 C 
ATOM     48  C   UNL A   1      40.228  28.637  28.638  1.00  0.00     0.029 A 
ATOM     49  N   UNL A   1      41.344  28.889  30.561  1.00  0.00    -0.354 N 
ATOM     50  C   UNL A   1      39.738  31.272  33.781  1.00  0.00     0.074 A 
ATOM     51  C   UNL A   1      38.507  31.920  33.378  1.00  0.00     0.031 C 
ATOM     52  C   UNL A   1      41.382  27.954  28.531  1.00  0.00     0.029 A 
ATOM     53  C   UNL A   1      42.152  28.120  29.761  1.00  0.00     0.049 A 
ATOM     54  H   UNL A   1      41.579  29.138  31.484  1.00  0.00     0.167 HD
ATOM     55  C   UNL A   1      40.298  31.396  35.009  1.00  0.00     0.034 A 
ATOM     56  C   UNL A   1      43.383  27.627  29.992  1.00  0.00     0.034 A 
ATOM     57  C   UNL A   1      41.556  30.809  35.386  1.00  0.00     0.049 A 
ATOM     58  C   UNL A   1      44.055  27.892  31.312  1.00  0.00     0.074 A 
ATOM     59  C   UNL A   1      42.202  30.846  36.610  1.00  0.00     0.029 A 
ATOM     60  N   UNL A   1      42.382  30.102  34.523  1.00  0.00    -0.354 N 
ATOM     61  N   UNL A   1      43.605  28.559  32.348  1.00  0.00    -0.248 NA
ATOM     62  C   UNL A   1      45.406  27.339  31.489  1.00  0.00     0.031 C 
ATOM     63  C   UNL A   1      43.441  30.205  36.472  1.00  0.00     0.029 A 
ATOM     64  C   UNL A   1      43.548  29.735  35.173  1.00  0.00     0.049 A 
ATOM     65  H   UNL A   1      42.169  29.894  33.584  1.00  0.00     0.167 HD
ATOM     66  C   UNL A   1      44.612  28.496  33.305  1.00  0.00     0.074 A 
ATOM     67  C   UNL A   1      45.697  27.731  32.722  1.00  0.00     0.031 C 
ATOM     68  C   UNL A   1      44.632  29.008  34.561  1.00  0.00     0.034 A 
BRANCH  55  69
ATOM     69  C   UNL A   1      39.544  32.234  36.005  1.00  0.00     0.023 A 
ATOM     70  C   UNL A   1      39.924  33.563  36.261  1.00  0.00     0.031 A 
ATOM     71  C   UNL A   1      38.494  31.684  36.755  1.00  0.00     0.131 A 
ATOM     72  C   UNL A   1      39.298  34.281  37.290  1.00  0.00     0.055 A 
ATOM     73  C   UNL A   1      37.839  32.421  37.742  1.00  0.00     0.041 A 
ATOM     74  F   UNL A   1      38.112  30.411  36.566  1.00  0.00    -0.206 F 
ATOM     75  C   UNL A   1      38.249  33.722  38.025  1.00  0.00     0.022 A 
BRANCH  72  76
ATOM     76  S   UNL A   1      39.968  35.902  37.748  1.00  0.00     0.124 S 
ATOM     77  O   UNL A   1      39.620  36.713  36.584  1.00  0.00    -0.237 OA
ATOM     78  O   UNL A   1      39.245  36.203  38.978  1.00  0.00    -0.237 OA
ATOM     79  O   UNL A   1      41.399  35.647  37.911  1.00  0.00    -0.744 OA
ENDBRANCH  72  76
ENDBRANCH  55  69
BRANCH  56  80
ATOM     80  C   UNL A   1      44.095  26.879  28.926  1.00  0.00     0.023 A 
ATOM     81  C   UNL A   1      44.825  27.549  27.936  1.00  0.00     0.031 A 
ATOM     82  C   UNL A   1      44.024  25.477  28.879  1.00  0.00     0.131 A 
ATOM     83  C   UNL A   1      45.445  26.810  26.918  1.00  0.00     0.055 A 
ATOM     84  C   UNL A   1      44.657  24.746  27.874  1.00  0.00     0.041 A 
ATOM     85  F   UNL A   1      43.339  24.802  29.814  1.00  0.00    -0.206 F 
ATOM     86  C   UNL A   1      45.370  25.414  26.882  1.00  0.00     0.022 A 
BRANCH  83  87
ATOM     87  S   UNL A   1      46.351  27.701  25.625  1.00  0.00     0.124 S 
ATOM     88  O   UNL A   1      46.026  26.918  24.439  1.00  0.00    -0.237 OA
ATOM     89  O   UNL A   1      45.754  29.031  25.702  1.00  0.00    -0.237 OA
ATOM     90  O   UNL A   1      47.742  27.621  26.067  1.00  0.00    -0.744 OA
ENDBRANCH  83  87
ENDBRANCH  56  80
BRANCH  68  91
ATOM     91  C   UNL A   1      45.862  28.736  35.378  1.00  0.00     0.023 A 
ATOM     92  C   UNL A   1      46.023  27.526  36.073  1.00  0.00     0.031 A 
ATOM     93  C   UNL A   1      46.872  29.708  35.479  1.00  0.00     0.131 A 
ATOM     94  C   UNL A   1      47.162  27.329  36.869  1.00  0.00     0.055 A 
ATOM     95  C   UNL A   1      48.015  29.496  36.249  1.00  0.00     0.041 A 
ATOM     96  F   UNL A   1      46.757  30.880  34.833  1.00  0.00    -0.206 F 
ATOM     97  C   UNL A   1      48.162  28.304  36.955  1.00  0.00     0.022 A 
BRANCH  94  98
ATOM     98  S   UNL A   1      47.305  25.798  37.829  1.00  0.00     0.124 S 
ATOM     99  O   UNL A   1      46.713  24.817  36.927  1.00  0.00    -0.237 OA
ATOM    100  O   UNL A   1      48.746  25.690  38.034  1.00  0.00    -0.237 OA
ATOM    101  O   UNL A   1      46.530  26.077  39.038  1.00  0.00    -0.744 OA
ENDBRANCH  94  98
ENDBRANCH  68  91
ENDBRANCH  42  43
ENDBRANCH  35  37
ENDBRANCH  34  35
ENDBRANCH  33  34
ENDBRANCH  32  33
ENDBRANCH  31  32
ENDBRANCH  30  31
ENDBRANCH   1  30
TORSDOF 24
ENDMDL
MODEL 2
REMARK VINA RESULT:      -9.3      8.617     14.262
REMARK SMILES O=C(NC(=S)Nc1cc(C(=O)OCCOCCOCCOC(=O)c2ccc(-c3c4nc(c(-c5cc(S(=O)(=O)[O-])ccc5F)c5ccc([nH]5)c(-c5cc(S(=O)(=O)[O-])ccc5F)c5nc(c(-c6cc(S(=O)(=O)[O-])ccc6F)c6ccc3[nH]6)C=C5)C=C4)cc2)ccc1Br)c1ccc(F)cc1
REMARK SMILES IDX 16 1 15 2 14 3 13 4 12 5 10 6 11 7 9 8 7 9 8 10 89 11 88 12
REMARK SMILES IDX 90 13 87 14 6 15 4 17 5 18 3 19 1 20 2 21 91 23 92 24 97 25
REMARK SMILES IDX 93 26 96 27 94 28 95 29 17 30 18 31 19 32 20 33 21 34 22 35
REMARK SMILES IDX 23 36 24 37 25 38 86 39 26 40 85 41 27 42 28 43 29 44 79 45
REMARK SMILES IDX 30 46 84 47 78 48 80 49 31 50 83 51 77 52 76 53 32 55 64 56
REMARK SMILES IDX 44 57 63 58 45 59 48 60 62 61 81 62 46 63 47 64 61 66 82 67
REMARK SMILES IDX 49 68 33 69 34 70 42 71 35 72 41 73 43 74 40 75 36 76 37 77
REMARK SMILES IDX 38 78 39 79 65 80 66 81 74 82 67 83 73 84 75 85 72 86 68 87
REMARK SMILES IDX 69 88 70 89 71 90 50 91 51 92 59 93 52 94 58 95 60 96 57 97
REMARK SMILES IDX 53 98 54 99 55 100 56 101
REMARK H PARENT 6 16 3 22 80 54 48 65
REMARK Flexibility Score: inf
ROOT
ATOM      1  C   UNL A   1      47.000  39.931  24.674  1.00  0.00     0.188 C 
ENDROOT
BRANCH   1   2
ATOM      2  O   UNL A   1      46.402  40.662  23.602  1.00  0.00    -0.376 OA
BRANCH   2   3
ATOM      3  C   UNL A   1      47.053  41.863  23.197  1.00  0.00     0.202 C 
BRANCH   3   4
ATOM      4  C   UNL A   1      46.112  42.899  22.584  1.00  0.00     0.261 C 
BRANCH   4   5
ATOM      5  O   UNL A   1      44.740  42.488  22.736  1.00  0.00    -0.460 OA
BRANCH   5   6
ATOM      6  C   UNL A   1      43.957  43.318  23.458  1.00  0.00     0.338 C 
ATOM      7  O   UNL A   1      43.622  44.457  23.188  1.00  0.00    -0.246 OA
BRANCH   6   8
ATOM      8  C   UNL A   1      43.476  42.609  24.650  1.00  0.00     0.062 A 
ATOM      9  C   UNL A   1      44.061  41.778  27.818  1.00  0.00     0.055 A 
ATOM     10  C   UNL A   1      44.617  42.869  26.233  1.00  0.00     0.043 A 
ATOM     11  C   UNL A   1      42.464  40.634  27.616  1.00  0.00     0.041 A 
ATOM     12  C   UNL A   1      41.325  40.385  26.024  1.00  0.00     0.019 A 
ATOM     13  Br  UNL A   1      41.944  39.577  29.130  1.00  0.00    -0.049 Br
ATOM     14  C   UNL A   1      41.901  41.455  24.432  1.00  0.00     0.017 A 
BRANCH   9  15
ATOM     15  N   UNL A   1      45.088  41.358  28.674  1.00  0.00    -0.331 N 
ATOM     16  H   UNL A   1      45.572  40.531  28.445  1.00  0.00     0.169 HD
BRANCH  15  17
ATOM     17  C   UNL A   1      45.455  42.021  29.798  1.00  0.00     0.177 C 
ATOM     18  S   UNL A   1      46.766  41.477  30.679  1.00  0.00    -0.040 S 
BRANCH  17  19
ATOM     19  N   UNL A   1      44.738  43.106  30.297  1.00  0.00    -0.299 N 
ATOM     20  O   UNL A   1      43.362  44.667  31.247  1.00  0.00    -0.269 OA
ATOM     21  C   UNL A   1      43.574  43.472  31.022  1.00  0.00     0.257 C 
ATOM     22  H   UNL A   1      45.219  43.929  30.055  1.00  0.00     0.172 HD
BRANCH  21  23
ATOM     23  C   UNL A   1      42.589  42.538  31.620  1.00  0.00     0.040 A 
ATOM     24  C   UNL A   1      42.842  42.007  32.769  1.00  0.00     0.017 A 
ATOM     25  C   UNL A   1      42.731  41.297  31.953  1.00  0.00     0.017 A 
ATOM     26  C   UNL A   1      43.482  40.500  34.003  1.00  0.00     0.040 A 
ATOM     27  C   UNL A   1      43.346  39.770  33.173  1.00  0.00     0.040 A 
ATOM     28  C   UNL A   1      43.990  39.335  34.191  1.00  0.00     0.123 A 
ATOM     29  F   UNL A   1      43.535  38.425  35.052  1.00  0.00    -0.207 F 
ENDBRANCH  21  23
ENDBRANCH  17  19
ENDBRANCH  15  17
ENDBRANCH   9  15
ENDBRANCH   6   8
ENDBRANCH   5   6
ENDBRANCH   4   5
ENDBRANCH   3   4
ENDBRANCH   2   3
ENDBRANCH   1   2
BRANCH   1  30
ATOM     30  C   UNL A   1      46.040  39.477  25.776  1.00  0.00     0.188 C 
BRANCH  30  31
ATOM     31  O   UNL A   1      46.689  38.526  26.625  1.00  0.00    -0.376 OA
BRANCH  31  32
ATOM     32  C   UNL A   1      47.574  37.656  25.916  1.00  0.00     0.202 C 
BRANCH  32  33
ATOM     33  C   UNL A   1      47.020  36.227  25.905  1.00  0.00     0.261 C 
BRANCH  33  34
ATOM     34  O   UNL A   1      45.603  36.175  25.673  1.00  0.00    -0.460 OA
BRANCH  34  35
ATOM     35  C   UNL A   1      45.041  34.945  25.749  1.00  0.00     0.338 C 
ATOM     36  O   UNL A   1      45.197  34.039  24.947  1.00  0.00    -0.246 OA
BRANCH  35  37
ATOM     37  C   UNL A   1      44.274  34.821  27.014  1.00  0.00     0.060 A 
ATOM     38  C   UNL A   1      43.754  35.985  27.592  1.00  0.00     0.016 A 
ATOM     39  C   UNL A   1      44.097  33.584  27.650  1.00  0.00     0.016 A 
ATOM     40  C   UNL A   1      43.091  35.924  28.821  1.00  0.00     0.010 A 
ATOM     41  C   UNL A   1      43.444  33.524  28.883  1.00  0.00     0.010 A 
ATOM     42  C   UNL A   1      42.963  34.697  29.486  1.00  0.00    -0.014 A 
BRANCH  42  43
ATOM     43  C   UNL A   1      42.465  34.655  30.879  1.00  0.00     0.031 A 
ATOM     44  C   UNL A   1      40.986  34.525  31.118  1.00  0.00     0.074 A 
ATOM     45  C   UNL A   1      43.312  34.755  31.917  1.00  0.00     0.049 A 
ATOM     46  N   UNL A   1      40.332  34.450  32.247  1.00  0.00    -0.248 NA
ATOM     47  C   UNL A   1      40.136  34.472  29.919  1.00  0.00     0.031 C 
ATOM     48  C   UNL A   1      44.764  34.893  31.817  1.00  0.00     0.029 A 
ATOM     49  N   UNL A   1      43.062  34.775  33.265  1.00  0.00    -0.354 N 
ATOM     50  C   UNL A   1      38.996  34.296  31.897  1.00  0.00     0.074 A 
ATOM     51  C   UNL A   1      38.930  34.341  30.451  1.00  0.00     0.031 C 
ATOM     52  C   UNL A   1      45.275  35.011  33.056  1.00  0.00     0.029 A 
ATOM     53  C   UNL A   1      44.185  34.967  34.029  1.00  0.00     0.049 A 
ATOM     54  H   UNL A   1      42.161  34.663  33.647  1.00  0.00     0.167 HD
ATOM     55  C   UNL A   1      37.922  34.117  32.703  1.00  0.00     0.034 A 
ATOM     56  C   UNL A   1      44.312  35.113  35.361  1.00  0.00     0.034 A 
ATOM     57  C   UNL A   1      37.978  34.140  34.141  1.00  0.00     0.049 A 
ATOM     58  C   UNL A   1      43.090  35.054  36.235  1.00  0.00     0.074 A 
ATOM     59  C   UNL A   1      36.958  33.941  35.056  1.00  0.00     0.029 A 
ATOM     60  N   UNL A   1      39.122  34.416  34.876  1.00  0.00    -0.354 N 
ATOM     61  N   UNL A   1      41.838  34.859  35.893  1.00  0.00    -0.248 NA
ATOM     62  C   UNL A   1      43.300  35.239  37.679  1.00  0.00     0.031 C 
ATOM     63  C   UNL A   1      37.476  34.148  36.342  1.00  0.00     0.029 A 
ATOM     64  C   UNL A   1      38.826  34.435  36.229  1.00  0.00     0.049 A 
ATOM     65  H   UNL A   1      40.014  34.577  34.491  1.00  0.00     0.167 HD
ATOM     66  C   UNL A   1      41.113  34.887  37.079  1.00  0.00     0.074 A 
ATOM     67  C   UNL A   1      42.065  35.123  38.147  1.00  0.00     0.031 C 
ATOM     68  C   UNL A   1      39.782  34.712  37.273  1.00  0.00     0.034 A 
BRANCH  55  69
ATOM     69  C   UNL A   1      36.598  33.914  32.018  1.00  0.00     0.023 A 
ATOM     70  C   UNL A   1      35.681  34.973  31.899  1.00  0.00     0.031 A 
ATOM     71  C   UNL A   1      36.220  32.647  31.551  1.00  0.00     0.131 A 
ATOM     72  C   UNL A   1      34.401  34.730  31.381  1.00  0.00     0.055 A 
ATOM     73  C   UNL A   1      34.962  32.422  30.989  1.00  0.00     0.041 A 
ATOM     74  F   UNL A   1      37.050  31.599  31.668  1.00  0.00    -0.206 F 
ATOM     75  C   UNL A   1      34.039  33.463  30.914  1.00  0.00     0.022 A 
BRANCH  72  76
ATOM     76  S   UNL A   1      33.168  36.058  31.458  1.00  0.00     0.124 S 
ATOM     77  O   UNL A   1      31.959  35.328  31.827  1.00  0.00    -0.237 OA
ATOM     78  O   UNL A   1      33.722  36.939  32.480  1.00  0.00    -0.237 OA
ATOM     79  O   UNL A   1      33.166  36.601  30.100  1.00  0.00    -0.744 OA
ENDBRANCH  72  76
ENDBRANCH  55  69
BRANCH  56  80
ATOM     80  C   UNL A   1      45.644  35.393  35.953  1.00  0.00     0.023 A 
ATOM     81  C   UNL A   1      46.129  36.703  36.058  1.00  0.00     0.031 A 
ATOM     82  C   UNL A   1      46.456  34.336  36.395  1.00  0.00     0.131 A 
ATOM     83  C   UNL A   1      47.412  36.923  36.581  1.00  0.00     0.055 A 
ATOM     84  C   UNL A   1      47.725  34.561  36.929  1.00  0.00     0.041 A 
ATOM     85  F   UNL A   1      46.022  33.068  36.314  1.00  0.00    -0.206 F 
ATOM     86  C   UNL A   1      48.212  35.863  37.020  1.00  0.00     0.022 A 
BRANCH  83  87
ATOM     87  S   UNL A   1      48.033  38.623  36.671  1.00  0.00     0.124 S 
ATOM     88  O   UNL A   1      48.761  38.608  37.934  1.00  0.00    -0.237 OA
ATOM     89  O   UNL A   1      48.845  38.712  35.461  1.00  0.00    -0.237 OA
ATOM     90  O   UNL A   1      46.815  39.432  36.659  1.00  0.00    -0.744 OA
ENDBRANCH  83  87
ENDBRANCH  56  80
BRANCH  68  91
ATOM     91  C   UNL A   1      39.297  34.759  38.693  1.00  0.00     0.023 A 
ATOM     92  C   UNL A   1      38.990  33.583  39.398  1.00  0.00     0.031 A 
ATOM     93  C   UNL A   1      39.120  35.995  39.338  1.00  0.00     0.131 A 
ATOM     94  C   UNL A   1      38.489  33.670  40.705  1.00  0.00     0.055 A 
ATOM     95  C   UNL A   1      38.647  36.073  40.648  1.00  0.00     0.041 A 
ATOM     96  F   UNL A   1      39.398  37.143  38.700  1.00  0.00    -0.206 F 
ATOM     97  C   UNL A   1      38.323  34.906  41.337  1.00  0.00     0.022 A 
BRANCH  94  98
ATOM     98  S   UNL A   1      38.013  32.144  41.562  1.00  0.00     0.124 S 
ATOM     99  O   UNL A   1      39.227  31.822  42.306  1.00  0.00    -0.237 OA
ATOM    100  O   UNL A   1      36.870  32.576  42.362  1.00  0.00    -0.237 OA
ATOM    101  O   UNL A   1      37.690  31.224  40.472  1.00  0.00    -0.744 OA
ENDBRANCH  94  98
ENDBRANCH  68  91
ENDBRANCH  42  43
ENDBRANCH  35  37
ENDBRANCH  34  35
ENDBRANCH  33  34
ENDBRANCH  32  33
ENDBRANCH  31  32
ENDBRANCH  30  31
ENDBRANCH   1  30
TORSDOF 24
ENDMDL
MODEL 3
REMARK VINA RESULT:      -9.2      1.981      7.454
REMARK SMILES O=C(NC(=S)Nc1cc(C(=O)OCCOCCOCCOC(=O)c2ccc(-c3c4nc(c(-c5cc(S(=O)(=O)[O-])ccc5F)c5ccc([nH]5)c(-c5cc(S(=O)(=O)[O-])ccc5F)c5nc(c(-c6cc(S(=O)(=O)[O-])ccc6F)c6ccc3[nH]6)C=C5)C=C4)cc2)ccc1Br)c1ccc(F)cc1
REMARK SMILES IDX 16 1 15 2 14 3 13 4 12 5 10 6 11 7 9 8 7 9 8 10 89 11 88 12
REMARK SMILES IDX 90 13 87 14 6 15 4 17 5 18 3 19 1 20 2 21 91 23 92 24 97 25
REMARK SMILES IDX 93 26 96 27 94 28 95 29 17 30 18 31 19 32 20 33 21 34 22 35
REMARK SMILES IDX 23 36 24 37 25 38 86 39 26 40 85 41 27 42 28 43 29 44 79 45
REMARK SMILES IDX 30 46 84 47 78 48 80 49 31 50 83 51 77 52 76 53 32 55 64 56
REMARK SMILES IDX 44 57 63 58 45 59 48 60 62 61 81 62 46 63 47 64 61 66 82 67
REMARK SMILES IDX 49 68 33 69 34 70 42 71 35 72 41 73 43 74 40 75 36 76 37 77
REMARK SMILES IDX 38 78 39 79 65 80 66 81 74 82 67 83 73 84 75 85 72 86 68 87
REMARK SMILES IDX 69 88 70 89 71 90 50 91 51 92 59 93 52 94 58 95 60 96 57 97
REMARK SMILES IDX 53 98 54 99 55 100 56 101
REMARK H PARENT 6 16 3 22 80 54 48 65
REMARK Flexibility Score: inf
ROOT
ATOM      1  C   UNL A   1      30.441  27.404  24.730  1.00  0.00     0.188 C 
ENDROOT
BRANCH   1   2
ATOM      2  O   UNL A   1      31.062  26.610  23.718  1.00  0.00    -0.376 OA
BRANCH   2   3
ATOM      3  C   UNL A   1      30.408  25.396  23.357  1.00  0.00     0.202 C 
BRANCH   3   4
ATOM      4  C   UNL A   1      30.691  24.236  24.311  1.00  0.00     0.261 C 
BRANCH   4   5
ATOM      5  O   UNL A   1      31.721  24.594  25.251  1.00  0.00    -0.460 OA
BRANCH   5   6
ATOM      6  C   UNL A   1      31.857  23.770  26.312  1.00  0.00     0.338 C 
ATOM      7  O   UNL A   1      31.150  23.697  27.301  1.00  0.00    -0.246 OA
BRANCH   6   8
ATOM      8  C   UNL A   1      32.995  22.873  26.080  1.00  0.00     0.062 A 
ATOM      9  C   UNL A   1      36.306  22.544  25.988  1.00  0.00     0.055 A 
ATOM     10  C   UNL A   1      34.741  23.704  26.456  1.00  0.00     0.043 A 
ATOM     11  C   UNL A   1      35.919  20.750  25.260  1.00  0.00     0.041 A 
ATOM     12  C   UNL A   1      34.164  19.926  24.892  1.00  0.00     0.019 A 
ATOM     13  Br  UNL A   1      37.419  19.649  24.797  1.00  0.00    -0.049 Br
ATOM     14  C   UNL A   1      32.602  21.099  25.332  1.00  0.00     0.017 A 
BRANCH   9  15
ATOM     15  N   UNL A   1      37.466  23.207  25.568  1.00  0.00    -0.331 N 
ATOM     16  H   UNL A   1      37.448  23.662  24.694  1.00  0.00     0.169 HD
BRANCH  15  17
ATOM     17  C   UNL A   1      38.611  23.262  26.291  1.00  0.00     0.177 C 
ATOM     18  S   UNL A   1      39.061  24.702  27.007  1.00  0.00    -0.040 S 
BRANCH  17  19
ATOM     19  N   UNL A   1      39.477  22.177  26.407  1.00  0.00    -0.299 N 
ATOM     20  O   UNL A   1      41.136  20.614  26.598  1.00  0.00    -0.269 OA
ATOM     21  C   UNL A   1      40.846  21.804  26.454  1.00  0.00     0.257 C 
ATOM     22  H   UNL A   1      38.935  21.359  26.487  1.00  0.00     0.172 HD
BRANCH  21  23
ATOM     23  C   UNL A   1      42.003  22.732  26.418  1.00  0.00     0.040 A 
ATOM     24  C   UNL A   1      42.844  22.652  25.443  1.00  0.00     0.017 A 
ATOM     25  C   UNL A   1      43.268  22.468  26.427  1.00  0.00     0.017 A 
ATOM     26  C   UNL A   1      44.601  22.060  24.567  1.00  0.00     0.040 A 
ATOM     27  C   UNL A   1      45.042  21.895  25.577  1.00  0.00     0.040 A 
ATOM     28  C   UNL A   1      45.718  21.425  24.595  1.00  0.00     0.123 A 
ATOM     29  F   UNL A   1      46.888  21.902  24.174  1.00  0.00    -0.207 F 
ENDBRANCH  21  23
ENDBRANCH  17  19
ENDBRANCH  15  17
ENDBRANCH   9  15
ENDBRANCH   6   8
ENDBRANCH   5   6
ENDBRANCH   4   5
ENDBRANCH   3   4
ENDBRANCH   2   3
ENDBRANCH   1   2
BRANCH   1  30
ATOM     30  C   UNL A   1      31.386  27.979  25.788  1.00  0.00     0.188 C 
BRANCH  30  31
ATOM     31  O   UNL A   1      31.444  29.403  25.667  1.00  0.00    -0.376 OA
BRANCH  31  32
ATOM     32  C   UNL A   1      32.781  29.907  25.641  1.00  0.00     0.202 C 
BRANCH  32  33
ATOM     33  C   UNL A   1      33.034  30.806  26.855  1.00  0.00     0.261 C 
BRANCH  33  34
ATOM     34  O   UNL A   1      34.411  30.822  27.267  1.00  0.00    -0.460 OA
BRANCH  34  35
ATOM     35  C   UNL A   1      34.774  31.859  28.059  1.00  0.00     0.338 C 
ATOM     36  O   UNL A   1      34.128  32.877  28.243  1.00  0.00    -0.246 OA
BRANCH  35  37
ATOM     37  C   UNL A   1      36.044  31.536  28.756  1.00  0.00     0.060 A 
ATOM     38  C   UNL A   1      36.111  30.351  29.499  1.00  0.00     0.016 A 
ATOM     39  C   UNL A   1      37.146  32.402  28.720  1.00  0.00     0.016 A 
ATOM     40  C   UNL A   1      37.261  30.045  30.232  1.00  0.00     0.010 A 
ATOM     41  C   UNL A   1      38.291  32.102  29.462  1.00  0.00     0.010 A 
ATOM     42  C   UNL A   1      38.342  30.937  30.242  1.00  0.00    -0.014 A 
BRANCH  42  43
ATOM     43  C   UNL A   1      39.465  30.733  31.185  1.00  0.00     0.031 A 
ATOM     44  C   UNL A   1      40.594  29.826  30.784  1.00  0.00     0.074 A 
ATOM     45  C   UNL A   1      39.469  31.328  32.389  1.00  0.00     0.049 A 
ATOM     46  N   UNL A   1      41.683  29.517  31.439  1.00  0.00    -0.248 NA
ATOM     47  C   UNL A   1      40.475  29.183  29.466  1.00  0.00     0.031 C 
ATOM     48  C   UNL A   1      38.431  32.223  32.898  1.00  0.00     0.029 A 
ATOM     49  N   UNL A   1      40.378  31.247  33.413  1.00  0.00    -0.354 N 
ATOM     50  C   UNL A   1      42.402  28.679  30.596  1.00  0.00     0.074 A 
ATOM     51  C   UNL A   1      41.600  28.486  29.405  1.00  0.00     0.031 C 
ATOM     52  C   UNL A   1      38.750  32.588  34.154  1.00  0.00     0.029 A 
ATOM     53  C   UNL A   1      40.006  31.945  34.534  1.00  0.00     0.049 A 
ATOM     54  H   UNL A   1      41.218  30.737  33.349  1.00  0.00     0.167 HD
ATOM     55  C   UNL A   1      43.627  28.130  30.786  1.00  0.00     0.034 A 
ATOM     56  C   UNL A   1      40.602  32.032  35.738  1.00  0.00     0.034 A 
ATOM     57  C   UNL A   1      44.393  28.266  31.997  1.00  0.00     0.049 A 
ATOM     58  C   UNL A   1      41.893  31.300  35.983  1.00  0.00     0.074 A 
ATOM     59  C   UNL A   1      45.656  27.777  32.287  1.00  0.00     0.029 A 
ATOM     60  N   UNL A   1      43.946  28.914  33.139  1.00  0.00    -0.354 N 
ATOM     61  N   UNL A   1      42.586  30.551  35.159  1.00  0.00    -0.248 NA
ATOM     62  C   UNL A   1      42.479  31.426  37.325  1.00  0.00     0.031 C 
ATOM     63  C   UNL A   1      45.949  28.087  33.623  1.00  0.00     0.029 A 
ATOM     64  C   UNL A   1      44.887  28.804  34.149  1.00  0.00     0.049 A 
ATOM     65  H   UNL A   1      43.085  29.384  33.219  1.00  0.00     0.167 HD
ATOM     66  C   UNL A   1      43.696  30.124  35.880  1.00  0.00     0.074 A 
ATOM     67  C   UNL A   1      43.579  30.695  37.207  1.00  0.00     0.031 C 
ATOM     68  C   UNL A   1      44.731  29.346  35.476  1.00  0.00     0.034 A 
BRANCH  55  69
ATOM     69  C   UNL A   1      44.175  27.309  29.651  1.00  0.00     0.023 A 
ATOM     70  C   UNL A   1      44.790  27.927  28.548  1.00  0.00     0.031 A 
ATOM     71  C   UNL A   1      44.015  25.915  29.633  1.00  0.00     0.131 A 
ATOM     72  C   UNL A   1      45.169  27.156  27.441  1.00  0.00     0.055 A 
ATOM     73  C   UNL A   1      44.442  25.147  28.549  1.00  0.00     0.041 A 
ATOM     74  F   UNL A   1      43.410  25.283  30.650  1.00  0.00    -0.206 F 
ATOM     75  C   UNL A   1      45.010  25.767  27.438  1.00  0.00     0.022 A 
BRANCH  72  76
ATOM     76  S   UNL A   1      45.742  28.009  25.946  1.00  0.00     0.124 S 
ATOM     77  O   UNL A   1      45.633  26.958  24.938  1.00  0.00    -0.237 OA
ATOM     78  O   UNL A   1      44.791  29.109  25.831  1.00  0.00    -0.237 OA
ATOM     79  O   UNL A   1      47.112  28.399  26.279  1.00  0.00    -0.744 OA
ENDBRANCH  72  76
ENDBRANCH  55  69
BRANCH  56  80
ATOM     80  C   UNL A   1      39.955  32.797  36.832  1.00  0.00     0.023 A 
ATOM     81  C   UNL A   1      39.048  32.184  37.706  1.00  0.00     0.031 A 
ATOM     82  C   UNL A   1      40.224  34.166  36.993  1.00  0.00     0.131 A 
ATOM     83  C   UNL A   1      38.421  32.951  38.699  1.00  0.00     0.055 A 
ATOM     84  C   UNL A   1      39.611  34.921  37.993  1.00  0.00     0.041 A 
ATOM     85  F   UNL A   1      41.092  34.785  36.178  1.00  0.00    -0.206 F 
ATOM     86  C   UNL A   1      38.698  34.313  38.851  1.00  0.00     0.022 A 
BRANCH  83  87
ATOM     87  S   UNL A   1      37.221  32.143  39.792  1.00  0.00     0.124 S 
ATOM     88  O   UNL A   1      36.648  33.282  40.499  1.00  0.00    -0.237 OA
ATOM     89  O   UNL A   1      36.346  31.472  38.836  1.00  0.00    -0.237 OA
ATOM     90  O   UNL A   1      38.047  31.252  40.606  1.00  0.00    -0.744 OA
ENDBRANCH  83  87
ENDBRANCH  56  80
BRANCH  68  91
ATOM     91  C   UNL A   1      45.814  29.090  36.484  1.00  0.00     0.023 A 
ATOM     92  C   UNL A   1      46.891  29.979  36.640  1.00  0.00     0.031 A 
ATOM     93  C   UNL A   1      45.777  27.933  37.282  1.00  0.00     0.131 A 
ATOM     94  C   UNL A   1      47.911  29.679  37.556  1.00  0.00     0.055 A 
ATOM     95  C   UNL A   1      46.780  27.654  38.210  1.00  0.00     0.041 A 
ATOM     96  F   UNL A   1      44.768  27.056  37.163  1.00  0.00    -0.206 F 
ATOM     97  C   UNL A   1      47.858  28.526  38.347  1.00  0.00     0.022 A 
BRANCH  94  98
ATOM     98  S   UNL A   1      49.337  30.793  37.674  1.00  0.00     0.124 S 
ATOM     99  O   UNL A   1      48.776  32.055  37.203  1.00  0.00    -0.237 OA
ATOM    100  O   UNL A   1      49.667  30.731  39.094  1.00  0.00    -0.237 OA
ATOM    101  O   UNL A   1      50.324  30.182  36.784  1.00  0.00    -0.744 OA
ENDBRANCH  94  98
ENDBRANCH  68  91
ENDBRANCH  42  43
ENDBRANCH  35  37
ENDBRANCH  34  35
ENDBRANCH  33  34
ENDBRANCH  32  33
ENDBRANCH  31  32
ENDBRANCH  30  31
ENDBRANCH   1  30
TORSDOF 24
ENDMDL
