MODEL 1
REMARK VINA RESULT:     -10.0      0.000      0.000
REMARK SMILES O=C(OCCOCCOCCOC(=O)[C@@H]1CCCN(C(=O)/C=C/c2c(F)cccc2Cl)C1)c1ccc(-c2c3nc(c(-c4cc(S(=O)(=O)[O-])ccc4F)c4ccc([nH]4)c(-c4cc(S(=O)(=O)[O-])ccc4F)c4nc(c(-c5cc(S(=O)(=O)[O-])ccc5F)c5ccc2[nH]5)C=C4)C=C3)cc1
REMARK SMILES IDX 7 1 6 2 5 3 4 4 3 5 2 6 1 7 33 8 34 9 95 10 35 11 94 12
REMARK SMILES IDX 36 13 37 14 38 15 88 16 39 17 93 18 87 19 89 20 40 21 92 22
REMARK SMILES IDX 86 23 85 24 41 26 73 27 53 28 72 29 54 30 57 31 71 32 90 33
REMARK SMILES IDX 55 34 56 35 70 37 91 38 58 39 42 40 43 41 51 42 44 43 50 44
REMARK SMILES IDX 52 45 49 46 45 47 46 48 47 49 48 50 74 51 75 52 83 53 76 54
REMARK SMILES IDX 82 55 84 56 81 57 77 58 78 59 79 60 80 61 59 62 60 63 68 64
REMARK SMILES IDX 61 65 67 66 69 67 66 68 62 69 63 70 64 71 65 72 8 73 9 74
REMARK SMILES IDX 10 75 11 76 12 77 13 78 14 79 15 80 16 81 32 82 17 83 19 84
REMARK SMILES IDX 18 85 20 86 21 87 22 88 23 89 24 90 25 91 30 92 26 93 27 94
REMARK SMILES IDX 29 95 31 96 28 97
REMARK H PARENT 89 25 57 36
REMARK Flexibility Score: inf
ROOT
ATOM      1  C   UNL A   1      35.685  31.785  28.313  1.00  0.00     0.188 C 
ENDROOT
BRANCH   1   2
ATOM      2  O   UNL A   1      35.511  32.850  27.382  1.00  0.00    -0.376 OA
BRANCH   2   3
ATOM      3  C   UNL A   1      34.781  33.981  27.862  1.00  0.00     0.202 C 
BRANCH   3   4
ATOM      4  C   UNL A   1      33.377  33.716  28.436  1.00  0.00     0.261 C 
BRANCH   4   5
ATOM      5  O   UNL A   1      32.976  34.605  29.493  1.00  0.00    -0.460 OA
BRANCH   5   6
ATOM      6  C   UNL A   1      33.384  34.622  30.786  1.00  0.00     0.338 C 
ATOM      7  O   UNL A   1      32.706  35.235  31.610  1.00  0.00    -0.246 OA
BRANCH   6   8
ATOM      8  C   UNL A   1      34.632  33.958  31.261  1.00  0.00     0.060 A 
ATOM      9  C   UNL A   1      34.686  32.660  31.761  1.00  0.00     0.016 A 
ATOM     10  C   UNL A   1      35.844  34.642  31.081  1.00  0.00     0.016 A 
ATOM     11  C   UNL A   1      35.877  32.080  32.165  1.00  0.00     0.010 A 
ATOM     12  C   UNL A   1      37.062  34.043  31.425  1.00  0.00     0.010 A 
ATOM     13  C   UNL A   1      37.075  32.761  31.987  1.00  0.00    -0.014 A 
BRANCH  13  14
ATOM     14  C   UNL A   1      38.313  32.121  32.469  1.00  0.00     0.031 A 
ATOM     15  C   UNL A   1      38.999  31.142  31.578  1.00  0.00     0.074 A 
ATOM     16  C   UNL A   1      38.864  32.516  33.633  1.00  0.00     0.049 A 
ATOM     17  N   UNL A   1      40.048  30.413  31.823  1.00  0.00    -0.248 NA
ATOM     18  C   UNL A   1      38.433  30.968  30.230  1.00  0.00     0.031 C 
ATOM     19  C   UNL A   1      38.310  33.567  34.483  1.00  0.00     0.029 A 
ATOM     20  N   UNL A   1      40.002  32.131  34.289  1.00  0.00    -0.354 N 
ATOM     21  C   UNL A   1      40.244  29.652  30.682  1.00  0.00     0.074 A 
ATOM     22  C   UNL A   1      39.216  30.021  29.735  1.00  0.00     0.031 C 
ATOM     23  C   UNL A   1      39.131  33.769  35.524  1.00  0.00     0.029 A 
ATOM     24  C   UNL A   1      40.196  32.787  35.485  1.00  0.00     0.049 A 
ATOM     25  H   UNL A   1      40.623  31.451  33.939  1.00  0.00     0.167 HD
ATOM     26  C   UNL A   1      41.191  28.709  30.479  1.00  0.00     0.034 A 
ATOM     27  C   UNL A   1      41.086  32.578  36.476  1.00  0.00     0.034 A 
ATOM     28  C   UNL A   1      42.190  28.384  31.464  1.00  0.00     0.049 A 
ATOM     29  C   UNL A   1      42.063  31.454  36.262  1.00  0.00     0.074 A 
ATOM     30  C   UNL A   1      43.185  27.429  31.397  1.00  0.00     0.029 A 
ATOM     31  N   UNL A   1      42.307  29.001  32.705  1.00  0.00    -0.354 N 
ATOM     32  N   UNL A   1      42.212  30.698  35.196  1.00  0.00    -0.248 NA
ATOM     33  C   UNL A   1      42.964  31.129  37.369  1.00  0.00     0.031 C 
ATOM     34  C   UNL A   1      43.847  27.411  32.628  1.00  0.00     0.029 A 
ATOM     35  C   UNL A   1      43.323  28.411  33.435  1.00  0.00     0.049 A 
ATOM     36  H   UNL A   1      41.748  29.749  33.019  1.00  0.00     0.167 HD
ATOM     37  C   UNL A   1      43.226  29.805  35.507  1.00  0.00     0.074 A 
ATOM     38  C   UNL A   1      43.680  30.147  36.842  1.00  0.00     0.031 C 
ATOM     39  C   UNL A   1      43.729  28.782  34.770  1.00  0.00     0.034 A 
BRANCH  26  40
ATOM     40  C   UNL A   1      41.091  27.898  29.217  1.00  0.00     0.023 A 
ATOM     41  C   UNL A   1      41.951  28.091  28.124  1.00  0.00     0.031 A 
ATOM     42  C   UNL A   1      40.063  26.945  29.093  1.00  0.00     0.131 A 
ATOM     43  C   UNL A   1      41.733  27.379  26.933  1.00  0.00     0.055 A 
ATOM     44  C   UNL A   1      39.897  26.188  27.934  1.00  0.00     0.041 A 
ATOM     45  F   UNL A   1      39.188  26.753  30.092  1.00  0.00    -0.206 F 
ATOM     46  C   UNL A   1      40.729  26.410  26.842  1.00  0.00     0.022 A 
BRANCH  43  47
ATOM     47  S   UNL A   1      42.699  27.821  25.464  1.00  0.00     0.124 S 
ATOM     48  O   UNL A   1      42.622  26.589  24.680  1.00  0.00    -0.237 OA
ATOM     49  O   UNL A   1      41.965  28.963  24.932  1.00  0.00    -0.237 OA
ATOM     50  O   UNL A   1      44.023  28.126  26.003  1.00  0.00    -0.744 OA
ENDBRANCH  43  47
ENDBRANCH  26  40
BRANCH  27  51
ATOM     51  C   UNL A   1      41.018  33.332  37.772  1.00  0.00     0.023 A 
ATOM     52  C   UNL A   1      40.290  32.848  38.870  1.00  0.00     0.031 A 
ATOM     53  C   UNL A   1      41.623  34.599  37.907  1.00  0.00     0.131 A 
ATOM     54  C   UNL A   1      40.137  33.644  40.021  1.00  0.00     0.055 A 
ATOM     55  C   UNL A   1      41.537  35.350  39.082  1.00  0.00     0.041 A 
ATOM     56  F   UNL A   1      42.320  35.136  36.892  1.00  0.00    -0.206 F 
ATOM     57  C   UNL A   1      40.772  34.880  40.141  1.00  0.00     0.022 A 
BRANCH  54  58
ATOM     58  S   UNL A   1      38.966  33.110  41.303  1.00  0.00     0.124 S 
ATOM     59  O   UNL A   1      39.780  33.211  42.509  1.00  0.00    -0.237 OA
ATOM     60  O   UNL A   1      37.897  34.093  41.164  1.00  0.00    -0.237 OA
ATOM     61  O   UNL A   1      38.617  31.749  40.899  1.00  0.00    -0.744 OA
ENDBRANCH  54  58
ENDBRANCH  27  51
BRANCH  39  62
ATOM     62  C   UNL A   1      44.830  27.986  35.410  1.00  0.00     0.023 A 
ATOM     63  C   UNL A   1      46.174  28.361  35.263  1.00  0.00     0.031 A 
ATOM     64  C   UNL A   1      44.527  26.847  36.173  1.00  0.00     0.131 A 
ATOM     65  C   UNL A   1      47.178  27.569  35.833  1.00  0.00     0.055 A 
ATOM     66  C   UNL A   1      45.527  26.102  36.795  1.00  0.00     0.041 A 
ATOM     67  F   UNL A   1      43.255  26.449  36.334  1.00  0.00    -0.206 F 
ATOM     68  C   UNL A   1      46.861  26.457  36.617  1.00  0.00     0.022 A 
BRANCH  65  69
ATOM     69  S   UNL A   1      48.906  27.970  35.466  1.00  0.00     0.124 S 
ATOM     70  O   UNL A   1      48.766  29.051  34.497  1.00  0.00    -0.237 OA
ATOM     71  O   UNL A   1      49.426  28.350  36.775  1.00  0.00    -0.237 OA
ATOM     72  O   UNL A   1      49.439  26.719  34.929  1.00  0.00    -0.744 OA
ENDBRANCH  65  69
ENDBRANCH  39  62
ENDBRANCH  13  14
ENDBRANCH   6   8
ENDBRANCH   5   6
ENDBRANCH   4   5
ENDBRANCH   3   4
ENDBRANCH   2   3
ENDBRANCH   1   2
BRANCH   1  73
ATOM     73  C   UNL A   1      35.441  30.415  27.684  1.00  0.00     0.188 C 
BRANCH  73  74
ATOM     74  O   UNL A   1      34.090  29.973  27.569  1.00  0.00    -0.376 OA
BRANCH  74  75
ATOM     75  C   UNL A   1      33.857  28.657  27.073  1.00  0.00     0.202 C 
BRANCH  75  76
ATOM     76  C   UNL A   1      34.017  28.390  25.568  1.00  0.00     0.261 C 
BRANCH  76  77
ATOM     77  O   UNL A   1      32.862  27.841  24.930  1.00  0.00    -0.463 OA
BRANCH  77  78
ATOM     78  C   UNL A   1      32.804  28.048  23.587  1.00  0.00     0.310 C 
ATOM     79  O   UNL A   1      33.784  28.196  22.855  1.00  0.00    -0.252 OA
BRANCH  78  80
ATOM     80  C   UNL A   1      31.370  27.991  23.106  1.00  0.00     0.119 C 
ATOM     81  C   UNL A   1      30.388  27.591  24.223  1.00  0.00     0.019 C 
ATOM     82  C   UNL A   1      31.265  26.990  21.976  1.00  0.00     0.135 C 
ATOM     83  C   UNL A   1      30.512  26.114  24.641  1.00  0.00     0.022 C 
ATOM     84  N   UNL A   1      31.594  25.667  22.468  1.00  0.00    -0.338 N 
ATOM     85  C   UNL A   1      30.639  25.151  23.451  1.00  0.00     0.120 C 
BRANCH  84  86
ATOM     86  C   UNL A   1      32.803  25.126  22.071  1.00  0.00     0.246 C 
ATOM     87  O   UNL A   1      33.418  25.518  21.079  1.00  0.00    -0.270 OA
BRANCH  86  88
ATOM     88  C   UNL A   1      33.428  24.059  22.876  1.00  0.00     0.072 C 
ATOM     89  C   UNL A   1      34.501  24.302  23.640  1.00  0.00     0.018 C 
BRANCH  89  90
ATOM     90  C   UNL A   1      35.222  23.221  24.313  1.00  0.00     0.029 A 
ATOM     91  C   UNL A   1      36.349  22.673  23.691  1.00  0.00     0.131 A 
ATOM     92  C   UNL A   1      34.835  22.705  25.558  1.00  0.00     0.051 A 
ATOM     93  F   UNL A   1      36.762  23.140  22.502  1.00  0.00    -0.206 F 
ATOM     94  C   UNL A   1      37.081  21.646  24.281  1.00  0.00     0.040 A 
ATOM     95  C   UNL A   1      35.565  21.669  26.155  1.00  0.00     0.021 A 
ATOM     96  Cl  UNL A   1      33.476  23.328  26.428  1.00  0.00    -0.084 Cl
ATOM     97  C   UNL A   1      36.689  21.141  25.518  1.00  0.00     0.005 A 
ENDBRANCH  89  90
ENDBRANCH  86  88
ENDBRANCH  84  86
ENDBRANCH  78  80
ENDBRANCH  77  78
ENDBRANCH  76  77
ENDBRANCH  75  76
ENDBRANCH  74  75
ENDBRANCH  73  74
ENDBRANCH   1  73
TORSDOF 23
ENDMDL
MODEL 2
REMARK VINA RESULT:     -10.0      0.979      7.633
REMARK SMILES O=C(OCCOCCOCCOC(=O)[C@@H]1CCCN(C(=O)/C=C/c2c(F)cccc2Cl)C1)c1ccc(-c2c3nc(c(-c4cc(S(=O)(=O)[O-])ccc4F)c4ccc([nH]4)c(-c4cc(S(=O)(=O)[O-])ccc4F)c4nc(c(-c5cc(S(=O)(=O)[O-])ccc5F)c5ccc2[nH]5)C=C4)C=C3)cc1
REMARK SMILES IDX 7 1 6 2 5 3 4 4 3 5 2 6 1 7 33 8 34 9 95 10 35 11 94 12
REMARK SMILES IDX 36 13 37 14 38 15 88 16 39 17 93 18 87 19 89 20 40 21 92 22
REMARK SMILES IDX 86 23 85 24 41 26 73 27 53 28 72 29 54 30 57 31 71 32 90 33
REMARK SMILES IDX 55 34 56 35 70 37 91 38 58 39 42 40 43 41 51 42 44 43 50 44
REMARK SMILES IDX 52 45 49 46 45 47 46 48 47 49 48 50 74 51 75 52 83 53 76 54
REMARK SMILES IDX 82 55 84 56 81 57 77 58 78 59 79 60 80 61 59 62 60 63 68 64
REMARK SMILES IDX 61 65 67 66 69 67 66 68 62 69 63 70 64 71 65 72 8 73 9 74
REMARK SMILES IDX 10 75 11 76 12 77 13 78 14 79 15 80 16 81 32 82 17 83 19 84
REMARK SMILES IDX 18 85 20 86 21 87 22 88 23 89 24 90 25 91 30 92 26 93 27 94
REMARK SMILES IDX 29 95 31 96 28 97
REMARK H PARENT 89 25 57 36
REMARK Flexibility Score: inf
ROOT
ATOM      1  C   UNL A   1      35.511  32.538  28.493  1.00  0.00     0.188 C 
ENDROOT
BRANCH   1   2
ATOM      2  O   UNL A   1      35.239  33.480  27.458  1.00  0.00    -0.376 OA
BRANCH   2   3
ATOM      3  C   UNL A   1      34.547  34.663  27.864  1.00  0.00     0.202 C 
BRANCH   3   4
ATOM      4  C   UNL A   1      33.132  34.484  28.443  1.00  0.00     0.261 C 
BRANCH   4   5
ATOM      5  O   UNL A   1      32.836  35.305  29.586  1.00  0.00    -0.460 OA
BRANCH   5   6
ATOM      6  C   UNL A   1      33.101  35.064  30.894  1.00  0.00     0.338 C 
ATOM      7  O   UNL A   1      32.297  35.454  31.740  1.00  0.00    -0.246 OA
BRANCH   6   8
ATOM      8  C   UNL A   1      34.335  34.372  31.367  1.00  0.00     0.060 A 
ATOM      9  C   UNL A   1      35.584  34.978  31.459  1.00  0.00     0.016 A 
ATOM     10  C   UNL A   1      34.201  33.065  31.860  1.00  0.00     0.016 A 
ATOM     11  C   UNL A   1      36.695  34.297  31.932  1.00  0.00     0.010 A 
ATOM     12  C   UNL A   1      35.302  32.388  32.400  1.00  0.00     0.010 A 
ATOM     13  C   UNL A   1      36.559  33.003  32.418  1.00  0.00    -0.014 A 
BRANCH  13  14
ATOM     14  C   UNL A   1      37.776  32.304  32.871  1.00  0.00     0.031 A 
ATOM     15  C   UNL A   1      38.286  32.586  34.243  1.00  0.00     0.074 A 
ATOM     16  C   UNL A   1      38.325  31.344  32.103  1.00  0.00     0.049 A 
ATOM     17  N   UNL A   1      39.368  32.146  34.817  1.00  0.00    -0.248 NA
ATOM     18  C   UNL A   1      37.467  33.476  35.082  1.00  0.00     0.031 C 
ATOM     19  C   UNL A   1      37.790  30.929  30.808  1.00  0.00     0.029 A 
ATOM     20  N   UNL A   1      39.408  30.526  32.286  1.00  0.00    -0.354 N 
ATOM     21  C   UNL A   1      39.391  32.742  36.068  1.00  0.00     0.074 A 
ATOM     22  C   UNL A   1      38.205  33.561  36.178  1.00  0.00     0.031 C 
ATOM     23  C   UNL A   1      38.521  29.908  30.337  1.00  0.00     0.029 A 
ATOM     24  C   UNL A   1      39.643  29.679  31.225  1.00  0.00     0.049 A 
ATOM     25  H   UNL A   1      39.964  30.542  33.098  1.00  0.00     0.167 HD
ATOM     26  C   UNL A   1      40.349  32.624  37.014  1.00  0.00     0.034 A 
ATOM     27  C   UNL A   1      40.680  28.861  30.958  1.00  0.00     0.034 A 
ATOM     28  C   UNL A   1      41.512  31.791  36.845  1.00  0.00     0.049 A 
ATOM     29  C   UNL A   1      41.779  28.828  31.986  1.00  0.00     0.074 A 
ATOM     30  C   UNL A   1      42.571  31.606  37.711  1.00  0.00     0.029 A 
ATOM     31  N   UNL A   1      41.770  31.013  35.720  1.00  0.00    -0.354 N 
ATOM     32  N   UNL A   1      41.821  29.437  33.151  1.00  0.00    -0.248 NA
ATOM     33  C   UNL A   1      42.969  28.037  31.669  1.00  0.00     0.031 C 
ATOM     34  C   UNL A   1      43.508  30.787  37.075  1.00  0.00     0.029 A 
ATOM     35  C   UNL A   1      42.999  30.389  35.847  1.00  0.00     0.049 A 
ATOM     36  H   UNL A   1      41.168  30.920  34.947  1.00  0.00     0.167 HD
ATOM     37  C   UNL A   1      43.047  29.103  33.706  1.00  0.00     0.074 A 
ATOM     38  C   UNL A   1      43.692  28.203  32.766  1.00  0.00     0.031 C 
ATOM     39  C   UNL A   1      43.603  29.511  34.874  1.00  0.00     0.034 A 
BRANCH  26  40
ATOM     40  C   UNL A   1      40.230  33.507  38.225  1.00  0.00     0.023 A 
ATOM     41  C   UNL A   1      39.351  33.226  39.283  1.00  0.00     0.031 A 
ATOM     42  C   UNL A   1      40.981  34.695  38.283  1.00  0.00     0.131 A 
ATOM     43  C   UNL A   1      39.206  34.149  40.331  1.00  0.00     0.055 A 
ATOM     44  C   UNL A   1      40.887  35.573  39.363  1.00  0.00     0.041 A 
ATOM     45  F   UNL A   1      41.803  35.032  37.278  1.00  0.00    -0.206 F 
ATOM     46  C   UNL A   1      39.988  35.307  40.390  1.00  0.00     0.022 A 
BRANCH  43  47
ATOM     47  S   UNL A   1      37.894  33.882  41.553  1.00  0.00     0.124 S 
ATOM     48  O   UNL A   1      36.927  33.104  40.782  1.00  0.00    -0.237 OA
ATOM     49  O   UNL A   1      38.590  33.163  42.614  1.00  0.00    -0.237 OA
ATOM     50  O   UNL A   1      37.463  35.236  41.896  1.00  0.00    -0.744 OA
ENDBRANCH  43  47
ENDBRANCH  26  40
BRANCH  27  51
ATOM     51  C   UNL A   1      40.795  28.130  29.653  1.00  0.00     0.023 A 
ATOM     52  C   UNL A   1      41.744  28.495  28.684  1.00  0.00     0.031 A 
ATOM     53  C   UNL A   1      39.898  27.094  29.318  1.00  0.00     0.131 A 
ATOM     54  C   UNL A   1      41.734  27.876  27.420  1.00  0.00     0.055 A 
ATOM     55  C   UNL A   1      39.945  26.427  28.091  1.00  0.00     0.041 A 
ATOM     56  F   UNL A   1      38.950  26.703  30.186  1.00  0.00    -0.206 F 
ATOM     57  C   UNL A   1      40.856  26.833  27.125  1.00  0.00     0.022 A 
BRANCH  54  58
ATOM     58  S   UNL A   1      42.784  28.561  26.105  1.00  0.00     0.124 S 
ATOM     59  O   UNL A   1      42.973  29.933  26.560  1.00  0.00    -0.237 OA
ATOM     60  O   UNL A   1      43.955  27.694  26.171  1.00  0.00    -0.237 OA
ATOM     61  O   UNL A   1      41.965  28.411  24.903  1.00  0.00    -0.744 OA
ENDBRANCH  54  58
ENDBRANCH  27  51
BRANCH  39  62
ATOM     62  C   UNL A   1      44.969  28.966  35.181  1.00  0.00     0.023 A 
ATOM     63  C   UNL A   1      46.128  29.656  34.793  1.00  0.00     0.031 A 
ATOM     64  C   UNL A   1      45.107  27.750  35.869  1.00  0.00     0.131 A 
ATOM     65  C   UNL A   1      47.384  29.097  35.054  1.00  0.00     0.055 A 
ATOM     66  C   UNL A   1      46.361  27.233  36.186  1.00  0.00     0.041 A 
ATOM     67  F   UNL A   1      44.025  27.054  36.253  1.00  0.00    -0.206 F 
ATOM     68  C   UNL A   1      47.508  27.902  35.768  1.00  0.00     0.022 A 
BRANCH  65  69
ATOM     69  S   UNL A   1      48.851  29.914  34.374  1.00  0.00     0.124 S 
ATOM     70  O   UNL A   1      49.353  28.908  33.445  1.00  0.00    -0.237 OA
ATOM     71  O   UNL A   1      48.289  31.117  33.769  1.00  0.00    -0.237 OA
ATOM     72  O   UNL A   1      49.687  30.147  35.551  1.00  0.00    -0.744 OA
ENDBRANCH  65  69
ENDBRANCH  39  62
ENDBRANCH  13  14
ENDBRANCH   6   8
ENDBRANCH   5   6
ENDBRANCH   4   5
ENDBRANCH   3   4
ENDBRANCH   2   3
ENDBRANCH   1   2
BRANCH   1  73
ATOM     73  C   UNL A   1      35.046  31.128  28.134  1.00  0.00     0.188 C 
BRANCH  73  74
ATOM     74  O   UNL A   1      33.761  30.991  27.531  1.00  0.00    -0.376 OA
BRANCH  74  75
ATOM     75  C   UNL A   1      33.416  29.726  26.973  1.00  0.00     0.202 C 
BRANCH  75  76
ATOM     76  C   UNL A   1      33.402  29.566  25.444  1.00  0.00     0.261 C 
BRANCH  76  77
ATOM     77  O   UNL A   1      32.424  28.651  24.945  1.00  0.00    -0.463 OA
BRANCH  77  78
ATOM     78  C   UNL A   1      32.375  28.558  23.589  1.00  0.00     0.310 C 
ATOM     79  O   UNL A   1      33.338  28.715  22.838  1.00  0.00    -0.252 OA
BRANCH  78  80
ATOM     80  C   UNL A   1      30.988  28.153  23.138  1.00  0.00     0.119 C 
ATOM     81  C   UNL A   1      30.119  27.631  24.297  1.00  0.00     0.019 C 
ATOM     82  C   UNL A   1      31.103  27.074  22.084  1.00  0.00     0.135 C 
ATOM     83  C   UNL A   1      30.564  26.251  24.817  1.00  0.00     0.022 C 
ATOM     84  N   UNL A   1      31.715  25.894  22.663  1.00  0.00    -0.338 N 
ATOM     85  C   UNL A   1      30.898  25.256  23.696  1.00  0.00     0.120 C 
BRANCH  84  86
ATOM     86  C   UNL A   1      33.012  25.603  22.284  1.00  0.00     0.246 C 
ATOM     87  O   UNL A   1      33.525  26.046  21.255  1.00  0.00    -0.270 OA
BRANCH  86  88
ATOM     88  C   UNL A   1      33.858  24.762  23.153  1.00  0.00     0.072 C 
ATOM     89  C   UNL A   1      34.313  23.572  22.739  1.00  0.00     0.018 C 
BRANCH  89  90
ATOM     90  C   UNL A   1      35.016  22.664  23.647  1.00  0.00     0.029 A 
ATOM     91  C   UNL A   1      36.413  22.609  23.596  1.00  0.00     0.131 A 
ATOM     92  C   UNL A   1      34.353  21.843  24.569  1.00  0.00     0.051 A 
ATOM     93  F   UNL A   1      37.092  23.384  22.735  1.00  0.00    -0.206 F 
ATOM     94  C   UNL A   1      37.141  21.771  24.437  1.00  0.00     0.040 A 
ATOM     95  C   UNL A   1      35.079  20.994  25.414  1.00  0.00     0.021 A 
ATOM     96  Cl  UNL A   1      32.631  21.852  24.735  1.00  0.00    -0.084 Cl
ATOM     97  C   UNL A   1      36.473  20.959  25.350  1.00  0.00     0.005 A 
ENDBRANCH  89  90
ENDBRANCH  86  88
ENDBRANCH  84  86
ENDBRANCH  78  80
ENDBRANCH  77  78
ENDBRANCH  76  77
ENDBRANCH  75  76
ENDBRANCH  74  75
ENDBRANCH  73  74
ENDBRANCH   1  73
TORSDOF 23
ENDMDL
MODEL 3
REMARK VINA RESULT:      -9.7      6.165     11.363
REMARK SMILES O=C(OCCOCCOCCOC(=O)[C@@H]1CCCN(C(=O)/C=C/c2c(F)cccc2Cl)C1)c1ccc(-c2c3nc(c(-c4cc(S(=O)(=O)[O-])ccc4F)c4ccc([nH]4)c(-c4cc(S(=O)(=O)[O-])ccc4F)c4nc(c(-c5cc(S(=O)(=O)[O-])ccc5F)c5ccc2[nH]5)C=C4)C=C3)cc1
REMARK SMILES IDX 7 1 6 2 5 3 4 4 3 5 2 6 1 7 33 8 34 9 95 10 35 11 94 12
REMARK SMILES IDX 36 13 37 14 38 15 88 16 39 17 93 18 87 19 89 20 40 21 92 22
REMARK SMILES IDX 86 23 85 24 41 26 73 27 53 28 72 29 54 30 57 31 71 32 90 33
REMARK SMILES IDX 55 34 56 35 70 37 91 38 58 39 42 40 43 41 51 42 44 43 50 44
REMARK SMILES IDX 52 45 49 46 45 47 46 48 47 49 48 50 74 51 75 52 83 53 76 54
REMARK SMILES IDX 82 55 84 56 81 57 77 58 78 59 79 60 80 61 59 62 60 63 68 64
REMARK SMILES IDX 61 65 67 66 69 67 66 68 62 69 63 70 64 71 65 72 8 73 9 74
REMARK SMILES IDX 10 75 11 76 12 77 13 78 14 79 15 80 16 81 32 82 17 83 19 84
REMARK SMILES IDX 18 85 20 86 21 87 22 88 23 89 24 90 25 91 30 92 26 93 27 94
REMARK SMILES IDX 29 95 31 96 28 97
REMARK H PARENT 89 25 57 36
REMARK Flexibility Score: inf
ROOT
ATOM      1  C   UNL A   1      40.966  22.096  26.922  1.00  0.00     0.188 C 
ENDROOT
BRANCH   1   2
ATOM      2  O   UNL A   1      40.655  20.717  26.733  1.00  0.00    -0.376 OA
BRANCH   2   3
ATOM      3  C   UNL A   1      41.635  19.790  27.203  1.00  0.00     0.202 C 
BRANCH   3   4
ATOM      4  C   UNL A   1      42.329  18.909  26.149  1.00  0.00     0.261 C 
BRANCH   4   5
ATOM      5  O   UNL A   1      42.705  19.591  24.939  1.00  0.00    -0.460 OA
BRANCH   5   6
ATOM      6  C   UNL A   1      43.852  20.259  24.666  1.00  0.00     0.338 C 
ATOM      7  O   UNL A   1      44.712  19.700  23.986  1.00  0.00    -0.246 OA
BRANCH   6   8
ATOM      8  C   UNL A   1      44.142  21.632  25.171  1.00  0.00     0.060 A 
ATOM      9  C   UNL A   1      43.729  22.801  24.539  1.00  0.00     0.016 A 
ATOM     10  C   UNL A   1      44.767  21.748  26.422  1.00  0.00     0.016 A 
ATOM     11  C   UNL A   1      44.002  24.054  25.066  1.00  0.00     0.010 A 
ATOM     12  C   UNL A   1      44.992  23.006  26.996  1.00  0.00     0.010 A 
ATOM     13  C   UNL A   1      44.623  24.165  26.304  1.00  0.00    -0.014 A 
BRANCH  13  14
ATOM     14  C   UNL A   1      44.931  25.517  26.804  1.00  0.00     0.031 A 
ATOM     15  C   UNL A   1      43.851  26.281  27.493  1.00  0.00     0.074 A 
ATOM     16  C   UNL A   1      46.192  25.985  26.745  1.00  0.00     0.049 A 
ATOM     17  N   UNL A   1      43.877  27.501  27.944  1.00  0.00    -0.248 NA
ATOM     18  C   UNL A   1      42.579  25.574  27.712  1.00  0.00     0.031 C 
ATOM     19  C   UNL A   1      47.318  25.229  26.203  1.00  0.00     0.029 A 
ATOM     20  N   UNL A   1      46.758  27.161  27.158  1.00  0.00    -0.354 N 
ATOM     21  C   UNL A   1      42.609  27.732  28.455  1.00  0.00     0.074 A 
ATOM     22  C   UNL A   1      41.844  26.519  28.277  1.00  0.00     0.031 C 
ATOM     23  C   UNL A   1      48.443  25.943  26.357  1.00  0.00     0.029 A 
ATOM     24  C   UNL A   1      48.106  27.248  26.887  1.00  0.00     0.049 A 
ATOM     25  H   UNL A   1      46.249  27.876  27.606  1.00  0.00     0.167 HD
ATOM     26  C   UNL A   1      42.140  28.880  28.994  1.00  0.00     0.034 A 
ATOM     27  C   UNL A   1      48.964  28.283  26.987  1.00  0.00     0.034 A 
ATOM     28  C   UNL A   1      42.953  30.059  29.143  1.00  0.00     0.049 A 
ATOM     29  C   UNL A   1      48.386  29.576  27.496  1.00  0.00     0.074 A 
ATOM     30  C   UNL A   1      42.593  31.295  29.643  1.00  0.00     0.029 A 
ATOM     31  N   UNL A   1      44.293  30.148  28.776  1.00  0.00    -0.354 N 
ATOM     32  N   UNL A   1      47.167  29.806  27.932  1.00  0.00    -0.248 NA
ATOM     33  C   UNL A   1      49.266  30.746  27.505  1.00  0.00     0.031 C 
ATOM     34  C   UNL A   1      43.687  32.152  29.499  1.00  0.00     0.029 A 
ATOM     35  C   UNL A   1      44.759  31.433  28.988  1.00  0.00     0.049 A 
ATOM     36  H   UNL A   1      44.830  29.405  28.417  1.00  0.00     0.167 HD
ATOM     37  C   UNL A   1      47.134  31.151  28.266  1.00  0.00     0.074 A 
ATOM     38  C   UNL A   1      48.468  31.667  28.022  1.00  0.00     0.031 C 
ATOM     39  C   UNL A   1      46.097  31.902  28.716  1.00  0.00     0.034 A 
BRANCH  26  40
ATOM     40  C   UNL A   1      40.674  28.934  29.321  1.00  0.00     0.023 A 
ATOM     41  C   UNL A   1      40.191  28.876  30.639  1.00  0.00     0.031 A 
ATOM     42  C   UNL A   1      39.738  28.988  28.273  1.00  0.00     0.131 A 
ATOM     43  C   UNL A   1      38.808  28.818  30.870  1.00  0.00     0.055 A 
ATOM     44  C   UNL A   1      38.365  29.003  28.512  1.00  0.00     0.041 A 
ATOM     45  F   UNL A   1      40.146  29.001  26.995  1.00  0.00    -0.206 F 
ATOM     46  C   UNL A   1      37.892  28.909  29.817  1.00  0.00     0.022 A 
BRANCH  43  47
ATOM     47  S   UNL A   1      38.218  28.498  32.555  1.00  0.00     0.124 S 
ATOM     48  O   UNL A   1      39.261  29.133  33.357  1.00  0.00    -0.237 OA
ATOM     49  O   UNL A   1      36.916  29.154  32.566  1.00  0.00    -0.237 OA
ATOM     50  O   UNL A   1      38.182  27.039  32.634  1.00  0.00    -0.744 OA
ENDBRANCH  43  47
ENDBRANCH  26  40
BRANCH  27  51
ATOM     51  C   UNL A   1      50.377  28.188  26.492  1.00  0.00     0.023 A 
ATOM     52  C   UNL A   1      50.699  28.376  25.138  1.00  0.00     0.031 A 
ATOM     53  C   UNL A   1      51.429  27.829  27.360  1.00  0.00     0.131 A 
ATOM     54  C   UNL A   1      52.012  28.147  24.687  1.00  0.00     0.055 A 
ATOM     55  C   UNL A   1      52.747  27.682  26.922  1.00  0.00     0.041 A 
ATOM     56  F   UNL A   1      51.195  27.613  28.665  1.00  0.00    -0.206 F 
ATOM     57  C   UNL A   1      53.041  27.822  25.572  1.00  0.00     0.022 A 
BRANCH  54  58
ATOM     58  S   UNL A   1      52.331  28.126  22.899  1.00  0.00     0.124 S 
ATOM     59  O   UNL A   1      51.302  27.208  22.425  1.00  0.00    -0.237 OA
ATOM     60  O   UNL A   1      52.153  29.530  22.543  1.00  0.00    -0.237 OA
ATOM     61  O   UNL A   1      53.702  27.629  22.803  1.00  0.00    -0.744 OA
ENDBRANCH  54  58
ENDBRANCH  27  51
BRANCH  39  62
ATOM     62  C   UNL A   1      46.394  33.351  28.975  1.00  0.00     0.023 A 
ATOM     63  C   UNL A   1      46.008  34.344  28.061  1.00  0.00     0.031 A 
ATOM     64  C   UNL A   1      47.064  33.737  30.147  1.00  0.00     0.131 A 
ATOM     65  C   UNL A   1      46.343  35.679  28.312  1.00  0.00     0.055 A 
ATOM     66  C   UNL A   1      47.333  35.075  30.423  1.00  0.00     0.041 A 
ATOM     67  F   UNL A   1      47.457  32.818  31.045  1.00  0.00    -0.206 F 
ATOM     68  C   UNL A   1      46.981  36.054  29.497  1.00  0.00     0.022 A 
BRANCH  65  69
ATOM     69  S   UNL A   1      46.002  36.910  27.027  1.00  0.00     0.124 S 
ATOM     70  O   UNL A   1      47.222  36.860  26.230  1.00  0.00    -0.237 OA
ATOM     71  O   UNL A   1      44.802  36.377  26.390  1.00  0.00    -0.237 OA
ATOM     72  O   UNL A   1      45.802  38.146  27.783  1.00  0.00    -0.744 OA
ENDBRANCH  65  69
ENDBRANCH  39  62
ENDBRANCH  13  14
ENDBRANCH   6   8
ENDBRANCH   5   6
ENDBRANCH   4   5
ENDBRANCH   3   4
ENDBRANCH   2   3
ENDBRANCH   1   2
BRANCH   1  73
ATOM     73  C   UNL A   1      39.747  22.998  26.744  1.00  0.00     0.188 C 
BRANCH  73  74
ATOM     74  O   UNL A   1      38.636  22.470  26.022  1.00  0.00    -0.376 OA
BRANCH  74  75
ATOM     75  C   UNL A   1      37.443  23.248  25.967  1.00  0.00     0.202 C 
BRANCH  75  76
ATOM     76  C   UNL A   1      36.764  23.475  24.607  1.00  0.00     0.261 C 
BRANCH  76  77
ATOM     77  O   UNL A   1      35.351  23.258  24.598  1.00  0.00    -0.463 OA
BRANCH  77  78
ATOM     78  C   UNL A   1      34.606  24.384  24.435  1.00  0.00     0.310 C 
ATOM     79  O   UNL A   1      34.305  25.166  25.338  1.00  0.00    -0.252 OA
BRANCH  78  80
ATOM     80  C   UNL A   1      34.266  24.584  22.973  1.00  0.00     0.119 C 
ATOM     81  C   UNL A   1      33.564  25.928  22.710  1.00  0.00     0.019 C 
ATOM     82  C   UNL A   1      33.367  23.459  22.513  1.00  0.00     0.135 C 
ATOM     83  C   UNL A   1      32.123  25.977  23.251  1.00  0.00     0.022 C 
ATOM     84  N   UNL A   1      32.115  23.509  23.243  1.00  0.00    -0.338 N 
ATOM     85  C   UNL A   1      31.317  24.703  22.959  1.00  0.00     0.120 C 
BRANCH  84  86
ATOM     86  C   UNL A   1      31.897  22.529  24.193  1.00  0.00     0.246 C 
ATOM     87  O   UNL A   1      31.071  22.647  25.100  1.00  0.00    -0.270 OA
BRANCH  86  88
ATOM     88  C   UNL A   1      32.640  21.257  24.118  1.00  0.00     0.072 C 
ATOM     89  C   UNL A   1      32.034  20.117  23.760  1.00  0.00     0.018 C 
BRANCH  89  90
ATOM     90  C   UNL A   1      32.722  18.828  23.837  1.00  0.00     0.029 A 
ATOM     91  C   UNL A   1      32.927  18.102  22.658  1.00  0.00     0.131 A 
ATOM     92  C   UNL A   1      33.188  18.282  25.041  1.00  0.00     0.051 A 
ATOM     93  F   UNL A   1      32.505  18.589  21.480  1.00  0.00    -0.206 F 
ATOM     94  C   UNL A   1      33.580  16.872  22.663  1.00  0.00     0.040 A 
ATOM     95  C   UNL A   1      33.841  17.043  25.053  1.00  0.00     0.021 A 
ATOM     96  Cl  UNL A   1      33.013  19.106  26.551  1.00  0.00    -0.084 Cl
ATOM     97  C   UNL A   1      34.039  16.339  23.864  1.00  0.00     0.005 A 
ENDBRANCH  89  90
ENDBRANCH  86  88
ENDBRANCH  84  86
ENDBRANCH  78  80
ENDBRANCH  77  78
ENDBRANCH  76  77
ENDBRANCH  75  76
ENDBRANCH  74  75
ENDBRANCH  73  74
ENDBRANCH   1  73
TORSDOF 23
ENDMDL
