MODEL 1
REMARK VINA RESULT:      -9.3      0.000      0.000
REMARK SMILES CCCN(CC(=O)OCCOCCOCCOC(=O)c1ccc(-c2c3nc(c(-c4cc(S(=O)(=O)[O-])ccc4F)c4ccc([nH]4)c(-c4cc(S(=O)(=O)[O-])ccc4F)c4nc(c(-c5cc(S(=O)(=O)[O-])ccc5F)c5ccc2[nH]5)C=C4)C=C3)cc1)C(=O)[C@H]1C=C[C@@H]([NH3+])C1
REMARK SMILES IDX 12 1 11 2 10 3 9 4 8 5 6 6 7 7 5 8 4 9 3 10 2 11 1 12 83 13
REMARK SMILES IDX 84 14 85 15 86 16 90 17 87 18 88 19 89 20 13 24 14 25 15 26
REMARK SMILES IDX 16 27 17 28 18 29 19 30 20 31 21 32 82 33 22 34 81 35 23 36
REMARK SMILES IDX 24 37 25 38 75 39 26 40 80 41 74 42 76 43 27 44 79 45 73 46
REMARK SMILES IDX 72 47 28 49 60 50 40 51 59 52 41 53 44 54 58 55 77 56 42 57
REMARK SMILES IDX 43 58 57 60 78 61 45 62 29 63 30 64 38 65 31 66 37 67 39 68
REMARK SMILES IDX 36 69 32 70 33 71 34 72 35 73 61 74 62 75 70 76 63 77 69 78
REMARK SMILES IDX 71 79 68 80 64 81 65 82 66 83 67 84 46 85 47 86 55 87 48 88
REMARK SMILES IDX 54 89 56 90 53 91 49 92 50 93 51 94 52 95
REMARK H PARENT 89 21 89 22 89 23 76 48 44 59
REMARK Flexibility Score: inf
ROOT
ATOM      1  C   UNL A   1      32.463  25.644  25.359  1.00  0.00     0.188 C 
ENDROOT
BRANCH   1   2
ATOM      2  O   UNL A   1      32.827  25.958  24.020  1.00  0.00    -0.376 OA
BRANCH   2   3
ATOM      3  C   UNL A   1      32.363  25.091  22.992  1.00  0.00     0.202 C 
BRANCH   3   4
ATOM      4  C   UNL A   1      33.102  23.752  22.880  1.00  0.00     0.261 C 
BRANCH   4   5
ATOM      5  O   UNL A   1      32.306  22.742  22.213  1.00  0.00    -0.462 OA
BRANCH   5   6
ATOM      6  C   UNL A   1      32.139  21.565  22.874  1.00  0.00     0.325 C 
ATOM      7  O   UNL A   1      32.105  20.472  22.319  1.00  0.00    -0.250 OA
BRANCH   6   8
ATOM      8  C   UNL A   1      32.159  21.693  24.415  1.00  0.00     0.242 C 
BRANCH   8   9
ATOM      9  N   UNL A   1      33.127  20.914  25.215  1.00  0.00    -0.331 N 
BRANCH   9  10
ATOM     10  C   UNL A   1      32.944  19.463  25.242  1.00  0.00     0.120 C 
BRANCH  10  11
ATOM     11  C   UNL A   1      34.114  18.716  24.575  1.00  0.00     0.018 C 
ATOM     12  C   UNL A   1      33.890  17.217  24.383  1.00  0.00     0.006 C 
ENDBRANCH  10  11
ENDBRANCH   9  10
BRANCH   9  13
ATOM     13  C   UNL A   1      34.232  21.415  25.900  1.00  0.00     0.230 C 
ATOM     14  O   UNL A   1      34.294  21.338  27.132  1.00  0.00    -0.274 OA
BRANCH  13  15
ATOM     15  C   UNL A   1      35.372  22.054  25.096  1.00  0.00     0.107 C 
ATOM     16  C   UNL A   1      35.712  23.438  25.592  1.00  0.00    -0.012 C 
ATOM     17  C   UNL A   1      36.725  21.346  25.244  1.00  0.00     0.087 C 
ATOM     18  C   UNL A   1      37.034  23.649  25.620  1.00  0.00     0.033 C 
ATOM     19  C   UNL A   1      37.780  22.458  25.129  1.00  0.00     0.205 C 
BRANCH  19  20
ATOM     20  N   UNL A   1      38.977  22.156  25.875  1.00  0.00    -0.352 N 
ATOM     21  H   UNL A   1      39.048  21.147  26.011  1.00  0.00     0.345 HD
ATOM     22  H   UNL A   1      38.938  22.620  26.782  1.00  0.00     0.345 HD
ATOM     23  H   UNL A   1      39.792  22.487  25.359  1.00  0.00     0.345 HD
ENDBRANCH  19  20
ENDBRANCH  13  15
ENDBRANCH   9  13
ENDBRANCH   8   9
ENDBRANCH   6   8
ENDBRANCH   5   6
ENDBRANCH   4   5
ENDBRANCH   3   4
ENDBRANCH   2   3
ENDBRANCH   1   2
BRANCH   1  24
ATOM     24  C   UNL A   1      31.564  26.642  26.112  1.00  0.00     0.188 C 
BRANCH  24  25
ATOM     25  O   UNL A   1      32.165  27.429  27.128  1.00  0.00    -0.376 OA
BRANCH  25  26
ATOM     26  C   UNL A   1      31.454  28.592  27.528  1.00  0.00     0.202 C 
BRANCH  26  27
ATOM     27  C   UNL A   1      31.609  29.789  26.587  1.00  0.00     0.261 C 
BRANCH  27  28
ATOM     28  O   UNL A   1      33.000  30.095  26.353  1.00  0.00    -0.460 OA
BRANCH  28  29
ATOM     29  C   UNL A   1      33.491  31.032  27.203  1.00  0.00     0.338 C 
ATOM     30  O   UNL A   1      32.873  31.988  27.634  1.00  0.00    -0.246 OA
BRANCH  29  31
ATOM     31  C   UNL A   1      34.905  30.764  27.573  1.00  0.00     0.060 A 
ATOM     32  C   UNL A   1      35.374  29.484  27.871  1.00  0.00     0.016 A 
ATOM     33  C   UNL A   1      35.741  31.858  27.790  1.00  0.00     0.016 A 
ATOM     34  C   UNL A   1      36.610  29.317  28.513  1.00  0.00     0.010 A 
ATOM     35  C   UNL A   1      37.010  31.678  28.355  1.00  0.00     0.010 A 
ATOM     36  C   UNL A   1      37.438  30.414  28.798  1.00  0.00    -0.014 A 
BRANCH  36  37
ATOM     37  C   UNL A   1      38.685  30.300  29.630  1.00  0.00     0.031 A 
ATOM     38  C   UNL A   1      39.833  29.435  29.143  1.00  0.00     0.074 A 
ATOM     39  C   UNL A   1      38.831  30.941  30.810  1.00  0.00     0.049 A 
ATOM     40  N   UNL A   1      40.837  28.927  29.812  1.00  0.00    -0.248 NA
ATOM     41  C   UNL A   1      39.840  29.087  27.711  1.00  0.00     0.031 C 
ATOM     42  C   UNL A   1      37.886  31.897  31.386  1.00  0.00     0.029 A 
ATOM     43  N   UNL A   1      39.835  30.867  31.753  1.00  0.00    -0.354 N 
ATOM     44  C   UNL A   1      41.545  28.138  28.909  1.00  0.00     0.074 A 
ATOM     45  C   UNL A   1      40.868  28.251  27.635  1.00  0.00     0.031 C 
ATOM     46  C   UNL A   1      38.358  32.328  32.566  1.00  0.00     0.029 A 
ATOM     47  C   UNL A   1      39.566  31.582  32.899  1.00  0.00     0.049 A 
ATOM     48  H   UNL A   1      40.664  30.352  31.619  1.00  0.00     0.167 HD
ATOM     49  C   UNL A   1      42.647  27.376  29.129  1.00  0.00     0.034 A 
ATOM     50  C   UNL A   1      40.152  31.576  34.116  1.00  0.00     0.034 A 
ATOM     51  C   UNL A   1      43.360  27.325  30.382  1.00  0.00     0.049 A 
ATOM     52  C   UNL A   1      41.324  30.659  34.366  1.00  0.00     0.074 A 
ATOM     53  C   UNL A   1      44.506  26.610  30.692  1.00  0.00     0.029 A 
ATOM     54  N   UNL A   1      43.007  28.018  31.531  1.00  0.00    -0.354 N 
ATOM     55  N   UNL A   1      41.921  29.835  33.536  1.00  0.00    -0.248 NA
ATOM     56  C   UNL A   1      41.883  30.652  35.724  1.00  0.00     0.031 C 
ATOM     57  C   UNL A   1      44.803  26.815  32.043  1.00  0.00     0.029 A 
ATOM     58  C   UNL A   1      43.889  27.719  32.558  1.00  0.00     0.049 A 
ATOM     59  H   UNL A   1      42.242  28.634  31.605  1.00  0.00     0.167 HD
ATOM     60  C   UNL A   1      42.932  29.224  34.273  1.00  0.00     0.074 A 
ATOM     61  C   UNL A   1      42.881  29.791  35.604  1.00  0.00     0.031 C 
ATOM     62  C   UNL A   1      43.821  28.273  33.887  1.00  0.00     0.034 A 
BRANCH  49  63
ATOM     63  C   UNL A   1      43.118  26.464  28.022  1.00  0.00     0.023 A 
ATOM     64  C   UNL A   1      42.633  25.158  27.850  1.00  0.00     0.031 A 
ATOM     65  C   UNL A   1      44.044  26.955  27.080  1.00  0.00     0.131 A 
ATOM     66  C   UNL A   1      43.096  24.380  26.775  1.00  0.00     0.055 A 
ATOM     67  C   UNL A   1      44.455  26.198  25.982  1.00  0.00     0.041 A 
ATOM     68  F   UNL A   1      44.555  28.190  27.206  1.00  0.00    -0.206 F 
ATOM     69  C   UNL A   1      43.983  24.899  25.827  1.00  0.00     0.022 A 
BRANCH  66  70
ATOM     70  S   UNL A   1      42.579  22.643  26.665  1.00  0.00     0.124 S 
ATOM     71  O   UNL A   1      41.631  22.547  27.773  1.00  0.00    -0.237 OA
ATOM     72  O   UNL A   1      42.007  22.569  25.327  1.00  0.00    -0.237 OA
ATOM     73  O   UNL A   1      43.824  21.902  26.853  1.00  0.00    -0.744 OA
ENDBRANCH  66  70
ENDBRANCH  49  63
BRANCH  50  74
ATOM     74  C   UNL A   1      39.557  32.359  35.243  1.00  0.00     0.023 A 
ATOM     75  C   UNL A   1      39.939  33.686  35.500  1.00  0.00     0.031 A 
ATOM     76  C   UNL A   1      38.636  31.760  36.123  1.00  0.00     0.131 A 
ATOM     77  C   UNL A   1      39.431  34.353  36.627  1.00  0.00     0.055 A 
ATOM     78  C   UNL A   1      38.080  32.451  37.199  1.00  0.00     0.041 A 
ATOM     79  F   UNL A   1      38.249  30.487  35.941  1.00  0.00    -0.206 F 
ATOM     80  C   UNL A   1      38.489  33.753  37.464  1.00  0.00     0.022 A 
BRANCH  77  81
ATOM     81  S   UNL A   1      40.105  35.984  37.052  1.00  0.00     0.124 S 
ATOM     82  O   UNL A   1      39.368  36.300  38.270  1.00  0.00    -0.237 OA
ATOM     83  O   UNL A   1      41.524  35.689  37.219  1.00  0.00    -0.237 OA
ATOM     84  O   UNL A   1      39.771  36.803  35.889  1.00  0.00    -0.744 OA
ENDBRANCH  77  81
ENDBRANCH  50  74
BRANCH  62  85
ATOM     85  C   UNL A   1      44.831  27.823  34.913  1.00  0.00     0.023 A 
ATOM     86  C   UNL A   1      44.495  26.903  35.923  1.00  0.00     0.031 A 
ATOM     87  C   UNL A   1      46.134  28.349  34.903  1.00  0.00     0.131 A 
ATOM     88  C   UNL A   1      45.433  26.584  36.917  1.00  0.00     0.055 A 
ATOM     89  C   UNL A   1      47.082  27.983  35.860  1.00  0.00     0.041 A 
ATOM     90  F   UNL A   1      46.508  29.232  33.963  1.00  0.00    -0.206 F 
ATOM     91  C   UNL A   1      46.728  27.108  36.883  1.00  0.00     0.022 A 
BRANCH  88  92
ATOM     92  S   UNL A   1      44.905  25.557  38.315  1.00  0.00     0.124 S 
ATOM     93  O   UNL A   1      46.106  25.529  39.143  1.00  0.00    -0.237 OA
ATOM     94  O   UNL A   1      43.779  26.315  38.852  1.00  0.00    -0.237 OA
ATOM     95  O   UNL A   1      44.552  24.283  37.691  1.00  0.00    -0.744 OA
ENDBRANCH  88  92
ENDBRANCH  62  85
ENDBRANCH  36  37
ENDBRANCH  29  31
ENDBRANCH  28  29
ENDBRANCH  27  28
ENDBRANCH  26  27
ENDBRANCH  25  26
ENDBRANCH  24  25
ENDBRANCH   1  24
TORSDOF 26
ENDMDL
MODEL 2
REMARK VINA RESULT:      -9.0      1.267      2.159
REMARK SMILES CCCN(CC(=O)OCCOCCOCCOC(=O)c1ccc(-c2c3nc(c(-c4cc(S(=O)(=O)[O-])ccc4F)c4ccc([nH]4)c(-c4cc(S(=O)(=O)[O-])ccc4F)c4nc(c(-c5cc(S(=O)(=O)[O-])ccc5F)c5ccc2[nH]5)C=C4)C=C3)cc1)C(=O)[C@H]1C=C[C@@H]([NH3+])C1
REMARK SMILES IDX 12 1 11 2 10 3 9 4 8 5 6 6 7 7 5 8 4 9 3 10 2 11 1 12 83 13
REMARK SMILES IDX 84 14 85 15 86 16 90 17 87 18 88 19 89 20 13 24 14 25 15 26
REMARK SMILES IDX 16 27 17 28 18 29 19 30 20 31 21 32 82 33 22 34 81 35 23 36
REMARK SMILES IDX 24 37 25 38 75 39 26 40 80 41 74 42 76 43 27 44 79 45 73 46
REMARK SMILES IDX 72 47 28 49 60 50 40 51 59 52 41 53 44 54 58 55 77 56 42 57
REMARK SMILES IDX 43 58 57 60 78 61 45 62 29 63 30 64 38 65 31 66 37 67 39 68
REMARK SMILES IDX 36 69 32 70 33 71 34 72 35 73 61 74 62 75 70 76 63 77 69 78
REMARK SMILES IDX 71 79 68 80 64 81 65 82 66 83 67 84 46 85 47 86 55 87 48 88
REMARK SMILES IDX 54 89 56 90 53 91 49 92 50 93 51 94 52 95
REMARK H PARENT 89 21 89 22 89 23 76 48 44 59
REMARK Flexibility Score: inf
ROOT
ATOM      1  C   UNL A   1      32.157  26.248  25.779  1.00  0.00     0.188 C 
ENDROOT
BRANCH   1   2
ATOM      2  O   UNL A   1      32.433  26.917  24.555  1.00  0.00    -0.376 OA
BRANCH   2   3
ATOM      3  C   UNL A   1      31.561  26.667  23.459  1.00  0.00     0.202 C 
BRANCH   3   4
ATOM      4  C   UNL A   1      32.256  26.396  22.118  1.00  0.00     0.261 C 
BRANCH   4   5
ATOM      5  O   UNL A   1      32.256  24.987  21.777  1.00  0.00    -0.462 OA
BRANCH   5   6
ATOM      6  C   UNL A   1      32.973  24.165  22.589  1.00  0.00     0.325 C 
ATOM      7  O   UNL A   1      34.149  24.358  22.884  1.00  0.00    -0.250 OA
BRANCH   6   8
ATOM      8  C   UNL A   1      32.142  23.043  23.254  1.00  0.00     0.242 C 
BRANCH   8   9
ATOM      9  N   UNL A   1      32.697  22.279  24.390  1.00  0.00    -0.331 N 
BRANCH   9  10
ATOM     10  C   UNL A   1      32.482  22.834  25.726  1.00  0.00     0.120 C 
BRANCH  10  11
ATOM     11  C   UNL A   1      33.794  22.960  26.523  1.00  0.00     0.018 C 
ATOM     12  C   UNL A   1      33.962  21.938  27.645  1.00  0.00     0.006 C 
ENDBRANCH  10  11
ENDBRANCH   9  10
BRANCH   9  13
ATOM     13  C   UNL A   1      33.355  21.053  24.323  1.00  0.00     0.230 C 
ATOM     14  O   UNL A   1      34.584  21.007  24.202  1.00  0.00    -0.274 OA
BRANCH  13  15
ATOM     15  C   UNL A   1      32.527  19.764  24.414  1.00  0.00     0.107 C 
ATOM     16  C   UNL A   1      32.924  18.756  23.364  1.00  0.00    -0.012 C 
ATOM     17  C   UNL A   1      32.752  18.956  25.700  1.00  0.00     0.087 C 
ATOM     18  C   UNL A   1      32.961  17.511  23.853  1.00  0.00     0.033 C 
ATOM     19  C   UNL A   1      32.574  17.486  25.291  1.00  0.00     0.205 C 
BRANCH  19  20
ATOM     20  N   UNL A   1      33.362  16.593  26.104  1.00  0.00    -0.352 N 
ATOM     21  H   UNL A   1      33.486  16.997  27.032  1.00  0.00     0.345 HD
ATOM     22  H   UNL A   1      34.274  16.453  25.669  1.00  0.00     0.345 HD
ATOM     23  H   UNL A   1      32.884  15.695  26.185  1.00  0.00     0.345 HD
ENDBRANCH  19  20
ENDBRANCH  13  15
ENDBRANCH   9  13
ENDBRANCH   8   9
ENDBRANCH   6   8
ENDBRANCH   5   6
ENDBRANCH   4   5
ENDBRANCH   3   4
ENDBRANCH   2   3
ENDBRANCH   1   2
BRANCH   1  24
ATOM     24  C   UNL A   1      31.346  27.006  26.847  1.00  0.00     0.188 C 
BRANCH  24  25
ATOM     25  O   UNL A   1      32.025  27.990  27.611  1.00  0.00    -0.376 OA
BRANCH  25  26
ATOM     26  C   UNL A   1      31.469  29.296  27.594  1.00  0.00     0.202 C 
BRANCH  26  27
ATOM     27  C   UNL A   1      31.650  30.049  26.274  1.00  0.00     0.261 C 
BRANCH  27  28
ATOM     28  O   UNL A   1      33.000  30.537  26.130  1.00  0.00    -0.460 OA
BRANCH  28  29
ATOM     29  C   UNL A   1      33.432  31.241  27.207  1.00  0.00     0.338 C 
ATOM     30  O   UNL A   1      32.773  32.053  27.831  1.00  0.00    -0.246 OA
BRANCH  29  31
ATOM     31  C   UNL A   1      34.834  30.908  27.567  1.00  0.00     0.060 A 
ATOM     32  C   UNL A   1      35.232  29.619  27.924  1.00  0.00     0.016 A 
ATOM     33  C   UNL A   1      35.738  31.960  27.712  1.00  0.00     0.016 A 
ATOM     34  C   UNL A   1      36.469  29.412  28.554  1.00  0.00     0.010 A 
ATOM     35  C   UNL A   1      37.005  31.732  28.264  1.00  0.00     0.010 A 
ATOM     36  C   UNL A   1      37.366  30.469  28.766  1.00  0.00    -0.014 A 
BRANCH  36  37
ATOM     37  C   UNL A   1      38.621  30.324  29.582  1.00  0.00     0.031 A 
ATOM     38  C   UNL A   1      39.743  29.436  29.076  1.00  0.00     0.074 A 
ATOM     39  C   UNL A   1      38.795  30.955  30.763  1.00  0.00     0.049 A 
ATOM     40  N   UNL A   1      40.744  28.903  29.731  1.00  0.00    -0.248 NA
ATOM     41  C   UNL A   1      39.725  29.096  27.642  1.00  0.00     0.031 C 
ATOM     42  C   UNL A   1      37.879  31.929  31.356  1.00  0.00     0.029 A 
ATOM     43  N   UNL A   1      39.809  30.853  31.693  1.00  0.00    -0.354 N 
ATOM     44  C   UNL A   1      41.423  28.103  28.814  1.00  0.00     0.074 A 
ATOM     45  C   UNL A   1      40.732  28.238  27.550  1.00  0.00     0.031 C 
ATOM     46  C   UNL A   1      38.374  32.343  32.532  1.00  0.00     0.029 A 
ATOM     47  C   UNL A   1      39.570  31.569  32.847  1.00  0.00     0.049 A 
ATOM     48  H   UNL A   1      40.624  30.322  31.546  1.00  0.00     0.167 HD
ATOM     49  C   UNL A   1      42.510  27.316  29.016  1.00  0.00     0.034 A 
ATOM     50  C   UNL A   1      40.171  31.543  34.056  1.00  0.00     0.034 A 
ATOM     51  C   UNL A   1      43.237  27.243  30.260  1.00  0.00     0.049 A 
ATOM     52  C   UNL A   1      41.325  30.599  34.287  1.00  0.00     0.074 A 
ATOM     53  C   UNL A   1      44.371  26.501  30.552  1.00  0.00     0.029 A 
ATOM     54  N   UNL A   1      42.914  27.937  31.417  1.00  0.00    -0.354 N 
ATOM     55  N   UNL A   1      41.893  29.767  33.445  1.00  0.00    -0.248 NA
ATOM     56  C   UNL A   1      41.901  30.572  35.638  1.00  0.00     0.031 C 
ATOM     57  C   UNL A   1      44.690  26.692  31.901  1.00  0.00     0.029 A 
ATOM     58  C   UNL A   1      43.802  27.613  32.431  1.00  0.00     0.049 A 
ATOM     59  H   UNL A   1      42.164  28.569  31.504  1.00  0.00     0.167 HD
ATOM     60  C   UNL A   1      42.900  29.129  34.166  1.00  0.00     0.074 A 
ATOM     61  C   UNL A   1      42.878  29.690  35.501  1.00  0.00     0.031 C 
ATOM     62  C   UNL A   1      43.762  28.161  33.764  1.00  0.00     0.034 A 
BRANCH  49  63
ATOM     63  C   UNL A   1      42.948  26.400  27.899  1.00  0.00     0.023 A 
ATOM     64  C   UNL A   1      42.402  25.122  27.702  1.00  0.00     0.031 A 
ATOM     65  C   UNL A   1      43.905  26.861  26.973  1.00  0.00     0.131 A 
ATOM     66  C   UNL A   1      42.837  24.339  26.618  1.00  0.00     0.055 A 
ATOM     67  C   UNL A   1      44.290  26.101  25.867  1.00  0.00     0.041 A 
ATOM     68  F   UNL A   1      44.474  28.068  27.124  1.00  0.00    -0.206 F 
ATOM     69  C   UNL A   1      43.757  24.830  25.687  1.00  0.00     0.022 A 
BRANCH  66  70
ATOM     70  S   UNL A   1      42.238  22.631  26.476  1.00  0.00     0.124 S 
ATOM     71  O   UNL A   1      42.757  22.245  25.166  1.00  0.00    -0.237 OA
ATOM     72  O   UNL A   1      42.859  21.984  27.625  1.00  0.00    -0.237 OA
ATOM     73  O   UNL A   1      40.785  22.770  26.548  1.00  0.00    -0.744 OA
ENDBRANCH  66  70
ENDBRANCH  49  63
BRANCH  50  74
ATOM     74  C   UNL A   1      39.607  32.333  35.194  1.00  0.00     0.023 A 
ATOM     75  C   UNL A   1      40.038  33.641  35.466  1.00  0.00     0.031 A 
ATOM     76  C   UNL A   1      38.667  31.756  36.070  1.00  0.00     0.131 A 
ATOM     77  C   UNL A   1      39.557  34.312  36.603  1.00  0.00     0.055 A 
ATOM     78  C   UNL A   1      38.139  32.454  37.156  1.00  0.00     0.041 A 
ATOM     79  F   UNL A   1      38.233  30.501  35.873  1.00  0.00    -0.206 F 
ATOM     80  C   UNL A   1      38.595  33.736  37.436  1.00  0.00     0.022 A 
BRANCH  77  81
ATOM     81  S   UNL A   1      40.290  35.912  37.047  1.00  0.00     0.124 S 
ATOM     82  O   UNL A   1      39.730  36.137  38.374  1.00  0.00    -0.237 OA
ATOM     83  O   UNL A   1      41.717  35.614  36.995  1.00  0.00    -0.237 OA
ATOM     84  O   UNL A   1      39.803  36.810  36.003  1.00  0.00    -0.744 OA
ENDBRANCH  77  81
ENDBRANCH  50  74
BRANCH  62  85
ATOM     85  C   UNL A   1      44.775  27.684  34.775  1.00  0.00     0.023 A 
ATOM     86  C   UNL A   1      44.420  26.806  35.815  1.00  0.00     0.031 A 
ATOM     87  C   UNL A   1      46.103  28.141  34.719  1.00  0.00     0.131 A 
ATOM     88  C   UNL A   1      45.365  26.462  36.793  1.00  0.00     0.055 A 
ATOM     89  C   UNL A   1      47.055  27.749  35.662  1.00  0.00     0.041 A 
ATOM     90  F   UNL A   1      46.496  28.982  33.750  1.00  0.00    -0.206 F 
ATOM     91  C   UNL A   1      46.684  26.917  36.714  1.00  0.00     0.022 A 
BRANCH  88  92
ATOM     92  S   UNL A   1      44.823  25.496  38.229  1.00  0.00     0.124 S 
ATOM     93  O   UNL A   1      43.755  26.330  38.770  1.00  0.00    -0.237 OA
ATOM     94  O   UNL A   1      44.401  24.239  37.618  1.00  0.00    -0.237 OA
ATOM     95  O   UNL A   1      46.023  25.408  39.057  1.00  0.00    -0.744 OA
ENDBRANCH  88  92
ENDBRANCH  62  85
ENDBRANCH  36  37
ENDBRANCH  29  31
ENDBRANCH  28  29
ENDBRANCH  27  28
ENDBRANCH  26  27
ENDBRANCH  25  26
ENDBRANCH  24  25
ENDBRANCH   1  24
TORSDOF 26
ENDMDL
MODEL 3
REMARK VINA RESULT:      -8.9      1.423      2.519
REMARK SMILES CCCN(CC(=O)OCCOCCOCCOC(=O)c1ccc(-c2c3nc(c(-c4cc(S(=O)(=O)[O-])ccc4F)c4ccc([nH]4)c(-c4cc(S(=O)(=O)[O-])ccc4F)c4nc(c(-c5cc(S(=O)(=O)[O-])ccc5F)c5ccc2[nH]5)C=C4)C=C3)cc1)C(=O)[C@H]1C=C[C@@H]([NH3+])C1
REMARK SMILES IDX 12 1 11 2 10 3 9 4 8 5 6 6 7 7 5 8 4 9 3 10 2 11 1 12 83 13
REMARK SMILES IDX 84 14 85 15 86 16 90 17 87 18 88 19 89 20 13 24 14 25 15 26
REMARK SMILES IDX 16 27 17 28 18 29 19 30 20 31 21 32 82 33 22 34 81 35 23 36
REMARK SMILES IDX 24 37 25 38 75 39 26 40 80 41 74 42 76 43 27 44 79 45 73 46
REMARK SMILES IDX 72 47 28 49 60 50 40 51 59 52 41 53 44 54 58 55 77 56 42 57
REMARK SMILES IDX 43 58 57 60 78 61 45 62 29 63 30 64 38 65 31 66 37 67 39 68
REMARK SMILES IDX 36 69 32 70 33 71 34 72 35 73 61 74 62 75 70 76 63 77 69 78
REMARK SMILES IDX 71 79 68 80 64 81 65 82 66 83 67 84 46 85 47 86 55 87 48 88
REMARK SMILES IDX 54 89 56 90 53 91 49 92 50 93 51 94 52 95
REMARK H PARENT 89 21 89 22 89 23 76 48 44 59
REMARK Flexibility Score: inf
ROOT
ATOM      1  C   UNL A   1      33.362  25.253  25.305  1.00  0.00     0.188 C 
ENDROOT
BRANCH   1   2
ATOM      2  O   UNL A   1      34.676  24.716  25.397  1.00  0.00    -0.376 OA
BRANCH   2   3
ATOM      3  C   UNL A   1      35.342  24.395  24.181  1.00  0.00     0.202 C 
BRANCH   3   4
ATOM      4  C   UNL A   1      36.636  23.587  24.336  1.00  0.00     0.261 C 
BRANCH   4   5
ATOM      5  O   UNL A   1      36.425  22.169  24.126  1.00  0.00    -0.462 OA
BRANCH   5   6
ATOM      6  C   UNL A   1      36.108  21.432  25.224  1.00  0.00     0.325 C 
ATOM      7  O   UNL A   1      36.218  21.846  26.375  1.00  0.00    -0.250 OA
BRANCH   6   8
ATOM      8  C   UNL A   1      35.438  20.075  24.910  1.00  0.00     0.242 C 
BRANCH   8   9
ATOM      9  N   UNL A   1      33.973  19.989  24.741  1.00  0.00    -0.331 N 
BRANCH   9  10
ATOM     10  C   UNL A   1      33.384  18.651  24.755  1.00  0.00     0.120 C 
BRANCH  10  11
ATOM     11  C   UNL A   1      32.188  18.530  23.793  1.00  0.00     0.018 C 
ATOM     12  C   UNL A   1      32.551  18.119  22.368  1.00  0.00     0.006 C 
ENDBRANCH  10  11
ENDBRANCH   9  10
BRANCH   9  13
ATOM     13  C   UNL A   1      33.087  21.058  24.626  1.00  0.00     0.230 C 
ATOM     14  O   UNL A   1      33.104  21.782  23.625  1.00  0.00    -0.274 OA
BRANCH  13  15
ATOM     15  C   UNL A   1      32.084  21.311  25.759  1.00  0.00     0.107 C 
ATOM     16  C   UNL A   1      32.715  22.022  26.931  1.00  0.00    -0.012 C 
ATOM     17  C   UNL A   1      30.951  22.282  25.398  1.00  0.00     0.087 C 
ATOM     18  C   UNL A   1      31.910  22.965  27.438  1.00  0.00     0.033 C 
ATOM     19  C   UNL A   1      30.614  23.016  26.705  1.00  0.00     0.205 C 
BRANCH  19  20
ATOM     20  N   UNL A   1      30.115  24.349  26.472  1.00  0.00    -0.352 N 
ATOM     21  H   UNL A   1      30.587  25.003  27.096  1.00  0.00     0.345 HD
ATOM     22  H   UNL A   1      29.111  24.372  26.650  1.00  0.00     0.345 HD
ATOM     23  H   UNL A   1      30.293  24.614  25.503  1.00  0.00     0.345 HD
ENDBRANCH  19  20
ENDBRANCH  13  15
ENDBRANCH   9  13
ENDBRANCH   8   9
ENDBRANCH   6   8
ENDBRANCH   5   6
ENDBRANCH   4   5
ENDBRANCH   3   4
ENDBRANCH   2   3
ENDBRANCH   1   2
BRANCH   1  24
ATOM     24  C   UNL A   1      33.021  26.107  24.069  1.00  0.00     0.188 C 
BRANCH  24  25
ATOM     25  O   UNL A   1      31.959  27.041  24.190  1.00  0.00    -0.376 OA
BRANCH  25  26
ATOM     26  C   UNL A   1      32.293  28.405  23.973  1.00  0.00     0.202 C 
BRANCH  26  27
ATOM     27  C   UNL A   1      31.955  29.336  25.140  1.00  0.00     0.261 C 
BRANCH  27  28
ATOM     28  O   UNL A   1      33.118  30.068  25.580  1.00  0.00    -0.460 OA
BRANCH  28  29
ATOM     29  C   UNL A   1      32.864  30.898  26.623  1.00  0.00     0.338 C 
ATOM     30  O   UNL A   1      31.911  31.651  26.712  1.00  0.00    -0.246 OA
BRANCH  29  31
ATOM     31  C   UNL A   1      33.896  30.790  27.687  1.00  0.00     0.060 A 
ATOM     32  C   UNL A   1      34.364  31.897  28.394  1.00  0.00     0.016 A 
ATOM     33  C   UNL A   1      34.530  29.560  27.857  1.00  0.00     0.016 A 
ATOM     34  C   UNL A   1      35.542  31.804  29.151  1.00  0.00     0.010 A 
ATOM     35  C   UNL A   1      35.658  29.454  28.682  1.00  0.00     0.010 A 
ATOM     36  C   UNL A   1      36.230  30.588  29.283  1.00  0.00    -0.014 A 
BRANCH  36  37
ATOM     37  C   UNL A   1      37.578  30.482  29.941  1.00  0.00     0.031 A 
ATOM     38  C   UNL A   1      38.645  29.598  29.321  1.00  0.00     0.074 A 
ATOM     39  C   UNL A   1      37.885  31.145  31.076  1.00  0.00     0.049 A 
ATOM     40  N   UNL A   1      39.728  29.096  29.859  1.00  0.00    -0.248 NA
ATOM     41  C   UNL A   1      38.456  29.221  27.909  1.00  0.00     0.031 C 
ATOM     42  C   UNL A   1      37.032  32.120  31.755  1.00  0.00     0.029 A 
ATOM     43  N   UNL A   1      39.008  31.082  31.876  1.00  0.00    -0.354 N 
ATOM     44  C   UNL A   1      40.303  28.282  28.885  1.00  0.00     0.074 A 
ATOM     45  C   UNL A   1      39.460  28.375  27.713  1.00  0.00     0.031 C 
ATOM     46  C   UNL A   1      37.661  32.572  32.850  1.00  0.00     0.029 A 
ATOM     47  C   UNL A   1      38.900  31.823  33.033  1.00  0.00     0.049 A 
ATOM     48  H   UNL A   1      39.808  30.558  31.642  1.00  0.00     0.167 HD
ATOM     49  C   UNL A   1      41.420  27.517  28.970  1.00  0.00     0.034 A 
ATOM     50  C   UNL A   1      39.645  31.837  34.159  1.00  0.00     0.034 A 
ATOM     51  C   UNL A   1      42.296  27.486  30.116  1.00  0.00     0.049 A 
ATOM     52  C   UNL A   1      40.836  30.915  34.268  1.00  0.00     0.074 A 
ATOM     53  C   UNL A   1      43.470  26.768  30.283  1.00  0.00     0.029 A 
ATOM     54  N   UNL A   1      42.106  28.205  31.287  1.00  0.00    -0.354 N 
ATOM     55  N   UNL A   1      41.310  30.070  33.382  1.00  0.00    -0.248 NA
ATOM     56  C   UNL A   1      41.574  30.931  35.538  1.00  0.00     0.031 C 
ATOM     57  C   UNL A   1      43.949  26.998  31.577  1.00  0.00     0.029 A 
ATOM     58  C   UNL A   1      43.117  27.919  32.192  1.00  0.00     0.049 A 
ATOM     59  H   UNL A   1      41.361  28.828  31.451  1.00  0.00     0.167 HD
ATOM     60  C   UNL A   1      42.409  29.466  33.988  1.00  0.00     0.074 A 
ATOM     61  C   UNL A   1      42.542  30.060  35.302  1.00  0.00     0.031 C 
ATOM     62  C   UNL A   1      43.232  28.501  33.506  1.00  0.00     0.034 A 
BRANCH  49  63
ATOM     63  C   UNL A   1      41.733  26.579  27.829  1.00  0.00     0.023 A 
ATOM     64  C   UNL A   1      41.330  25.234  27.814  1.00  0.00     0.031 A 
ATOM     65  C   UNL A   1      42.409  27.080  26.698  1.00  0.00     0.131 A 
ATOM     66  C   UNL A   1      41.630  24.431  26.700  1.00  0.00     0.055 A 
ATOM     67  C   UNL A   1      42.652  26.292  25.573  1.00  0.00     0.041 A 
ATOM     68  F   UNL A   1      42.833  28.353  26.667  1.00  0.00    -0.206 F 
ATOM     69  C   UNL A   1      42.265  24.957  25.571  1.00  0.00     0.022 A 
BRANCH  66  70
ATOM     70  S   UNL A   1      41.243  22.658  26.770  1.00  0.00     0.124 S 
ATOM     71  O   UNL A   1      42.252  22.101  25.872  1.00  0.00    -0.237 OA
ATOM     72  O   UNL A   1      41.413  22.356  28.186  1.00  0.00    -0.237 OA
ATOM     73  O   UNL A   1      39.870  22.587  26.277  1.00  0.00    -0.744 OA
ENDBRANCH  66  70
ENDBRANCH  49  63
BRANCH  50  74
ATOM     74  C   UNL A   1      39.212  32.647  35.339  1.00  0.00     0.023 A 
ATOM     75  C   UNL A   1      39.772  33.905  35.613  1.00  0.00     0.031 A 
ATOM     76  C   UNL A   1      38.269  32.136  36.252  1.00  0.00     0.131 A 
ATOM     77  C   UNL A   1      39.410  34.590  36.786  1.00  0.00     0.055 A 
ATOM     78  C   UNL A   1      37.860  32.852  37.376  1.00  0.00     0.041 A 
ATOM     79  F   UNL A   1      37.715  30.929  36.054  1.00  0.00    -0.206 F 
ATOM     80  C   UNL A   1      38.443  34.083  37.656  1.00  0.00     0.022 A 
BRANCH  77  81
ATOM     81  S   UNL A   1      40.305  36.108  37.220  1.00  0.00     0.124 S 
ATOM     82  O   UNL A   1      40.720  36.593  35.909  1.00  0.00    -0.237 OA
ATOM     83  O   UNL A   1      39.270  36.885  37.894  1.00  0.00    -0.237 OA
ATOM     84  O   UNL A   1      41.385  35.631  38.080  1.00  0.00    -0.744 OA
ENDBRANCH  77  81
ENDBRANCH  50  74
BRANCH  62  85
ATOM     85  C   UNL A   1      44.370  28.063  34.395  1.00  0.00     0.023 A 
ATOM     86  C   UNL A   1      44.173  27.151  35.447  1.00  0.00     0.031 A 
ATOM     87  C   UNL A   1      45.658  28.594  34.211  1.00  0.00     0.131 A 
ATOM     88  C   UNL A   1      45.233  26.845  36.314  1.00  0.00     0.055 A 
ATOM     89  C   UNL A   1      46.724  28.240  35.040  1.00  0.00     0.041 A 
ATOM     90  F   UNL A   1      45.902  29.470  33.223  1.00  0.00    -0.206 F 
ATOM     91  C   UNL A   1      46.511  27.372  36.107  1.00  0.00     0.022 A 
BRANCH  88  92
ATOM     92  S   UNL A   1      44.897  25.827  37.777  1.00  0.00     0.124 S 
ATOM     93  O   UNL A   1      44.283  24.642  37.188  1.00  0.00    -0.237 OA
ATOM     94  O   UNL A   1      46.231  25.640  38.341  1.00  0.00    -0.237 OA
ATOM     95  O   UNL A   1      44.000  26.660  38.575  1.00  0.00    -0.744 OA
ENDBRANCH  88  92
ENDBRANCH  62  85
ENDBRANCH  36  37
ENDBRANCH  29  31
ENDBRANCH  28  29
ENDBRANCH  27  28
ENDBRANCH  26  27
ENDBRANCH  25  26
ENDBRANCH  24  25
ENDBRANCH   1  24
TORSDOF 26
ENDMDL
