MODEL 1
REMARK VINA RESULT:     -12.7      0.000      0.000
REMARK SMILES COc1cc(Cl)c(C)cc1N1C(=O)C[C@H](Nc2cc(C(=O)OCCOCCOCCOC(=O)c3ccc(-c4c5nc(c(-c6cc(S(=O)(=O)[O-])ccc6F)c6ccc([nH]6)c(-c6cc(S(=O)(=O)[O-])ccc6F)c6nc(c(-c7cc(S(=O)(=O)[O-])ccc7F)c7ccc4[nH]7)C=C6)C=C5)cc3)ccc2C)C1=O
REMARK SMILES IDX 26 1 25 2 24 3 23 4 22 5 20 6 21 7 19 8 17 9 18 10 99 11
REMARK SMILES IDX 98 12 100 13 97 14 16 15 15 17 11 18 12 19 101 20 13 21
REMARK SMILES IDX 14 22 102 23 10 24 3 25 4 26 5 27 9 28 6 29 7 30 8 31 2 32
REMARK SMILES IDX 1 33 27 34 28 35 29 36 30 37 31 38 32 39 33 40 34 41 35 42
REMARK SMILES IDX 96 43 36 44 95 45 37 46 38 47 39 48 89 49 40 50 94 51 88 52
REMARK SMILES IDX 90 53 41 54 93 55 87 56 86 57 42 59 74 60 54 61 73 62 55 63
REMARK SMILES IDX 58 64 72 65 91 66 56 67 57 68 71 70 92 71 59 72 43 73 44 74
REMARK SMILES IDX 52 75 45 76 51 77 53 78 50 79 46 80 47 81 48 82 49 83 75 84
REMARK SMILES IDX 76 85 84 86 77 87 83 88 85 89 82 90 78 91 79 92 80 93 81 94
REMARK SMILES IDX 60 95 61 96 69 97 62 98 68 99 70 100 67 101 63 102 64 103
REMARK SMILES IDX 65 104 66 105
REMARK H PARENT 16 16 90 58 58 69
REMARK Flexibility Score: inf
ROOT
ATOM      1  C   UNL A   1      34.449  33.399  29.063  1.00  0.00     0.188 C 
ENDROOT
BRANCH   1   2
ATOM      2  O   UNL A   1      34.443  31.951  29.047  1.00  0.00    -0.376 OA
BRANCH   2   3
ATOM      3  C   UNL A   1      35.564  31.104  28.800  1.00  0.00     0.202 C 
BRANCH   3   4
ATOM      4  C   UNL A   1      35.666  29.904  27.580  1.00  0.00     0.261 C 
BRANCH   4   5
ATOM      5  O   UNL A   1      34.513  29.131  26.681  1.00  0.00    -0.460 OA
BRANCH   5   6
ATOM      6  C   UNL A   1      33.276  29.449  26.087  1.00  0.00     0.338 C 
ATOM      7  O   UNL A   1      32.504  30.380  26.302  1.00  0.00    -0.246 OA
BRANCH   6   8
ATOM      8  C   UNL A   1      32.642  28.676  25.001  1.00  0.00     0.062 A 
ATOM      9  C   UNL A   1      31.408  26.611  25.000  1.00  0.00     0.038 A 
ATOM     10  C   UNL A   1      32.598  27.322  25.249  1.00  0.00     0.041 A 
ATOM     11  C   UNL A   1      30.342  27.193  24.280  1.00  0.00    -0.028 A 
ATOM     12  C   UNL A   1      30.429  28.537  23.922  1.00  0.00     0.006 A 
ATOM     13  C   UNL A   1      29.097  26.439  23.904  1.00  0.00     0.046 C 
ATOM     14  C   UNL A   1      31.538  29.279  24.332  1.00  0.00     0.016 A 
BRANCH   9  15
ATOM     15  N   UNL A   1      31.196  25.457  25.800  1.00  0.00    -0.373 N 
ATOM     16  H   UNL A   1      30.895  25.469  26.737  1.00  0.00     0.161 HD
BRANCH  15  17
ATOM     17  C   UNL A   1      31.495  24.220  25.015  1.00  0.00     0.179 C 
ATOM     18  N   UNL A   1      33.696  23.509  24.599  1.00  0.00    -0.245 N 
ATOM     19  C   UNL A   1      33.339  24.250  23.508  1.00  0.00     0.236 C 
ATOM     20  C   UNL A   1      32.727  23.511  25.571  1.00  0.00     0.256 C 
ATOM     21  O   UNL A   1      34.047  24.580  22.564  1.00  0.00    -0.274 OA
ATOM     22  C   UNL A   1      31.878  24.573  23.591  1.00  0.00     0.136 C 
ATOM     23  O   UNL A   1      32.874  23.187  26.744  1.00  0.00    -0.272 OA
BRANCH  18  24
ATOM     24  C   UNL A   1      34.984  22.986  24.839  1.00  0.00     0.094 A 
ATOM     25  C   UNL A   1      35.247  21.612  24.719  1.00  0.00     0.144 A 
ATOM     26  C   UNL A   1      36.490  21.098  25.088  1.00  0.00     0.069 A 
ATOM     27  C   UNL A   1      37.484  21.950  25.572  1.00  0.00     0.047 A 
ATOM     28  C   UNL A   1      35.999  23.837  25.298  1.00  0.00     0.035 A 
ATOM     29  Cl  UNL A   1      39.006  21.256  26.008  1.00  0.00    -0.084 Cl
ATOM     30  C   UNL A   1      37.245  23.327  25.700  1.00  0.00    -0.030 A 
ATOM     31  C   UNL A   1      38.272  24.262  26.273  1.00  0.00     0.046 C 
BRANCH  25  32
ATOM     32  O   UNL A   1      34.332  20.697  24.264  1.00  0.00    -0.495 OA
ATOM     33  C   UNL A   1      34.545  19.385  24.791  1.00  0.00     0.278 C 
ENDBRANCH  25  32
ENDBRANCH  18  24
ENDBRANCH  15  17
ENDBRANCH   9  15
ENDBRANCH   6   8
ENDBRANCH   5   6
ENDBRANCH   4   5
ENDBRANCH   3   4
ENDBRANCH   2   3
ENDBRANCH   1   2
BRANCH   1  34
ATOM     34  C   UNL A   1      33.358  34.260  28.414  1.00  0.00     0.188 C 
BRANCH  34  35
ATOM     35  O   UNL A   1      32.505  34.840  29.388  1.00  0.00    -0.376 OA
BRANCH  35  36
ATOM     36  C   UNL A   1      33.154  35.677  30.334  1.00  0.00     0.202 C 
BRANCH  36  37
ATOM     37  C   UNL A   1      32.628  35.524  31.776  1.00  0.00     0.261 C 
BRANCH  37  38
ATOM     38  O   UNL A   1      33.708  35.287  32.709  1.00  0.00    -0.460 OA
BRANCH  38  39
ATOM     39  C   UNL A   1      34.083  33.978  32.917  1.00  0.00     0.338 C 
ATOM     40  O   UNL A   1      33.280  33.070  33.065  1.00  0.00    -0.246 OA
BRANCH  39  41
ATOM     41  C   UNL A   1      35.584  33.864  32.937  1.00  0.00     0.060 A 
ATOM     42  C   UNL A   1      36.528  34.603  32.211  1.00  0.00     0.016 A 
ATOM     43  C   UNL A   1      36.073  32.744  33.508  1.00  0.00     0.016 A 
ATOM     44  C   UNL A   1      37.902  34.113  31.987  1.00  0.00     0.010 A 
ATOM     45  C   UNL A   1      37.267  32.247  32.977  1.00  0.00     0.010 A 
ATOM     46  C   UNL A   1      38.342  32.827  32.330  1.00  0.00    -0.014 A 
BRANCH  46  47
ATOM     47  C   UNL A   1      39.611  31.973  31.798  1.00  0.00     0.031 A 
ATOM     48  C   UNL A   1      39.846  30.632  30.866  1.00  0.00     0.074 A 
ATOM     49  C   UNL A   1      40.806  32.485  32.181  1.00  0.00     0.049 A 
ATOM     50  N   UNL A   1      40.858  29.783  31.037  1.00  0.00    -0.248 NA
ATOM     51  C   UNL A   1      39.032  30.057  29.761  1.00  0.00     0.031 C 
ATOM     52  C   UNL A   1      42.150  32.090  31.768  1.00  0.00     0.029 A 
ATOM     53  N   UNL A   1      41.033  33.371  33.229  1.00  0.00    -0.354 N 
ATOM     54  C   UNL A   1      40.797  28.791  30.051  1.00  0.00     0.074 A 
ATOM     55  C   UNL A   1      39.487  28.831  29.573  1.00  0.00     0.031 C 
ATOM     56  C   UNL A   1      43.002  32.407  32.754  1.00  0.00     0.029 A 
ATOM     57  C   UNL A   1      42.228  32.972  33.843  1.00  0.00     0.049 A 
ATOM     58  H   UNL A   1      40.463  34.131  33.490  1.00  0.00     0.167 HD
ATOM     59  C   UNL A   1      41.817  28.034  29.557  1.00  0.00     0.034 A 
ATOM     60  C   UNL A   1      42.204  32.579  35.147  1.00  0.00     0.034 A 
ATOM     61  C   UNL A   1      42.940  28.104  30.454  1.00  0.00     0.049 A 
ATOM     62  C   UNL A   1      42.582  31.119  35.325  1.00  0.00     0.074 A 
ATOM     63  C   UNL A   1      44.125  28.808  30.502  1.00  0.00     0.029 A 
ATOM     64  N   UNL A   1      42.729  27.609  31.724  1.00  0.00    -0.354 N 
ATOM     65  N   UNL A   1      43.063  30.343  34.388  1.00  0.00    -0.248 NA
ATOM     66  C   UNL A   1      42.357  30.393  36.577  1.00  0.00     0.031 C 
ATOM     67  C   UNL A   1      44.504  28.888  31.883  1.00  0.00     0.029 A 
ATOM     68  C   UNL A   1      43.590  28.170  32.640  1.00  0.00     0.049 A 
ATOM     69  H   UNL A   1      42.046  26.936  31.949  1.00  0.00     0.167 HD
ATOM     70  C   UNL A   1      43.054  29.044  34.833  1.00  0.00     0.074 A 
ATOM     71  C   UNL A   1      42.632  29.131  36.220  1.00  0.00     0.031 C 
ATOM     72  C   UNL A   1      43.314  27.955  34.052  1.00  0.00     0.034 A 
BRANCH  59  73
ATOM     73  C   UNL A   1      41.744  27.217  28.246  1.00  0.00     0.023 A 
ATOM     74  C   UNL A   1      41.908  25.816  28.269  1.00  0.00     0.031 A 
ATOM     75  C   UNL A   1      41.610  27.753  26.930  1.00  0.00     0.131 A 
ATOM     76  C   UNL A   1      41.877  25.050  27.072  1.00  0.00     0.055 A 
ATOM     77  C   UNL A   1      41.444  26.983  25.769  1.00  0.00     0.041 A 
ATOM     78  F   UNL A   1      41.741  29.058  26.658  1.00  0.00    -0.206 F 
ATOM     79  C   UNL A   1      41.580  25.617  25.835  1.00  0.00     0.022 A 
BRANCH  76  80
ATOM     80  S   UNL A   1      42.377  23.303  27.102  1.00  0.00     0.124 S 
ATOM     81  O   UNL A   1      43.742  23.394  27.611  1.00  0.00    -0.237 OA
ATOM     82  O   UNL A   1      41.388  22.708  27.991  1.00  0.00    -0.237 OA
ATOM     83  O   UNL A   1      42.273  22.892  25.701  1.00  0.00    -0.744 OA
ENDBRANCH  76  80
ENDBRANCH  59  73
BRANCH  60  84
ATOM     84  C   UNL A   1      41.246  33.397  35.976  1.00  0.00     0.023 A 
ATOM     85  C   UNL A   1      39.934  32.876  36.122  1.00  0.00     0.031 A 
ATOM     86  C   UNL A   1      41.623  34.421  36.859  1.00  0.00     0.131 A 
ATOM     87  C   UNL A   1      39.127  33.243  37.207  1.00  0.00     0.055 A 
ATOM     88  C   UNL A   1      40.767  34.862  37.883  1.00  0.00     0.041 A 
ATOM     89  F   UNL A   1      42.873  34.906  36.866  1.00  0.00    -0.206 F 
ATOM     90  C   UNL A   1      39.530  34.249  38.084  1.00  0.00     0.022 A 
BRANCH  87  91
ATOM     91  S   UNL A   1      37.700  32.204  37.662  1.00  0.00     0.124 S 
ATOM     92  O   UNL A   1      38.014  31.844  39.040  1.00  0.00    -0.237 OA
ATOM     93  O   UNL A   1      36.555  33.093  37.481  1.00  0.00    -0.237 OA
ATOM     94  O   UNL A   1      37.775  31.119  36.686  1.00  0.00    -0.744 OA
ENDBRANCH  87  91
ENDBRANCH  60  84
BRANCH  72  95
ATOM     95  C   UNL A   1      43.277  26.564  34.624  1.00  0.00     0.023 A 
ATOM     96  C   UNL A   1      44.461  25.822  34.735  1.00  0.00     0.031 A 
ATOM     97  C   UNL A   1      42.081  25.912  34.993  1.00  0.00     0.131 A 
ATOM     98  C   UNL A   1      44.434  24.506  35.221  1.00  0.00     0.055 A 
ATOM     99  C   UNL A   1      42.046  24.569  35.376  1.00  0.00     0.041 A 
ATOM    100  F   UNL A   1      40.909  26.565  35.035  1.00  0.00    -0.206 F 
ATOM    101  C   UNL A   1      43.230  23.857  35.495  1.00  0.00     0.022 A 
BRANCH  98 102
ATOM    102  S   UNL A   1      46.007  23.685  35.570  1.00  0.00     0.124 S 
ATOM    103  O   UNL A   1      46.940  24.803  35.680  1.00  0.00    -0.237 OA
ATOM    104  O   UNL A   1      45.701  22.990  36.818  1.00  0.00    -0.237 OA
ATOM    105  O   UNL A   1      46.207  22.819  34.411  1.00  0.00    -0.744 OA
ENDBRANCH  98 102
ENDBRANCH  72  95
ENDBRANCH  46  47
ENDBRANCH  39  41
ENDBRANCH  38  39
ENDBRANCH  37  38
ENDBRANCH  36  37
ENDBRANCH  35  36
ENDBRANCH  34  35
ENDBRANCH   1  34
TORSDOF 24
ENDMDL
MODEL 2
REMARK VINA RESULT:     -12.2      3.291      9.907
REMARK SMILES COc1cc(Cl)c(C)cc1N1C(=O)C[C@H](Nc2cc(C(=O)OCCOCCOCCOC(=O)c3ccc(-c4c5nc(c(-c6cc(S(=O)(=O)[O-])ccc6F)c6ccc([nH]6)c(-c6cc(S(=O)(=O)[O-])ccc6F)c6nc(c(-c7cc(S(=O)(=O)[O-])ccc7F)c7ccc4[nH]7)C=C6)C=C5)cc3)ccc2C)C1=O
REMARK SMILES IDX 26 1 25 2 24 3 23 4 22 5 20 6 21 7 19 8 17 9 18 10 99 11
REMARK SMILES IDX 98 12 100 13 97 14 16 15 15 17 11 18 12 19 101 20 13 21
REMARK SMILES IDX 14 22 102 23 10 24 3 25 4 26 5 27 9 28 6 29 7 30 8 31 2 32
REMARK SMILES IDX 1 33 27 34 28 35 29 36 30 37 31 38 32 39 33 40 34 41 35 42
REMARK SMILES IDX 96 43 36 44 95 45 37 46 38 47 39 48 89 49 40 50 94 51 88 52
REMARK SMILES IDX 90 53 41 54 93 55 87 56 86 57 42 59 74 60 54 61 73 62 55 63
REMARK SMILES IDX 58 64 72 65 91 66 56 67 57 68 71 70 92 71 59 72 43 73 44 74
REMARK SMILES IDX 52 75 45 76 51 77 53 78 50 79 46 80 47 81 48 82 49 83 75 84
REMARK SMILES IDX 76 85 84 86 77 87 83 88 85 89 82 90 78 91 79 92 80 93 81 94
REMARK SMILES IDX 60 95 61 96 69 97 62 98 68 99 70 100 67 101 63 102 64 103
REMARK SMILES IDX 65 104 66 105
REMARK H PARENT 16 16 90 58 58 69
REMARK Flexibility Score: inf
ROOT
ATOM      1  C   UNL A   1      40.786  20.216  26.264  1.00  0.00     0.188 C 
ENDROOT
BRANCH   1   2
ATOM      2  O   UNL A   1      39.570  20.935  25.946  1.00  0.00    -0.376 OA
BRANCH   2   3
ATOM      3  C   UNL A   1      38.443  20.419  25.239  1.00  0.00     0.202 C 
BRANCH   3   4
ATOM      4  C   UNL A   1      36.939  21.216  25.030  1.00  0.00     0.261 C 
BRANCH   4   5
ATOM      5  O   UNL A   1      35.888  21.906  26.103  1.00  0.00    -0.460 OA
BRANCH   5   6
ATOM      6  C   UNL A   1      34.613  21.626  26.632  1.00  0.00     0.338 C 
ATOM      7  O   UNL A   1      34.254  21.435  27.791  1.00  0.00    -0.246 OA
BRANCH   6   8
ATOM      8  C   UNL A   1      33.376  21.522  25.833  1.00  0.00     0.062 A 
ATOM      9  C   UNL A   1      32.734  22.486  23.725  1.00  0.00     0.038 A 
ATOM     10  C   UNL A   1      33.125  22.640  25.069  1.00  0.00     0.041 A 
ATOM     11  C   UNL A   1      32.358  21.227  23.208  1.00  0.00    -0.028 A 
ATOM     12  C   UNL A   1      32.500  20.101  24.018  1.00  0.00     0.006 A 
ATOM     13  C   UNL A   1      31.838  21.034  21.811  1.00  0.00     0.046 C 
ATOM     14  C   UNL A   1      33.058  20.243  25.289  1.00  0.00     0.016 A 
BRANCH   9  15
ATOM     15  N   UNL A   1      33.081  23.551  22.852  1.00  0.00    -0.373 N 
ATOM     16  H   UNL A   1      33.992  23.743  22.532  1.00  0.00     0.161 HD
BRANCH  15  17
ATOM     17  C   UNL A   1      31.866  24.342  22.489  1.00  0.00     0.179 C 
ATOM     18  N   UNL A   1      31.238  26.277  23.665  1.00  0.00    -0.245 N 
ATOM     19  C   UNL A   1      30.539  25.254  24.244  1.00  0.00     0.236 C 
ATOM     20  C   UNL A   1      32.106  25.834  22.699  1.00  0.00     0.256 C 
ATOM     21  O   UNL A   1      29.826  25.305  25.239  1.00  0.00    -0.274 OA
ATOM     22  C   UNL A   1      30.718  24.013  23.424  1.00  0.00     0.136 C 
ATOM     23  O   UNL A   1      33.047  26.461  22.225  1.00  0.00    -0.272 OA
BRANCH  18  24
ATOM     24  C   UNL A   1      31.268  27.606  24.134  1.00  0.00     0.094 A 
ATOM     25  C   UNL A   1      32.079  27.980  25.217  1.00  0.00     0.144 A 
ATOM     26  C   UNL A   1      31.996  29.267  25.750  1.00  0.00     0.069 A 
ATOM     27  C   UNL A   1      31.109  30.195  25.202  1.00  0.00     0.047 A 
ATOM     28  C   UNL A   1      30.402  28.556  23.572  1.00  0.00     0.035 A 
ATOM     29  Cl  UNL A   1      31.054  31.775  25.900  1.00  0.00    -0.084 Cl
ATOM     30  C   UNL A   1      30.289  29.845  24.118  1.00  0.00    -0.030 A 
ATOM     31  C   UNL A   1      29.281  30.800  23.544  1.00  0.00     0.046 C 
BRANCH  25  32
ATOM     32  O   UNL A   1      32.972  27.137  25.828  1.00  0.00    -0.495 OA
ATOM     33  C   UNL A   1      34.071  27.826  26.427  1.00  0.00     0.278 C 
ENDBRANCH  25  32
ENDBRANCH  18  24
ENDBRANCH  15  17
ENDBRANCH   9  15
ENDBRANCH   6   8
ENDBRANCH   5   6
ENDBRANCH   4   5
ENDBRANCH   3   4
ENDBRANCH   2   3
ENDBRANCH   1   2
BRANCH   1  34
ATOM     34  C   UNL A   1      42.181  20.851  26.232  1.00  0.00     0.188 C 
BRANCH  34  35
ATOM     35  O   UNL A   1      42.243  21.926  25.309  1.00  0.00    -0.376 OA
BRANCH  35  36
ATOM     36  C   UNL A   1      42.074  23.216  25.877  1.00  0.00     0.202 C 
BRANCH  36  37
ATOM     37  C   UNL A   1      43.343  23.781  26.549  1.00  0.00     0.261 C 
BRANCH  37  38
ATOM     38  O   UNL A   1      43.135  25.133  27.017  1.00  0.00    -0.460 OA
BRANCH  38  39
ATOM     39  C   UNL A   1      43.213  26.141  26.082  1.00  0.00     0.338 C 
ATOM     40  O   UNL A   1      43.924  26.078  25.090  1.00  0.00    -0.246 OA
BRANCH  39  41
ATOM     41  C   UNL A   1      42.320  27.288  26.477  1.00  0.00     0.060 A 
ATOM     42  C   UNL A   1      42.682  28.564  26.926  1.00  0.00     0.016 A 
ATOM     43  C   UNL A   1      41.026  26.969  26.686  1.00  0.00     0.016 A 
ATOM     44  C   UNL A   1      41.749  29.421  27.684  1.00  0.00     0.010 A 
ATOM     45  C   UNL A   1      40.353  27.714  27.659  1.00  0.00     0.010 A 
ATOM     46  C   UNL A   1      40.499  28.996  28.155  1.00  0.00    -0.014 A 
BRANCH  46  47
ATOM     47  C   UNL A   1      39.558  29.595  29.328  1.00  0.00     0.031 A 
ATOM     48  C   UNL A   1      38.563  30.898  29.517  1.00  0.00     0.074 A 
ATOM     49  C   UNL A   1      39.544  28.837  30.451  1.00  0.00     0.049 A 
ATOM     50  N   UNL A   1      38.370  31.517  30.680  1.00  0.00    -0.248 NA
ATOM     51  C   UNL A   1      37.768  31.670  28.524  1.00  0.00     0.031 C 
ATOM     52  C   UNL A   1      38.705  28.968  31.638  1.00  0.00     0.029 A 
ATOM     53  N   UNL A   1      40.486  27.881  30.820  1.00  0.00    -0.354 N 
ATOM     54  C   UNL A   1      37.430  32.540  30.506  1.00  0.00     0.074 A 
ATOM     55  C   UNL A   1      37.408  32.786  29.133  1.00  0.00     0.031 C 
ATOM     56  C   UNL A   1      39.367  28.445  32.681  1.00  0.00     0.029 A 
ATOM     57  C   UNL A   1      40.664  28.005  32.204  1.00  0.00     0.049 A 
ATOM     58  H   UNL A   1      40.940  27.243  30.223  1.00  0.00     0.167 HD
ATOM     59  C   UNL A   1      36.610  33.094  31.443  1.00  0.00     0.034 A 
ATOM     60  C   UNL A   1      41.893  28.341  32.686  1.00  0.00     0.034 A 
ATOM     61  C   UNL A   1      37.092  32.762  32.757  1.00  0.00     0.049 A 
ATOM     62  C   UNL A   1      41.897  29.687  33.393  1.00  0.00     0.074 A 
ATOM     63  C   UNL A   1      36.771  31.831  33.722  1.00  0.00     0.029 A 
ATOM     64  N   UNL A   1      38.347  33.237  33.076  1.00  0.00    -0.354 N 
ATOM     65  N   UNL A   1      40.833  30.387  33.691  1.00  0.00    -0.248 NA
ATOM     66  C   UNL A   1      43.132  30.391  33.740  1.00  0.00     0.031 C 
ATOM     67  C   UNL A   1      37.955  31.619  34.505  1.00  0.00     0.029 A 
ATOM     68  C   UNL A   1      38.947  32.477  34.054  1.00  0.00     0.049 A 
ATOM     69  H   UNL A   1      38.763  34.024  32.656  1.00  0.00     0.167 HD
ATOM     70  C   UNL A   1      41.220  31.640  34.093  1.00  0.00     0.074 A 
ATOM     71  C   UNL A   1      42.670  31.585  34.137  1.00  0.00     0.031 C 
ATOM     72  C   UNL A   1      40.365  32.685  34.301  1.00  0.00     0.034 A 
BRANCH  59  73
ATOM     73  C   UNL A   1      35.371  33.961  31.116  1.00  0.00     0.023 A 
ATOM     74  C   UNL A   1      35.033  35.058  31.936  1.00  0.00     0.031 A 
ATOM     75  C   UNL A   1      34.426  33.716  30.076  1.00  0.00     0.131 A 
ATOM     76  C   UNL A   1      33.881  35.849  31.673  1.00  0.00     0.055 A 
ATOM     77  C   UNL A   1      33.371  34.577  29.738  1.00  0.00     0.041 A 
ATOM     78  F   UNL A   1      34.389  32.573  29.380  1.00  0.00    -0.206 F 
ATOM     79  C   UNL A   1      33.089  35.655  30.544  1.00  0.00     0.022 A 
BRANCH  76  80
ATOM     80  S   UNL A   1      33.316  37.062  32.903  1.00  0.00     0.124 S 
ATOM     81  O   UNL A   1      34.090  36.675  34.079  1.00  0.00    -0.237 OA
ATOM     82  O   UNL A   1      33.668  38.330  32.278  1.00  0.00    -0.237 OA
ATOM     83  O   UNL A   1      31.879  36.802  33.005  1.00  0.00    -0.744 OA
ENDBRANCH  76  80
ENDBRANCH  59  73
BRANCH  60  84
ATOM     84  C   UNL A   1      43.012  27.701  31.905  1.00  0.00     0.023 A 
ATOM     85  C   UNL A   1      43.540  28.457  30.826  1.00  0.00     0.031 A 
ATOM     86  C   UNL A   1      43.773  26.607  32.344  1.00  0.00     0.131 A 
ATOM     87  C   UNL A   1      44.837  28.226  30.347  1.00  0.00     0.055 A 
ATOM     88  C   UNL A   1      45.030  26.313  31.787  1.00  0.00     0.041 A 
ATOM     89  F   UNL A   1      43.408  25.895  33.420  1.00  0.00    -0.206 F 
ATOM     90  C   UNL A   1      45.583  27.144  30.812  1.00  0.00     0.022 A 
BRANCH  87  91
ATOM     91  S   UNL A   1      45.674  29.505  29.354  1.00  0.00     0.124 S 
ATOM     92  O   UNL A   1      45.881  28.817  28.085  1.00  0.00    -0.237 OA
ATOM     93  O   UNL A   1      44.714  30.607  29.333  1.00  0.00    -0.237 OA
ATOM     94  O   UNL A   1      46.877  29.776  30.137  1.00  0.00    -0.744 OA
ENDBRANCH  87  91
ENDBRANCH  60  84
BRANCH  72  95
ATOM     95  C   UNL A   1      40.879  34.030  34.738  1.00  0.00     0.023 A 
ATOM     96  C   UNL A   1      40.657  34.472  36.050  1.00  0.00     0.031 A 
ATOM     97  C   UNL A   1      41.518  34.934  33.864  1.00  0.00     0.131 A 
ATOM     98  C   UNL A   1      41.087  35.744  36.456  1.00  0.00     0.055 A 
ATOM     99  C   UNL A   1      41.850  36.238  34.242  1.00  0.00     0.041 A 
ATOM    100  F   UNL A   1      41.882  34.573  32.623  1.00  0.00    -0.206 F 
ATOM    101  C   UNL A   1      41.637  36.649  35.549  1.00  0.00     0.022 A 
BRANCH  98 102
ATOM    102  S   UNL A   1      40.993  36.164  38.213  1.00  0.00     0.124 S 
ATOM    103  O   UNL A   1      39.927  37.161  38.251  1.00  0.00    -0.237 OA
ATOM    104  O   UNL A   1      40.670  34.868  38.805  1.00  0.00    -0.237 OA
ATOM    105  O   UNL A   1      42.330  36.670  38.517  1.00  0.00    -0.744 OA
ENDBRANCH  98 102
ENDBRANCH  72  95
ENDBRANCH  46  47
ENDBRANCH  39  41
ENDBRANCH  38  39
ENDBRANCH  37  38
ENDBRANCH  36  37
ENDBRANCH  35  36
ENDBRANCH  34  35
ENDBRANCH   1  34
TORSDOF 24
ENDMDL
MODEL 3
REMARK VINA RESULT:     -11.7      4.164      7.501
REMARK SMILES COc1cc(Cl)c(C)cc1N1C(=O)C[C@H](Nc2cc(C(=O)OCCOCCOCCOC(=O)c3ccc(-c4c5nc(c(-c6cc(S(=O)(=O)[O-])ccc6F)c6ccc([nH]6)c(-c6cc(S(=O)(=O)[O-])ccc6F)c6nc(c(-c7cc(S(=O)(=O)[O-])ccc7F)c7ccc4[nH]7)C=C6)C=C5)cc3)ccc2C)C1=O
REMARK SMILES IDX 26 1 25 2 24 3 23 4 22 5 20 6 21 7 19 8 17 9 18 10 99 11
REMARK SMILES IDX 98 12 100 13 97 14 16 15 15 17 11 18 12 19 101 20 13 21
REMARK SMILES IDX 14 22 102 23 10 24 3 25 4 26 5 27 9 28 6 29 7 30 8 31 2 32
REMARK SMILES IDX 1 33 27 34 28 35 29 36 30 37 31 38 32 39 33 40 34 41 35 42
REMARK SMILES IDX 96 43 36 44 95 45 37 46 38 47 39 48 89 49 40 50 94 51 88 52
REMARK SMILES IDX 90 53 41 54 93 55 87 56 86 57 42 59 74 60 54 61 73 62 55 63
REMARK SMILES IDX 58 64 72 65 91 66 56 67 57 68 71 70 92 71 59 72 43 73 44 74
REMARK SMILES IDX 52 75 45 76 51 77 53 78 50 79 46 80 47 81 48 82 49 83 75 84
REMARK SMILES IDX 76 85 84 86 77 87 83 88 85 89 82 90 78 91 79 92 80 93 81 94
REMARK SMILES IDX 60 95 61 96 69 97 62 98 68 99 70 100 67 101 63 102 64 103
REMARK SMILES IDX 65 104 66 105
REMARK H PARENT 16 16 90 58 58 69
REMARK Flexibility Score: inf
ROOT
ATOM      1  C   UNL A   1      38.157  31.569  31.464  1.00  0.00     0.188 C 
ENDROOT
BRANCH   1   2
ATOM      2  O   UNL A   1      37.436  30.367  31.101  1.00  0.00    -0.376 OA
BRANCH   2   3
ATOM      3  C   UNL A   1      36.281  30.293  30.267  1.00  0.00     0.202 C 
BRANCH   3   4
ATOM      4  C   UNL A   1      36.256  30.509  28.567  1.00  0.00     0.261 C 
BRANCH   4   5
ATOM      5  O   UNL A   1      35.576  29.628  27.343  1.00  0.00    -0.460 OA
BRANCH   5   6
ATOM      6  C   UNL A   1      34.295  29.160  26.991  1.00  0.00     0.338 C 
ATOM      7  O   UNL A   1      33.426  28.623  27.673  1.00  0.00    -0.246 OA
BRANCH   6   8
ATOM      8  C   UNL A   1      33.708  29.255  25.639  1.00  0.00     0.062 A 
ATOM      9  C   UNL A   1      33.063  27.576  24.042  1.00  0.00     0.038 A 
ATOM     10  C   UNL A   1      34.055  28.204  24.820  1.00  0.00     0.041 A 
ATOM     11  C   UNL A   1      31.778  28.143  23.893  1.00  0.00    -0.028 A 
ATOM     12  C   UNL A   1      31.457  29.279  24.634  1.00  0.00     0.006 A 
ATOM     13  C   UNL A   1      30.723  27.563  22.994  1.00  0.00     0.046 C 
ATOM     14  C   UNL A   1      32.390  29.788  25.538  1.00  0.00     0.016 A 
BRANCH   9  15
ATOM     15  N   UNL A   1      33.290  26.209  23.731  1.00  0.00    -0.373 N 
ATOM     16  H   UNL A   1      32.960  25.753  22.924  1.00  0.00     0.161 HD
BRANCH  15  17
ATOM     17  C   UNL A   1      34.102  25.561  24.806  1.00  0.00     0.179 C 
ATOM     18  N   UNL A   1      33.976  23.257  25.248  1.00  0.00    -0.245 N 
ATOM     19  C   UNL A   1      33.094  23.844  26.113  1.00  0.00     0.236 C 
ATOM     20  C   UNL A   1      34.541  24.161  24.385  1.00  0.00     0.256 C 
ATOM     21  O   UNL A   1      32.313  23.289  26.875  1.00  0.00    -0.274 OA
ATOM     22  C   UNL A   1      33.259  25.332  26.045  1.00  0.00     0.136 C 
ATOM     23  O   UNL A   1      35.128  23.900  23.341  1.00  0.00    -0.272 OA
BRANCH  18  24
ATOM     24  C   UNL A   1      34.137  21.867  25.074  1.00  0.00     0.094 A 
ATOM     25  C   UNL A   1      35.362  21.236  25.340  1.00  0.00     0.144 A 
ATOM     26  C   UNL A   1      35.541  19.886  25.036  1.00  0.00     0.069 A 
ATOM     27  C   UNL A   1      34.496  19.151  24.473  1.00  0.00     0.047 A 
ATOM     28  C   UNL A   1      33.084  21.113  24.536  1.00  0.00     0.035 A 
ATOM     29  Cl  UNL A   1      34.775  17.482  24.124  1.00  0.00    -0.084 Cl
ATOM     30  C   UNL A   1      33.261  19.760  24.199  1.00  0.00    -0.030 A 
ATOM     31  C   UNL A   1      32.137  19.014  23.538  1.00  0.00     0.046 C 
BRANCH  25  32
ATOM     32  O   UNL A   1      36.448  21.875  25.882  1.00  0.00    -0.495 OA
ATOM     33  C   UNL A   1      37.678  21.528  25.242  1.00  0.00     0.278 C 
ENDBRANCH  25  32
ENDBRANCH  18  24
ENDBRANCH  15  17
ENDBRANCH   9  15
ENDBRANCH   6   8
ENDBRANCH   5   6
ENDBRANCH   4   5
ENDBRANCH   3   4
ENDBRANCH   2   3
ENDBRANCH   1   2
BRANCH   1  34
ATOM     34  C   UNL A   1      39.674  31.730  31.312  1.00  0.00     0.188 C 
BRANCH  34  35
ATOM     35  O   UNL A   1      40.370  31.156  32.407  1.00  0.00    -0.376 OA
BRANCH  35  36
ATOM     36  C   UNL A   1      41.150  32.066  33.167  1.00  0.00     0.202 C 
BRANCH  36  37
ATOM     37  C   UNL A   1      40.885  32.009  34.686  1.00  0.00     0.261 C 
BRANCH  37  38
ATOM     38  O   UNL A   1      40.673  30.650  35.134  1.00  0.00    -0.460 OA
BRANCH  38  39
ATOM     39  C   UNL A   1      41.760  29.985  35.657  1.00  0.00     0.338 C 
ATOM     40  O   UNL A   1      42.157  30.151  36.800  1.00  0.00    -0.246 OA
BRANCH  39  41
ATOM     41  C   UNL A   1      42.354  29.065  34.623  1.00  0.00     0.060 A 
ATOM     42  C   UNL A   1      43.523  29.235  33.870  1.00  0.00     0.016 A 
ATOM     43  C   UNL A   1      41.531  28.099  34.165  1.00  0.00     0.016 A 
ATOM     44  C   UNL A   1      43.756  28.503  32.609  1.00  0.00     0.010 A 
ATOM     45  C   UNL A   1      41.709  27.712  32.834  1.00  0.00     0.010 A 
ATOM     46  C   UNL A   1      42.790  27.709  31.973  1.00  0.00    -0.014 A 
BRANCH  46  47
ATOM     47  C   UNL A   1      42.690  27.205  30.438  1.00  0.00     0.031 A 
ATOM     48  C   UNL A   1      42.993  25.809  29.613  1.00  0.00     0.074 A 
ATOM     49  C   UNL A   1      42.210  28.148  29.590  1.00  0.00     0.049 A 
ATOM     50  N   UNL A   1      43.409  25.775  28.348  1.00  0.00    -0.248 NA
ATOM     51  C   UNL A   1      42.948  24.388  30.052  1.00  0.00     0.031 C 
ATOM     52  C   UNL A   1      41.834  28.014  28.186  1.00  0.00     0.029 A 
ATOM     53  N   UNL A   1      42.169  29.521  29.811  1.00  0.00    -0.354 N 
ATOM     54  C   UNL A   1      43.516  24.440  27.936  1.00  0.00     0.074 A 
ATOM     55  C   UNL A   1      43.574  23.697  29.115  1.00  0.00     0.031 C 
ATOM     56  C   UNL A   1      41.976  29.212  27.598  1.00  0.00     0.029 A 
ATOM     57  C   UNL A   1      42.488  30.135  28.593  1.00  0.00     0.049 A 
ATOM     58  H   UNL A   1      41.959  29.973  30.660  1.00  0.00     0.167 HD
ATOM     59  C   UNL A   1      43.443  23.946  26.668  1.00  0.00     0.034 A 
ATOM     60  C   UNL A   1      43.600  30.918  28.516  1.00  0.00     0.034 A 
ATOM     61  C   UNL A   1      43.626  25.018  25.726  1.00  0.00     0.049 A 
ATOM     62  C   UNL A   1      44.647  30.357  27.568  1.00  0.00     0.074 A 
ATOM     63  C   UNL A   1      42.800  25.805  24.952  1.00  0.00     0.029 A 
ATOM     64  N   UNL A   1      44.845  25.662  25.774  1.00  0.00    -0.354 N 
ATOM     65  N   UNL A   1      44.469  29.346  26.758  1.00  0.00    -0.248 NA
ATOM     66  C   UNL A   1      46.024  30.854  27.532  1.00  0.00     0.031 C 
ATOM     67  C   UNL A   1      43.502  27.033  24.713  1.00  0.00     0.029 A 
ATOM     68  C   UNL A   1      44.765  26.943  25.277  1.00  0.00     0.049 A 
ATOM     69  H   UNL A   1      45.672  25.255  26.122  1.00  0.00     0.167 HD
ATOM     70  C   UNL A   1      45.683  28.965  26.244  1.00  0.00     0.074 A 
ATOM     71  C   UNL A   1      46.621  29.959  26.733  1.00  0.00     0.031 C 
ATOM     72  C   UNL A   1      45.892  27.832  25.510  1.00  0.00     0.034 A 
BRANCH  59  73
ATOM     73  C   UNL A   1      43.222  22.454  26.324  1.00  0.00     0.023 A 
ATOM     74  C   UNL A   1      44.269  21.689  25.767  1.00  0.00     0.031 A 
ATOM     75  C   UNL A   1      41.989  21.743  26.426  1.00  0.00     0.131 A 
ATOM     76  C   UNL A   1      44.078  20.325  25.413  1.00  0.00     0.055 A 
ATOM     77  C   UNL A   1      41.843  20.366  26.204  1.00  0.00     0.041 A 
ATOM     78  F   UNL A   1      40.815  22.349  26.641  1.00  0.00    -0.206 F 
ATOM     79  C   UNL A   1      42.894  19.645  25.690  1.00  0.00     0.022 A 
BRANCH  76  80
ATOM     80  S   UNL A   1      45.344  19.457  24.440  1.00  0.00     0.124 S 
ATOM     81  O   UNL A   1      44.655  19.257  23.168  1.00  0.00    -0.237 OA
ATOM     82  O   UNL A   1      46.448  20.407  24.441  1.00  0.00    -0.237 OA
ATOM     83  O   UNL A   1      45.583  18.232  25.204  1.00  0.00    -0.744 OA
ENDBRANCH  76  80
ENDBRANCH  59  73
BRANCH  60  84
ATOM     84  C   UNL A   1      43.821  31.725  29.770  1.00  0.00     0.023 A 
ATOM     85  C   UNL A   1      44.793  31.228  30.677  1.00  0.00     0.031 A 
ATOM     86  C   UNL A   1      43.406  33.053  29.951  1.00  0.00     0.131 A 
ATOM     87  C   UNL A   1      45.431  32.078  31.591  1.00  0.00     0.055 A 
ATOM     88  C   UNL A   1      43.975  33.874  30.942  1.00  0.00     0.041 A 
ATOM     89  F   UNL A   1      42.570  33.644  29.086  1.00  0.00    -0.206 F 
ATOM     90  C   UNL A   1      45.016  33.400  31.741  1.00  0.00     0.022 A 
BRANCH  87  91
ATOM     91  S   UNL A   1      47.001  31.560  32.360  1.00  0.00     0.124 S 
ATOM     92  O   UNL A   1      47.523  30.616  31.378  1.00  0.00    -0.237 OA
ATOM     93  O   UNL A   1      47.744  32.810  32.499  1.00  0.00    -0.237 OA
ATOM     94  O   UNL A   1      46.557  30.983  33.627  1.00  0.00    -0.744 OA
ENDBRANCH  87  91
ENDBRANCH  60  84
BRANCH  72  95
ATOM     95  C   UNL A   1      47.262  27.490  24.988  1.00  0.00     0.023 A 
ATOM     96  C   UNL A   1      47.535  27.600  23.617  1.00  0.00     0.031 A 
ATOM     97  C   UNL A   1      48.293  26.976  25.803  1.00  0.00     0.131 A 
ATOM     98  C   UNL A   1      48.792  27.237  23.111  1.00  0.00     0.055 A 
ATOM     99  C   UNL A   1      49.504  26.517  25.279  1.00  0.00     0.041 A 
ATOM    100  F   UNL A   1      48.179  26.937  27.139  1.00  0.00    -0.206 F 
ATOM    101  C   UNL A   1      49.762  26.650  23.923  1.00  0.00     0.022 A 
BRANCH  98 102
ATOM    102  S   UNL A   1      49.169  27.624  21.385  1.00  0.00     0.124 S 
ATOM    103  O   UNL A   1      47.966  27.186  20.683  1.00  0.00    -0.237 OA
ATOM    104  O   UNL A   1      49.374  29.069  21.450  1.00  0.00    -0.237 OA
ATOM    105  O   UNL A   1      50.371  26.839  21.111  1.00  0.00    -0.744 OA
ENDBRANCH  98 102
ENDBRANCH  72  95
ENDBRANCH  46  47
ENDBRANCH  39  41
ENDBRANCH  38  39
ENDBRANCH  37  38
ENDBRANCH  36  37
ENDBRANCH  35  36
ENDBRANCH  34  35
ENDBRANCH   1  34
TORSDOF 24
ENDMDL
