MODEL 1
REMARK VINA RESULT:      -9.9      0.000      0.000
REMARK SMILES CC(C)[NH2+][C@]1(C(=O)OCCOCCOCCOC(=O)c2ccc(-c3c4nc(c(-c5cc(S(=O)(=O)[O-])ccc5F)c5ccc([nH]5)c(-c5cc(S(=O)(=O)[O-])ccc5F)c5nc(c(-c6cc(S(=O)(=O)[O-])ccc6F)c6ccc3[nH]6)C=C5)C=C4)cc2)CCC[C@H]([N@H+](C)C2CCCCC2)C1
REMARK SMILES IDX 13 1 12 2 11 3 10 4 9 5 8 6 6 7 7 8 5 9 83 10 95 11 84 12
REMARK SMILES IDX 86 13 85 14 4 15 2 18 1 19 3 20 87 21 88 22 89 24 90 25
REMARK SMILES IDX 94 26 91 27 93 28 92 29 14 30 15 31 16 32 17 33 18 34 19 35
REMARK SMILES IDX 20 36 21 37 82 38 22 39 81 40 23 41 24 42 25 43 75 44 26 45
REMARK SMILES IDX 80 46 74 47 76 48 27 49 79 50 73 51 72 52 28 54 60 55 40 56
REMARK SMILES IDX 59 57 41 58 44 59 58 60 77 61 42 62 43 63 57 65 78 66 45 67
REMARK SMILES IDX 29 68 30 69 38 70 31 71 37 72 39 73 36 74 32 75 33 76 34 77
REMARK SMILES IDX 35 78 61 79 62 80 70 81 63 82 69 83 71 84 68 85 64 86 65 87
REMARK SMILES IDX 66 88 67 89 46 90 47 91 55 92 48 93 54 94 56 95 53 96 49 97
REMARK SMILES IDX 50 98 51 99 52 100
REMARK H PARENT 4 16 4 17 87 23 76 53 44 64
REMARK Flexibility Score: inf
ROOT
ATOM      1  C   UNL A   1      35.592  21.699  25.373  1.00  0.00     0.188 C 
ENDROOT
BRANCH   1   2
ATOM      2  C   UNL A   1      34.616  20.538  25.086  1.00  0.00     0.188 C 
BRANCH   2   3
ATOM      3  O   UNL A   1      33.423  20.748  24.337  1.00  0.00    -0.376 OA
BRANCH   3   4
ATOM      4  C   UNL A   1      33.350  21.799  23.394  1.00  0.00     0.202 C 
BRANCH   4   5
ATOM      5  C   UNL A   1      32.288  22.878  23.620  1.00  0.00     0.261 C 
BRANCH   5   6
ATOM      6  O   UNL A   1      32.384  24.029  22.772  1.00  0.00    -0.459 OA
BRANCH   6   7
ATOM      7  C   UNL A   1      31.462  25.009  22.978  1.00  0.00     0.368 C 
ATOM      8  O   UNL A   1      30.281  24.905  22.649  1.00  0.00    -0.245 OA
BRANCH   7   9
ATOM      9  C   UNL A   1      32.061  26.354  23.605  1.00  0.00     0.200 C 
ATOM     10  C   UNL A   1      33.580  26.349  23.854  1.00  0.00     0.081 C 
ATOM     11  C   UNL A   1      31.886  27.423  22.474  1.00  0.00     0.146 C 
ATOM     12  C   UNL A   1      34.158  27.742  24.204  1.00  0.00     0.013 C 
ATOM     13  C   UNL A   1      32.267  28.874  22.815  1.00  0.00     0.190 C 
ATOM     14  C   UNL A   1      33.756  28.859  23.235  1.00  0.00     0.065 C 
BRANCH   9  15
ATOM     15  N   UNL A   1      31.243  26.432  24.852  1.00  0.00    -0.330 N 
ATOM     16  H   UNL A   1      31.283  27.412  25.132  1.00  0.00     0.347 HD
ATOM     17  H   UNL A   1      30.394  25.972  24.521  1.00  0.00     0.347 HD
BRANCH  15  18
ATOM     18  C   UNL A   1      31.447  25.681  26.087  1.00  0.00     0.176 C 
ATOM     19  C   UNL A   1      31.530  26.742  27.202  1.00  0.00     0.075 C 
ATOM     20  C   UNL A   1      30.358  24.695  26.538  1.00  0.00     0.075 C 
ENDBRANCH  15  18
ENDBRANCH   9  15
BRANCH  13  21
ATOM     21  N   UNL A   1      31.262  29.549  23.644  1.00  0.00    -0.332 N 
ATOM     22  C   UNL A   1      31.499  29.734  25.052  1.00  0.00     0.333 C 
ATOM     23  H   UNL A   1      31.507  30.535  23.744  1.00  0.00     0.348 HD
BRANCH  21  24
ATOM     24  C   UNL A   1      29.970  29.839  23.021  1.00  0.00     0.184 C 
ATOM     25  C   UNL A   1      29.888  30.343  21.576  1.00  0.00     0.065 C 
ATOM     26  C   UNL A   1      28.966  28.673  23.188  1.00  0.00     0.065 C 
ATOM     27  C   UNL A   1      28.474  30.903  21.339  1.00  0.00     0.006 C 
ATOM     28  C   UNL A   1      27.542  29.193  22.980  1.00  0.00     0.006 C 
ATOM     29  C   UNL A   1      27.381  29.871  21.622  1.00  0.00     0.000 C 
ENDBRANCH  21  24
ENDBRANCH  13  21
ENDBRANCH   7   9
ENDBRANCH   6   7
ENDBRANCH   5   6
ENDBRANCH   4   5
ENDBRANCH   3   4
ENDBRANCH   2   3
ENDBRANCH   1   2
BRANCH   1  30
ATOM     30  O   UNL A   1      36.921  21.251  25.558  1.00  0.00    -0.376 OA
BRANCH  30  31
ATOM     31  C   UNL A   1      37.405  20.367  24.572  1.00  0.00     0.202 C 
BRANCH  31  32
ATOM     32  C   UNL A   1      38.447  19.338  25.041  1.00  0.00     0.261 C 
BRANCH  32  33
ATOM     33  O   UNL A   1      39.108  19.579  26.303  1.00  0.00    -0.460 OA
BRANCH  33  34
ATOM     34  C   UNL A   1      40.421  19.900  26.284  1.00  0.00     0.338 C 
ATOM     35  O   UNL A   1      41.307  19.237  25.759  1.00  0.00    -0.246 OA
BRANCH  34  36
ATOM     36  C   UNL A   1      40.616  21.275  26.825  1.00  0.00     0.060 A 
ATOM     37  C   UNL A   1      40.022  22.357  26.161  1.00  0.00     0.016 A 
ATOM     38  C   UNL A   1      41.401  21.511  27.959  1.00  0.00     0.016 A 
ATOM     39  C   UNL A   1      40.265  23.672  26.585  1.00  0.00     0.010 A 
ATOM     40  C   UNL A   1      41.653  22.832  28.374  1.00  0.00     0.010 A 
ATOM     41  C   UNL A   1      41.124  23.927  27.664  1.00  0.00    -0.014 A 
BRANCH  41  42
ATOM     42  C   UNL A   1      41.608  25.318  27.921  1.00  0.00     0.031 A 
ATOM     43  C   UNL A   1      42.991  25.707  27.448  1.00  0.00     0.074 A 
ATOM     44  C   UNL A   1      40.833  26.249  28.512  1.00  0.00     0.049 A 
ATOM     45  N   UNL A   1      43.621  26.851  27.550  1.00  0.00    -0.248 NA
ATOM     46  C   UNL A   1      43.764  24.656  26.770  1.00  0.00     0.031 C 
ATOM     47  C   UNL A   1      39.467  26.035  28.985  1.00  0.00     0.029 A 
ATOM     48  N   UNL A   1      41.088  27.568  28.816  1.00  0.00    -0.354 N 
ATOM     49  C   UNL A   1      44.863  26.658  26.950  1.00  0.00     0.074 A 
ATOM     50  C   UNL A   1      44.910  25.273  26.530  1.00  0.00     0.031 C 
ATOM     51  C   UNL A   1      39.005  27.179  29.519  1.00  0.00     0.029 A 
ATOM     52  C   UNL A   1      40.050  28.202  29.461  1.00  0.00     0.049 A 
ATOM     53  H   UNL A   1      41.936  28.017  28.594  1.00  0.00     0.167 HD
ATOM     54  C   UNL A   1      45.868  27.550  26.753  1.00  0.00     0.034 A 
ATOM     55  C   UNL A   1      39.955  29.453  29.962  1.00  0.00     0.034 A 
ATOM     56  C   UNL A   1      45.826  28.927  27.187  1.00  0.00     0.049 A 
ATOM     57  C   UNL A   1      41.121  30.406  29.810  1.00  0.00     0.074 A 
ATOM     58  C   UNL A   1      46.787  29.912  27.025  1.00  0.00     0.029 A 
ATOM     59  N   UNL A   1      44.777  29.515  27.883  1.00  0.00    -0.354 N 
ATOM     60  N   UNL A   1      42.281  30.213  29.225  1.00  0.00    -0.248 NA
ATOM     61  C   UNL A   1      40.954  31.754  30.374  1.00  0.00     0.031 C 
ATOM     62  C   UNL A   1      46.359  31.063  27.695  1.00  0.00     0.029 A 
ATOM     63  C   UNL A   1      45.086  30.835  28.189  1.00  0.00     0.049 A 
ATOM     64  H   UNL A   1      43.938  29.063  28.125  1.00  0.00     0.167 HD
ATOM     65  C   UNL A   1      42.962  31.428  29.317  1.00  0.00     0.074 A 
ATOM     66  C   UNL A   1      42.075  32.349  29.994  1.00  0.00     0.031 C 
ATOM     67  C   UNL A   1      44.207  31.752  28.877  1.00  0.00     0.034 A 
BRANCH  54  68
ATOM     68  C   UNL A   1      47.125  27.044  26.080  1.00  0.00     0.023 A 
ATOM     69  C   UNL A   1      48.121  26.349  26.790  1.00  0.00     0.031 A 
ATOM     70  C   UNL A   1      47.342  27.282  24.711  1.00  0.00     0.131 A 
ATOM     71  C   UNL A   1      49.315  25.984  26.147  1.00  0.00     0.055 A 
ATOM     72  C   UNL A   1      48.494  26.838  24.058  1.00  0.00     0.041 A 
ATOM     73  F   UNL A   1      46.441  27.960  23.983  1.00  0.00    -0.206 F 
ATOM     74  C   UNL A   1      49.496  26.199  24.780  1.00  0.00     0.022 A 
BRANCH  71  75
ATOM     75  S   UNL A   1      50.689  25.366  27.158  1.00  0.00     0.124 S 
ATOM     76  O   UNL A   1      51.657  24.977  26.135  1.00  0.00    -0.237 OA
ATOM     77  O   UNL A   1      51.041  26.531  27.961  1.00  0.00    -0.237 OA
ATOM     78  O   UNL A   1      50.095  24.253  27.898  1.00  0.00    -0.744 OA
ENDBRANCH  71  75
ENDBRANCH  54  68
BRANCH  55  79
ATOM     79  C   UNL A   1      38.726  29.889  30.695  1.00  0.00     0.023 A 
ATOM     80  C   UNL A   1      37.759  30.706  30.085  1.00  0.00     0.031 A 
ATOM     81  C   UNL A   1      38.543  29.558  32.050  1.00  0.00     0.131 A 
ATOM     82  C   UNL A   1      36.684  31.205  30.840  1.00  0.00     0.055 A 
ATOM     83  C   UNL A   1      37.439  30.004  32.778  1.00  0.00     0.041 A 
ATOM     84  F   UNL A   1      39.441  28.791  32.688  1.00  0.00    -0.206 F 
ATOM     85  C   UNL A   1      36.508  30.845  32.178  1.00  0.00     0.022 A 
BRANCH  82  86
ATOM     86  S   UNL A   1      35.568  32.415  30.075  1.00  0.00     0.124 S 
ATOM     87  O   UNL A   1      34.860  31.592  29.103  1.00  0.00    -0.237 OA
ATOM     88  O   UNL A   1      34.787  32.872  31.219  1.00  0.00    -0.237 OA
ATOM     89  O   UNL A   1      36.478  33.409  29.509  1.00  0.00    -0.744 OA
ENDBRANCH  82  86
ENDBRANCH  55  79
BRANCH  67  90
ATOM     90  C   UNL A   1      44.657  33.187  29.064  1.00  0.00     0.023 A 
ATOM     91  C   UNL A   1      45.330  33.614  30.224  1.00  0.00     0.031 A 
ATOM     92  C   UNL A   1      44.371  34.154  28.082  1.00  0.00     0.131 A 
ATOM     93  C   UNL A   1      45.613  34.977  30.411  1.00  0.00     0.055 A 
ATOM     94  C   UNL A   1      44.728  35.495  28.237  1.00  0.00     0.041 A 
ATOM     95  F   UNL A   1      43.728  33.813  26.953  1.00  0.00    -0.206 F 
ATOM     96  C   UNL A   1      45.334  35.917  29.416  1.00  0.00     0.022 A 
BRANCH  93  97
ATOM     97  S   UNL A   1      46.220  35.527  32.030  1.00  0.00     0.124 S 
ATOM     98  O   UNL A   1      46.917  36.762  31.687  1.00  0.00    -0.237 OA
ATOM     99  O   UNL A   1      44.982  35.682  32.789  1.00  0.00    -0.237 OA
ATOM    100  O   UNL A   1      47.080  34.430  32.466  1.00  0.00    -0.744 OA
ENDBRANCH  93  97
ENDBRANCH  67  90
ENDBRANCH  41  42
ENDBRANCH  34  36
ENDBRANCH  33  34
ENDBRANCH  32  33
ENDBRANCH  31  32
ENDBRANCH  30  31
ENDBRANCH   1  30
TORSDOF 24
ENDMDL
MODEL 2
REMARK VINA RESULT:      -9.5      1.366      2.471
REMARK SMILES CC(C)[NH2+][C@]1(C(=O)OCCOCCOCCOC(=O)c2ccc(-c3c4nc(c(-c5cc(S(=O)(=O)[O-])ccc5F)c5ccc([nH]5)c(-c5cc(S(=O)(=O)[O-])ccc5F)c5nc(c(-c6cc(S(=O)(=O)[O-])ccc6F)c6ccc3[nH]6)C=C5)C=C4)cc2)CCC[C@H]([N@H+](C)C2CCCCC2)C1
REMARK SMILES IDX 13 1 12 2 11 3 10 4 9 5 8 6 6 7 7 8 5 9 83 10 95 11 84 12
REMARK SMILES IDX 86 13 85 14 4 15 2 18 1 19 3 20 87 21 88 22 89 24 90 25
REMARK SMILES IDX 94 26 91 27 93 28 92 29 14 30 15 31 16 32 17 33 18 34 19 35
REMARK SMILES IDX 20 36 21 37 82 38 22 39 81 40 23 41 24 42 25 43 75 44 26 45
REMARK SMILES IDX 80 46 74 47 76 48 27 49 79 50 73 51 72 52 28 54 60 55 40 56
REMARK SMILES IDX 59 57 41 58 44 59 58 60 77 61 42 62 43 63 57 65 78 66 45 67
REMARK SMILES IDX 29 68 30 69 38 70 31 71 37 72 39 73 36 74 32 75 33 76 34 77
REMARK SMILES IDX 35 78 61 79 62 80 70 81 63 82 69 83 71 84 68 85 64 86 65 87
REMARK SMILES IDX 66 88 67 89 46 90 47 91 55 92 48 93 54 94 56 95 53 96 49 97
REMARK SMILES IDX 50 98 51 99 52 100
REMARK H PARENT 4 16 4 17 87 23 76 53 44 64
REMARK Flexibility Score: inf
ROOT
ATOM      1  C   UNL A   1      35.885  21.240  25.321  1.00  0.00     0.188 C 
ENDROOT
BRANCH   1   2
ATOM      2  C   UNL A   1      35.152  19.904  25.067  1.00  0.00     0.188 C 
BRANCH   2   3
ATOM      3  O   UNL A   1      33.781  19.879  24.682  1.00  0.00    -0.376 OA
BRANCH   3   4
ATOM      4  C   UNL A   1      32.978  21.033  24.831  1.00  0.00     0.202 C 
BRANCH   4   5
ATOM      5  C   UNL A   1      32.605  21.453  26.255  1.00  0.00     0.261 C 
BRANCH   5   6
ATOM      6  O   UNL A   1      32.020  22.756  26.383  1.00  0.00    -0.459 OA
BRANCH   6   7
ATOM      7  C   UNL A   1      32.805  23.808  26.022  1.00  0.00     0.368 C 
ATOM      8  O   UNL A   1      33.911  24.025  26.515  1.00  0.00    -0.245 OA
BRANCH   7   9
ATOM      9  C   UNL A   1      32.130  24.798  24.962  1.00  0.00     0.200 C 
ATOM     10  C   UNL A   1      30.923  24.227  24.196  1.00  0.00     0.081 C 
ATOM     11  C   UNL A   1      31.496  25.933  25.837  1.00  0.00     0.146 C 
ATOM     12  C   UNL A   1      30.140  25.288  23.387  1.00  0.00     0.013 C 
ATOM     13  C   UNL A   1      30.861  27.120  25.094  1.00  0.00     0.190 C 
ATOM     14  C   UNL A   1      29.752  26.538  24.184  1.00  0.00     0.065 C 
BRANCH   9  15
ATOM     15  N   UNL A   1      33.315  25.083  24.099  1.00  0.00    -0.330 N 
ATOM     16  H   UNL A   1      33.195  26.050  23.798  1.00  0.00     0.347 HD
ATOM     17  H   UNL A   1      34.056  24.775  24.730  1.00  0.00     0.347 HD
BRANCH  15  18
ATOM     18  C   UNL A   1      33.721  24.364  22.895  1.00  0.00     0.176 C 
ATOM     19  C   UNL A   1      35.087  23.736  23.234  1.00  0.00     0.075 C 
ATOM     20  C   UNL A   1      32.846  23.202  22.401  1.00  0.00     0.075 C 
ENDBRANCH  15  18
ENDBRANCH   9  15
BRANCH  13  21
ATOM     21  N   UNL A   1      31.855  28.056  24.556  1.00  0.00    -0.332 N 
ATOM     22  C   UNL A   1      32.166  28.042  23.150  1.00  0.00     0.333 C 
ATOM     23  H   UNL A   1      31.381  28.874  24.172  1.00  0.00     0.348 HD
BRANCH  21  24
ATOM     24  C   UNL A   1      32.624  28.839  25.523  1.00  0.00     0.184 C 
ATOM     25  C   UNL A   1      31.927  29.570  26.676  1.00  0.00     0.065 C 
ATOM     26  C   UNL A   1      33.819  28.044  26.102  1.00  0.00     0.065 C 
ATOM     27  C   UNL A   1      32.919  30.582  27.276  1.00  0.00     0.006 C 
ATOM     28  C   UNL A   1      34.841  29.018  26.692  1.00  0.00     0.006 C 
ATOM     29  C   UNL A   1      34.215  29.922  27.749  1.00  0.00     0.000 C 
ENDBRANCH  21  24
ENDBRANCH  13  21
ENDBRANCH   7   9
ENDBRANCH   6   7
ENDBRANCH   5   6
ENDBRANCH   4   5
ENDBRANCH   3   4
ENDBRANCH   2   3
ENDBRANCH   1   2
BRANCH   1  30
ATOM     30  O   UNL A   1      37.289  21.081  25.373  1.00  0.00    -0.376 OA
BRANCH  30  31
ATOM     31  C   UNL A   1      37.800  19.973  24.664  1.00  0.00     0.202 C 
BRANCH  31  32
ATOM     32  C   UNL A   1      38.774  19.068  25.437  1.00  0.00     0.261 C 
BRANCH  32  33
ATOM     33  O   UNL A   1      39.451  19.633  26.581  1.00  0.00    -0.460 OA
BRANCH  33  34
ATOM     34  C   UNL A   1      40.727  20.051  26.424  1.00  0.00     0.338 C 
ATOM     35  O   UNL A   1      41.602  19.448  25.815  1.00  0.00    -0.246 OA
BRANCH  34  36
ATOM     36  C   UNL A   1      40.872  21.444  26.933  1.00  0.00     0.060 A 
ATOM     37  C   UNL A   1      40.344  22.501  26.179  1.00  0.00     0.016 A 
ATOM     38  C   UNL A   1      41.547  21.721  28.126  1.00  0.00     0.016 A 
ATOM     39  C   UNL A   1      40.547  23.831  26.577  1.00  0.00     0.010 A 
ATOM     40  C   UNL A   1      41.760  23.057  28.517  1.00  0.00     0.010 A 
ATOM     41  C   UNL A   1      41.302  24.125  27.722  1.00  0.00    -0.014 A 
BRANCH  41  42
ATOM     42  C   UNL A   1      41.761  25.526  27.974  1.00  0.00     0.031 A 
ATOM     43  C   UNL A   1      43.134  25.939  27.493  1.00  0.00     0.074 A 
ATOM     44  C   UNL A   1      40.972  26.443  28.569  1.00  0.00     0.049 A 
ATOM     45  N   UNL A   1      43.744  27.095  27.590  1.00  0.00    -0.248 NA
ATOM     46  C   UNL A   1      43.922  24.902  26.812  1.00  0.00     0.031 C 
ATOM     47  C   UNL A   1      39.614  26.204  29.049  1.00  0.00     0.029 A 
ATOM     48  N   UNL A   1      41.204  27.767  28.870  1.00  0.00    -0.354 N 
ATOM     49  C   UNL A   1      44.986  26.924  26.983  1.00  0.00     0.074 A 
ATOM     50  C   UNL A   1      45.056  25.540  26.565  1.00  0.00     0.031 C 
ATOM     51  C   UNL A   1      39.133  27.340  29.584  1.00  0.00     0.029 A 
ATOM     52  C   UNL A   1      40.158  28.383  29.519  1.00  0.00     0.049 A 
ATOM     53  H   UNL A   1      42.042  28.230  28.641  1.00  0.00     0.167 HD
ATOM     54  C   UNL A   1      45.972  27.835  26.780  1.00  0.00     0.034 A 
ATOM     55  C   UNL A   1      40.043  29.632  30.019  1.00  0.00     0.034 A 
ATOM     56  C   UNL A   1      45.907  29.211  27.212  1.00  0.00     0.049 A 
ATOM     57  C   UNL A   1      41.190  30.606  29.858  1.00  0.00     0.074 A 
ATOM     58  C   UNL A   1      46.849  30.213  27.043  1.00  0.00     0.029 A 
ATOM     59  N   UNL A   1      44.852  29.781  27.913  1.00  0.00    -0.354 N 
ATOM     60  N   UNL A   1      42.350  30.434  29.267  1.00  0.00    -0.248 NA
ATOM     61  C   UNL A   1      41.001  31.951  30.421  1.00  0.00     0.031 C 
ATOM     62  C   UNL A   1      46.403  31.358  27.713  1.00  0.00     0.029 A 
ATOM     63  C   UNL A   1      45.137  31.107  28.215  1.00  0.00     0.049 A 
ATOM     64  H   UNL A   1      44.022  29.313  28.160  1.00  0.00     0.167 HD
ATOM     65  C   UNL A   1      43.009  31.661  29.354  1.00  0.00     0.074 A 
ATOM     66  C   UNL A   1      42.108  32.567  30.035  1.00  0.00     0.031 C 
ATOM     67  C   UNL A   1      44.245  32.008  28.906  1.00  0.00     0.034 A 
BRANCH  54  68
ATOM     68  C   UNL A   1      47.235  27.351  26.100  1.00  0.00     0.023 A 
ATOM     69  C   UNL A   1      48.210  26.605  26.786  1.00  0.00     0.031 A 
ATOM     70  C   UNL A   1      47.479  27.663  24.751  1.00  0.00     0.131 A 
ATOM     71  C   UNL A   1      49.411  26.262  26.144  1.00  0.00     0.055 A 
ATOM     72  C   UNL A   1      48.637  27.241  24.093  1.00  0.00     0.041 A 
ATOM     73  F   UNL A   1      46.598  28.392  24.047  1.00  0.00    -0.206 F 
ATOM     74  C   UNL A   1      49.618  26.550  24.795  1.00  0.00     0.022 A 
BRANCH  71  75
ATOM     75  S   UNL A   1      50.760  25.569  27.142  1.00  0.00     0.124 S 
ATOM     76  O   UNL A   1      51.825  25.443  26.150  1.00  0.00    -0.237 OA
ATOM     77  O   UNL A   1      50.955  26.592  28.162  1.00  0.00    -0.237 OA
ATOM     78  O   UNL A   1      50.213  24.302  27.623  1.00  0.00    -0.744 OA
ENDBRANCH  71  75
ENDBRANCH  54  68
BRANCH  55  79
ATOM     79  C   UNL A   1      38.810  30.046  30.758  1.00  0.00     0.023 A 
ATOM     80  C   UNL A   1      37.899  30.965  30.209  1.00  0.00     0.031 A 
ATOM     81  C   UNL A   1      38.569  29.587  32.066  1.00  0.00     0.131 A 
ATOM     82  C   UNL A   1      36.822  31.432  30.981  1.00  0.00     0.055 A 
ATOM     83  C   UNL A   1      37.461  30.005  32.805  1.00  0.00     0.041 A 
ATOM     84  F   UNL A   1      39.412  28.718  32.646  1.00  0.00    -0.206 F 
ATOM     85  C   UNL A   1      36.587  30.945  32.269  1.00  0.00     0.022 A 
BRANCH  82  86
ATOM     86  S   UNL A   1      35.784  32.764  30.315  1.00  0.00     0.124 S 
ATOM     87  O   UNL A   1      36.382  33.942  30.930  1.00  0.00    -0.237 OA
ATOM     88  O   UNL A   1      35.989  32.617  28.878  1.00  0.00    -0.237 OA
ATOM     89  O   UNL A   1      34.445  32.422  30.789  1.00  0.00    -0.744 OA
ENDBRANCH  82  86
ENDBRANCH  55  79
BRANCH  67  90
ATOM     90  C   UNL A   1      44.669  33.452  29.090  1.00  0.00     0.023 A 
ATOM     91  C   UNL A   1      45.363  33.888  30.233  1.00  0.00     0.031 A 
ATOM     92  C   UNL A   1      44.336  34.417  28.120  1.00  0.00     0.131 A 
ATOM     93  C   UNL A   1      45.623  35.255  30.419  1.00  0.00     0.055 A 
ATOM     94  C   UNL A   1      44.669  35.764  28.273  1.00  0.00     0.041 A 
ATOM     95  F   UNL A   1      43.671  34.067  27.007  1.00  0.00    -0.206 F 
ATOM     96  C   UNL A   1      45.297  36.193  29.437  1.00  0.00     0.022 A 
BRANCH  93  97
ATOM     97  S   UNL A   1      46.260  35.811  32.025  1.00  0.00     0.124 S 
ATOM     98  O   UNL A   1      47.545  35.120  32.095  1.00  0.00    -0.237 OA
ATOM     99  O   UNL A   1      46.323  37.259  31.851  1.00  0.00    -0.237 OA
ATOM    100  O   UNL A   1      45.253  35.343  32.974  1.00  0.00    -0.744 OA
ENDBRANCH  93  97
ENDBRANCH  67  90
ENDBRANCH  41  42
ENDBRANCH  34  36
ENDBRANCH  33  34
ENDBRANCH  32  33
ENDBRANCH  31  32
ENDBRANCH  30  31
ENDBRANCH   1  30
TORSDOF 24
ENDMDL
MODEL 3
REMARK VINA RESULT:      -9.5      2.088      2.669
REMARK SMILES CC(C)[NH2+][C@]1(C(=O)OCCOCCOCCOC(=O)c2ccc(-c3c4nc(c(-c5cc(S(=O)(=O)[O-])ccc5F)c5ccc([nH]5)c(-c5cc(S(=O)(=O)[O-])ccc5F)c5nc(c(-c6cc(S(=O)(=O)[O-])ccc6F)c6ccc3[nH]6)C=C5)C=C4)cc2)CCC[C@H]([N@H+](C)C2CCCCC2)C1
REMARK SMILES IDX 13 1 12 2 11 3 10 4 9 5 8 6 6 7 7 8 5 9 83 10 95 11 84 12
REMARK SMILES IDX 86 13 85 14 4 15 2 18 1 19 3 20 87 21 88 22 89 24 90 25
REMARK SMILES IDX 94 26 91 27 93 28 92 29 14 30 15 31 16 32 17 33 18 34 19 35
REMARK SMILES IDX 20 36 21 37 82 38 22 39 81 40 23 41 24 42 25 43 75 44 26 45
REMARK SMILES IDX 80 46 74 47 76 48 27 49 79 50 73 51 72 52 28 54 60 55 40 56
REMARK SMILES IDX 59 57 41 58 44 59 58 60 77 61 42 62 43 63 57 65 78 66 45 67
REMARK SMILES IDX 29 68 30 69 38 70 31 71 37 72 39 73 36 74 32 75 33 76 34 77
REMARK SMILES IDX 35 78 61 79 62 80 70 81 63 82 69 83 71 84 68 85 64 86 65 87
REMARK SMILES IDX 66 88 67 89 46 90 47 91 55 92 48 93 54 94 56 95 53 96 49 97
REMARK SMILES IDX 50 98 51 99 52 100
REMARK H PARENT 4 16 4 17 87 23 76 53 44 64
REMARK Flexibility Score: inf
ROOT
ATOM      1  C   UNL A   1      36.441  22.067  25.112  1.00  0.00     0.188 C 
ENDROOT
BRANCH   1   2
ATOM      2  C   UNL A   1      35.276  21.107  24.786  1.00  0.00     0.188 C 
BRANCH   2   3
ATOM      3  O   UNL A   1      33.934  21.578  24.709  1.00  0.00    -0.376 OA
BRANCH   3   4
ATOM      4  C   UNL A   1      33.650  22.826  24.107  1.00  0.00     0.202 C 
BRANCH   4   5
ATOM      5  C   UNL A   1      32.704  22.830  22.905  1.00  0.00     0.261 C 
BRANCH   5   6
ATOM      6  O   UNL A   1      32.457  24.113  22.315  1.00  0.00    -0.459 OA
BRANCH   6   7
ATOM      7  C   UNL A   1      31.569  24.915  22.964  1.00  0.00     0.368 C 
ATOM      8  O   UNL A   1      30.377  24.638  23.091  1.00  0.00    -0.245 OA
BRANCH   7   9
ATOM      9  C   UNL A   1      32.185  26.301  23.474  1.00  0.00     0.200 C 
ATOM     10  C   UNL A   1      33.718  26.416  23.388  1.00  0.00     0.081 C 
ATOM     11  C   UNL A   1      31.686  27.357  22.431  1.00  0.00     0.146 C 
ATOM     12  C   UNL A   1      34.249  27.848  23.633  1.00  0.00     0.013 C 
ATOM     13  C   UNL A   1      32.020  28.832  22.712  1.00  0.00     0.190 C 
ATOM     14  C   UNL A   1      33.562  28.934  22.799  1.00  0.00     0.065 C 
BRANCH   9  15
ATOM     15  N   UNL A   1      31.656  26.309  24.872  1.00  0.00    -0.330 N 
ATOM     16  H   UNL A   1      31.457  27.289  25.071  1.00  0.00     0.347 HD
ATOM     17  H   UNL A   1      30.934  25.593  24.777  1.00  0.00     0.347 HD
BRANCH  15  18
ATOM     18  C   UNL A   1      32.323  25.809  26.069  1.00  0.00     0.176 C 
ATOM     19  C   UNL A   1      32.198  26.939  27.110  1.00  0.00     0.075 C 
ATOM     20  C   UNL A   1      31.763  24.554  26.756  1.00  0.00     0.075 C 
ENDBRANCH  15  18
ENDBRANCH   9  15
BRANCH  13  21
ATOM     21  N   UNL A   1      31.171  29.422  23.754  1.00  0.00    -0.332 N 
ATOM     22  C   UNL A   1      31.725  29.713  25.051  1.00  0.00     0.333 C 
ATOM     23  H   UNL A   1      31.299  30.435  23.766  1.00  0.00     0.348 HD
BRANCH  21  24
ATOM     24  C   UNL A   1      29.738  29.513  23.473  1.00  0.00     0.184 C 
ATOM     25  C   UNL A   1      29.205  30.475  22.406  1.00  0.00     0.065 C 
ATOM     26  C   UNL A   1      29.098  28.124  23.240  1.00  0.00     0.065 C 
ATOM     27  C   UNL A   1      27.685  30.618  22.602  1.00  0.00     0.006 C 
ATOM     28  C   UNL A   1      27.585  28.218  23.446  1.00  0.00     0.006 C 
ATOM     29  C   UNL A   1      26.957  29.274  22.541  1.00  0.00     0.000 C 
ENDBRANCH  21  24
ENDBRANCH  13  21
ENDBRANCH   7   9
ENDBRANCH   6   7
ENDBRANCH   5   6
ENDBRANCH   4   5
ENDBRANCH   3   4
ENDBRANCH   2   3
ENDBRANCH   1   2
BRANCH   1  30
ATOM     30  O   UNL A   1      37.704  21.450  24.963  1.00  0.00    -0.376 OA
BRANCH  30  31
ATOM     31  C   UNL A   1      38.642  21.737  25.977  1.00  0.00     0.202 C 
BRANCH  31  32
ATOM     32  C   UNL A   1      39.838  20.776  26.082  1.00  0.00     0.261 C 
BRANCH  32  33
ATOM     33  O   UNL A   1      40.965  21.190  26.885  1.00  0.00    -0.460 OA
BRANCH  33  34
ATOM     34  C   UNL A   1      41.866  22.033  26.334  1.00  0.00     0.338 C 
ATOM     35  O   UNL A   1      42.602  21.768  25.391  1.00  0.00    -0.246 OA
BRANCH  34  36
ATOM     36  C   UNL A   1      41.704  23.399  26.908  1.00  0.00     0.060 A 
ATOM     37  C   UNL A   1      41.446  24.473  26.045  1.00  0.00     0.016 A 
ATOM     38  C   UNL A   1      41.833  23.636  28.281  1.00  0.00     0.016 A 
ATOM     39  C   UNL A   1      41.385  25.784  26.540  1.00  0.00     0.010 A 
ATOM     40  C   UNL A   1      41.784  24.954  28.772  1.00  0.00     0.010 A 
ATOM     41  C   UNL A   1      41.605  26.045  27.900  1.00  0.00    -0.014 A 
BRANCH  41  42
ATOM     42  C   UNL A   1      41.832  27.448  28.365  1.00  0.00     0.031 A 
ATOM     43  C   UNL A   1      43.243  27.992  28.377  1.00  0.00     0.074 A 
ATOM     44  C   UNL A   1      40.815  28.258  28.722  1.00  0.00     0.049 A 
ATOM     45  N   UNL A   1      43.683  29.174  28.730  1.00  0.00    -0.248 NA
ATOM     46  C   UNL A   1      44.297  27.070  27.931  1.00  0.00     0.031 C 
ATOM     47  C   UNL A   1      39.402  27.889  28.724  1.00  0.00     0.029 A 
ATOM     48  N   UNL A   1      40.819  29.565  29.155  1.00  0.00    -0.354 N 
ATOM     49  C   UNL A   1      45.063  29.138  28.549  1.00  0.00     0.074 A 
ATOM     50  C   UNL A   1      45.388  27.801  28.099  1.00  0.00     0.031 C 
ATOM     51  C   UNL A   1      38.676  28.942  29.137  1.00  0.00     0.029 A 
ATOM     52  C   UNL A   1      39.569  30.054  29.465  1.00  0.00     0.049 A 
ATOM     53  H   UNL A   1      41.640  30.102  29.236  1.00  0.00     0.167 HD
ATOM     54  C   UNL A   1      45.977  30.127  28.726  1.00  0.00     0.034 A 
ATOM     55  C   UNL A   1      39.189  31.247  29.970  1.00  0.00     0.034 A 
ATOM     56  C   UNL A   1      45.653  31.456  29.190  1.00  0.00     0.049 A 
ATOM     57  C   UNL A   1      40.234  32.307  30.243  1.00  0.00     0.074 A 
ATOM     58  C   UNL A   1      46.506  32.530  29.391  1.00  0.00     0.029 A 
ATOM     59  N   UNL A   1      44.383  31.894  29.543  1.00  0.00    -0.354 N 
ATOM     60  N   UNL A   1      41.533  32.263  30.050  1.00  0.00    -0.248 NA
ATOM     61  C   UNL A   1      39.755  33.586  30.789  1.00  0.00     0.031 C 
ATOM     62  C   UNL A   1      45.768  33.584  29.944  1.00  0.00     0.029 A 
ATOM     63  C   UNL A   1      44.437  33.207  29.994  1.00  0.00     0.049 A 
ATOM     64  H   UNL A   1      43.563  31.352  29.482  1.00  0.00     0.167 HD
ATOM     65  C   UNL A   1      42.016  33.521  30.414  1.00  0.00     0.074 A 
ATOM     66  C   UNL A   1      40.867  34.304  30.815  1.00  0.00     0.031 C 
ATOM     67  C   UNL A   1      43.293  33.986  30.409  1.00  0.00     0.034 A 
BRANCH  54  68
ATOM     68  C   UNL A   1      47.428  29.788  28.466  1.00  0.00     0.023 A 
ATOM     69  C   UNL A   1      48.309  29.439  29.505  1.00  0.00     0.031 A 
ATOM     70  C   UNL A   1      47.945  29.837  27.159  1.00  0.00     0.131 A 
ATOM     71  C   UNL A   1      49.670  29.228  29.231  1.00  0.00     0.055 A 
ATOM     72  C   UNL A   1      49.281  29.539  26.881  1.00  0.00     0.041 A 
ATOM     73  F   UNL A   1      47.162  30.186  26.125  1.00  0.00    -0.206 F 
ATOM     74  C   UNL A   1      50.156  29.248  27.923  1.00  0.00     0.022 A 
BRANCH  71  75
ATOM     75  S   UNL A   1      50.823  29.080  30.624  1.00  0.00     0.124 S 
ATOM     76  O   UNL A   1      50.504  27.749  31.132  1.00  0.00    -0.237 OA
ATOM     77  O   UNL A   1      52.121  29.223  29.977  1.00  0.00    -0.237 OA
ATOM     78  O   UNL A   1      50.439  30.183  31.504  1.00  0.00    -0.744 OA
ENDBRANCH  71  75
ENDBRANCH  54  68
BRANCH  55  79
ATOM     79  C   UNL A   1      37.753  31.515  30.292  1.00  0.00     0.023 A 
ATOM     80  C   UNL A   1      36.849  31.950  29.309  1.00  0.00     0.031 A 
ATOM     81  C   UNL A   1      37.284  31.416  31.615  1.00  0.00     0.131 A 
ATOM     82  C   UNL A   1      35.542  32.319  29.670  1.00  0.00     0.055 A 
ATOM     83  C   UNL A   1      35.965  31.721  31.958  1.00  0.00     0.041 A 
ATOM     84  F   UNL A   1      38.106  31.017  32.598  1.00  0.00    -0.206 F 
ATOM     85  C   UNL A   1      35.089  32.190  30.985  1.00  0.00     0.022 A 
BRANCH  82  86
ATOM     86  S   UNL A   1      34.466  33.064  28.413  1.00  0.00     0.124 S 
ATOM     87  O   UNL A   1      33.879  31.885  27.787  1.00  0.00    -0.237 OA
ATOM     88  O   UNL A   1      33.565  33.874  29.226  1.00  0.00    -0.237 OA
ATOM     89  O   UNL A   1      35.393  33.820  27.574  1.00  0.00    -0.744 OA
ENDBRANCH  82  86
ENDBRANCH  55  79
BRANCH  67  90
ATOM     90  C   UNL A   1      43.505  35.435  30.800  1.00  0.00     0.023 A 
ATOM     91  C   UNL A   1      43.555  35.848  32.144  1.00  0.00     0.031 A 
ATOM     92  C   UNL A   1      43.617  36.427  29.807  1.00  0.00     0.131 A 
ATOM     93  C   UNL A   1      43.624  37.215  32.458  1.00  0.00     0.055 A 
ATOM     94  C   UNL A   1      43.768  37.779  30.126  1.00  0.00     0.041 A 
ATOM     95  F   UNL A   1      43.575  36.101  28.505  1.00  0.00    -0.206 F 
ATOM     96  C   UNL A   1      43.750  38.181  31.457  1.00  0.00     0.022 A 
BRANCH  93  97
ATOM     97  S   UNL A   1      43.400  37.725  34.185  1.00  0.00     0.124 S 
ATOM     98  O   UNL A   1      42.924  39.096  34.035  1.00  0.00    -0.237 OA
ATOM     99  O   UNL A   1      42.419  36.759  34.670  1.00  0.00    -0.237 OA
ATOM    100  O   UNL A   1      44.737  37.592  34.758  1.00  0.00    -0.744 OA
ENDBRANCH  93  97
ENDBRANCH  67  90
ENDBRANCH  41  42
ENDBRANCH  34  36
ENDBRANCH  33  34
ENDBRANCH  32  33
ENDBRANCH  31  32
ENDBRANCH  30  31
ENDBRANCH   1  30
TORSDOF 24
ENDMDL
