MODEL 1
REMARK VINA RESULT:     -11.0      0.000      0.000
REMARK SMILES Cc1cc(Br)cc2c1O[C@H](C(F)(F)F)C(C(=O)OCCOCCOCCOC(=O)c1ccc(-c3c4nc(c(-c5cc(S(=O)(=O)[O-])ccc5F)c5ccc([nH]5)c(-c5cc(S(=O)(=O)[O-])ccc5F)c5nc(c(-c6cc(S(=O)(=O)[O-])ccc6F)c6ccc3[nH]6)C=C5)C=C4)cc1)=C2
REMARK SMILES IDX 23 1 22 2 21 3 20 4 19 5 18 6 16 7 17 8 15 9 1 10 2 11 3 12
REMARK SMILES IDX 8 13 4 14 7 15 9 16 5 17 6 18 93 19 10 20 11 21 12 22 13 23
REMARK SMILES IDX 14 24 24 25 25 26 26 27 27 28 28 29 29 30 30 31 31 32 92 33
REMARK SMILES IDX 32 34 91 35 33 36 34 37 35 38 85 39 36 40 90 41 84 42 86 43
REMARK SMILES IDX 37 44 89 45 83 46 82 47 38 49 70 50 50 51 69 52 51 53 54 54
REMARK SMILES IDX 68 55 87 56 52 57 53 58 67 60 88 61 55 62 39 63 40 64 48 65
REMARK SMILES IDX 41 66 47 67 49 68 46 69 42 70 43 71 44 72 45 73 71 74 72 75
REMARK SMILES IDX 80 76 73 77 79 78 81 79 78 80 74 81 75 82 76 83 77 84 56 85
REMARK SMILES IDX 57 86 65 87 58 88 64 89 66 90 63 91 59 92 60 93 61 94 62 95
REMARK H PARENT 86 48 54 59
REMARK Flexibility Score: inf
ROOT
ATOM      1  C   UNL A   1      35.373  20.151  24.739  1.00  0.00     0.188 C 
ENDROOT
BRANCH   1   2
ATOM      2  C   UNL A   1      33.997  19.475  24.926  1.00  0.00     0.188 C 
BRANCH   2   3
ATOM      3  O   UNL A   1      32.949  19.689  23.998  1.00  0.00    -0.376 OA
BRANCH   3   4
ATOM      4  C   UNL A   1      32.167  20.870  24.058  1.00  0.00     0.202 C 
BRANCH   4   5
ATOM      5  C   UNL A   1      31.785  21.477  25.407  1.00  0.00     0.261 C 
BRANCH   5   6
ATOM      6  O   UNL A   1      30.939  22.627  25.289  1.00  0.00    -0.460 OA
BRANCH   6   7
ATOM      7  C   UNL A   1      30.964  23.464  26.354  1.00  0.00     0.338 C 
ATOM      8  O   UNL A   1      30.904  23.149  27.531  1.00  0.00    -0.246 OA
BRANCH   7   9
ATOM      9  C   UNL A   1      31.181  24.846  25.892  1.00  0.00     0.087 C 
ATOM     10  C   UNL A   1      33.188  29.328  24.331  1.00  0.00     0.048 C 
ATOM     11  C   UNL A   1      31.865  28.622  24.233  1.00  0.00    -0.007 A 
ATOM     12  C   UNL A   1      30.851  29.215  23.463  1.00  0.00     0.023 A 
ATOM     13  C   UNL A   1      31.620  27.383  24.847  1.00  0.00     0.130 A 
ATOM     14  C   UNL A   1      29.618  28.584  23.315  1.00  0.00     0.019 A 
ATOM     15  C   UNL A   1      30.389  26.738  24.664  1.00  0.00     0.019 A 
ATOM     16  O   UNL A   1      32.628  26.856  25.606  1.00  0.00    -0.475 OA
ATOM     17  Br  UNL A   1      28.270  29.397  22.270  1.00  0.00    -0.051 Br
ATOM     18  C   UNL A   1      29.381  27.348  23.909  1.00  0.00     0.027 A 
ATOM     19  C   UNL A   1      30.180  25.405  25.204  1.00  0.00     0.027 C 
ATOM     20  C   UNL A   1      32.481  25.537  26.192  1.00  0.00     0.316 C 
BRANCH  20  21
ATOM     21  C   UNL A   1      33.703  24.702  25.785  1.00  0.00     0.430 C 
ATOM     22  F   UNL A   1      33.528  24.138  24.563  1.00  0.00    -0.167 F 
ATOM     23  F   UNL A   1      34.825  25.455  25.696  1.00  0.00    -0.167 F 
ATOM     24  F   UNL A   1      33.955  23.702  26.658  1.00  0.00    -0.167 F 
ENDBRANCH  20  21
ENDBRANCH   7   9
ENDBRANCH   6   7
ENDBRANCH   5   6
ENDBRANCH   4   5
ENDBRANCH   3   4
ENDBRANCH   2   3
ENDBRANCH   1   2
BRANCH   1  25
ATOM     25  O   UNL A   1      36.573  19.409  24.808  1.00  0.00    -0.376 OA
BRANCH  25  26
ATOM     26  C   UNL A   1      37.809  20.069  25.034  1.00  0.00     0.202 C 
BRANCH  26  27
ATOM     27  C   UNL A   1      39.090  19.310  25.396  1.00  0.00     0.261 C 
BRANCH  27  28
ATOM     28  O   UNL A   1      39.664  19.652  26.661  1.00  0.00    -0.460 OA
BRANCH  28  29
ATOM     29  C   UNL A   1      40.970  20.017  26.611  1.00  0.00     0.338 C 
ATOM     30  O   UNL A   1      41.897  19.375  26.150  1.00  0.00    -0.246 OA
BRANCH  29  31
ATOM     31  C   UNL A   1      41.095  21.420  27.043  1.00  0.00     0.060 A 
ATOM     32  C   UNL A   1      40.482  22.411  26.265  1.00  0.00     0.016 A 
ATOM     33  C   UNL A   1      41.842  21.759  28.172  1.00  0.00     0.016 A 
ATOM     34  C   UNL A   1      40.630  23.752  26.606  1.00  0.00     0.010 A 
ATOM     35  C   UNL A   1      42.015  23.108  28.495  1.00  0.00     0.010 A 
ATOM     36  C   UNL A   1      41.431  24.110  27.699  1.00  0.00    -0.014 A 
BRANCH  36  37
ATOM     37  C   UNL A   1      41.813  25.528  27.889  1.00  0.00     0.031 A 
ATOM     38  C   UNL A   1      43.151  25.981  27.370  1.00  0.00     0.074 A 
ATOM     39  C   UNL A   1      40.978  26.405  28.476  1.00  0.00     0.049 A 
ATOM     40  N   UNL A   1      43.720  27.153  27.461  1.00  0.00    -0.248 NA
ATOM     41  C   UNL A   1      43.949  24.976  26.647  1.00  0.00     0.031 C 
ATOM     42  C   UNL A   1      39.633  26.098  28.959  1.00  0.00     0.029 A 
ATOM     43  N   UNL A   1      41.143  27.737  28.762  1.00  0.00    -0.354 N 
ATOM     44  C   UNL A   1      44.936  27.033  26.799  1.00  0.00     0.074 A 
ATOM     45  C   UNL A   1      45.036  25.666  26.338  1.00  0.00     0.031 C 
ATOM     46  C   UNL A   1      39.095  27.213  29.485  1.00  0.00     0.029 A 
ATOM     47  C   UNL A   1      40.070  28.301  29.411  1.00  0.00     0.049 A 
ATOM     48  H   UNL A   1      41.953  28.242  28.525  1.00  0.00     0.167 HD
ATOM     49  C   UNL A   1      45.881  27.979  26.588  1.00  0.00     0.034 A 
ATOM     50  C   UNL A   1      39.907  29.544  29.907  1.00  0.00     0.034 A 
ATOM     51  C   UNL A   1      45.783  29.333  27.065  1.00  0.00     0.049 A 
ATOM     52  C   UNL A   1      41.026  30.549  29.763  1.00  0.00     0.074 A 
ATOM     53  C   UNL A   1      46.695  30.363  26.915  1.00  0.00     0.029 A 
ATOM     54  N   UNL A   1      44.717  29.844  27.788  1.00  0.00    -0.354 N 
ATOM     55  N   UNL A   1      42.187  30.410  29.166  1.00  0.00    -0.248 NA
ATOM     56  C   UNL A   1      40.816  31.873  30.367  1.00  0.00     0.031 C 
ATOM     57  C   UNL A   1      46.206  31.481  27.599  1.00  0.00     0.029 A 
ATOM     58  C   UNL A   1      44.960  31.167  28.118  1.00  0.00     0.049 A 
ATOM     59  H   UNL A   1      43.906  29.341  28.032  1.00  0.00     0.167 HD
ATOM     60  C   UNL A   1      42.833  31.637  29.302  1.00  0.00     0.074 A 
ATOM     61  C   UNL A   1      41.934  32.505  30.033  1.00  0.00     0.031 C 
ATOM     62  C   UNL A   1      44.057  32.014  28.857  1.00  0.00     0.034 A 
BRANCH  49  63
ATOM     63  C   UNL A   1      47.120  27.572  25.841  1.00  0.00     0.023 A 
ATOM     64  C   UNL A   1      47.260  27.821  24.467  1.00  0.00     0.031 A 
ATOM     65  C   UNL A   1      48.183  26.952  26.520  1.00  0.00     0.131 A 
ATOM     66  C   UNL A   1      48.432  27.425  23.805  1.00  0.00     0.055 A 
ATOM     67  C   UNL A   1      49.368  26.610  25.867  1.00  0.00     0.041 A 
ATOM     68  F   UNL A   1      48.085  26.672  27.829  1.00  0.00    -0.206 F 
ATOM     69  C   UNL A   1      49.495  26.844  24.501  1.00  0.00     0.022 A 
BRANCH  66  70
ATOM     70  S   UNL A   1      48.529  27.630  22.006  1.00  0.00     0.124 S 
ATOM     71  O   UNL A   1      49.679  28.519  21.874  1.00  0.00    -0.237 OA
ATOM     72  O   UNL A   1      48.723  26.263  21.539  1.00  0.00    -0.237 OA
ATOM     73  O   UNL A   1      47.241  28.229  21.660  1.00  0.00    -0.744 OA
ENDBRANCH  66  70
ENDBRANCH  49  63
BRANCH  50  74
ATOM     74  C   UNL A   1      38.658  29.911  30.633  1.00  0.00     0.023 A 
ATOM     75  C   UNL A   1      37.667  30.694  30.022  1.00  0.00     0.031 A 
ATOM     76  C   UNL A   1      38.465  29.524  31.972  1.00  0.00     0.131 A 
ATOM     77  C   UNL A   1      36.541  31.095  30.759  1.00  0.00     0.055 A 
ATOM     78  C   UNL A   1      37.322  29.889  32.687  1.00  0.00     0.041 A 
ATOM     79  F   UNL A   1      39.385  28.778  32.603  1.00  0.00    -0.206 F 
ATOM     80  C   UNL A   1      36.356  30.687  32.083  1.00  0.00     0.022 A 
BRANCH  77  81
ATOM     81  S   UNL A   1      35.339  32.207  29.979  1.00  0.00     0.124 S 
ATOM     82  O   UNL A   1      36.198  33.290  29.511  1.00  0.00    -0.237 OA
ATOM     83  O   UNL A   1      34.760  31.354  28.947  1.00  0.00    -0.237 OA
ATOM     84  O   UNL A   1      34.435  32.555  31.074  1.00  0.00    -0.744 OA
ENDBRANCH  77  81
ENDBRANCH  50  74
BRANCH  62  85
ATOM     85  C   UNL A   1      44.491  33.432  29.119  1.00  0.00     0.023 A 
ATOM     86  C   UNL A   1      45.187  33.783  30.287  1.00  0.00     0.031 A 
ATOM     87  C   UNL A   1      44.253  34.432  28.158  1.00  0.00     0.131 A 
ATOM     88  C   UNL A   1      45.602  35.110  30.478  1.00  0.00     0.055 A 
ATOM     89  C   UNL A   1      44.708  35.739  28.333  1.00  0.00     0.041 A 
ATOM     90  F   UNL A   1      43.598  34.143  27.022  1.00  0.00    -0.206 F 
ATOM     91  C   UNL A   1      45.382  36.085  29.500  1.00  0.00     0.022 A 
BRANCH  88  92
ATOM     92  S   UNL A   1      46.414  35.556  32.037  1.00  0.00     0.124 S 
ATOM     93  O   UNL A   1      46.317  37.012  32.022  1.00  0.00    -0.237 OA
ATOM     94  O   UNL A   1      45.592  34.873  33.029  1.00  0.00    -0.237 OA
ATOM     95  O   UNL A   1      47.766  35.023  31.884  1.00  0.00    -0.744 OA
ENDBRANCH  88  92
ENDBRANCH  62  85
ENDBRANCH  36  37
ENDBRANCH  29  31
ENDBRANCH  28  29
ENDBRANCH  27  28
ENDBRANCH  26  27
ENDBRANCH  25  26
ENDBRANCH   1  25
TORSDOF 21
ENDMDL
MODEL 2
REMARK VINA RESULT:     -10.4      2.542      3.101
REMARK SMILES Cc1cc(Br)cc2c1O[C@H](C(F)(F)F)C(C(=O)OCCOCCOCCOC(=O)c1ccc(-c3c4nc(c(-c5cc(S(=O)(=O)[O-])ccc5F)c5ccc([nH]5)c(-c5cc(S(=O)(=O)[O-])ccc5F)c5nc(c(-c6cc(S(=O)(=O)[O-])ccc6F)c6ccc3[nH]6)C=C5)C=C4)cc1)=C2
REMARK SMILES IDX 23 1 22 2 21 3 20 4 19 5 18 6 16 7 17 8 15 9 1 10 2 11 3 12
REMARK SMILES IDX 8 13 4 14 7 15 9 16 5 17 6 18 93 19 10 20 11 21 12 22 13 23
REMARK SMILES IDX 14 24 24 25 25 26 26 27 27 28 28 29 29 30 30 31 31 32 92 33
REMARK SMILES IDX 32 34 91 35 33 36 34 37 35 38 85 39 36 40 90 41 84 42 86 43
REMARK SMILES IDX 37 44 89 45 83 46 82 47 38 49 70 50 50 51 69 52 51 53 54 54
REMARK SMILES IDX 68 55 87 56 52 57 53 58 67 60 88 61 55 62 39 63 40 64 48 65
REMARK SMILES IDX 41 66 47 67 49 68 46 69 42 70 43 71 44 72 45 73 71 74 72 75
REMARK SMILES IDX 80 76 73 77 79 78 81 79 78 80 74 81 75 82 76 83 77 84 56 85
REMARK SMILES IDX 57 86 65 87 58 88 64 89 66 90 63 91 59 92 60 93 61 94 62 95
REMARK H PARENT 86 48 54 59
REMARK Flexibility Score: inf
ROOT
ATOM      1  C   UNL A   1      35.364  20.446  24.965  1.00  0.00     0.188 C 
ENDROOT
BRANCH   1   2
ATOM      2  C   UNL A   1      34.189  19.448  24.872  1.00  0.00     0.188 C 
BRANCH   2   3
ATOM      3  O   UNL A   1      33.015  19.772  24.150  1.00  0.00    -0.376 OA
BRANCH   3   4
ATOM      4  C   UNL A   1      32.477  21.082  24.203  1.00  0.00     0.202 C 
BRANCH   4   5
ATOM      5  C   UNL A   1      31.784  21.581  25.470  1.00  0.00     0.261 C 
BRANCH   5   6
ATOM      6  O   UNL A   1      30.919  22.699  25.237  1.00  0.00    -0.460 OA
BRANCH   6   7
ATOM      7  C   UNL A   1      30.771  23.535  26.292  1.00  0.00     0.338 C 
ATOM      8  O   UNL A   1      30.571  23.216  27.454  1.00  0.00    -0.246 OA
BRANCH   7   9
ATOM      9  C   UNL A   1      30.989  24.925  25.858  1.00  0.00     0.087 C 
ATOM     10  C   UNL A   1      33.001  29.459  24.462  1.00  0.00     0.048 C 
ATOM     11  C   UNL A   1      31.699  28.731  24.278  1.00  0.00    -0.007 A 
ATOM     12  C   UNL A   1      30.722  29.314  23.454  1.00  0.00     0.023 A 
ATOM     13  C   UNL A   1      31.441  27.481  24.865  1.00  0.00     0.130 A 
ATOM     14  C   UNL A   1      29.512  28.661  23.227  1.00  0.00     0.019 A 
ATOM     15  C   UNL A   1      30.237  26.816  24.602  1.00  0.00     0.019 A 
ATOM     16  O   UNL A   1      32.412  26.965  25.678  1.00  0.00    -0.475 OA
ATOM     17  Br  UNL A   1      28.213  29.460  22.111  1.00  0.00    -0.051 Br
ATOM     18  C   UNL A   1      29.264  27.415  23.794  1.00  0.00     0.027 A 
ATOM     19  C   UNL A   1      30.021  25.474  25.116  1.00  0.00     0.027 C 
ATOM     20  C   UNL A   1      32.255  25.637  26.241  1.00  0.00     0.316 C 
BRANCH  20  21
ATOM     21  C   UNL A   1      33.515  24.829  25.900  1.00  0.00     0.430 C 
ATOM     22  F   UNL A   1      33.706  23.819  26.786  1.00  0.00    -0.167 F 
ATOM     23  F   UNL A   1      33.431  24.250  24.679  1.00  0.00    -0.167 F 
ATOM     24  F   UNL A   1      34.631  25.591  25.911  1.00  0.00    -0.167 F 
ENDBRANCH  20  21
ENDBRANCH   7   9
ENDBRANCH   6   7
ENDBRANCH   5   6
ENDBRANCH   4   5
ENDBRANCH   3   4
ENDBRANCH   2   3
ENDBRANCH   1   2
BRANCH   1  25
ATOM     25  O   UNL A   1      36.706  20.005  24.974  1.00  0.00    -0.376 OA
BRANCH  25  26
ATOM     26  C   UNL A   1      37.769  20.945  24.990  1.00  0.00     0.202 C 
BRANCH  26  27
ATOM     27  C   UNL A   1      39.158  20.604  25.537  1.00  0.00     0.261 C 
BRANCH  27  28
ATOM     28  O   UNL A   1      39.614  21.440  26.604  1.00  0.00    -0.460 OA
BRANCH  28  29
ATOM     29  C   UNL A   1      40.846  21.979  26.416  1.00  0.00     0.338 C 
ATOM     30  O   UNL A   1      41.751  21.529  25.735  1.00  0.00    -0.246 OA
BRANCH  29  31
ATOM     31  C   UNL A   1      40.883  23.321  27.023  1.00  0.00     0.060 A 
ATOM     32  C   UNL A   1      40.274  24.378  26.333  1.00  0.00     0.016 A 
ATOM     33  C   UNL A   1      41.544  23.544  28.231  1.00  0.00     0.016 A 
ATOM     34  C   UNL A   1      40.342  25.671  26.844  1.00  0.00     0.010 A 
ATOM     35  C   UNL A   1      41.637  24.847  28.726  1.00  0.00     0.010 A 
ATOM     36  C   UNL A   1      41.059  25.919  28.022  1.00  0.00    -0.014 A 
BRANCH  36  37
ATOM     37  C   UNL A   1      41.366  27.315  28.409  1.00  0.00     0.031 A 
ATOM     38  C   UNL A   1      42.798  27.772  28.348  1.00  0.00     0.074 A 
ATOM     39  C   UNL A   1      40.392  28.171  28.771  1.00  0.00     0.049 A 
ATOM     40  N   UNL A   1      43.313  28.925  28.680  1.00  0.00    -0.248 NA
ATOM     41  C   UNL A   1      43.777  26.797  27.837  1.00  0.00     0.031 C 
ATOM     42  C   UNL A   1      38.964  27.861  28.804  1.00  0.00     0.029 A 
ATOM     43  N   UNL A   1      40.463  29.480  29.177  1.00  0.00    -0.354 N 
ATOM     44  C   UNL A   1      44.673  28.822  28.410  1.00  0.00     0.074 A 
ATOM     45  C   UNL A   1      44.907  27.484  27.915  1.00  0.00     0.031 C 
ATOM     46  C   UNL A   1      38.292  28.953  29.213  1.00  0.00     0.029 A 
ATOM     47  C   UNL A   1      39.244  30.024  29.506  1.00  0.00     0.049 A 
ATOM     48  H   UNL A   1      41.308  29.982  29.228  1.00  0.00     0.167 HD
ATOM     49  C   UNL A   1      45.637  29.761  28.555  1.00  0.00     0.034 A 
ATOM     50  C   UNL A   1      38.939  31.238  30.008  1.00  0.00     0.034 A 
ATOM     51  C   UNL A   1      45.400  31.085  29.065  1.00  0.00     0.049 A 
ATOM     52  C   UNL A   1      40.049  32.228  30.272  1.00  0.00     0.074 A 
ATOM     53  C   UNL A   1      46.314  32.105  29.263  1.00  0.00     0.029 A 
ATOM     54  N   UNL A   1      44.165  31.572  29.464  1.00  0.00    -0.354 N 
ATOM     55  N   UNL A   1      41.337  32.103  30.046  1.00  0.00    -0.248 NA
ATOM     56  C   UNL A   1      39.667  33.517  30.867  1.00  0.00     0.031 C 
ATOM     57  C   UNL A   1      45.641  33.188  29.837  1.00  0.00     0.029 A 
ATOM     58  C   UNL A   1      44.298  32.867  29.934  1.00  0.00     0.049 A 
ATOM     59  H   UNL A   1      43.318  31.071  29.419  1.00  0.00     0.167 HD
ATOM     60  C   UNL A   1      41.912  33.307  30.448  1.00  0.00     0.074 A 
ATOM     61  C   UNL A   1      40.833  34.146  30.927  1.00  0.00     0.031 C 
ATOM     62  C   UNL A   1      43.213  33.686  30.418  1.00  0.00     0.034 A 
BRANCH  49  63
ATOM     63  C   UNL A   1      47.044  29.375  28.192  1.00  0.00     0.023 A 
ATOM     64  C   UNL A   1      47.905  28.785  29.131  1.00  0.00     0.031 A 
ATOM     65  C   UNL A   1      47.517  29.577  26.885  1.00  0.00     0.131 A 
ATOM     66  C   UNL A   1      49.211  28.440  28.754  1.00  0.00     0.055 A 
ATOM     67  C   UNL A   1      48.799  29.182  26.501  1.00  0.00     0.041 A 
ATOM     68  F   UNL A   1      46.738  30.159  25.959  1.00  0.00    -0.206 F 
ATOM     69  C   UNL A   1      49.655  28.612  27.440  1.00  0.00     0.022 A 
BRANCH  66  70
ATOM     70  S   UNL A   1      50.347  27.811  30.020  1.00  0.00     0.124 S 
ATOM     71  O   UNL A   1      50.601  26.457  29.539  1.00  0.00    -0.237 OA
ATOM     72  O   UNL A   1      51.468  28.740  29.932  1.00  0.00    -0.237 OA
ATOM     73  O   UNL A   1      49.565  27.894  31.252  1.00  0.00    -0.744 OA
ENDBRANCH  66  70
ENDBRANCH  49  63
BRANCH  50  74
ATOM     74  C   UNL A   1      37.529  31.585  30.344  1.00  0.00     0.023 A 
ATOM     75  C   UNL A   1      36.651  32.081  29.369  1.00  0.00     0.031 A 
ATOM     76  C   UNL A   1      37.057  31.472  31.665  1.00  0.00     0.131 A 
ATOM     77  C   UNL A   1      35.355  32.479  29.733  1.00  0.00     0.055 A 
ATOM     78  C   UNL A   1      35.753  31.828  32.014  1.00  0.00     0.041 A 
ATOM     79  F   UNL A   1      37.859  31.006  32.635  1.00  0.00    -0.206 F 
ATOM     80  C   UNL A   1      34.896  32.343  31.047  1.00  0.00     0.022 A 
BRANCH  77  81
ATOM     81  S   UNL A   1      34.286  33.229  28.474  1.00  0.00     0.124 S 
ATOM     82  O   UNL A   1      33.721  32.051  27.826  1.00  0.00    -0.237 OA
ATOM     83  O   UNL A   1      33.368  34.019  29.286  1.00  0.00    -0.237 OA
ATOM     84  O   UNL A   1      35.216  34.006  27.657  1.00  0.00    -0.744 OA
ENDBRANCH  77  81
ENDBRANCH  50  74
BRANCH  62  85
ATOM     85  C   UNL A   1      43.548  35.076  30.889  1.00  0.00     0.023 A 
ATOM     86  C   UNL A   1      43.614  36.158  29.997  1.00  0.00     0.031 A 
ATOM     87  C   UNL A   1      43.748  35.328  32.259  1.00  0.00     0.131 A 
ATOM     88  C   UNL A   1      43.897  37.444  30.481  1.00  0.00     0.055 A 
ATOM     89  C   UNL A   1      43.985  36.616  32.740  1.00  0.00     0.041 A 
ATOM     90  F   UNL A   1      43.689  34.328  33.152  1.00  0.00    -0.206 F 
ATOM     91  C   UNL A   1      44.065  37.682  31.849  1.00  0.00     0.022 A 
BRANCH  88  92
ATOM     92  S   UNL A   1      44.068  38.807  29.296  1.00  0.00     0.124 S 
ATOM     93  O   UNL A   1      42.928  39.650  29.639  1.00  0.00    -0.237 OA
ATOM     94  O   UNL A   1      45.382  39.348  29.625  1.00  0.00    -0.237 OA
ATOM     95  O   UNL A   1      43.982  38.144  27.996  1.00  0.00    -0.744 OA
ENDBRANCH  88  92
ENDBRANCH  62  85
ENDBRANCH  36  37
ENDBRANCH  29  31
ENDBRANCH  28  29
ENDBRANCH  27  28
ENDBRANCH  26  27
ENDBRANCH  25  26
ENDBRANCH   1  25
TORSDOF 21
ENDMDL
MODEL 3
REMARK VINA RESULT:     -10.3      2.975      4.434
REMARK SMILES Cc1cc(Br)cc2c1O[C@H](C(F)(F)F)C(C(=O)OCCOCCOCCOC(=O)c1ccc(-c3c4nc(c(-c5cc(S(=O)(=O)[O-])ccc5F)c5ccc([nH]5)c(-c5cc(S(=O)(=O)[O-])ccc5F)c5nc(c(-c6cc(S(=O)(=O)[O-])ccc6F)c6ccc3[nH]6)C=C5)C=C4)cc1)=C2
REMARK SMILES IDX 23 1 22 2 21 3 20 4 19 5 18 6 16 7 17 8 15 9 1 10 2 11 3 12
REMARK SMILES IDX 8 13 4 14 7 15 9 16 5 17 6 18 93 19 10 20 11 21 12 22 13 23
REMARK SMILES IDX 14 24 24 25 25 26 26 27 27 28 28 29 29 30 30 31 31 32 92 33
REMARK SMILES IDX 32 34 91 35 33 36 34 37 35 38 85 39 36 40 90 41 84 42 86 43
REMARK SMILES IDX 37 44 89 45 83 46 82 47 38 49 70 50 50 51 69 52 51 53 54 54
REMARK SMILES IDX 68 55 87 56 52 57 53 58 67 60 88 61 55 62 39 63 40 64 48 65
REMARK SMILES IDX 41 66 47 67 49 68 46 69 42 70 43 71 44 72 45 73 71 74 72 75
REMARK SMILES IDX 80 76 73 77 79 78 81 79 78 80 74 81 75 82 76 83 77 84 56 85
REMARK SMILES IDX 57 86 65 87 58 88 64 89 66 90 63 91 59 92 60 93 61 94 62 95
REMARK H PARENT 86 48 54 59
REMARK Flexibility Score: inf
ROOT
ATOM      1  C   UNL A   1      41.065  21.701  27.542  1.00  0.00     0.188 C 
ENDROOT
BRANCH   1   2
ATOM      2  C   UNL A   1      40.205  21.855  26.269  1.00  0.00     0.188 C 
BRANCH   2   3
ATOM      3  O   UNL A   1      38.824  21.540  26.281  1.00  0.00    -0.376 OA
BRANCH   3   4
ATOM      4  C   UNL A   1      38.138  21.268  25.071  1.00  0.00     0.202 C 
BRANCH   4   5
ATOM      5  C   UNL A   1      36.611  21.287  25.028  1.00  0.00     0.261 C 
BRANCH   5   6
ATOM      6  O   UNL A   1      36.058  22.597  25.207  1.00  0.00    -0.460 OA
BRANCH   6   7
ATOM      7  C   UNL A   1      35.534  23.152  24.088  1.00  0.00     0.338 C 
ATOM      8  O   UNL A   1      35.899  22.962  22.939  1.00  0.00    -0.246 OA
BRANCH   7   9
ATOM      9  C   UNL A   1      34.358  23.965  24.443  1.00  0.00     0.087 C 
ATOM     10  C   UNL A   1      29.687  25.650  25.817  1.00  0.00     0.048 C 
ATOM     11  C   UNL A   1      31.092  26.183  25.818  1.00  0.00    -0.007 A 
ATOM     12  C   UNL A   1      31.326  27.440  26.402  1.00  0.00     0.023 A 
ATOM     13  C   UNL A   1      32.177  25.460  25.296  1.00  0.00     0.130 A 
ATOM     14  C   UNL A   1      32.616  27.962  26.457  1.00  0.00     0.019 A 
ATOM     15  C   UNL A   1      33.476  25.977  25.387  1.00  0.00     0.019 A 
ATOM     16  O   UNL A   1      31.897  24.253  24.716  1.00  0.00    -0.475 OA
ATOM     17  Br  UNL A   1      32.909  29.651  27.251  1.00  0.00    -0.051 Br
ATOM     18  C   UNL A   1      33.693  27.237  25.955  1.00  0.00     0.027 A 
ATOM     19  C   UNL A   1      34.608  25.177  24.951  1.00  0.00     0.027 C 
ATOM     20  C   UNL A   1      32.978  23.410  24.241  1.00  0.00     0.316 C 
BRANCH  20  21
ATOM     21  C   UNL A   1      32.801  22.020  24.869  1.00  0.00     0.430 C 
ATOM     22  F   UNL A   1      33.361  21.056  24.095  1.00  0.00    -0.167 F 
ATOM     23  F   UNL A   1      33.401  21.930  26.080  1.00  0.00    -0.167 F 
ATOM     24  F   UNL A   1      31.500  21.696  25.037  1.00  0.00    -0.167 F 
ENDBRANCH  20  21
ENDBRANCH   7   9
ENDBRANCH   6   7
ENDBRANCH   5   6
ENDBRANCH   4   5
ENDBRANCH   3   4
ENDBRANCH   2   3
ENDBRANCH   1   2
BRANCH   1  25
ATOM     25  O   UNL A   1      42.128  20.772  27.606  1.00  0.00    -0.376 OA
BRANCH  25  26
ATOM     26  C   UNL A   1      41.901  19.404  27.305  1.00  0.00     0.202 C 
BRANCH  26  27
ATOM     27  C   UNL A   1      42.606  18.691  26.148  1.00  0.00     0.261 C 
BRANCH  27  28
ATOM     28  O   UNL A   1      42.851  19.498  24.993  1.00  0.00    -0.460 OA
BRANCH  28  29
ATOM     29  C   UNL A   1      44.159  19.611  24.647  1.00  0.00     0.338 C 
ATOM     30  O   UNL A   1      44.845  18.779  24.079  1.00  0.00    -0.246 OA
BRANCH  29  31
ATOM     31  C   UNL A   1      44.606  20.992  24.897  1.00  0.00     0.060 A 
ATOM     32  C   UNL A   1      45.173  21.290  26.144  1.00  0.00     0.016 A 
ATOM     33  C   UNL A   1      44.429  21.989  23.937  1.00  0.00     0.016 A 
ATOM     34  C   UNL A   1      45.550  22.597  26.441  1.00  0.00     0.010 A 
ATOM     35  C   UNL A   1      44.781  23.305  24.248  1.00  0.00     0.010 A 
ATOM     36  C   UNL A   1      45.319  23.618  25.510  1.00  0.00    -0.014 A 
BRANCH  36  37
ATOM     37  C   UNL A   1      45.457  25.031  25.929  1.00  0.00     0.031 A 
ATOM     38  C   UNL A   1      46.821  25.663  25.866  1.00  0.00     0.074 A 
ATOM     39  C   UNL A   1      44.391  25.752  26.322  1.00  0.00     0.049 A 
ATOM     40  N   UNL A   1      47.196  26.862  26.223  1.00  0.00    -0.248 NA
ATOM     41  C   UNL A   1      47.907  24.829  25.322  1.00  0.00     0.031 C 
ATOM     42  C   UNL A   1      43.012  25.269  26.362  1.00  0.00     0.029 A 
ATOM     43  N   UNL A   1      44.305  27.050  26.761  1.00  0.00    -0.354 N 
ATOM     44  C   UNL A   1      48.554  26.934  25.937  1.00  0.00     0.074 A 
ATOM     45  C   UNL A   1      48.945  25.647  25.406  1.00  0.00     0.031 C 
ATOM     46  C   UNL A   1      42.216  26.260  26.805  1.00  0.00     0.029 A 
ATOM     47  C   UNL A   1      43.033  27.432  27.115  1.00  0.00     0.049 A 
ATOM     48  H   UNL A   1      45.083  27.651  26.816  1.00  0.00     0.167 HD
ATOM     49  C   UNL A   1      49.397  27.980  26.096  1.00  0.00     0.034 A 
ATOM     50  C   UNL A   1      42.588  28.587  27.651  1.00  0.00     0.034 A 
ATOM     51  C   UNL A   1      49.007  29.252  26.642  1.00  0.00     0.049 A 
ATOM     52  C   UNL A   1      43.572  29.699  27.929  1.00  0.00     0.074 A 
ATOM     53  C   UNL A   1      49.791  30.372  26.858  1.00  0.00     0.029 A 
ATOM     54  N   UNL A   1      47.726  29.574  27.065  1.00  0.00    -0.354 N 
ATOM     55  N   UNL A   1      44.862  29.739  27.688  1.00  0.00    -0.248 NA
ATOM     56  C   UNL A   1      43.042  30.917  28.561  1.00  0.00     0.031 C 
ATOM     57  C   UNL A   1      48.998  31.350  27.465  1.00  0.00     0.029 A 
ATOM     58  C   UNL A   1      47.705  30.864  27.567  1.00  0.00     0.049 A 
ATOM     59  H   UNL A   1      46.947  28.974  27.015  1.00  0.00     0.167 HD
ATOM     60  C   UNL A   1      45.290  30.994  28.115  1.00  0.00     0.074 A 
ATOM     61  C   UNL A   1      44.123  31.683  28.626  1.00  0.00     0.031 C 
ATOM     62  C   UNL A   1      46.535  31.531  28.082  1.00  0.00     0.034 A 
BRANCH  49  63
ATOM     63  C   UNL A   1      50.836  27.779  25.711  1.00  0.00     0.023 A 
ATOM     64  C   UNL A   1      51.252  27.853  24.372  1.00  0.00     0.031 A 
ATOM     65  C   UNL A   1      51.806  27.539  26.699  1.00  0.00     0.131 A 
ATOM     66  C   UNL A   1      52.603  27.660  24.052  1.00  0.00     0.055 A 
ATOM     67  C   UNL A   1      53.157  27.402  26.381  1.00  0.00     0.041 A 
ATOM     68  F   UNL A   1      51.453  27.438  27.990  1.00  0.00    -0.206 F 
ATOM     69  C   UNL A   1      53.562  27.459  25.049  1.00  0.00     0.022 A 
BRANCH  66  70
ATOM     70  S   UNL A   1      53.090  27.619  22.306  1.00  0.00     0.124 S 
ATOM     71  O   UNL A   1      51.793  27.695  21.639  1.00  0.00    -0.237 OA
ATOM     72  O   UNL A   1      53.940  28.797  22.184  1.00  0.00    -0.237 OA
ATOM     73  O   UNL A   1      53.780  26.337  22.173  1.00  0.00    -0.744 OA
ENDBRANCH  66  70
ENDBRANCH  49  63
BRANCH  50  74
ATOM     74  C   UNL A   1      41.150  28.750  28.010  1.00  0.00     0.023 A 
ATOM     75  C   UNL A   1      40.698  28.516  29.318  1.00  0.00     0.031 A 
ATOM     76  C   UNL A   1      40.199  29.091  27.031  1.00  0.00     0.131 A 
ATOM     77  C   UNL A   1      39.327  28.594  29.607  1.00  0.00     0.055 A 
ATOM     78  C   UNL A   1      38.842  29.210  27.334  1.00  0.00     0.041 A 
ATOM     79  F   UNL A   1      40.580  29.321  25.765  1.00  0.00    -0.206 F 
ATOM     80  C   UNL A   1      38.397  28.952  28.626  1.00  0.00     0.022 A 
BRANCH  77  81
ATOM     81  S   UNL A   1      38.762  28.167  31.277  1.00  0.00     0.124 S 
ATOM     82  O   UNL A   1      38.533  26.732  31.154  1.00  0.00    -0.237 OA
ATOM     83  O   UNL A   1      39.900  28.570  32.095  1.00  0.00    -0.237 OA
ATOM     84  O   UNL A   1      37.558  28.979  31.447  1.00  0.00    -0.744 OA
ENDBRANCH  77  81
ENDBRANCH  50  74
BRANCH  62  85
ATOM     85  C   UNL A   1      46.702  32.941  28.585  1.00  0.00     0.023 A 
ATOM     86  C   UNL A   1      46.532  34.048  27.739  1.00  0.00     0.031 A 
ATOM     87  C   UNL A   1      46.981  33.176  29.944  1.00  0.00     0.131 A 
ATOM     88  C   UNL A   1      46.665  35.346  28.254  1.00  0.00     0.055 A 
ATOM     89  C   UNL A   1      47.068  34.469  30.461  1.00  0.00     0.041 A 
ATOM     90  F   UNL A   1      47.146  32.150  30.794  1.00  0.00    -0.206 F 
ATOM     91  C   UNL A   1      46.914  35.562  29.614  1.00  0.00     0.022 A 
BRANCH  88  92
ATOM     92  S   UNL A   1      46.533  36.755  27.121  1.00  0.00     0.124 S 
ATOM     93  O   UNL A   1      45.138  37.150  27.291  1.00  0.00    -0.237 OA
ATOM     94  O   UNL A   1      47.526  37.682  27.652  1.00  0.00    -0.237 OA
ATOM     95  O   UNL A   1      46.860  36.179  25.818  1.00  0.00    -0.744 OA
ENDBRANCH  88  92
ENDBRANCH  62  85
ENDBRANCH  36  37
ENDBRANCH  29  31
ENDBRANCH  28  29
ENDBRANCH  27  28
ENDBRANCH  26  27
ENDBRANCH  25  26
ENDBRANCH   1  25
TORSDOF 21
ENDMDL
