MODEL 1
REMARK VINA RESULT:      -9.8      0.000      0.000
REMARK SMILES O=C(OCCOCCOCCOC(=O)[C@@H](Cc1ccncc1)c1ccc(Cl)cc1)c1ccc(-c2c3nc(c(-c4cc(S(=O)(=O)[O-])ccc4F)c4ccc([nH]4)c(-c4cc(S(=O)(=O)[O-])ccc4F)c4nc(c(-c5cc(S(=O)(=O)[O-])ccc5F)c5ccc2[nH]5)C=C4)C=C3)cc1
REMARK SMILES IDX 7 1 6 2 5 3 4 4 3 5 2 6 1 7 30 8 31 9 92 10 32 11 91 12
REMARK SMILES IDX 33 13 34 14 35 15 85 16 36 17 90 18 84 19 86 20 37 21 89 22
REMARK SMILES IDX 83 23 82 24 38 26 70 27 50 28 69 29 51 30 54 31 68 32 87 33
REMARK SMILES IDX 52 34 53 35 67 37 88 38 55 39 39 40 40 41 48 42 41 43 47 44
REMARK SMILES IDX 49 45 46 46 42 47 43 48 44 49 45 50 71 51 72 52 80 53 73 54
REMARK SMILES IDX 79 55 81 56 78 57 74 58 75 59 76 60 77 61 56 62 57 63 65 64
REMARK SMILES IDX 58 65 64 66 66 67 63 68 59 69 60 70 61 71 62 72 8 73 9 74
REMARK SMILES IDX 10 75 11 76 12 77 13 78 14 79 15 80 16 81 17 82 18 83 22 84
REMARK SMILES IDX 19 85 21 86 20 87 23 88 24 89 29 90 25 91 28 92 26 93 27 94
REMARK H PARENT 86 25 54 36
REMARK Flexibility Score: inf
ROOT
ATOM      1  C   UNL A   1      40.985  21.409  27.695  1.00  0.00     0.188 C 
ENDROOT
BRANCH   1   2
ATOM      2  O   UNL A   1      42.067  20.622  27.182  1.00  0.00    -0.376 OA
BRANCH   2   3
ATOM      3  C   UNL A   1      41.665  19.623  26.242  1.00  0.00     0.202 C 
BRANCH   3   4
ATOM      4  C   UNL A   1      42.705  18.549  25.874  1.00  0.00     0.261 C 
BRANCH   4   5
ATOM      5  O   UNL A   1      43.474  18.815  24.690  1.00  0.00    -0.460 OA
BRANCH   5   6
ATOM      6  C   UNL A   1      44.559  19.600  24.488  1.00  0.00     0.338 C 
ATOM      7  O   UNL A   1      45.569  19.059  24.031  1.00  0.00    -0.246 OA
BRANCH   6   8
ATOM      8  C   UNL A   1      44.649  21.060  24.820  1.00  0.00     0.060 A 
ATOM      9  C   UNL A   1      44.058  22.094  24.102  1.00  0.00     0.016 A 
ATOM     10  C   UNL A   1      45.407  21.416  25.961  1.00  0.00     0.016 A 
ATOM     11  C   UNL A   1      44.244  23.425  24.472  1.00  0.00     0.010 A 
ATOM     12  C   UNL A   1      45.601  22.754  26.340  1.00  0.00     0.010 A 
ATOM     13  C   UNL A   1      45.033  23.769  25.575  1.00  0.00    -0.014 A 
BRANCH  13  14
ATOM     14  C   UNL A   1      45.368  25.207  25.711  1.00  0.00     0.031 A 
ATOM     15  C   UNL A   1      44.380  26.059  26.450  1.00  0.00     0.074 A 
ATOM     16  C   UNL A   1      46.603  25.654  25.413  1.00  0.00     0.049 A 
ATOM     17  N   UNL A   1      44.526  27.259  26.938  1.00  0.00    -0.248 NA
ATOM     18  C   UNL A   1      43.046  25.473  26.665  1.00  0.00     0.031 C 
ATOM     19  C   UNL A   1      47.614  24.886  24.694  1.00  0.00     0.029 A 
ATOM     20  N   UNL A   1      47.264  26.798  25.792  1.00  0.00    -0.354 N 
ATOM     21  C   UNL A   1      43.286  27.597  27.466  1.00  0.00     0.074 A 
ATOM     22  C   UNL A   1      42.422  26.450  27.303  1.00  0.00     0.031 C 
ATOM     23  C   UNL A   1      48.806  25.491  24.849  1.00  0.00     0.029 A 
ATOM     24  C   UNL A   1      48.633  26.732  25.599  1.00  0.00     0.049 A 
ATOM     25  H   UNL A   1      46.808  27.588  26.163  1.00  0.00     0.167 HD
ATOM     26  C   UNL A   1      42.898  28.791  27.974  1.00  0.00     0.034 A 
ATOM     27  C   UNL A   1      49.616  27.567  26.013  1.00  0.00     0.034 A 
ATOM     28  C   UNL A   1      43.781  29.925  28.057  1.00  0.00     0.049 A 
ATOM     29  C   UNL A   1      49.165  28.868  26.646  1.00  0.00     0.074 A 
ATOM     30  C   UNL A   1      43.488  31.234  28.388  1.00  0.00     0.029 A 
ATOM     31  N   UNL A   1      45.145  29.876  27.791  1.00  0.00    -0.354 N 
ATOM     32  N   UNL A   1      47.961  29.224  27.038  1.00  0.00    -0.248 NA
ATOM     33  C   UNL A   1      50.186  29.910  26.813  1.00  0.00     0.031 C 
ATOM     34  C   UNL A   1      44.661  31.988  28.257  1.00  0.00     0.029 A 
ATOM     35  C   UNL A   1      45.702  31.134  27.930  1.00  0.00     0.049 A 
ATOM     36  H   UNL A   1      45.642  29.064  27.541  1.00  0.00     0.167 HD
ATOM     37  C   UNL A   1      48.074  30.554  27.435  1.00  0.00     0.074 A 
ATOM     38  C   UNL A   1      49.478  30.896  27.342  1.00  0.00     0.031 C 
ATOM     39  C   UNL A   1      47.106  31.440  27.785  1.00  0.00     0.034 A 
BRANCH  26  40
ATOM     40  C   UNL A   1      41.432  28.950  28.285  1.00  0.00     0.023 A 
ATOM     41  C   UNL A   1      40.914  28.776  29.580  1.00  0.00     0.031 A 
ATOM     42  C   UNL A   1      40.526  29.179  27.233  1.00  0.00     0.131 A 
ATOM     43  C   UNL A   1      39.523  28.768  29.775  1.00  0.00     0.055 A 
ATOM     44  C   UNL A   1      39.150  29.249  27.449  1.00  0.00     0.041 A 
ATOM     45  F   UNL A   1      40.963  29.304  25.970  1.00  0.00    -0.206 F 
ATOM     46  C   UNL A   1      38.640  29.030  28.723  1.00  0.00     0.022 A 
BRANCH  43  47
ATOM     47  S   UNL A   1      38.874  28.257  31.390  1.00  0.00     0.124 S 
ATOM     48  O   UNL A   1      37.700  29.117  31.519  1.00  0.00    -0.237 OA
ATOM     49  O   UNL A   1      38.607  26.838  31.192  1.00  0.00    -0.237 OA
ATOM     50  O   UNL A   1      39.967  28.564  32.311  1.00  0.00    -0.744 OA
ENDBRANCH  43  47
ENDBRANCH  26  40
BRANCH  27  51
ATOM     51  C   UNL A   1      51.082  27.306  25.784  1.00  0.00     0.023 A 
ATOM     52  C   UNL A   1      51.691  27.556  24.534  1.00  0.00     0.031 A 
ATOM     53  C   UNL A   1      51.881  26.682  26.760  1.00  0.00     0.131 A 
ATOM     54  C   UNL A   1      53.012  27.133  24.283  1.00  0.00     0.055 A 
ATOM     55  C   UNL A   1      53.220  26.351  26.538  1.00  0.00     0.041 A 
ATOM     56  F   UNL A   1      51.369  26.355  27.957  1.00  0.00    -0.206 F 
ATOM     57  C   UNL A   1      53.788  26.559  25.289  1.00  0.00     0.022 A 
BRANCH  54  58
ATOM     58  S   UNL A   1      53.649  27.161  22.579  1.00  0.00     0.124 S 
ATOM     59  O   UNL A   1      52.769  26.202  21.920  1.00  0.00    -0.237 OA
ATOM     60  O   UNL A   1      53.471  28.558  22.205  1.00  0.00    -0.237 OA
ATOM     61  O   UNL A   1      55.038  26.727  22.724  1.00  0.00    -0.744 OA
ENDBRANCH  54  58
ENDBRANCH  27  51
BRANCH  39  62
ATOM     62  C   UNL A   1      47.552  32.856  28.039  1.00  0.00     0.023 A 
ATOM     63  C   UNL A   1      47.807  33.739  26.974  1.00  0.00     0.031 A 
ATOM     64  C   UNL A   1      47.737  33.325  29.350  1.00  0.00     0.131 A 
ATOM     65  C   UNL A   1      48.303  35.023  27.235  1.00  0.00     0.055 A 
ATOM     66  C   UNL A   1      48.166  34.628  29.606  1.00  0.00     0.041 A 
ATOM     67  F   UNL A   1      47.506  32.523  30.402  1.00  0.00    -0.206 F 
ATOM     68  C   UNL A   1      48.467  35.479  28.546  1.00  0.00     0.022 A 
BRANCH  65  69
ATOM     69  S   UNL A   1      48.834  36.050  25.838  1.00  0.00     0.124 S 
ATOM     70  O   UNL A   1      50.135  36.530  26.292  1.00  0.00    -0.237 OA
ATOM     71  O   UNL A   1      48.856  35.092  24.736  1.00  0.00    -0.237 OA
ATOM     72  O   UNL A   1      47.791  37.071  25.749  1.00  0.00    -0.744 OA
ENDBRANCH  65  69
ENDBRANCH  39  62
ENDBRANCH  13  14
ENDBRANCH   6   8
ENDBRANCH   5   6
ENDBRANCH   4   5
ENDBRANCH   3   4
ENDBRANCH   2   3
ENDBRANCH   1   2
BRANCH   1  73
ATOM     73  C   UNL A   1      40.035  21.886  26.597  1.00  0.00     0.188 C 
BRANCH  73  74
ATOM     74  O   UNL A   1      39.488  23.189  26.801  1.00  0.00    -0.376 OA
BRANCH  74  75
ATOM     75  C   UNL A   1      38.247  23.479  26.162  1.00  0.00     0.202 C 
BRANCH  75  76
ATOM     76  C   UNL A   1      37.576  22.286  25.484  1.00  0.00     0.261 C 
BRANCH  76  77
ATOM     77  O   UNL A   1      36.309  22.659  24.928  1.00  0.00    -0.463 OA
BRANCH  77  78
ATOM     78  C   UNL A   1      35.191  22.371  25.627  1.00  0.00     0.313 C 
ATOM     79  O   UNL A   1      35.130  22.363  26.855  1.00  0.00    -0.252 OA
BRANCH  78  80
ATOM     80  C   UNL A   1      34.010  22.030  24.724  1.00  0.00     0.133 C 
BRANCH  80  81
ATOM     81  C   UNL A   1      33.834  22.909  23.462  1.00  0.00     0.055 C 
BRANCH  81  82
ATOM     82  C   UNL A   1      33.382  24.353  23.543  1.00  0.00    -0.044 A 
ATOM     83  C   UNL A   1      32.738  24.810  24.694  1.00  0.00     0.024 A 
ATOM     84  C   UNL A   1      33.693  25.324  22.595  1.00  0.00     0.024 A 
ATOM     85  C   UNL A   1      32.474  26.159  24.879  1.00  0.00     0.111 A 
ATOM     86  C   UNL A   1      33.357  26.652  22.835  1.00  0.00     0.111 A 
ATOM     87  N   UNL A   1      32.778  27.096  23.965  1.00  0.00    -0.265 NA
ENDBRANCH  81  82
ENDBRANCH  80  81
BRANCH  80  88
ATOM     88  C   UNL A   1      33.836  20.534  24.516  1.00  0.00    -0.033 A 
ATOM     89  C   UNL A   1      32.567  20.015  24.212  1.00  0.00     0.006 A 
ATOM     90  C   UNL A   1      34.905  19.638  24.677  1.00  0.00     0.006 A 
ATOM     91  C   UNL A   1      32.374  18.637  24.087  1.00  0.00     0.021 A 
ATOM     92  C   UNL A   1      34.707  18.262  24.567  1.00  0.00     0.021 A 
ATOM     93  C   UNL A   1      33.443  17.765  24.274  1.00  0.00     0.041 A 
ATOM     94  Cl  UNL A   1      33.196  16.067  24.189  1.00  0.00    -0.084 Cl
ENDBRANCH  80  88
ENDBRANCH  78  80
ENDBRANCH  77  78
ENDBRANCH  76  77
ENDBRANCH  75  76
ENDBRANCH  74  75
ENDBRANCH  73  74
ENDBRANCH   1  73
TORSDOF 23
ENDMDL
MODEL 2
REMARK VINA RESULT:      -9.8      1.981      8.012
REMARK SMILES O=C(OCCOCCOCCOC(=O)[C@@H](Cc1ccncc1)c1ccc(Cl)cc1)c1ccc(-c2c3nc(c(-c4cc(S(=O)(=O)[O-])ccc4F)c4ccc([nH]4)c(-c4cc(S(=O)(=O)[O-])ccc4F)c4nc(c(-c5cc(S(=O)(=O)[O-])ccc5F)c5ccc2[nH]5)C=C4)C=C3)cc1
REMARK SMILES IDX 7 1 6 2 5 3 4 4 3 5 2 6 1 7 30 8 31 9 92 10 32 11 91 12
REMARK SMILES IDX 33 13 34 14 35 15 85 16 36 17 90 18 84 19 86 20 37 21 89 22
REMARK SMILES IDX 83 23 82 24 38 26 70 27 50 28 69 29 51 30 54 31 68 32 87 33
REMARK SMILES IDX 52 34 53 35 67 37 88 38 55 39 39 40 40 41 48 42 41 43 47 44
REMARK SMILES IDX 49 45 46 46 42 47 43 48 44 49 45 50 71 51 72 52 80 53 73 54
REMARK SMILES IDX 79 55 81 56 78 57 74 58 75 59 76 60 77 61 56 62 57 63 65 64
REMARK SMILES IDX 58 65 64 66 66 67 63 68 59 69 60 70 61 71 62 72 8 73 9 74
REMARK SMILES IDX 10 75 11 76 12 77 13 78 14 79 15 80 16 81 17 82 18 83 22 84
REMARK SMILES IDX 19 85 21 86 20 87 23 88 24 89 29 90 25 91 28 92 26 93 27 94
REMARK H PARENT 86 25 54 36
REMARK Flexibility Score: inf
ROOT
ATOM      1  C   UNL A   1      40.732  22.196  27.590  1.00  0.00     0.188 C 
ENDROOT
BRANCH   1   2
ATOM      2  O   UNL A   1      41.773  21.217  27.495  1.00  0.00    -0.376 OA
BRANCH   2   3
ATOM      3  C   UNL A   1      41.306  19.897  27.213  1.00  0.00     0.202 C 
BRANCH   3   4
ATOM      4  C   UNL A   1      42.279  18.950  26.485  1.00  0.00     0.261 C 
BRANCH   4   5
ATOM      5  O   UNL A   1      42.635  19.341  25.149  1.00  0.00    -0.460 OA
BRANCH   5   6
ATOM      6  C   UNL A   1      43.727  19.982  24.668  1.00  0.00     0.338 C 
ATOM      7  O   UNL A   1      44.383  19.403  23.799  1.00  0.00    -0.246 OA
BRANCH   6   8
ATOM      8  C   UNL A   1      44.229  21.315  25.137  1.00  0.00     0.060 A 
ATOM      9  C   UNL A   1      45.259  21.521  26.049  1.00  0.00     0.016 A 
ATOM     10  C   UNL A   1      43.593  22.464  24.611  1.00  0.00     0.016 A 
ATOM     11  C   UNL A   1      45.616  22.805  26.453  1.00  0.00     0.010 A 
ATOM     12  C   UNL A   1      43.945  23.763  25.014  1.00  0.00     0.010 A 
ATOM     13  C   UNL A   1      44.951  23.934  25.961  1.00  0.00    -0.014 A 
BRANCH  13  14
ATOM     14  C   UNL A   1      45.238  25.212  26.655  1.00  0.00     0.031 A 
ATOM     15  C   UNL A   1      46.533  25.885  26.312  1.00  0.00     0.074 A 
ATOM     16  C   UNL A   1      44.274  25.846  27.350  1.00  0.00     0.049 A 
ATOM     17  N   UNL A   1      46.919  27.106  26.555  1.00  0.00    -0.248 NA
ATOM     18  C   UNL A   1      47.525  25.064  25.596  1.00  0.00     0.031 C 
ATOM     19  C   UNL A   1      42.994  25.256  27.725  1.00  0.00     0.029 A 
ATOM     20  N   UNL A   1      44.162  27.158  27.745  1.00  0.00    -0.354 N 
ATOM     21  C   UNL A   1      48.221  27.185  26.076  1.00  0.00     0.074 A 
ATOM     22  C   UNL A   1      48.533  25.912  25.465  1.00  0.00     0.031 C 
ATOM     23  C   UNL A   1      42.164  26.239  28.117  1.00  0.00     0.029 A 
ATOM     24  C   UNL A   1      42.874  27.515  28.107  1.00  0.00     0.049 A 
ATOM     25  H   UNL A   1      44.923  27.783  27.768  1.00  0.00     0.167 HD
ATOM     26  C   UNL A   1      49.094  28.212  26.207  1.00  0.00     0.034 A 
ATOM     27  C   UNL A   1      42.345  28.734  28.366  1.00  0.00     0.034 A 
ATOM     28  C   UNL A   1      48.755  29.438  26.882  1.00  0.00     0.049 A 
ATOM     29  C   UNL A   1      43.326  29.887  28.439  1.00  0.00     0.074 A 
ATOM     30  C   UNL A   1      49.575  30.491  27.237  1.00  0.00     0.029 A 
ATOM     31  N   UNL A   1      47.474  29.766  27.314  1.00  0.00    -0.354 N 
ATOM     32  N   UNL A   1      44.594  29.919  28.089  1.00  0.00    -0.248 NA
ATOM     33  C   UNL A   1      42.830  31.142  29.019  1.00  0.00     0.031 C 
ATOM     34  C   UNL A   1      48.804  31.424  27.942  1.00  0.00     0.029 A 
ATOM     35  C   UNL A   1      47.487  30.994  27.950  1.00  0.00     0.049 A 
ATOM     36  H   UNL A   1      46.675  29.206  27.185  1.00  0.00     0.167 HD
ATOM     37  C   UNL A   1      45.057  31.175  28.470  1.00  0.00     0.074 A 
ATOM     38  C   UNL A   1      43.911  31.905  28.968  1.00  0.00     0.031 C 
ATOM     39  C   UNL A   1      46.323  31.669  28.472  1.00  0.00     0.034 A 
BRANCH  26  40
ATOM     40  C   UNL A   1      50.514  27.953  25.778  1.00  0.00     0.023 A 
ATOM     41  C   UNL A   1      50.913  27.996  24.431  1.00  0.00     0.031 A 
ATOM     42  C   UNL A   1      51.462  27.553  26.737  1.00  0.00     0.131 A 
ATOM     43  C   UNL A   1      52.207  27.579  24.077  1.00  0.00     0.055 A 
ATOM     44  C   UNL A   1      52.770  27.217  26.386  1.00  0.00     0.041 A 
ATOM     45  F   UNL A   1      51.121  27.448  28.032  1.00  0.00    -0.206 F 
ATOM     46  C   UNL A   1      53.145  27.216  25.047  1.00  0.00     0.022 A 
BRANCH  43  47
ATOM     47  S   UNL A   1      52.602  27.369  22.319  1.00  0.00     0.124 S 
ATOM     48  O   UNL A   1      53.610  26.311  22.369  1.00  0.00    -0.237 OA
ATOM     49  O   UNL A   1      51.315  26.996  21.745  1.00  0.00    -0.237 OA
ATOM     50  O   UNL A   1      53.106  28.682  21.920  1.00  0.00    -0.744 OA
ENDBRANCH  43  47
ENDBRANCH  26  40
BRANCH  27  51
ATOM     51  C   UNL A   1      40.888  28.961  28.674  1.00  0.00     0.023 A 
ATOM     52  C   UNL A   1      40.400  28.934  30.000  1.00  0.00     0.031 A 
ATOM     53  C   UNL A   1      39.928  29.081  27.652  1.00  0.00     0.131 A 
ATOM     54  C   UNL A   1      39.013  28.961  30.253  1.00  0.00     0.055 A 
ATOM     55  C   UNL A   1      38.561  29.205  27.913  1.00  0.00     0.041 A 
ATOM     56  F   UNL A   1      40.297  29.059  26.362  1.00  0.00    -0.206 F 
ATOM     57  C   UNL A   1      38.094  29.127  29.218  1.00  0.00     0.022 A 
BRANCH  54  58
ATOM     58  S   UNL A   1      38.405  28.587  31.926  1.00  0.00     0.124 S 
ATOM     59  O   UNL A   1      39.343  29.336  32.755  1.00  0.00    -0.237 OA
ATOM     60  O   UNL A   1      37.040  29.096  31.881  1.00  0.00    -0.237 OA
ATOM     61  O   UNL A   1      38.523  27.132  32.018  1.00  0.00    -0.744 OA
ENDBRANCH  54  58
ENDBRANCH  27  51
BRANCH  39  62
ATOM     62  C   UNL A   1      46.508  33.037  29.076  1.00  0.00     0.023 A 
ATOM     63  C   UNL A   1      46.770  33.195  30.449  1.00  0.00     0.031 A 
ATOM     64  C   UNL A   1      46.409  34.190  28.281  1.00  0.00     0.131 A 
ATOM     65  C   UNL A   1      46.853  34.480  31.000  1.00  0.00     0.055 A 
ATOM     66  C   UNL A   1      46.561  35.466  28.823  1.00  0.00     0.041 A 
ATOM     67  F   UNL A   1      46.162  34.094  26.964  1.00  0.00    -0.206 F 
ATOM     68  C   UNL A   1      46.768  35.618  30.192  1.00  0.00     0.022 A 
BRANCH  65  69
ATOM     69  S   UNL A   1      46.965  34.647  32.802  1.00  0.00     0.124 S 
ATOM     70  O   UNL A   1      47.798  33.504  33.161  1.00  0.00    -0.237 OA
ATOM     71  O   UNL A   1      47.583  35.960  32.957  1.00  0.00    -0.237 OA
ATOM     72  O   UNL A   1      45.573  34.562  33.240  1.00  0.00    -0.744 OA
ENDBRANCH  65  69
ENDBRANCH  39  62
ENDBRANCH  13  14
ENDBRANCH   6   8
ENDBRANCH   5   6
ENDBRANCH   4   5
ENDBRANCH   3   4
ENDBRANCH   2   3
ENDBRANCH   1   2
BRANCH   1  73
ATOM     73  C   UNL A   1      40.130  22.547  26.230  1.00  0.00     0.188 C 
BRANCH  73  74
ATOM     74  O   UNL A   1      38.769  22.157  26.056  1.00  0.00    -0.376 OA
BRANCH  74  75
ATOM     75  C   UNL A   1      37.786  23.189  26.101  1.00  0.00     0.202 C 
BRANCH  75  76
ATOM     76  C   UNL A   1      37.039  23.426  24.790  1.00  0.00     0.261 C 
BRANCH  76  77
ATOM     77  O   UNL A   1      35.634  23.194  24.952  1.00  0.00    -0.463 OA
BRANCH  77  78
ATOM     78  C   UNL A   1      34.908  22.867  23.863  1.00  0.00     0.313 C 
ATOM     79  O   UNL A   1      35.281  23.053  22.706  1.00  0.00    -0.252 OA
BRANCH  78  80
ATOM     80  C   UNL A   1      33.555  22.261  24.224  1.00  0.00     0.133 C 
BRANCH  80  81
ATOM     81  C   UNL A   1      32.312  22.921  23.579  1.00  0.00     0.055 C 
BRANCH  81  82
ATOM     82  C   UNL A   1      31.615  24.111  24.207  1.00  0.00    -0.044 A 
ATOM     83  C   UNL A   1      30.766  24.902  23.431  1.00  0.00     0.024 A 
ATOM     84  C   UNL A   1      31.642  24.404  25.568  1.00  0.00     0.024 A 
ATOM     85  C   UNL A   1      29.973  25.882  24.008  1.00  0.00     0.111 A 
ATOM     86  C   UNL A   1      30.849  25.432  26.065  1.00  0.00     0.111 A 
ATOM     87  N   UNL A   1      29.996  26.161  25.323  1.00  0.00    -0.265 NA
ENDBRANCH  81  82
ENDBRANCH  80  81
BRANCH  80  88
ATOM     88  C   UNL A   1      33.568  20.741  24.225  1.00  0.00    -0.033 A 
ATOM     89  C   UNL A   1      34.679  20.053  24.739  1.00  0.00     0.006 A 
ATOM     90  C   UNL A   1      32.517  19.995  23.667  1.00  0.00     0.006 A 
ATOM     91  C   UNL A   1      34.740  18.658  24.684  1.00  0.00     0.021 A 
ATOM     92  C   UNL A   1      32.586  18.603  23.600  1.00  0.00     0.021 A 
ATOM     93  C   UNL A   1      33.697  17.939  24.106  1.00  0.00     0.041 A 
ATOM     94  Cl  UNL A   1      33.797  16.229  23.974  1.00  0.00    -0.084 Cl
ENDBRANCH  80  88
ENDBRANCH  78  80
ENDBRANCH  77  78
ENDBRANCH  76  77
ENDBRANCH  75  76
ENDBRANCH  74  75
ENDBRANCH  73  74
ENDBRANCH   1  73
TORSDOF 23
ENDMDL
MODEL 3
REMARK VINA RESULT:      -9.6      2.620      3.790
REMARK SMILES O=C(OCCOCCOCCOC(=O)[C@@H](Cc1ccncc1)c1ccc(Cl)cc1)c1ccc(-c2c3nc(c(-c4cc(S(=O)(=O)[O-])ccc4F)c4ccc([nH]4)c(-c4cc(S(=O)(=O)[O-])ccc4F)c4nc(c(-c5cc(S(=O)(=O)[O-])ccc5F)c5ccc2[nH]5)C=C4)C=C3)cc1
REMARK SMILES IDX 7 1 6 2 5 3 4 4 3 5 2 6 1 7 30 8 31 9 92 10 32 11 91 12
REMARK SMILES IDX 33 13 34 14 35 15 85 16 36 17 90 18 84 19 86 20 37 21 89 22
REMARK SMILES IDX 83 23 82 24 38 26 70 27 50 28 69 29 51 30 54 31 68 32 87 33
REMARK SMILES IDX 52 34 53 35 67 37 88 38 55 39 39 40 40 41 48 42 41 43 47 44
REMARK SMILES IDX 49 45 46 46 42 47 43 48 44 49 45 50 71 51 72 52 80 53 73 54
REMARK SMILES IDX 79 55 81 56 78 57 74 58 75 59 76 60 77 61 56 62 57 63 65 64
REMARK SMILES IDX 58 65 64 66 66 67 63 68 59 69 60 70 61 71 62 72 8 73 9 74
REMARK SMILES IDX 10 75 11 76 12 77 13 78 14 79 15 80 16 81 17 82 18 83 22 84
REMARK SMILES IDX 19 85 21 86 20 87 23 88 24 89 29 90 25 91 28 92 26 93 27 94
REMARK H PARENT 86 25 54 36
REMARK Flexibility Score: inf
ROOT
ATOM      1  C   UNL A   1      39.741  23.108  27.210  1.00  0.00     0.188 C 
ENDROOT
BRANCH   1   2
ATOM      2  O   UNL A   1      40.798  22.426  26.523  1.00  0.00    -0.376 OA
BRANCH   2   3
ATOM      3  C   UNL A   1      40.674  21.003  26.532  1.00  0.00     0.202 C 
BRANCH   3   4
ATOM      4  C   UNL A   1      41.819  20.205  27.185  1.00  0.00     0.261 C 
BRANCH   4   5
ATOM      5  O   UNL A   1      42.718  19.556  26.271  1.00  0.00    -0.460 OA
BRANCH   5   6
ATOM      6  C   UNL A   1      43.624  20.062  25.400  1.00  0.00     0.338 C 
ATOM      7  O   UNL A   1      44.034  19.309  24.513  1.00  0.00    -0.246 OA
BRANCH   6   8
ATOM      8  C   UNL A   1      44.205  21.443  25.456  1.00  0.00     0.060 A 
ATOM      9  C   UNL A   1      45.024  21.941  26.464  1.00  0.00     0.016 A 
ATOM     10  C   UNL A   1      43.887  22.319  24.391  1.00  0.00     0.016 A 
ATOM     11  C   UNL A   1      45.472  23.260  26.441  1.00  0.00     0.010 A 
ATOM     12  C   UNL A   1      44.333  23.650  24.359  1.00  0.00     0.010 A 
ATOM     13  C   UNL A   1      45.115  24.132  25.406  1.00  0.00    -0.014 A 
BRANCH  13  14
ATOM     14  C   UNL A   1      45.430  25.564  25.624  1.00  0.00     0.031 A 
ATOM     15  C   UNL A   1      44.443  26.353  26.431  1.00  0.00     0.074 A 
ATOM     16  C   UNL A   1      46.653  26.048  25.333  1.00  0.00     0.049 A 
ATOM     17  N   UNL A   1      44.580  27.523  26.989  1.00  0.00    -0.248 NA
ATOM     18  C   UNL A   1      43.122  25.733  26.632  1.00  0.00     0.031 C 
ATOM     19  C   UNL A   1      47.663  25.342  24.551  1.00  0.00     0.029 A 
ATOM     20  N   UNL A   1      47.303  27.178  25.770  1.00  0.00    -0.354 N 
ATOM     21  C   UNL A   1      43.344  27.808  27.558  1.00  0.00     0.074 A 
ATOM     22  C   UNL A   1      42.495  26.659  27.339  1.00  0.00     0.031 C 
ATOM     23  C   UNL A   1      48.848  25.956  24.722  1.00  0.00     0.029 A 
ATOM     24  C   UNL A   1      48.670  27.145  25.550  1.00  0.00     0.049 A 
ATOM     25  H   UNL A   1      46.841  27.936  26.197  1.00  0.00     0.167 HD
ATOM     26  C   UNL A   1      42.947  28.962  28.145  1.00  0.00     0.034 A 
ATOM     27  C   UNL A   1      49.646  27.970  25.998  1.00  0.00     0.034 A 
ATOM     28  C   UNL A   1      43.814  30.103  28.282  1.00  0.00     0.049 A 
ATOM     29  C   UNL A   1      49.187  29.223  26.717  1.00  0.00     0.074 A 
ATOM     30  C   UNL A   1      43.507  31.384  28.698  1.00  0.00     0.029 A 
ATOM     31  N   UNL A   1      45.174  30.093  27.991  1.00  0.00    -0.354 N 
ATOM     32  N   UNL A   1      47.985  29.534  27.151  1.00  0.00    -0.248 NA
ATOM     33  C   UNL A   1      50.195  30.269  26.930  1.00  0.00     0.031 C 
ATOM     34  C   UNL A   1      44.666  32.164  28.594  1.00  0.00     0.029 A 
ATOM     35  C   UNL A   1      45.715  31.349  28.197  1.00  0.00     0.049 A 
ATOM     36  H   UNL A   1      45.679  29.305  27.683  1.00  0.00     0.167 HD
ATOM     37  C   UNL A   1      48.085  30.839  27.627  1.00  0.00     0.074 A 
ATOM     38  C   UNL A   1      49.482  31.209  27.531  1.00  0.00     0.031 C 
ATOM     39  C   UNL A   1      47.110  31.686  28.047  1.00  0.00     0.034 A 
BRANCH  26  40
ATOM     40  C   UNL A   1      41.485  29.077  28.490  1.00  0.00     0.023 A 
ATOM     41  C   UNL A   1      41.014  28.991  29.811  1.00  0.00     0.031 A 
ATOM     42  C   UNL A   1      40.539  29.172  27.453  1.00  0.00     0.131 A 
ATOM     43  C   UNL A   1      39.632  28.934  30.052  1.00  0.00     0.055 A 
ATOM     44  C   UNL A   1      39.167  29.196  27.708  1.00  0.00     0.041 A 
ATOM     45  F   UNL A   1      40.932  29.208  26.170  1.00  0.00    -0.206 F 
ATOM     46  C   UNL A   1      38.706  29.063  29.013  1.00  0.00     0.022 A 
BRANCH  43  47
ATOM     47  S   UNL A   1      39.057  28.534  31.726  1.00  0.00     0.124 S 
ATOM     48  O   UNL A   1      40.315  28.509  32.470  1.00  0.00    -0.237 OA
ATOM     49  O   UNL A   1      38.159  29.643  32.028  1.00  0.00    -0.237 OA
ATOM     50  O   UNL A   1      38.410  27.233  31.565  1.00  0.00    -0.744 OA
ENDBRANCH  43  47
ENDBRANCH  26  40
BRANCH  27  51
ATOM     51  C   UNL A   1      51.112  27.747  25.728  1.00  0.00     0.023 A 
ATOM     52  C   UNL A   1      51.985  27.273  26.734  1.00  0.00     0.031 A 
ATOM     53  C   UNL A   1      51.703  28.122  24.507  1.00  0.00     0.131 A 
ATOM     54  C   UNL A   1      53.377  27.249  26.520  1.00  0.00     0.055 A 
ATOM     55  C   UNL A   1      53.074  28.005  24.267  1.00  0.00     0.041 A 
ATOM     56  F   UNL A   1      50.958  28.636  23.516  1.00  0.00    -0.206 F 
ATOM     57  C   UNL A   1      53.923  27.584  25.282  1.00  0.00     0.022 A 
BRANCH  54  58
ATOM     58  S   UNL A   1      54.491  26.960  27.929  1.00  0.00     0.124 S 
ATOM     59  O   UNL A   1      53.615  26.251  28.856  1.00  0.00    -0.237 OA
ATOM     60  O   UNL A   1      55.558  26.171  27.324  1.00  0.00    -0.237 OA
ATOM     61  O   UNL A   1      54.874  28.308  28.348  1.00  0.00    -0.744 OA
ENDBRANCH  54  58
ENDBRANCH  27  51
BRANCH  39  62
ATOM     62  C   UNL A   1      47.539  33.091  28.380  1.00  0.00     0.023 A 
ATOM     63  C   UNL A   1      47.911  33.445  29.690  1.00  0.00     0.031 A 
ATOM     64  C   UNL A   1      47.565  34.086  27.390  1.00  0.00     0.131 A 
ATOM     65  C   UNL A   1      48.222  34.777  29.991  1.00  0.00     0.055 A 
ATOM     66  C   UNL A   1      47.943  35.397  27.681  1.00  0.00     0.041 A 
ATOM     67  F   UNL A   1      47.222  33.799  26.124  1.00  0.00    -0.206 F 
ATOM     68  C   UNL A   1      48.258  35.753  28.990  1.00  0.00     0.022 A 
BRANCH  65  69
ATOM     69  S   UNL A   1      48.475  35.240  31.726  1.00  0.00     0.124 S 
ATOM     70  O   UNL A   1      49.609  36.153  31.634  1.00  0.00    -0.237 OA
ATOM     71  O   UNL A   1      47.195  35.848  32.077  1.00  0.00    -0.237 OA
ATOM     72  O   UNL A   1      48.756  33.964  32.382  1.00  0.00    -0.744 OA
ENDBRANCH  65  69
ENDBRANCH  39  62
ENDBRANCH  13  14
ENDBRANCH   6   8
ENDBRANCH   5   6
ENDBRANCH   4   5
ENDBRANCH   3   4
ENDBRANCH   2   3
ENDBRANCH   1   2
BRANCH   1  73
ATOM     73  C   UNL A   1      38.819  23.869  26.258  1.00  0.00     0.188 C 
BRANCH  73  74
ATOM     74  O   UNL A   1      37.556  23.249  26.020  1.00  0.00    -0.376 OA
BRANCH  74  75
ATOM     75  C   UNL A   1      37.541  22.120  25.149  1.00  0.00     0.202 C 
BRANCH  75  76
ATOM     76  C   UNL A   1      36.354  21.177  25.336  1.00  0.00     0.261 C 
BRANCH  76  77
ATOM     77  O   UNL A   1      35.159  21.910  25.629  1.00  0.00    -0.463 OA
BRANCH  77  78
ATOM     78  C   UNL A   1      33.997  21.230  25.729  1.00  0.00     0.313 C 
ATOM     79  O   UNL A   1      33.527  20.823  26.790  1.00  0.00    -0.252 OA
BRANCH  78  80
ATOM     80  C   UNL A   1      33.338  21.000  24.373  1.00  0.00     0.133 C 
BRANCH  80  81
ATOM     81  C   UNL A   1      32.342  19.817  24.285  1.00  0.00     0.055 C 
BRANCH  81  82
ATOM     82  C   UNL A   1      32.792  18.374  24.405  1.00  0.00    -0.044 A 
ATOM     83  C   UNL A   1      33.414  17.754  23.320  1.00  0.00     0.024 A 
ATOM     84  C   UNL A   1      32.763  17.643  25.589  1.00  0.00     0.024 A 
ATOM     85  C   UNL A   1      33.999  16.504  23.449  1.00  0.00     0.111 A 
ATOM     86  C   UNL A   1      33.336  16.376  25.627  1.00  0.00     0.111 A 
ATOM     87  N   UNL A   1      33.976  15.800  24.594  1.00  0.00    -0.265 NA
ENDBRANCH  81  82
ENDBRANCH  80  81
BRANCH  80  88
ATOM     88  C   UNL A   1      32.890  22.289  23.705  1.00  0.00    -0.033 A 
ATOM     89  C   UNL A   1      33.805  23.035  22.944  1.00  0.00     0.006 A 
ATOM     90  C   UNL A   1      31.591  22.795  23.875  1.00  0.00     0.006 A 
ATOM     91  C   UNL A   1      33.432  24.258  22.381  1.00  0.00     0.021 A 
ATOM     92  C   UNL A   1      31.225  24.023  23.325  1.00  0.00     0.021 A 
ATOM     93  C   UNL A   1      32.146  24.752  22.581  1.00  0.00     0.041 A 
ATOM     94  Cl  UNL A   1      31.703  26.287  21.949  1.00  0.00    -0.084 Cl
ENDBRANCH  80  88
ENDBRANCH  78  80
ENDBRANCH  77  78
ENDBRANCH  76  77
ENDBRANCH  75  76
ENDBRANCH  74  75
ENDBRANCH  73  74
ENDBRANCH   1  73
TORSDOF 23
ENDMDL
