MODEL 1
REMARK VINA RESULT:     -10.7      0.000      0.000
REMARK SMILES COc1nc(-c2ccccc2)nc(C)c1CC(=O)OCCOCCOCCOC(=O)c1ccc(-c2c3nc(c(-c4cc(S(=O)(=O)[O-])ccc4F)c4ccc([nH]4)c(-c4cc(S(=O)(=O)[O-])ccc4F)c4nc(c(-c5cc(S(=O)(=O)[O-])ccc5F)c5ccc2[nH]5)C=C4)C=C3)cc1
REMARK SMILES IDX 24 1 23 2 22 3 21 4 20 5 19 6 17 7 18 8 16 9 15 10 3 11 4 12
REMARK SMILES IDX 5 13 13 14 12 15 14 16 2 17 1 18 6 19 7 20 11 21 8 22 10 23
REMARK SMILES IDX 9 24 25 25 26 26 27 27 28 28 29 29 30 30 31 31 32 32 93 33
REMARK SMILES IDX 33 34 92 35 34 36 35 37 36 38 86 39 37 40 91 41 85 42 87 43
REMARK SMILES IDX 38 44 90 45 84 46 83 47 39 49 71 50 51 51 70 52 52 53 55 54
REMARK SMILES IDX 69 55 88 56 53 57 54 58 68 60 89 61 56 62 40 63 41 64 49 65
REMARK SMILES IDX 42 66 48 67 50 68 47 69 43 70 44 71 45 72 46 73 72 74 73 75
REMARK SMILES IDX 81 76 74 77 80 78 82 79 79 80 75 81 76 82 77 83 78 84 57 85
REMARK SMILES IDX 58 86 66 87 59 88 65 89 67 90 64 91 60 92 61 93 62 94 63 95
REMARK H PARENT 87 48 55 59
REMARK Flexibility Score: inf
ROOT
ATOM      1  C   UNL A   1      34.972  20.844  24.948  1.00  0.00     0.188 C 
ENDROOT
BRANCH   1   2
ATOM      2  C   UNL A   1      33.443  20.661  24.879  1.00  0.00     0.188 C 
BRANCH   2   3
ATOM      3  O   UNL A   1      32.732  21.214  23.782  1.00  0.00    -0.376 OA
BRANCH   3   4
ATOM      4  C   UNL A   1      33.246  22.396  23.187  1.00  0.00     0.202 C 
BRANCH   4   5
ATOM      5  C   UNL A   1      32.770  23.741  23.761  1.00  0.00     0.261 C 
BRANCH   5   6
ATOM      6  O   UNL A   1      33.827  24.597  24.273  1.00  0.00    -0.463 OA
BRANCH   6   7
ATOM      7  C   UNL A   1      33.736  24.956  25.582  1.00  0.00     0.310 C 
ATOM      8  O   UNL A   1      33.595  24.145  26.493  1.00  0.00    -0.252 OA
BRANCH   7   9
ATOM      9  C   UNL A   1      33.733  26.454  25.872  1.00  0.00     0.165 C 
BRANCH   9  10
ATOM     10  C   UNL A   1      32.685  27.324  25.228  1.00  0.00     0.047 A 
ATOM     11  C   UNL A   1      32.683  27.640  23.871  1.00  0.00     0.220 A 
ATOM     12  N   UNL A   1      31.728  28.373  23.253  1.00  0.00    -0.193 NA
ATOM     13  C   UNL A   1      30.755  28.855  24.040  1.00  0.00     0.163 A 
ATOM     14  C   UNL A   1      31.689  27.965  25.955  1.00  0.00     0.049 A 
ATOM     15  N   UNL A   1      30.723  28.709  25.376  1.00  0.00    -0.233 NA
ATOM     16  C   UNL A   1      31.740  28.111  27.448  1.00  0.00     0.067 C 
BRANCH  11  17
ATOM     17  O   UNL A   1      33.858  27.545  23.156  1.00  0.00    -0.481 OA
ATOM     18  C   UNL A   1      34.407  28.778  22.728  1.00  0.00     0.280 C 
ENDBRANCH  11  17
BRANCH  13  19
ATOM     19  C   UNL A   1      29.689  29.701  23.486  1.00  0.00     0.019 A 
ATOM     20  C   UNL A   1      28.847  29.223  22.463  1.00  0.00     0.012 A 
ATOM     21  C   UNL A   1      29.564  31.053  23.851  1.00  0.00     0.012 A 
ATOM     22  C   UNL A   1      27.934  30.064  21.814  1.00  0.00     0.001 A 
ATOM     23  C   UNL A   1      28.658  31.898  23.197  1.00  0.00     0.001 A 
ATOM     24  C   UNL A   1      27.847  31.406  22.176  1.00  0.00     0.000 A 
ENDBRANCH  13  19
ENDBRANCH   9  10
ENDBRANCH   7   9
ENDBRANCH   6   7
ENDBRANCH   5   6
ENDBRANCH   4   5
ENDBRANCH   3   4
ENDBRANCH   2   3
ENDBRANCH   1   2
BRANCH   1  25
ATOM     25  O   UNL A   1      35.826  19.716  25.011  1.00  0.00    -0.376 OA
BRANCH  25  26
ATOM     26  C   UNL A   1      37.210  19.924  24.821  1.00  0.00     0.202 C 
BRANCH  26  27
ATOM     27  C   UNL A   1      37.746  21.360  24.877  1.00  0.00     0.261 C 
BRANCH  27  28
ATOM     28  O   UNL A   1      38.031  21.869  26.193  1.00  0.00    -0.460 OA
BRANCH  28  29
ATOM     29  C   UNL A   1      39.352  22.029  26.480  1.00  0.00     0.338 C 
ATOM     30  O   UNL A   1      40.240  21.213  26.259  1.00  0.00    -0.246 OA
BRANCH  29  31
ATOM     31  C   UNL A   1      39.615  23.383  27.017  1.00  0.00     0.060 A 
ATOM     32  C   UNL A   1      38.880  24.461  26.509  1.00  0.00     0.016 A 
ATOM     33  C   UNL A   1      40.609  23.613  27.974  1.00  0.00     0.016 A 
ATOM     34  C   UNL A   1      39.110  25.760  26.979  1.00  0.00     0.010 A 
ATOM     35  C   UNL A   1      40.869  24.920  28.413  1.00  0.00     0.010 A 
ATOM     36  C   UNL A   1      40.123  26.004  27.916  1.00  0.00    -0.014 A 
BRANCH  36  37
ATOM     37  C   UNL A   1      40.519  27.406  28.218  1.00  0.00     0.031 A 
ATOM     38  C   UNL A   1      41.953  27.803  27.988  1.00  0.00     0.074 A 
ATOM     39  C   UNL A   1      39.628  28.324  28.641  1.00  0.00     0.049 A 
ATOM     40  N   UNL A   1      42.542  28.955  28.176  1.00  0.00    -0.248 NA
ATOM     41  C   UNL A   1      42.838  26.750  27.466  1.00  0.00     0.031 C 
ATOM     42  C   UNL A   1      38.200  28.086  28.832  1.00  0.00     0.029 A 
ATOM     43  N   UNL A   1      39.794  29.647  28.980  1.00  0.00    -0.354 N 
ATOM     44  C   UNL A   1      43.863  28.772  27.781  1.00  0.00     0.074 A 
ATOM     45  C   UNL A   1      43.992  27.389  27.375  1.00  0.00     0.031 C 
ATOM     46  C   UNL A   1      37.620  29.224  29.258  1.00  0.00     0.029 A 
ATOM     47  C   UNL A   1      38.639  30.263  29.410  1.00  0.00     0.049 A 
ATOM     48  H   UNL A   1      40.660  30.112  28.921  1.00  0.00     0.167 HD
ATOM     49  C   UNL A   1      44.875  29.674  27.758  1.00  0.00     0.034 A 
ATOM     50  C   UNL A   1      38.435  31.510  29.891  1.00  0.00     0.034 A 
ATOM     51  C   UNL A   1      44.745  31.037  28.212  1.00  0.00     0.049 A 
ATOM     52  C   UNL A   1      39.612  32.461  29.980  1.00  0.00     0.074 A 
ATOM     53  C   UNL A   1      45.714  32.024  28.265  1.00  0.00     0.029 A 
ATOM     54  N   UNL A   1      43.578  31.601  28.716  1.00  0.00    -0.354 N 
ATOM     55  N   UNL A   1      40.860  32.273  29.611  1.00  0.00    -0.248 NA
ATOM     56  C   UNL A   1      39.352  33.792  30.546  1.00  0.00     0.031 C 
ATOM     57  C   UNL A   1      45.158  33.152  28.877  1.00  0.00     0.029 A 
ATOM     58  C   UNL A   1      43.815  32.907  29.116  1.00  0.00     0.049 A 
ATOM     59  H   UNL A   1      42.711  31.140  28.779  1.00  0.00     0.167 HD
ATOM     60  C   UNL A   1      41.518  33.476  29.864  1.00  0.00     0.074 A 
ATOM     61  C   UNL A   1      40.530  34.384  30.406  1.00  0.00     0.031 C 
ATOM     62  C   UNL A   1      42.821  33.805  29.660  1.00  0.00     0.034 A 
BRANCH  49  63
ATOM     63  C   UNL A   1      46.225  29.181  27.297  1.00  0.00     0.023 A 
ATOM     64  C   UNL A   1      46.455  28.779  25.969  1.00  0.00     0.031 A 
ATOM     65  C   UNL A   1      47.284  29.062  28.215  1.00  0.00     0.131 A 
ATOM     66  C   UNL A   1      47.688  28.208  25.616  1.00  0.00     0.055 A 
ATOM     67  C   UNL A   1      48.536  28.573  27.836  1.00  0.00     0.041 A 
ATOM     68  F   UNL A   1      47.116  29.403  29.502  1.00  0.00    -0.206 F 
ATOM     69  C   UNL A   1      48.738  28.127  26.533  1.00  0.00     0.022 A 
BRANCH  66  70
ATOM     70  S   UNL A   1      47.847  27.425  23.986  1.00  0.00     0.124 S 
ATOM     71  O   UNL A   1      47.176  26.147  24.207  1.00  0.00    -0.237 OA
ATOM     72  O   UNL A   1      47.158  28.369  23.115  1.00  0.00    -0.237 OA
ATOM     73  O   UNL A   1      49.293  27.336  23.790  1.00  0.00    -0.744 OA
ENDBRANCH  66  70
ENDBRANCH  49  63
BRANCH  50  74
ATOM     74  C   UNL A   1      37.088  31.934  30.387  1.00  0.00     0.023 A 
ATOM     75  C   UNL A   1      36.169  32.596  29.554  1.00  0.00     0.031 A 
ATOM     76  C   UNL A   1      36.735  31.761  31.739  1.00  0.00     0.131 A 
ATOM     77  C   UNL A   1      34.972  33.103  30.090  1.00  0.00     0.055 A 
ATOM     78  C   UNL A   1      35.516  32.213  32.251  1.00  0.00     0.041 A 
ATOM     79  F   UNL A   1      37.576  31.152  32.589  1.00  0.00    -0.206 F 
ATOM     80  C   UNL A   1      34.633  32.902  31.428  1.00  0.00     0.022 A 
BRANCH  77  81
ATOM     81  S   UNL A   1      33.908  34.133  29.037  1.00  0.00     0.124 S 
ATOM     82  O   UNL A   1      32.963  34.672  30.008  1.00  0.00    -0.237 OA
ATOM     83  O   UNL A   1      34.865  35.080  28.474  1.00  0.00    -0.237 OA
ATOM     84  O   UNL A   1      33.347  33.177  28.083  1.00  0.00    -0.744 OA
ENDBRANCH  77  81
ENDBRANCH  50  74
BRANCH  62  85
ATOM     85  C   UNL A   1      43.241  35.225  29.964  1.00  0.00     0.023 A 
ATOM     86  C   UNL A   1      43.062  36.272  29.044  1.00  0.00     0.031 A 
ATOM     87  C   UNL A   1      43.825  35.533  31.207  1.00  0.00     0.131 A 
ATOM     88  C   UNL A   1      43.513  37.564  29.358  1.00  0.00     0.055 A 
ATOM     89  C   UNL A   1      44.208  36.833  31.540  1.00  0.00     0.041 A 
ATOM     90  F   UNL A   1      44.026  34.574  32.125  1.00  0.00    -0.206 F 
ATOM     91  C   UNL A   1      44.065  37.856  30.608  1.00  0.00     0.022 A 
BRANCH  88  92
ATOM     92  S   UNL A   1      43.459  38.845  28.074  1.00  0.00     0.124 S 
ATOM     93  O   UNL A   1      42.052  39.232  28.092  1.00  0.00    -0.237 OA
ATOM     94  O   UNL A   1      44.400  39.838  28.581  1.00  0.00    -0.237 OA
ATOM     95  O   UNL A   1      43.892  38.141  26.868  1.00  0.00    -0.744 OA
ENDBRANCH  88  92
ENDBRANCH  62  85
ENDBRANCH  36  37
ENDBRANCH  29  31
ENDBRANCH  28  29
ENDBRANCH  27  28
ENDBRANCH  26  27
ENDBRANCH  25  26
ENDBRANCH   1  25
TORSDOF 23
ENDMDL
MODEL 2
REMARK VINA RESULT:     -10.4      2.520      3.200
REMARK SMILES COc1nc(-c2ccccc2)nc(C)c1CC(=O)OCCOCCOCCOC(=O)c1ccc(-c2c3nc(c(-c4cc(S(=O)(=O)[O-])ccc4F)c4ccc([nH]4)c(-c4cc(S(=O)(=O)[O-])ccc4F)c4nc(c(-c5cc(S(=O)(=O)[O-])ccc5F)c5ccc2[nH]5)C=C4)C=C3)cc1
REMARK SMILES IDX 24 1 23 2 22 3 21 4 20 5 19 6 17 7 18 8 16 9 15 10 3 11 4 12
REMARK SMILES IDX 5 13 13 14 12 15 14 16 2 17 1 18 6 19 7 20 11 21 8 22 10 23
REMARK SMILES IDX 9 24 25 25 26 26 27 27 28 28 29 29 30 30 31 31 32 32 93 33
REMARK SMILES IDX 33 34 92 35 34 36 35 37 36 38 86 39 37 40 91 41 85 42 87 43
REMARK SMILES IDX 38 44 90 45 84 46 83 47 39 49 71 50 51 51 70 52 52 53 55 54
REMARK SMILES IDX 69 55 88 56 53 57 54 58 68 60 89 61 56 62 40 63 41 64 49 65
REMARK SMILES IDX 42 66 48 67 50 68 47 69 43 70 44 71 45 72 46 73 72 74 73 75
REMARK SMILES IDX 81 76 74 77 80 78 82 79 79 80 75 81 76 82 77 83 78 84 57 85
REMARK SMILES IDX 58 86 66 87 59 88 65 89 67 90 64 91 60 92 61 93 62 94 63 95
REMARK H PARENT 87 48 55 59
REMARK Flexibility Score: inf
ROOT
ATOM      1  C   UNL A   1      34.895  21.316  24.812  1.00  0.00     0.188 C 
ENDROOT
BRANCH   1   2
ATOM      2  C   UNL A   1      33.369  21.491  24.939  1.00  0.00     0.188 C 
BRANCH   2   3
ATOM      3  O   UNL A   1      32.619  21.862  23.793  1.00  0.00    -0.376 OA
BRANCH   3   4
ATOM      4  C   UNL A   1      33.231  22.734  22.855  1.00  0.00     0.202 C 
BRANCH   4   5
ATOM      5  C   UNL A   1      32.928  24.237  22.983  1.00  0.00     0.261 C 
BRANCH   5   6
ATOM      6  O   UNL A   1      34.068  25.064  23.340  1.00  0.00    -0.463 OA
BRANCH   6   7
ATOM      7  C   UNL A   1      34.191  25.394  24.655  1.00  0.00     0.310 C 
ATOM      8  O   UNL A   1      34.285  24.561  25.551  1.00  0.00    -0.252 OA
BRANCH   7   9
ATOM      9  C   UNL A   1      34.121  26.883  24.985  1.00  0.00     0.165 C 
BRANCH   9  10
ATOM     10  C   UNL A   1      32.952  27.691  24.485  1.00  0.00     0.047 A 
ATOM     11  C   UNL A   1      31.673  27.604  25.033  1.00  0.00     0.220 A 
ATOM     12  N   UNL A   1      30.617  28.354  24.643  1.00  0.00    -0.193 NA
ATOM     13  C   UNL A   1      30.838  29.195  23.621  1.00  0.00     0.163 A 
ATOM     14  C   UNL A   1      33.030  28.517  23.370  1.00  0.00     0.049 A 
ATOM     15  N   UNL A   1      31.997  29.275  22.946  1.00  0.00    -0.233 NA
ATOM     16  C   UNL A   1      34.162  28.448  22.388  1.00  0.00     0.067 C 
BRANCH  11  17
ATOM     17  O   UNL A   1      31.321  26.478  25.744  1.00  0.00    -0.481 OA
ATOM     18  C   UNL A   1      30.089  25.888  25.371  1.00  0.00     0.280 C 
ENDBRANCH  11  17
BRANCH  13  19
ATOM     19  C   UNL A   1      29.752  30.027  23.084  1.00  0.00     0.019 A 
ATOM     20  C   UNL A   1      29.191  31.066  23.853  1.00  0.00     0.012 A 
ATOM     21  C   UNL A   1      29.142  29.728  21.853  1.00  0.00     0.012 A 
ATOM     22  C   UNL A   1      28.054  31.763  23.423  1.00  0.00     0.001 A 
ATOM     23  C   UNL A   1      28.000  30.418  21.425  1.00  0.00     0.001 A 
ATOM     24  C   UNL A   1      27.453  31.430  22.212  1.00  0.00     0.000 A 
ENDBRANCH  13  19
ENDBRANCH   9  10
ENDBRANCH   7   9
ENDBRANCH   6   7
ENDBRANCH   5   6
ENDBRANCH   4   5
ENDBRANCH   3   4
ENDBRANCH   2   3
ENDBRANCH   1   2
BRANCH   1  25
ATOM     25  O   UNL A   1      35.491  20.048  25.019  1.00  0.00    -0.376 OA
BRANCH  25  26
ATOM     26  C   UNL A   1      36.877  19.922  24.780  1.00  0.00     0.202 C 
BRANCH  26  27
ATOM     27  C   UNL A   1      37.737  21.193  24.789  1.00  0.00     0.261 C 
BRANCH  27  28
ATOM     28  O   UNL A   1      38.075  21.708  26.089  1.00  0.00    -0.460 OA
BRANCH  28  29
ATOM     29  C   UNL A   1      39.387  21.597  26.434  1.00  0.00     0.338 C 
ATOM     30  O   UNL A   1      40.083  20.597  26.302  1.00  0.00    -0.246 OA
BRANCH  29  31
ATOM     31  C   UNL A   1      39.919  22.894  26.912  1.00  0.00     0.060 A 
ATOM     32  C   UNL A   1      39.489  24.068  26.282  1.00  0.00     0.016 A 
ATOM     33  C   UNL A   1      40.873  22.965  27.933  1.00  0.00     0.016 A 
ATOM     34  C   UNL A   1      39.981  25.313  26.693  1.00  0.00     0.010 A 
ATOM     35  C   UNL A   1      41.397  24.209  28.315  1.00  0.00     0.010 A 
ATOM     36  C   UNL A   1      40.957  25.393  27.696  1.00  0.00    -0.014 A 
BRANCH  36  37
ATOM     37  C   UNL A   1      41.645  26.688  27.948  1.00  0.00     0.031 A 
ATOM     38  C   UNL A   1      43.058  26.847  27.454  1.00  0.00     0.074 A 
ATOM     39  C   UNL A   1      41.025  27.718  28.554  1.00  0.00     0.049 A 
ATOM     40  N   UNL A   1      43.867  27.869  27.552  1.00  0.00    -0.248 NA
ATOM     41  C   UNL A   1      43.629  25.689  26.748  1.00  0.00     0.031 C 
ATOM     42  C   UNL A   1      39.638  27.717  29.012  1.00  0.00     0.029 A 
ATOM     43  N   UNL A   1      41.484  28.973  28.885  1.00  0.00    -0.354 N 
ATOM     44  C   UNL A   1      45.038  27.487  26.906  1.00  0.00     0.074 A 
ATOM     45  C   UNL A   1      44.842  26.127  26.451  1.00  0.00     0.031 C 
ATOM     46  C   UNL A   1      39.359  28.911  29.567  1.00  0.00     0.029 A 
ATOM     47  C   UNL A   1      40.557  29.751  29.543  1.00  0.00     0.049 A 
ATOM     48  H   UNL A   1      42.393  29.286  28.671  1.00  0.00     0.167 HD
ATOM     49  C   UNL A   1      46.172  28.204  26.709  1.00  0.00     0.034 A 
ATOM     50  C   UNL A   1      40.671  30.985  30.083  1.00  0.00     0.034 A 
ATOM     51  C   UNL A   1      46.373  29.541  27.210  1.00  0.00     0.049 A 
ATOM     52  C   UNL A   1      41.993  31.716  29.965  1.00  0.00     0.074 A 
ATOM     53  C   UNL A   1      47.494  30.344  27.098  1.00  0.00     0.029 A 
ATOM     54  N   UNL A   1      45.439  30.266  27.942  1.00  0.00    -0.354 N 
ATOM     55  N   UNL A   1      43.098  31.340  29.359  1.00  0.00    -0.248 NA
ATOM     56  C   UNL A   1      42.084  33.038  30.600  1.00  0.00     0.031 C 
ATOM     57  C   UNL A   1      47.272  31.514  27.831  1.00  0.00     0.029 A 
ATOM     58  C   UNL A   1      45.974  31.489  28.319  1.00  0.00     0.049 A 
ATOM     59  H   UNL A   1      44.531  29.956  28.160  1.00  0.00     0.167 HD
ATOM     60  C   UNL A   1      43.995  32.397  29.507  1.00  0.00     0.074 A 
ATOM     61  C   UNL A   1      43.302  33.427  30.250  1.00  0.00     0.031 C 
ATOM     62  C   UNL A   1      45.274  32.510  29.063  1.00  0.00     0.034 A 
BRANCH  49  63
ATOM     63  C   UNL A   1      47.304  27.514  25.985  1.00  0.00     0.023 A 
ATOM     64  C   UNL A   1      48.234  26.704  26.662  1.00  0.00     0.031 A 
ATOM     65  C   UNL A   1      47.484  27.712  24.605  1.00  0.00     0.131 A 
ATOM     66  C   UNL A   1      49.341  26.187  25.973  1.00  0.00     0.055 A 
ATOM     67  C   UNL A   1      48.541  27.123  23.908  1.00  0.00     0.041 A 
ATOM     68  F   UNL A   1      46.646  28.498  23.911  1.00  0.00    -0.206 F 
ATOM     69  C   UNL A   1      49.487  26.369  24.595  1.00  0.00     0.022 A 
BRANCH  66  70
ATOM     70  S   UNL A   1      50.673  25.409  26.928  1.00  0.00     0.124 S 
ATOM     71  O   UNL A   1      51.168  26.536  27.714  1.00  0.00    -0.237 OA
ATOM     72  O   UNL A   1      49.965  24.373  27.671  1.00  0.00    -0.237 OA
ATOM     73  O   UNL A   1      51.593  24.924  25.901  1.00  0.00    -0.744 OA
ENDBRANCH  66  70
ENDBRANCH  49  63
BRANCH  50  74
ATOM     74  C   UNL A   1      39.536  31.604  30.838  1.00  0.00     0.023 A 
ATOM     75  C   UNL A   1      39.462  31.545  32.241  1.00  0.00     0.031 A 
ATOM     76  C   UNL A   1      38.454  32.189  30.153  1.00  0.00     0.131 A 
ATOM     77  C   UNL A   1      38.316  32.012  32.906  1.00  0.00     0.055 A 
ATOM     78  C   UNL A   1      37.344  32.709  30.824  1.00  0.00     0.041 A 
ATOM     79  F   UNL A   1      38.456  32.261  28.813  1.00  0.00    -0.206 F 
ATOM     80  C   UNL A   1      37.264  32.608  32.208  1.00  0.00     0.022 A 
BRANCH  77  81
ATOM     81  S   UNL A   1      38.164  31.730  34.694  1.00  0.00     0.124 S 
ATOM     82  O   UNL A   1      38.335  30.285  34.782  1.00  0.00    -0.237 OA
ATOM     83  O   UNL A   1      39.255  32.542  35.222  1.00  0.00    -0.237 OA
ATOM     84  O   UNL A   1      36.821  32.220  35.003  1.00  0.00    -0.744 OA
ENDBRANCH  77  81
ENDBRANCH  50  74
BRANCH  62  85
ATOM     85  C   UNL A   1      45.989  33.818  29.314  1.00  0.00     0.023 A 
ATOM     86  C   UNL A   1      45.947  34.882  28.396  1.00  0.00     0.031 A 
ATOM     87  C   UNL A   1      46.721  34.003  30.502  1.00  0.00     0.131 A 
ATOM     88  C   UNL A   1      46.667  36.059  28.655  1.00  0.00     0.055 A 
ATOM     89  C   UNL A   1      47.378  35.201  30.785  1.00  0.00     0.041 A 
ATOM     90  F   UNL A   1      46.802  33.021  31.414  1.00  0.00    -0.206 F 
ATOM     91  C   UNL A   1      47.365  36.233  29.853  1.00  0.00     0.022 A 
BRANCH  88  92
ATOM     92  S   UNL A   1      46.763  37.328  27.361  1.00  0.00     0.124 S 
ATOM     93  O   UNL A   1      46.504  36.549  26.154  1.00  0.00    -0.237 OA
ATOM     94  O   UNL A   1      45.713  38.259  27.757  1.00  0.00    -0.237 OA
ATOM     95  O   UNL A   1      48.126  37.842  27.485  1.00  0.00    -0.744 OA
ENDBRANCH  88  92
ENDBRANCH  62  85
ENDBRANCH  36  37
ENDBRANCH  29  31
ENDBRANCH  28  29
ENDBRANCH  27  28
ENDBRANCH  26  27
ENDBRANCH  25  26
ENDBRANCH   1  25
TORSDOF 23
ENDMDL
MODEL 3
REMARK VINA RESULT:      -9.7      3.203      5.157
REMARK SMILES COc1nc(-c2ccccc2)nc(C)c1CC(=O)OCCOCCOCCOC(=O)c1ccc(-c2c3nc(c(-c4cc(S(=O)(=O)[O-])ccc4F)c4ccc([nH]4)c(-c4cc(S(=O)(=O)[O-])ccc4F)c4nc(c(-c5cc(S(=O)(=O)[O-])ccc5F)c5ccc2[nH]5)C=C4)C=C3)cc1
REMARK SMILES IDX 24 1 23 2 22 3 21 4 20 5 19 6 17 7 18 8 16 9 15 10 3 11 4 12
REMARK SMILES IDX 5 13 13 14 12 15 14 16 2 17 1 18 6 19 7 20 11 21 8 22 10 23
REMARK SMILES IDX 9 24 25 25 26 26 27 27 28 28 29 29 30 30 31 31 32 32 93 33
REMARK SMILES IDX 33 34 92 35 34 36 35 37 36 38 86 39 37 40 91 41 85 42 87 43
REMARK SMILES IDX 38 44 90 45 84 46 83 47 39 49 71 50 51 51 70 52 52 53 55 54
REMARK SMILES IDX 69 55 88 56 53 57 54 58 68 60 89 61 56 62 40 63 41 64 49 65
REMARK SMILES IDX 42 66 48 67 50 68 47 69 43 70 44 71 45 72 46 73 72 74 73 75
REMARK SMILES IDX 81 76 74 77 80 78 82 79 79 80 75 81 76 82 77 83 78 84 57 85
REMARK SMILES IDX 58 86 66 87 59 88 65 89 67 90 64 91 60 92 61 93 62 94 63 95
REMARK H PARENT 87 48 55 59
REMARK Flexibility Score: inf
ROOT
ATOM      1  C   UNL A   1      37.476  21.588  24.931  1.00  0.00     0.188 C 
ENDROOT
BRANCH   1   2
ATOM      2  C   UNL A   1      35.980  21.853  25.190  1.00  0.00     0.188 C 
BRANCH   2   3
ATOM      3  O   UNL A   1      35.434  23.117  24.843  1.00  0.00    -0.376 OA
BRANCH   3   4
ATOM      4  C   UNL A   1      34.848  23.892  25.877  1.00  0.00     0.202 C 
BRANCH   4   5
ATOM      5  C   UNL A   1      34.250  25.255  25.487  1.00  0.00     0.261 C 
BRANCH   5   6
ATOM      6  O   UNL A   1      32.894  25.486  25.958  1.00  0.00    -0.463 OA
BRANCH   6   7
ATOM      7  C   UNL A   1      31.992  25.903  25.030  1.00  0.00     0.310 C 
ATOM      8  O   UNL A   1      31.883  27.074  24.677  1.00  0.00    -0.252 OA
BRANCH   7   9
ATOM      9  C   UNL A   1      31.039  24.841  24.489  1.00  0.00     0.165 C 
BRANCH   9  10
ATOM     10  C   UNL A   1      31.522  23.420  24.361  1.00  0.00     0.047 A 
ATOM     11  C   UNL A   1      31.332  22.456  25.350  1.00  0.00     0.220 A 
ATOM     12  N   UNL A   1      31.706  21.160  25.243  1.00  0.00    -0.193 NA
ATOM     13  C   UNL A   1      32.346  20.823  24.113  1.00  0.00     0.163 A 
ATOM     14  C   UNL A   1      32.286  22.978  23.287  1.00  0.00     0.049 A 
ATOM     15  N   UNL A   1      32.683  21.696  23.148  1.00  0.00    -0.233 NA
ATOM     16  C   UNL A   1      32.958  23.918  22.330  1.00  0.00     0.067 C 
BRANCH  11  17
ATOM     17  O   UNL A   1      31.096  22.860  26.646  1.00  0.00    -0.481 OA
ATOM     18  C   UNL A   1      29.752  22.750  27.078  1.00  0.00     0.280 C 
ENDBRANCH  11  17
BRANCH  13  19
ATOM     19  C   UNL A   1      32.838  19.454  23.907  1.00  0.00     0.019 A 
ATOM     20  C   UNL A   1      33.906  18.948  24.674  1.00  0.00     0.012 A 
ATOM     21  C   UNL A   1      32.362  18.657  22.851  1.00  0.00     0.012 A 
ATOM     22  C   UNL A   1      34.490  17.708  24.384  1.00  0.00     0.001 A 
ATOM     23  C   UNL A   1      32.951  17.421  22.554  1.00  0.00     0.001 A 
ATOM     24  C   UNL A   1      34.018  16.949  23.316  1.00  0.00     0.000 A 
ENDBRANCH  13  19
ENDBRANCH   9  10
ENDBRANCH   7   9
ENDBRANCH   6   7
ENDBRANCH   5   6
ENDBRANCH   4   5
ENDBRANCH   3   4
ENDBRANCH   2   3
ENDBRANCH   1   2
BRANCH   1  25
ATOM     25  O   UNL A   1      38.382  21.481  26.014  1.00  0.00    -0.376 OA
BRANCH  25  26
ATOM     26  C   UNL A   1      39.406  22.448  26.118  1.00  0.00     0.202 C 
BRANCH  26  27
ATOM     27  C   UNL A   1      40.345  22.389  27.329  1.00  0.00     0.261 C 
BRANCH  27  28
ATOM     28  O   UNL A   1      41.687  21.947  27.057  1.00  0.00    -0.460 OA
BRANCH  28  29
ATOM     29  C   UNL A   1      42.357  22.668  26.118  1.00  0.00     0.338 C 
ATOM     30  O   UNL A   1      42.638  22.290  24.986  1.00  0.00    -0.246 OA
BRANCH  29  31
ATOM     31  C   UNL A   1      42.629  24.042  26.600  1.00  0.00     0.060 A 
ATOM     32  C   UNL A   1      42.997  24.222  27.939  1.00  0.00     0.016 A 
ATOM     33  C   UNL A   1      42.477  25.156  25.768  1.00  0.00     0.016 A 
ATOM     34  C   UNL A   1      43.247  25.505  28.439  1.00  0.00     0.010 A 
ATOM     35  C   UNL A   1      42.686  26.446  26.280  1.00  0.00     0.010 A 
ATOM     36  C   UNL A   1      43.070  26.630  27.621  1.00  0.00    -0.014 A 
BRANCH  36  37
ATOM     37  C   UNL A   1      43.098  27.989  28.227  1.00  0.00     0.031 A 
ATOM     38  C   UNL A   1      44.430  28.678  28.360  1.00  0.00     0.074 A 
ATOM     39  C   UNL A   1      41.973  28.622  28.609  1.00  0.00     0.049 A 
ATOM     40  N   UNL A   1      44.716  29.854  28.854  1.00  0.00    -0.248 NA
ATOM     41  C   UNL A   1      45.595  27.933  27.858  1.00  0.00     0.031 C 
ATOM     42  C   UNL A   1      40.618  28.095  28.467  1.00  0.00     0.029 A 
ATOM     43  N   UNL A   1      41.790  29.856  29.192  1.00  0.00    -0.354 N 
ATOM     44  C   UNL A   1      46.091  30.000  28.708  1.00  0.00     0.074 A 
ATOM     45  C   UNL A   1      46.582  28.777  28.110  1.00  0.00     0.031 C 
ATOM     46  C   UNL A   1      39.744  28.996  28.951  1.00  0.00     0.029 A 
ATOM     47  C   UNL A   1      40.474  30.149  29.478  1.00  0.00     0.049 A 
ATOM     48  H   UNL A   1      42.532  30.472  29.388  1.00  0.00     0.167 HD
ATOM     49  C   UNL A   1      46.873  31.057  29.041  1.00  0.00     0.034 A 
ATOM     50  C   UNL A   1      39.929  31.212  30.110  1.00  0.00     0.034 A 
ATOM     51  C   UNL A   1      46.378  32.250  29.682  1.00  0.00     0.049 A 
ATOM     52  C   UNL A   1      40.840  32.323  30.593  1.00  0.00     0.074 A 
ATOM     53  C   UNL A   1      47.088  33.365  30.094  1.00  0.00     0.029 A 
ATOM     54  N   UNL A   1      45.051  32.477  30.028  1.00  0.00    -0.354 N 
ATOM     55  N   UNL A   1      42.142  32.445  30.457  1.00  0.00    -0.248 NA
ATOM     56  C   UNL A   1      40.209  33.440  31.310  1.00  0.00     0.031 C 
ATOM     57  C   UNL A   1      46.209  34.223  30.762  1.00  0.00     0.029 A 
ATOM     58  C   UNL A   1      44.930  33.694  30.681  1.00  0.00     0.049 A 
ATOM     59  H   UNL A   1      44.306  31.863  29.836  1.00  0.00     0.167 HD
ATOM     60  C   UNL A   1      42.474  33.670  31.035  1.00  0.00     0.074 A 
ATOM     61  C   UNL A   1      41.238  34.252  31.511  1.00  0.00     0.031 C 
ATOM     62  C   UNL A   1      43.690  34.265  31.155  1.00  0.00     0.034 A 
BRANCH  49  63
ATOM     63  C   UNL A   1      48.355  30.922  28.786  1.00  0.00     0.023 A 
ATOM     64  C   UNL A   1      49.002  31.644  27.767  1.00  0.00     0.031 A 
ATOM     65  C   UNL A   1      49.122  30.018  29.542  1.00  0.00     0.131 A 
ATOM     66  C   UNL A   1      50.353  31.393  27.483  1.00  0.00     0.055 A 
ATOM     67  C   UNL A   1      50.487  29.836  29.310  1.00  0.00     0.041 A 
ATOM     68  F   UNL A   1      48.555  29.280  30.509  1.00  0.00    -0.206 F 
ATOM     69  C   UNL A   1      51.107  30.514  28.264  1.00  0.00     0.022 A 
BRANCH  66  70
ATOM     70  S   UNL A   1      51.072  32.109  25.978  1.00  0.00     0.124 S 
ATOM     71  O   UNL A   1      49.973  32.941  25.495  1.00  0.00    -0.237 OA
ATOM     72  O   UNL A   1      52.235  32.822  26.493  1.00  0.00    -0.237 OA
ATOM     73  O   UNL A   1      51.370  30.941  25.152  1.00  0.00    -0.744 OA
ENDBRANCH  66  70
ENDBRANCH  49  63
BRANCH  50  74
ATOM     74  C   UNL A   1      38.459  31.273  30.388  1.00  0.00     0.023 A 
ATOM     75  C   UNL A   1      37.547  31.763  29.437  1.00  0.00     0.031 A 
ATOM     76  C   UNL A   1      37.955  30.923  31.655  1.00  0.00     0.131 A 
ATOM     77  C   UNL A   1      36.196  31.938  29.783  1.00  0.00     0.055 A 
ATOM     78  C   UNL A   1      36.599  31.039  31.972  1.00  0.00     0.041 A 
ATOM     79  F   UNL A   1      38.777  30.464  32.612  1.00  0.00    -0.206 F 
ATOM     80  C   UNL A   1      35.713  31.564  31.038  1.00  0.00     0.022 A 
BRANCH  77  81
ATOM     81  S   UNL A   1      35.090  32.767  28.604  1.00  0.00     0.124 S 
ATOM     82  O   UNL A   1      34.452  33.769  29.450  1.00  0.00    -0.237 OA
ATOM     83  O   UNL A   1      36.030  33.269  27.608  1.00  0.00    -0.237 OA
ATOM     84  O   UNL A   1      34.214  31.690  28.143  1.00  0.00    -0.744 OA
ENDBRANCH  77  81
ENDBRANCH  50  74
BRANCH  62  85
ATOM     85  C   UNL A   1      43.736  35.644  31.772  1.00  0.00     0.023 A 
ATOM     86  C   UNL A   1      43.788  35.842  33.163  1.00  0.00     0.031 A 
ATOM     87  C   UNL A   1      43.736  36.784  30.946  1.00  0.00     0.131 A 
ATOM     88  C   UNL A   1      43.781  37.145  33.686  1.00  0.00     0.055 A 
ATOM     89  C   UNL A   1      43.800  38.075  31.469  1.00  0.00     0.041 A 
ATOM     90  F   UNL A   1      43.683  36.659  29.609  1.00  0.00    -0.206 F 
ATOM     91  C   UNL A   1      43.809  38.262  32.848  1.00  0.00     0.022 A 
BRANCH  88  92
ATOM     92  S   UNL A   1      43.637  37.366  35.481  1.00  0.00     0.124 S 
ATOM     93  O   UNL A   1      42.244  37.001  35.720  1.00  0.00    -0.237 OA
ATOM     94  O   UNL A   1      44.636  36.435  35.993  1.00  0.00    -0.237 OA
ATOM     95  O   UNL A   1      43.949  38.780  35.679  1.00  0.00    -0.744 OA
ENDBRANCH  88  92
ENDBRANCH  62  85
ENDBRANCH  36  37
ENDBRANCH  29  31
ENDBRANCH  28  29
ENDBRANCH  27  28
ENDBRANCH  26  27
ENDBRANCH  25  26
ENDBRANCH   1  25
TORSDOF 23
ENDMDL
