MODEL 1
REMARK VINA RESULT:     -10.3      0.000      0.000
REMARK SMILES C[C@@H]1[C@@H](C(=O)OCCOCCOCCOC(=O)c2ccc(-c3c4nc(c(-c5cc(S(=O)(=O)[O-])ccc5F)c5ccc([nH]5)c(-c5cc(S(=O)(=O)[O-])ccc5F)c5nc(c(-c6cc(S(=O)(=O)[O-])ccc6F)c6ccc3[nH]6)C=C5)C=C4)cc2)CCN1C(=O)N1CC[N@H+]2CCCC[C@@H]2C1
REMARK SMILES IDX 11 1 10 2 9 3 8 4 7 5 6 6 4 7 5 8 3 9 1 10 2 11 83 12 81 13
REMARK SMILES IDX 82 14 84 15 85 16 86 17 87 18 95 19 88 20 94 21 89 22 93 23
REMARK SMILES IDX 90 24 92 26 91 27 12 28 13 29 14 30 15 31 16 32 17 33 18 34
REMARK SMILES IDX 19 35 80 36 20 37 79 38 21 39 22 40 23 41 73 42 24 43 78 44
REMARK SMILES IDX 72 45 74 46 25 47 77 48 71 49 70 50 26 52 58 53 38 54 57 55
REMARK SMILES IDX 39 56 42 57 56 58 75 59 40 60 41 61 55 63 76 64 43 65 27 66
REMARK SMILES IDX 28 67 36 68 29 69 35 70 37 71 34 72 30 73 31 74 32 75 33 76
REMARK SMILES IDX 59 77 60 78 68 79 61 80 67 81 69 82 66 83 62 84 63 85 64 86
REMARK SMILES IDX 65 87 44 88 45 89 53 90 46 91 52 92 54 93 51 94 47 95 48 96
REMARK SMILES IDX 49 97 50 98
REMARK H PARENT 89 25 74 51 42 62
REMARK Flexibility Score: inf
ROOT
ATOM      1  C   UNL A   1      34.537  33.057  28.495  1.00  0.00     0.188 C 
ENDROOT
BRANCH   1   2
ATOM      2  C   UNL A   1      34.727  31.808  27.609  1.00  0.00     0.188 C 
BRANCH   2   3
ATOM      3  O   UNL A   1      34.284  30.535  28.049  1.00  0.00    -0.376 OA
BRANCH   3   4
ATOM      4  C   UNL A   1      34.122  29.468  27.128  1.00  0.00     0.202 C 
BRANCH   4   5
ATOM      5  C   UNL A   1      32.793  29.246  26.398  1.00  0.00     0.261 C 
BRANCH   5   6
ATOM      6  O   UNL A   1      32.800  29.644  25.022  1.00  0.00    -0.463 OA
BRANCH   6   7
ATOM      7  C   UNL A   1      33.056  28.639  24.137  1.00  0.00     0.311 C 
ATOM      8  O   UNL A   1      34.099  28.005  24.094  1.00  0.00    -0.252 OA
BRANCH   7   9
ATOM      9  C   UNL A   1      31.843  28.384  23.262  1.00  0.00     0.123 C 
ATOM     10  C   UNL A   1      29.346  28.315  23.448  1.00  0.00     0.032 C 
ATOM     11  C   UNL A   1      30.664  27.914  24.124  1.00  0.00     0.098 C 
ATOM     12  N   UNL A   1      30.885  26.459  24.201  1.00  0.00    -0.321 N 
ATOM     13  C   UNL A   1      32.057  27.239  22.286  1.00  0.00     0.039 C 
ATOM     14  C   UNL A   1      31.762  26.009  23.129  1.00  0.00     0.122 C 
BRANCH  12  15
ATOM     15  C   UNL A   1      30.944  25.755  25.404  1.00  0.00     0.320 C 
ATOM     16  O   UNL A   1      30.226  26.037  26.362  1.00  0.00    -0.248 OA
BRANCH  15  17
ATOM     17  N   UNL A   1      31.799  24.685  25.431  1.00  0.00    -0.313 N 
ATOM     18  C   UNL A   1      31.285  23.319  25.456  1.00  0.00     0.183 C 
ATOM     19  C   UNL A   1      33.152  24.808  25.948  1.00  0.00     0.186 C 
ATOM     20  C   UNL A   1      32.282  22.335  24.799  1.00  0.00     0.284 C 
ATOM     21  C   UNL A   1      34.102  23.925  25.128  1.00  0.00     0.203 C 
ATOM     22  N   UNL A   1      33.675  22.515  25.272  1.00  0.00    -0.330 N 
ATOM     23  C   UNL A   1      35.549  24.153  25.583  1.00  0.00     0.067 C 
ATOM     24  C   UNL A   1      34.588  21.600  24.587  1.00  0.00     0.262 C 
ATOM     25  H   UNL A   1      33.704  22.283  26.265  1.00  0.00     0.348 HD
ATOM     26  C   UNL A   1      36.499  23.206  24.870  1.00  0.00     0.012 C 
ATOM     27  C   UNL A   1      36.023  21.778  25.081  1.00  0.00     0.062 C 
ENDBRANCH  15  17
ENDBRANCH  12  15
ENDBRANCH   7   9
ENDBRANCH   6   7
ENDBRANCH   5   6
ENDBRANCH   4   5
ENDBRANCH   3   4
ENDBRANCH   2   3
ENDBRANCH   1   2
BRANCH   1  28
ATOM     28  O   UNL A   1      34.693  34.312  27.884  1.00  0.00    -0.376 OA
BRANCH  28  29
ATOM     29  C   UNL A   1      34.071  35.460  28.435  1.00  0.00     0.202 C 
BRANCH  29  30
ATOM     30  C   UNL A   1      32.882  35.474  29.417  1.00  0.00     0.261 C 
BRANCH  30  31
ATOM     31  O   UNL A   1      33.008  36.194  30.645  1.00  0.00    -0.460 OA
BRANCH  31  32
ATOM     32  C   UNL A   1      32.942  35.434  31.770  1.00  0.00     0.338 C 
ATOM     33  O   UNL A   1      31.990  35.315  32.518  1.00  0.00    -0.246 OA
BRANCH  32  34
ATOM     34  C   UNL A   1      34.169  34.620  31.867  1.00  0.00     0.060 A 
ATOM     35  C   UNL A   1      34.063  33.258  32.178  1.00  0.00     0.016 A 
ATOM     36  C   UNL A   1      35.419  35.216  31.701  1.00  0.00     0.016 A 
ATOM     37  C   UNL A   1      35.219  32.487  32.335  1.00  0.00     0.010 A 
ATOM     38  C   UNL A   1      36.573  34.450  31.887  1.00  0.00     0.010 A 
ATOM     39  C   UNL A   1      36.481  33.090  32.226  1.00  0.00    -0.014 A 
BRANCH  39  40
ATOM     40  C   UNL A   1      37.704  32.349  32.633  1.00  0.00     0.031 A 
ATOM     41  C   UNL A   1      38.248  32.574  34.015  1.00  0.00     0.074 A 
ATOM     42  C   UNL A   1      38.350  31.544  31.773  1.00  0.00     0.049 A 
ATOM     43  N   UNL A   1      39.303  32.055  34.586  1.00  0.00    -0.248 NA
ATOM     44  C   UNL A   1      37.525  33.548  34.847  1.00  0.00     0.031 C 
ATOM     45  C   UNL A   1      37.936  31.298  30.395  1.00  0.00     0.029 A 
ATOM     46  N   UNL A   1      39.476  30.770  31.929  1.00  0.00    -0.354 N 
ATOM     47  C   UNL A   1      39.413  32.687  35.819  1.00  0.00     0.074 A 
ATOM     48  C   UNL A   1      38.300  33.611  35.918  1.00  0.00     0.031 C 
ATOM     49  C   UNL A   1      38.759  30.384  29.854  1.00  0.00     0.029 A 
ATOM     50  C   UNL A   1      39.751  29.965  30.842  1.00  0.00     0.049 A 
ATOM     51  H   UNL A   1      40.034  30.788  32.739  1.00  0.00     0.167 HD
ATOM     52  C   UNL A   1      40.373  32.535  36.764  1.00  0.00     0.034 A 
ATOM     53  C   UNL A   1      40.646  28.961  30.706  1.00  0.00     0.034 A 
ATOM     54  C   UNL A   1      41.480  31.619  36.640  1.00  0.00     0.049 A 
ATOM     55  C   UNL A   1      41.617  28.708  31.841  1.00  0.00     0.074 A 
ATOM     56  C   UNL A   1      42.527  31.404  37.519  1.00  0.00     0.029 A 
ATOM     57  N   UNL A   1      41.685  30.762  35.566  1.00  0.00    -0.354 N 
ATOM     58  N   UNL A   1      41.691  29.292  33.015  1.00  0.00    -0.248 NA
ATOM     59  C   UNL A   1      42.636  27.671  31.622  1.00  0.00     0.031 C 
ATOM     60  C   UNL A   1      43.395  30.466  36.949  1.00  0.00     0.029 A 
ATOM     61  C   UNL A   1      42.850  30.034  35.752  1.00  0.00     0.049 A 
ATOM     62  H   UNL A   1      41.088  30.683  34.786  1.00  0.00     0.167 HD
ATOM     63  C   UNL A   1      42.774  28.701  33.663  1.00  0.00     0.074 A 
ATOM     64  C   UNL A   1      43.265  27.660  32.786  1.00  0.00     0.031 C 
ATOM     65  C   UNL A   1      43.341  29.016  34.855  1.00  0.00     0.034 A 
BRANCH  52  66
ATOM     66  C   UNL A   1      40.313  33.452  37.960  1.00  0.00     0.023 A 
ATOM     67  C   UNL A   1      39.445  33.213  39.038  1.00  0.00     0.031 A 
ATOM     68  C   UNL A   1      41.102  34.616  37.995  1.00  0.00     0.131 A 
ATOM     69  C   UNL A   1      39.332  34.162  40.066  1.00  0.00     0.055 A 
ATOM     70  C   UNL A   1      41.048  35.513  39.063  1.00  0.00     0.041 A 
ATOM     71  F   UNL A   1      41.928  34.913  36.979  1.00  0.00    -0.206 F 
ATOM     72  C   UNL A   1      40.147  35.297  40.100  1.00  0.00     0.022 A 
BRANCH  69  73
ATOM     73  S   UNL A   1      37.995  33.969  41.277  1.00  0.00     0.124 S 
ATOM     74  O   UNL A   1      38.641  33.150  42.300  1.00  0.00    -0.237 OA
ATOM     75  O   UNL A   1      37.707  35.348  41.652  1.00  0.00    -0.237 OA
ATOM     76  O   UNL A   1      36.942  33.294  40.520  1.00  0.00    -0.744 OA
ENDBRANCH  69  73
ENDBRANCH  52  66
BRANCH  53  77
ATOM     77  C   UNL A   1      40.618  28.035  29.525  1.00  0.00     0.023 A 
ATOM     78  C   UNL A   1      41.524  28.229  28.462  1.00  0.00     0.031 A 
ATOM     79  C   UNL A   1      39.701  26.980  29.401  1.00  0.00     0.131 A 
ATOM     80  C   UNL A   1      41.466  27.423  27.314  1.00  0.00     0.055 A 
ATOM     81  C   UNL A   1      39.696  26.130  28.289  1.00  0.00     0.041 A 
ATOM     82  F   UNL A   1      38.795  26.748  30.363  1.00  0.00    -0.206 F 
ATOM     83  C   UNL A   1      40.572  26.357  27.232  1.00  0.00     0.022 A 
BRANCH  80  84
ATOM     84  S   UNL A   1      42.481  27.878  25.879  1.00  0.00     0.124 S 
ATOM     85  O   UNL A   1      41.920  29.175  25.519  1.00  0.00    -0.237 OA
ATOM     86  O   UNL A   1      43.824  27.896  26.448  1.00  0.00    -0.237 OA
ATOM     87  O   UNL A   1      42.219  26.801  24.926  1.00  0.00    -0.744 OA
ENDBRANCH  80  84
ENDBRANCH  53  77
BRANCH  65  88
ATOM     88  C   UNL A   1      44.575  28.243  35.254  1.00  0.00     0.023 A 
ATOM     89  C   UNL A   1      44.480  27.050  35.997  1.00  0.00     0.031 A 
ATOM     90  C   UNL A   1      45.856  28.691  34.892  1.00  0.00     0.131 A 
ATOM     91  C   UNL A   1      45.643  26.382  36.407  1.00  0.00     0.055 A 
ATOM     92  C   UNL A   1      47.009  27.987  35.249  1.00  0.00     0.041 A 
ATOM     93  F   UNL A   1      46.010  29.818  34.179  1.00  0.00    -0.206 F 
ATOM     94  C   UNL A   1      46.906  26.834  36.022  1.00  0.00     0.022 A 
BRANCH  91  95
ATOM     95  S   UNL A   1      45.481  24.959  37.521  1.00  0.00     0.124 S 
ATOM     96  O   UNL A   1      44.549  25.463  38.524  1.00  0.00    -0.237 OA
ATOM     97  O   UNL A   1      44.961  23.924  36.632  1.00  0.00    -0.237 OA
ATOM     98  O   UNL A   1      46.846  24.740  37.995  1.00  0.00    -0.744 OA
ENDBRANCH  91  95
ENDBRANCH  65  88
ENDBRANCH  39  40
ENDBRANCH  32  34
ENDBRANCH  31  32
ENDBRANCH  30  31
ENDBRANCH  29  30
ENDBRANCH  28  29
ENDBRANCH   1  28
TORSDOF 22
ENDMDL
MODEL 2
REMARK VINA RESULT:      -9.9      1.162      7.679
REMARK SMILES C[C@@H]1[C@@H](C(=O)OCCOCCOCCOC(=O)c2ccc(-c3c4nc(c(-c5cc(S(=O)(=O)[O-])ccc5F)c5ccc([nH]5)c(-c5cc(S(=O)(=O)[O-])ccc5F)c5nc(c(-c6cc(S(=O)(=O)[O-])ccc6F)c6ccc3[nH]6)C=C5)C=C4)cc2)CCN1C(=O)N1CC[N@H+]2CCCC[C@@H]2C1
REMARK SMILES IDX 11 1 10 2 9 3 8 4 7 5 6 6 4 7 5 8 3 9 1 10 2 11 83 12 81 13
REMARK SMILES IDX 82 14 84 15 85 16 86 17 87 18 95 19 88 20 94 21 89 22 93 23
REMARK SMILES IDX 90 24 92 26 91 27 12 28 13 29 14 30 15 31 16 32 17 33 18 34
REMARK SMILES IDX 19 35 80 36 20 37 79 38 21 39 22 40 23 41 73 42 24 43 78 44
REMARK SMILES IDX 72 45 74 46 25 47 77 48 71 49 70 50 26 52 58 53 38 54 57 55
REMARK SMILES IDX 39 56 42 57 56 58 75 59 40 60 41 61 55 63 76 64 43 65 27 66
REMARK SMILES IDX 28 67 36 68 29 69 35 70 37 71 34 72 30 73 31 74 32 75 33 76
REMARK SMILES IDX 59 77 60 78 68 79 61 80 67 81 69 82 66 83 62 84 63 85 64 86
REMARK SMILES IDX 65 87 44 88 45 89 53 90 46 91 52 92 54 93 51 94 47 95 48 96
REMARK SMILES IDX 49 97 50 98
REMARK H PARENT 89 25 74 51 42 62
REMARK Flexibility Score: inf
ROOT
ATOM      1  C   UNL A   1      34.631  32.506  28.318  1.00  0.00     0.188 C 
ENDROOT
BRANCH   1   2
ATOM      2  C   UNL A   1      35.565  31.316  28.012  1.00  0.00     0.188 C 
BRANCH   2   3
ATOM      3  O   UNL A   1      35.084  29.984  28.077  1.00  0.00    -0.376 OA
BRANCH   3   4
ATOM      4  C   UNL A   1      33.818  29.646  27.537  1.00  0.00     0.202 C 
BRANCH   4   5
ATOM      5  C   UNL A   1      33.501  29.875  26.055  1.00  0.00     0.261 C 
BRANCH   5   6
ATOM      6  O   UNL A   1      33.323  28.673  25.295  1.00  0.00    -0.463 OA
BRANCH   6   7
ATOM      7  C   UNL A   1      32.517  28.802  24.202  1.00  0.00     0.311 C 
ATOM      8  O   UNL A   1      32.862  29.309  23.145  1.00  0.00    -0.252 OA
BRANCH   7   9
ATOM      9  C   UNL A   1      31.163  28.172  24.467  1.00  0.00     0.123 C 
ATOM     10  C   UNL A   1      30.198  26.103  25.498  1.00  0.00     0.032 C 
ATOM     11  C   UNL A   1      31.307  26.649  24.590  1.00  0.00     0.098 C 
ATOM     12  N   UNL A   1      31.213  26.206  23.188  1.00  0.00    -0.321 N 
ATOM     13  C   UNL A   1      30.197  28.352  23.307  1.00  0.00     0.039 C 
ATOM     14  C   UNL A   1      30.584  27.227  22.360  1.00  0.00     0.122 C 
BRANCH  12  15
ATOM     15  C   UNL A   1      32.167  25.395  22.574  1.00  0.00     0.320 C 
ATOM     16  O   UNL A   1      32.417  25.474  21.372  1.00  0.00    -0.248 OA
BRANCH  15  17
ATOM     17  N   UNL A   1      32.864  24.555  23.403  1.00  0.00    -0.313 N 
ATOM     18  C   UNL A   1      34.248  24.194  23.111  1.00  0.00     0.183 C 
ATOM     19  C   UNL A   1      32.182  23.601  24.262  1.00  0.00     0.186 C 
ATOM     20  C   UNL A   1      35.028  23.874  24.408  1.00  0.00     0.284 C 
ATOM     21  C   UNL A   1      32.934  23.473  25.593  1.00  0.00     0.203 C 
ATOM     22  N   UNL A   1      34.296  22.961  25.317  1.00  0.00    -0.330 N 
ATOM     23  C   UNL A   1      32.148  22.570  26.552  1.00  0.00     0.067 C 
ATOM     24  C   UNL A   1      35.048  22.728  26.550  1.00  0.00     0.262 C 
ATOM     25  H   UNL A   1      34.197  22.060  24.849  1.00  0.00     0.348 HD
ATOM     26  C   UNL A   1      32.926  22.331  27.835  1.00  0.00     0.012 C 
ATOM     27  C   UNL A   1      34.297  21.780  27.484  1.00  0.00     0.062 C 
ENDBRANCH  15  17
ENDBRANCH  12  15
ENDBRANCH   7   9
ENDBRANCH   6   7
ENDBRANCH   5   6
ENDBRANCH   4   5
ENDBRANCH   3   4
ENDBRANCH   2   3
ENDBRANCH   1   2
BRANCH   1  28
ATOM     28  O   UNL A   1      34.871  33.709  27.635  1.00  0.00    -0.376 OA
BRANCH  28  29
ATOM     29  C   UNL A   1      34.154  34.883  27.976  1.00  0.00     0.202 C 
BRANCH  29  30
ATOM     30  C   UNL A   1      33.008  34.990  29.002  1.00  0.00     0.261 C 
BRANCH  30  31
ATOM     31  O   UNL A   1      33.145  35.895  30.100  1.00  0.00    -0.460 OA
BRANCH  31  32
ATOM     32  C   UNL A   1      32.984  35.339  31.330  1.00  0.00     0.338 C 
ATOM     33  O   UNL A   1      31.974  35.343  32.008  1.00  0.00    -0.246 OA
BRANCH  32  34
ATOM     34  C   UNL A   1      34.194  34.564  31.664  1.00  0.00     0.060 A 
ATOM     35  C   UNL A   1      34.058  33.333  32.321  1.00  0.00     0.016 A 
ATOM     36  C   UNL A   1      35.457  35.078  31.373  1.00  0.00     0.016 A 
ATOM     37  C   UNL A   1      35.197  32.616  32.700  1.00  0.00     0.010 A 
ATOM     38  C   UNL A   1      36.594  34.373  31.779  1.00  0.00     0.010 A 
ATOM     39  C   UNL A   1      36.471  33.152  32.463  1.00  0.00    -0.014 A 
BRANCH  39  40
ATOM     40  C   UNL A   1      37.674  32.530  33.076  1.00  0.00     0.031 A 
ATOM     41  C   UNL A   1      38.458  31.538  32.264  1.00  0.00     0.074 A 
ATOM     42  C   UNL A   1      38.025  32.793  34.347  1.00  0.00     0.049 A 
ATOM     43  N   UNL A   1      39.526  30.860  32.589  1.00  0.00    -0.248 NA
ATOM     44  C   UNL A   1      37.937  31.244  30.921  1.00  0.00     0.031 C 
ATOM     45  C   UNL A   1      37.304  33.699  35.236  1.00  0.00     0.029 A 
ATOM     46  N   UNL A   1      39.080  32.346  35.106  1.00  0.00    -0.354 N 
ATOM     47  C   UNL A   1      39.771  30.008  31.518  1.00  0.00     0.074 A 
ATOM     48  C   UNL A   1      38.748  30.275  30.527  1.00  0.00     0.031 C 
ATOM     49  C   UNL A   1      37.974  33.788  36.397  1.00  0.00     0.029 A 
ATOM     50  C   UNL A   1      39.178  32.962  36.337  1.00  0.00     0.049 A 
ATOM     51  H   UNL A   1      39.707  31.651  34.801  1.00  0.00     0.167 HD
ATOM     52  C   UNL A   1      40.738  29.066  31.393  1.00  0.00     0.034 A 
ATOM     53  C   UNL A   1      40.167  32.916  37.258  1.00  0.00     0.034 A 
ATOM     54  C   UNL A   1      41.739  28.806  32.398  1.00  0.00     0.049 A 
ATOM     55  C   UNL A   1      41.320  31.962  37.024  1.00  0.00     0.074 A 
ATOM     56  C   UNL A   1      42.746  27.857  32.391  1.00  0.00     0.029 A 
ATOM     57  N   UNL A   1      41.860  29.501  33.595  1.00  0.00    -0.354 N 
ATOM     58  N   UNL A   1      41.556  31.183  35.992  1.00  0.00    -0.248 NA
ATOM     59  C   UNL A   1      42.330  31.869  38.088  1.00  0.00     0.031 C 
ATOM     60  C   UNL A   1      43.435  27.936  33.607  1.00  0.00     0.029 A 
ATOM     61  C   UNL A   1      42.910  28.987  34.340  1.00  0.00     0.049 A 
ATOM     62  H   UNL A   1      41.284  30.249  33.873  1.00  0.00     0.167 HD
ATOM     63  C   UNL A   1      42.732  30.500  36.296  1.00  0.00     0.074 A 
ATOM     64  C   UNL A   1      43.200  31.021  37.563  1.00  0.00     0.031 C 
ATOM     65  C   UNL A   1      43.350  29.502  35.615  1.00  0.00     0.034 A 
BRANCH  52  66
ATOM     66  C   UNL A   1      40.688  28.189  30.167  1.00  0.00     0.023 A 
ATOM     67  C   UNL A   1      41.588  28.349  29.099  1.00  0.00     0.031 A 
ATOM     68  C   UNL A   1      39.686  27.208  30.043  1.00  0.00     0.131 A 
ATOM     69  C   UNL A   1      41.420  27.596  27.927  1.00  0.00     0.055 A 
ATOM     70  C   UNL A   1      39.579  26.402  28.908  1.00  0.00     0.041 A 
ATOM     71  F   UNL A   1      38.780  27.030  31.017  1.00  0.00    -0.206 F 
ATOM     72  C   UNL A   1      40.439  26.605  27.834  1.00  0.00     0.022 A 
BRANCH  69  73
ATOM     73  S   UNL A   1      42.404  28.038  26.469  1.00  0.00     0.124 S 
ATOM     74  O   UNL A   1      43.596  27.214  26.658  1.00  0.00    -0.237 OA
ATOM     75  O   UNL A   1      41.529  27.651  25.368  1.00  0.00    -0.237 OA
ATOM     76  O   UNL A   1      42.617  29.475  26.622  1.00  0.00    -0.744 OA
ENDBRANCH  69  73
ENDBRANCH  52  66
BRANCH  53  77
ATOM     77  C   UNL A   1      40.202  33.859  38.425  1.00  0.00     0.023 A 
ATOM     78  C   UNL A   1      39.519  33.528  39.613  1.00  0.00     0.031 A 
ATOM     79  C   UNL A   1      40.867  35.094  38.391  1.00  0.00     0.131 A 
ATOM     80  C   UNL A   1      39.474  34.428  40.689  1.00  0.00     0.055 A 
ATOM     81  C   UNL A   1      40.886  35.957  39.493  1.00  0.00     0.041 A 
ATOM     82  F   UNL A   1      41.521  35.486  37.287  1.00  0.00    -0.206 F 
ATOM     83  C   UNL A   1      40.175  35.632  40.645  1.00  0.00     0.022 A 
BRANCH  80  84
ATOM     84  S   UNL A   1      38.374  34.061  42.085  1.00  0.00     0.124 S 
ATOM     85  O   UNL A   1      37.652  35.319  42.232  1.00  0.00    -0.237 OA
ATOM     86  O   UNL A   1      37.601  32.934  41.578  1.00  0.00    -0.237 OA
ATOM     87  O   UNL A   1      39.301  33.747  43.171  1.00  0.00    -0.744 OA
ENDBRANCH  80  84
ENDBRANCH  53  77
BRANCH  65  88
ATOM     88  C   UNL A   1      44.577  28.893  36.250  1.00  0.00     0.023 A 
ATOM     89  C   UNL A   1      44.469  27.849  37.189  1.00  0.00     0.031 A 
ATOM     90  C   UNL A   1      45.863  29.350  35.919  1.00  0.00     0.131 A 
ATOM     91  C   UNL A   1      45.620  27.340  37.809  1.00  0.00     0.055 A 
ATOM     92  C   UNL A   1      47.010  28.796  36.493  1.00  0.00     0.041 A 
ATOM     93  F   UNL A   1      46.028  30.339  35.027  1.00  0.00    -0.206 F 
ATOM     94  C   UNL A   1      46.891  27.796  37.454  1.00  0.00     0.022 A 
BRANCH  91  95
ATOM     95  S   UNL A   1      45.423  26.132  39.148  1.00  0.00     0.124 S 
ATOM     96  O   UNL A   1      44.118  26.491  39.693  1.00  0.00    -0.237 OA
ATOM     97  O   UNL A   1      45.487  24.860  38.433  1.00  0.00    -0.237 OA
ATOM     98  O   UNL A   1      46.559  26.406  40.025  1.00  0.00    -0.744 OA
ENDBRANCH  91  95
ENDBRANCH  65  88
ENDBRANCH  39  40
ENDBRANCH  32  34
ENDBRANCH  31  32
ENDBRANCH  30  31
ENDBRANCH  29  30
ENDBRANCH  28  29
ENDBRANCH   1  28
TORSDOF 22
ENDMDL
MODEL 3
REMARK VINA RESULT:      -9.7      5.483     10.170
REMARK SMILES C[C@@H]1[C@@H](C(=O)OCCOCCOCCOC(=O)c2ccc(-c3c4nc(c(-c5cc(S(=O)(=O)[O-])ccc5F)c5ccc([nH]5)c(-c5cc(S(=O)(=O)[O-])ccc5F)c5nc(c(-c6cc(S(=O)(=O)[O-])ccc6F)c6ccc3[nH]6)C=C5)C=C4)cc2)CCN1C(=O)N1CC[N@H+]2CCCC[C@@H]2C1
REMARK SMILES IDX 11 1 10 2 9 3 8 4 7 5 6 6 4 7 5 8 3 9 1 10 2 11 83 12 81 13
REMARK SMILES IDX 82 14 84 15 85 16 86 17 87 18 95 19 88 20 94 21 89 22 93 23
REMARK SMILES IDX 90 24 92 26 91 27 12 28 13 29 14 30 15 31 16 32 17 33 18 34
REMARK SMILES IDX 19 35 80 36 20 37 79 38 21 39 22 40 23 41 73 42 24 43 78 44
REMARK SMILES IDX 72 45 74 46 25 47 77 48 71 49 70 50 26 52 58 53 38 54 57 55
REMARK SMILES IDX 39 56 42 57 56 58 75 59 40 60 41 61 55 63 76 64 43 65 27 66
REMARK SMILES IDX 28 67 36 68 29 69 35 70 37 71 34 72 30 73 31 74 32 75 33 76
REMARK SMILES IDX 59 77 60 78 68 79 61 80 67 81 69 82 66 83 62 84 63 85 64 86
REMARK SMILES IDX 65 87 44 88 45 89 53 90 46 91 52 92 54 93 51 94 47 95 48 96
REMARK SMILES IDX 49 97 50 98
REMARK H PARENT 89 25 74 51 42 62
REMARK Flexibility Score: inf
ROOT
ATOM      1  C   UNL A   1      40.090  21.603  26.756  1.00  0.00     0.188 C 
ENDROOT
BRANCH   1   2
ATOM      2  C   UNL A   1      38.889  21.639  25.787  1.00  0.00     0.188 C 
BRANCH   2   3
ATOM      3  O   UNL A   1      37.716  22.364  26.116  1.00  0.00    -0.376 OA
BRANCH   3   4
ATOM      4  C   UNL A   1      37.454  23.623  25.517  1.00  0.00     0.202 C 
BRANCH   4   5
ATOM      5  C   UNL A   1      36.031  24.037  25.130  1.00  0.00     0.261 C 
BRANCH   5   6
ATOM      6  O   UNL A   1      35.023  23.638  26.067  1.00  0.00    -0.463 OA
BRANCH   6   7
ATOM      7  C   UNL A   1      34.584  22.355  25.923  1.00  0.00     0.311 C 
ATOM      8  O   UNL A   1      34.645  21.502  26.796  1.00  0.00    -0.252 OA
BRANCH   7   9
ATOM      9  C   UNL A   1      33.957  22.161  24.555  1.00  0.00     0.123 C 
ATOM     10  C   UNL A   1      32.876  23.520  22.750  1.00  0.00     0.032 C 
ATOM     11  C   UNL A   1      32.968  23.297  24.265  1.00  0.00     0.098 C 
ATOM     12  N   UNL A   1      31.723  22.801  24.880  1.00  0.00    -0.321 N 
ATOM     13  C   UNL A   1      33.102  20.907  24.476  1.00  0.00     0.039 C 
ATOM     14  C   UNL A   1      31.776  21.358  25.068  1.00  0.00     0.122 C 
BRANCH  12  15
ATOM     15  C   UNL A   1      30.981  23.533  25.807  1.00  0.00     0.320 C 
ATOM     16  O   UNL A   1      30.415  22.998  26.759  1.00  0.00    -0.248 OA
BRANCH  15  17
ATOM     17  N   UNL A   1      30.981  24.893  25.636  1.00  0.00    -0.313 N 
ATOM     18  C   UNL A   1      31.820  25.751  26.466  1.00  0.00     0.183 C 
ATOM     19  C   UNL A   1      29.843  25.582  25.048  1.00  0.00     0.186 C 
ATOM     20  C   UNL A   1      32.212  27.045  25.715  1.00  0.00     0.284 C 
ATOM     21  C   UNL A   1      30.337  26.750  24.184  1.00  0.00     0.203 C 
ATOM     22  N   UNL A   1      31.062  27.704  25.053  1.00  0.00    -0.330 N 
ATOM     23  C   UNL A   1      29.151  27.397  23.457  1.00  0.00     0.067 C 
ATOM     24  C   UNL A   1      31.488  28.893  24.313  1.00  0.00     0.262 C 
ATOM     25  H   UNL A   1      30.415  28.015  25.776  1.00  0.00     0.348 HD
ATOM     26  C   UNL A   1      29.593  28.629  22.685  1.00  0.00     0.012 C 
ATOM     27  C   UNL A   1      30.302  29.578  23.637  1.00  0.00     0.062 C 
ENDBRANCH  15  17
ENDBRANCH  12  15
ENDBRANCH   7   9
ENDBRANCH   6   7
ENDBRANCH   5   6
ENDBRANCH   4   5
ENDBRANCH   3   4
ENDBRANCH   2   3
ENDBRANCH   1   2
BRANCH   1  28
ATOM     28  O   UNL A   1      40.971  20.514  26.655  1.00  0.00    -0.376 OA
BRANCH  28  29
ATOM     29  C   UNL A   1      42.318  20.715  26.268  1.00  0.00     0.202 C 
BRANCH  29  30
ATOM     30  C   UNL A   1      42.888  21.949  25.539  1.00  0.00     0.261 C 
BRANCH  30  31
ATOM     31  O   UNL A   1      44.245  22.327  25.776  1.00  0.00    -0.460 OA
BRANCH  31  32
ATOM     32  C   UNL A   1      44.700  23.357  25.015  1.00  0.00     0.338 C 
ATOM     33  O   UNL A   1      45.134  23.292  23.880  1.00  0.00    -0.246 OA
BRANCH  32  34
ATOM     34  C   UNL A   1      44.428  24.625  25.718  1.00  0.00     0.060 A 
ATOM     35  C   UNL A   1      43.831  25.682  25.017  1.00  0.00     0.016 A 
ATOM     36  C   UNL A   1      44.808  24.782  27.051  1.00  0.00     0.016 A 
ATOM     37  C   UNL A   1      43.623  26.910  25.652  1.00  0.00     0.010 A 
ATOM     38  C   UNL A   1      44.626  26.020  27.675  1.00  0.00     0.010 A 
ATOM     39  C   UNL A   1      44.054  27.095  26.974  1.00  0.00    -0.014 A 
BRANCH  39  40
ATOM     40  C   UNL A   1      44.070  28.454  27.575  1.00  0.00     0.031 A 
ATOM     41  C   UNL A   1      42.843  28.927  28.303  1.00  0.00     0.074 A 
ATOM     42  C   UNL A   1      45.126  29.272  27.425  1.00  0.00     0.049 A 
ATOM     43  N   UNL A   1      42.618  30.071  28.893  1.00  0.00    -0.248 NA
ATOM     44  C   UNL A   1      41.705  27.997  28.328  1.00  0.00     0.031 C 
ATOM     45  C   UNL A   1      46.343  28.930  26.696  1.00  0.00     0.029 A 
ATOM     46  N   UNL A   1      45.359  30.545  27.890  1.00  0.00    -0.354 N 
ATOM     47  C   UNL A   1      41.290  30.029  29.303  1.00  0.00     0.074 A 
ATOM     48  C   UNL A   1      40.772  28.733  28.912  1.00  0.00     0.031 C 
ATOM     49  C   UNL A   1      47.217  29.943  26.816  1.00  0.00     0.029 A 
ATOM     50  C   UNL A   1      46.637  31.001  27.641  1.00  0.00     0.049 A 
ATOM     51  H   UNL A   1      44.678  31.081  28.356  1.00  0.00     0.167 HD
ATOM     52  C   UNL A   1      40.564  30.995  29.917  1.00  0.00     0.034 A 
ATOM     53  C   UNL A   1      47.273  32.104  28.097  1.00  0.00     0.034 A 
ATOM     54  C   UNL A   1      41.097  32.284  30.287  1.00  0.00     0.049 A 
ATOM     55  C   UNL A   1      46.479  33.103  28.912  1.00  0.00     0.074 A 
ATOM     56  C   UNL A   1      40.446  33.349  30.884  1.00  0.00     0.029 A 
ATOM     57  N   UNL A   1      42.413  32.683  30.093  1.00  0.00    -0.354 N 
ATOM     58  N   UNL A   1      45.232  33.037  29.320  1.00  0.00    -0.248 NA
ATOM     59  C   UNL A   1      47.175  34.334  29.313  1.00  0.00     0.031 C 
ATOM     60  C   UNL A   1      41.349  34.412  30.994  1.00  0.00     0.029 A 
ATOM     61  C   UNL A   1      42.586  33.985  30.540  1.00  0.00     0.049 A 
ATOM     62  H   UNL A   1      43.120  32.124  29.697  1.00  0.00     0.167 HD
ATOM     63  C   UNL A   1      44.997  34.224  30.010  1.00  0.00     0.074 A 
ATOM     64  C   UNL A   1      46.251  34.945  30.037  1.00  0.00     0.031 C 
ATOM     65  C   UNL A   1      43.840  34.700  30.537  1.00  0.00     0.034 A 
BRANCH  52  66
ATOM     66  C   UNL A   1      39.097  30.721  30.131  1.00  0.00     0.023 A 
ATOM     67  C   UNL A   1      38.113  31.204  29.251  1.00  0.00     0.031 A 
ATOM     68  C   UNL A   1      38.673  30.007  31.266  1.00  0.00     0.131 A 
ATOM     69  C   UNL A   1      36.755  31.033  29.562  1.00  0.00     0.055 A 
ATOM     70  C   UNL A   1      37.322  29.766  31.525  1.00  0.00     0.041 A 
ATOM     71  F   UNL A   1      39.565  29.547  32.158  1.00  0.00    -0.206 F 
ATOM     72  C   UNL A   1      36.353  30.294  30.678  1.00  0.00     0.022 A 
BRANCH  69  73
ATOM     73  S   UNL A   1      35.524  31.922  28.572  1.00  0.00     0.124 S 
ATOM     74  O   UNL A   1      34.528  32.270  29.583  1.00  0.00    -0.237 OA
ATOM     75  O   UNL A   1      36.297  33.033  28.030  1.00  0.00    -0.237 OA
ATOM     76  O   UNL A   1      35.088  30.928  27.593  1.00  0.00    -0.744 OA
ENDBRANCH  69  73
ENDBRANCH  52  66
BRANCH  53  77
ATOM     77  C   UNL A   1      48.751  32.294  27.914  1.00  0.00     0.023 A 
ATOM     78  C   UNL A   1      49.228  33.075  26.841  1.00  0.00     0.031 A 
ATOM     79  C   UNL A   1      49.708  31.702  28.751  1.00  0.00     0.131 A 
ATOM     80  C   UNL A   1      50.606  33.203  26.605  1.00  0.00     0.055 A 
ATOM     81  C   UNL A   1      51.081  31.894  28.560  1.00  0.00     0.041 A 
ATOM     82  F   UNL A   1      49.328  30.928  29.779  1.00  0.00    -0.206 F 
ATOM     83  C   UNL A   1      51.537  32.638  27.475  1.00  0.00     0.022 A 
BRANCH  80  84
ATOM     84  S   UNL A   1      51.156  34.004  25.072  1.00  0.00     0.124 S 
ATOM     85  O   UNL A   1      52.269  34.817  25.546  1.00  0.00    -0.237 OA
ATOM     86  O   UNL A   1      51.508  32.860  24.238  1.00  0.00    -0.237 OA
ATOM     87  O   UNL A   1      49.977  34.754  24.641  1.00  0.00    -0.744 OA
ENDBRANCH  80  84
ENDBRANCH  53  77
BRANCH  65  88
ATOM     88  C   UNL A   1      43.881  36.077  31.155  1.00  0.00     0.023 A 
ATOM     89  C   UNL A   1      43.966  36.249  32.549  1.00  0.00     0.031 A 
ATOM     90  C   UNL A   1      43.840  37.229  30.352  1.00  0.00     0.131 A 
ATOM     91  C   UNL A   1      43.943  37.537  33.102  1.00  0.00     0.055 A 
ATOM     92  C   UNL A   1      43.881  38.512  30.904  1.00  0.00     0.041 A 
ATOM     93  F   UNL A   1      43.765  37.129  29.015  1.00  0.00    -0.206 F 
ATOM     94  C   UNL A   1      43.918  38.670  32.287  1.00  0.00     0.022 A 
BRANCH  91  95
ATOM     95  S   UNL A   1      43.860  37.708  34.906  1.00  0.00     0.124 S 
ATOM     96  O   UNL A   1      43.956  39.153  35.081  1.00  0.00    -0.237 OA
ATOM     97  O   UNL A   1      42.564  37.113  35.217  1.00  0.00    -0.237 OA
ATOM     98  O   UNL A   1      45.018  36.947  35.375  1.00  0.00    -0.744 OA
ENDBRANCH  91  95
ENDBRANCH  65  88
ENDBRANCH  39  40
ENDBRANCH  32  34
ENDBRANCH  31  32
ENDBRANCH  30  31
ENDBRANCH  29  30
ENDBRANCH  28  29
ENDBRANCH   1  28
TORSDOF 22
ENDMDL
