MODEL 1
REMARK VINA RESULT:      -9.8      0.000      0.000
REMARK SMILES C[C@H](Cc1ccc(C2CC2)cc1)C(=O)OCCOCCOCCOC(=O)c1ccc(-c2c3nc(c(-c4cc(S(=O)(=O)[O-])ccc4F)c4ccc([nH]4)c(-c4cc(S(=O)(=O)[O-])ccc4F)c4nc(c(-c5cc(S(=O)(=O)[O-])ccc5F)c5ccc2[nH]5)C=C4)C=C3)cc1
REMARK SMILES IDX 19 1 18 2 17 3 16 4 15 5 13 6 14 7 2 8 1 9 3 10 4 11 5 12
REMARK SMILES IDX 12 13 6 14 11 15 7 16 8 17 9 18 10 19 20 20 21 21 22 22
REMARK SMILES IDX 23 23 24 24 25 25 26 26 27 27 28 28 89 29 29 30 88 31 30 32
REMARK SMILES IDX 31 33 32 34 82 35 33 36 87 37 81 38 83 39 34 40 86 41 80 42
REMARK SMILES IDX 79 43 35 45 67 46 47 47 66 48 48 49 51 50 65 51 84 52 49 53
REMARK SMILES IDX 50 54 64 56 85 57 52 58 36 59 37 60 45 61 38 62 44 63 46 64
REMARK SMILES IDX 43 65 39 66 40 67 41 68 42 69 68 70 69 71 77 72 70 73 76 74
REMARK SMILES IDX 78 75 75 76 71 77 72 78 73 79 74 80 53 81 54 82 62 83 55 84
REMARK SMILES IDX 61 85 63 86 60 87 56 88 57 89 58 90 59 91
REMARK H PARENT 83 44 51 55
REMARK Flexibility Score: inf
ROOT
ATOM      1  C   UNL A   1      36.494  22.690  23.791  1.00  0.00     0.188 C 
ENDROOT
BRANCH   1   2
ATOM      2  O   UNL A   1      35.377  23.478  24.183  1.00  0.00    -0.376 OA
BRANCH   2   3
ATOM      3  C   UNL A   1      34.439  22.953  25.111  1.00  0.00     0.202 C 
BRANCH   3   4
ATOM      4  C   UNL A   1      34.224  23.665  26.458  1.00  0.00     0.261 C 
BRANCH   4   5
ATOM      5  O   UNL A   1      33.387  24.840  26.421  1.00  0.00    -0.463 OA
BRANCH   5   6
ATOM      6  C   UNL A   1      32.047  24.624  26.358  1.00  0.00     0.309 C 
ATOM      7  O   UNL A   1      31.411  24.067  27.249  1.00  0.00    -0.252 OA
BRANCH   6   8
ATOM      8  C   UNL A   1      31.362  25.163  25.094  1.00  0.00     0.100 C 
ATOM      9  C   UNL A   1      31.040  23.955  24.211  1.00  0.00     0.020 C 
BRANCH   8  10
ATOM     10  C   UNL A   1      32.054  26.339  24.357  1.00  0.00     0.050 C 
BRANCH  10  11
ATOM     11  C   UNL A   1      31.217  27.537  24.000  1.00  0.00    -0.047 A 
ATOM     12  C   UNL A   1      30.137  27.379  23.132  1.00  0.00     0.004 A 
ATOM     13  C   UNL A   1      31.483  28.802  24.530  1.00  0.00     0.004 A 
ATOM     14  C   UNL A   1      29.284  28.450  22.873  1.00  0.00     0.004 A 
ATOM     15  C   UNL A   1      30.627  29.873  24.254  1.00  0.00     0.004 A 
ATOM     16  C   UNL A   1      29.485  29.715  23.451  1.00  0.00    -0.045 A 
BRANCH  16  17
ATOM     17  C   UNL A   1      28.458  30.796  23.206  1.00  0.00     0.019 C 
ATOM     18  C   UNL A   1      28.779  32.268  23.174  1.00  0.00     0.009 C 
ATOM     19  C   UNL A   1      28.471  31.543  21.896  1.00  0.00     0.009 C 
ENDBRANCH  16  17
ENDBRANCH  10  11
ENDBRANCH   8  10
ENDBRANCH   6   8
ENDBRANCH   5   6
ENDBRANCH   4   5
ENDBRANCH   3   4
ENDBRANCH   2   3
ENDBRANCH   1   2
BRANCH   1  20
ATOM     20  C   UNL A   1      37.288  21.926  24.863  1.00  0.00     0.188 C 
BRANCH  20  21
ATOM     21  O   UNL A   1      37.070  20.536  24.886  1.00  0.00    -0.376 OA
BRANCH  21  22
ATOM     22  C   UNL A   1      38.184  19.703  25.144  1.00  0.00     0.202 C 
BRANCH  22  23
ATOM     23  C   UNL A   1      39.477  20.320  25.711  1.00  0.00     0.261 C 
BRANCH  23  24
ATOM     24  O   UNL A   1      40.452  19.419  26.267  1.00  0.00    -0.460 OA
BRANCH  24  25
ATOM     25  C   UNL A   1      41.753  19.625  25.951  1.00  0.00     0.338 C 
ATOM     26  O   UNL A   1      42.459  18.890  25.275  1.00  0.00    -0.246 OA
BRANCH  25  27
ATOM     27  C   UNL A   1      42.110  21.007  26.360  1.00  0.00     0.060 A 
ATOM     28  C   UNL A   1      42.280  21.995  25.378  1.00  0.00     0.016 A 
ATOM     29  C   UNL A   1      42.247  21.337  27.710  1.00  0.00     0.016 A 
ATOM     30  C   UNL A   1      42.587  23.312  25.743  1.00  0.00     0.010 A 
ATOM     31  C   UNL A   1      42.583  22.649  28.070  1.00  0.00     0.010 A 
ATOM     32  C   UNL A   1      42.769  23.643  27.092  1.00  0.00    -0.014 A 
BRANCH  32  33
ATOM     33  C   UNL A   1      43.287  24.984  27.482  1.00  0.00     0.031 A 
ATOM     34  C   UNL A   1      42.333  25.976  28.094  1.00  0.00     0.074 A 
ATOM     35  C   UNL A   1      44.575  25.325  27.286  1.00  0.00     0.049 A 
ATOM     36  N   UNL A   1      42.521  27.233  28.399  1.00  0.00    -0.248 NA
ATOM     37  C   UNL A   1      40.982  25.477  28.400  1.00  0.00     0.031 C 
ATOM     38  C   UNL A   1      45.613  24.443  26.757  1.00  0.00     0.029 A 
ATOM     39  N   UNL A   1      45.226  26.520  27.495  1.00  0.00    -0.354 N 
ATOM     40  C   UNL A   1      41.313  27.684  28.919  1.00  0.00     0.074 A 
ATOM     41  C   UNL A   1      40.392  26.567  28.867  1.00  0.00     0.031 C 
ATOM     42  C   UNL A   1      46.765  25.131  26.664  1.00  0.00     0.029 A 
ATOM     43  C   UNL A   1      46.538  26.516  27.075  1.00  0.00     0.049 A 
ATOM     44  H   UNL A   1      44.795  27.303  27.907  1.00  0.00     0.167 HD
ATOM     45  C   UNL A   1      41.000  28.915  29.395  1.00  0.00     0.034 A 
ATOM     46  C   UNL A   1      47.436  27.522  26.991  1.00  0.00     0.034 A 
ATOM     47  C   UNL A   1      41.924  30.022  29.434  1.00  0.00     0.049 A 
ATOM     48  C   UNL A   1      47.029  28.912  27.430  1.00  0.00     0.074 A 
ATOM     49  C   UNL A   1      41.710  31.301  29.919  1.00  0.00     0.029 A 
ATOM     50  N   UNL A   1      43.227  29.993  28.957  1.00  0.00    -0.354 N 
ATOM     51  N   UNL A   1      45.885  29.322  27.932  1.00  0.00    -0.248 NA
ATOM     52  C   UNL A   1      48.035  29.977  27.293  1.00  0.00     0.031 C 
ATOM     53  C   UNL A   1      42.849  32.067  29.656  1.00  0.00     0.029 A 
ATOM     54  C   UNL A   1      43.812  31.243  29.094  1.00  0.00     0.049 A 
ATOM     55  H   UNL A   1      43.671  29.201  28.576  1.00  0.00     0.167 HD
ATOM     56  C   UNL A   1      46.052  30.681  28.200  1.00  0.00     0.074 A 
ATOM     57  C   UNL A   1      47.409  31.014  27.826  1.00  0.00     0.031 C 
ATOM     58  C   UNL A   1      45.165  31.572  28.714  1.00  0.00     0.034 A 
BRANCH  45  59
ATOM     59  C   UNL A   1      39.583  29.150  29.858  1.00  0.00     0.023 A 
ATOM     60  C   UNL A   1      38.650  29.853  29.077  1.00  0.00     0.031 A 
ATOM     61  C   UNL A   1      39.157  28.647  31.101  1.00  0.00     0.131 A 
ATOM     62  C   UNL A   1      37.354  30.072  29.568  1.00  0.00     0.055 A 
ATOM     63  C   UNL A   1      37.845  28.803  31.549  1.00  0.00     0.041 A 
ATOM     64  F   UNL A   1      40.012  27.990  31.901  1.00  0.00    -0.206 F 
ATOM     65  C   UNL A   1      36.937  29.528  30.785  1.00  0.00     0.022 A 
BRANCH  62  66
ATOM     66  S   UNL A   1      36.252  31.178  28.645  1.00  0.00     0.124 S 
ATOM     67  O   UNL A   1      35.198  31.431  29.626  1.00  0.00    -0.237 OA
ATOM     68  O   UNL A   1      37.122  32.308  28.337  1.00  0.00    -0.237 OA
ATOM     69  O   UNL A   1      35.842  30.374  27.495  1.00  0.00    -0.744 OA
ENDBRANCH  62  66
ENDBRANCH  45  59
BRANCH  46  70
ATOM     70  C   UNL A   1      48.795  27.292  26.410  1.00  0.00     0.023 A 
ATOM     71  C   UNL A   1      49.081  27.622  25.074  1.00  0.00     0.031 A 
ATOM     72  C   UNL A   1      49.799  26.643  27.152  1.00  0.00     0.131 A 
ATOM     73  C   UNL A   1      50.307  27.243  24.505  1.00  0.00     0.055 A 
ATOM     74  C   UNL A   1      51.045  26.333  26.601  1.00  0.00     0.041 A 
ATOM     75  F   UNL A   1      49.580  26.289  28.429  1.00  0.00    -0.206 F 
ATOM     76  C   UNL A   1      51.298  26.617  25.264  1.00  0.00     0.022 A 
BRANCH  73  77
ATOM     77  S   UNL A   1      50.537  27.459  22.717  1.00  0.00     0.124 S 
ATOM     78  O   UNL A   1      50.520  28.910  22.590  1.00  0.00    -0.237 OA
ATOM     79  O   UNL A   1      51.825  26.809  22.497  1.00  0.00    -0.237 OA
ATOM     80  O   UNL A   1      49.386  26.767  22.140  1.00  0.00    -0.744 OA
ENDBRANCH  73  77
ENDBRANCH  46  70
BRANCH  58  81
ATOM     81  C   UNL A   1      45.653  32.984  28.948  1.00  0.00     0.023 A 
ATOM     82  C   UNL A   1      45.553  33.981  27.962  1.00  0.00     0.031 A 
ATOM     83  C   UNL A   1      46.237  33.334  30.180  1.00  0.00     0.131 A 
ATOM     84  C   UNL A   1      46.080  35.259  28.201  1.00  0.00     0.055 A 
ATOM     85  C   UNL A   1      46.697  34.626  30.437  1.00  0.00     0.041 A 
ATOM     86  F   UNL A   1      46.365  32.424  31.159  1.00  0.00    -0.206 F 
ATOM     87  C   UNL A   1      46.633  35.594  29.440  1.00  0.00     0.022 A 
BRANCH  84  88
ATOM     88  S   UNL A   1      46.130  36.452  26.835  1.00  0.00     0.124 S 
ATOM     89  O   UNL A   1      46.681  35.648  25.749  1.00  0.00    -0.237 OA
ATOM     90  O   UNL A   1      44.727  36.830  26.699  1.00  0.00    -0.237 OA
ATOM     91  O   UNL A   1      47.009  37.508  27.332  1.00  0.00    -0.744 OA
ENDBRANCH  84  88
ENDBRANCH  58  81
ENDBRANCH  32  33
ENDBRANCH  25  27
ENDBRANCH  24  25
ENDBRANCH  23  24
ENDBRANCH  22  23
ENDBRANCH  21  22
ENDBRANCH  20  21
ENDBRANCH   1  20
TORSDOF 23
ENDMDL
MODEL 2
REMARK VINA RESULT:      -9.7      1.959      2.543
REMARK SMILES C[C@H](Cc1ccc(C2CC2)cc1)C(=O)OCCOCCOCCOC(=O)c1ccc(-c2c3nc(c(-c4cc(S(=O)(=O)[O-])ccc4F)c4ccc([nH]4)c(-c4cc(S(=O)(=O)[O-])ccc4F)c4nc(c(-c5cc(S(=O)(=O)[O-])ccc5F)c5ccc2[nH]5)C=C4)C=C3)cc1
REMARK SMILES IDX 19 1 18 2 17 3 16 4 15 5 13 6 14 7 2 8 1 9 3 10 4 11 5 12
REMARK SMILES IDX 12 13 6 14 11 15 7 16 8 17 9 18 10 19 20 20 21 21 22 22
REMARK SMILES IDX 23 23 24 24 25 25 26 26 27 27 28 28 89 29 29 30 88 31 30 32
REMARK SMILES IDX 31 33 32 34 82 35 33 36 87 37 81 38 83 39 34 40 86 41 80 42
REMARK SMILES IDX 79 43 35 45 67 46 47 47 66 48 48 49 51 50 65 51 84 52 49 53
REMARK SMILES IDX 50 54 64 56 85 57 52 58 36 59 37 60 45 61 38 62 44 63 46 64
REMARK SMILES IDX 43 65 39 66 40 67 41 68 42 69 68 70 69 71 77 72 70 73 76 74
REMARK SMILES IDX 78 75 75 76 71 77 72 78 73 79 74 80 53 81 54 82 62 83 55 84
REMARK SMILES IDX 61 85 63 86 60 87 56 88 57 89 58 90 59 91
REMARK H PARENT 83 44 51 55
REMARK Flexibility Score: inf
ROOT
ATOM      1  C   UNL A   1      33.431  20.388  25.812  1.00  0.00     0.188 C 
ENDROOT
BRANCH   1   2
ATOM      2  O   UNL A   1      33.612  20.847  27.146  1.00  0.00    -0.376 OA
BRANCH   2   3
ATOM      3  C   UNL A   1      33.167  22.147  27.507  1.00  0.00     0.202 C 
BRANCH   3   4
ATOM      4  C   UNL A   1      33.917  23.380  26.972  1.00  0.00     0.261 C 
BRANCH   4   5
ATOM      5  O   UNL A   1      33.097  24.394  26.355  1.00  0.00    -0.463 OA
BRANCH   5   6
ATOM      6  C   UNL A   1      33.139  24.461  24.998  1.00  0.00     0.309 C 
ATOM      7  O   UNL A   1      32.651  23.604  24.266  1.00  0.00    -0.252 OA
BRANCH   6   8
ATOM      8  C   UNL A   1      33.815  25.717  24.431  1.00  0.00     0.100 C 
ATOM      9  C   UNL A   1      33.774  26.782  25.530  1.00  0.00     0.020 C 
BRANCH   8  10
ATOM     10  C   UNL A   1      33.348  26.208  23.036  1.00  0.00     0.050 C 
BRANCH  10  11
ATOM     11  C   UNL A   1      32.183  27.158  22.976  1.00  0.00    -0.047 A 
ATOM     12  C   UNL A   1      32.404  28.485  22.608  1.00  0.00     0.004 A 
ATOM     13  C   UNL A   1      30.881  26.741  23.261  1.00  0.00     0.004 A 
ATOM     14  C   UNL A   1      31.329  29.353  22.439  1.00  0.00     0.004 A 
ATOM     15  C   UNL A   1      29.809  27.625  23.101  1.00  0.00     0.004 A 
ATOM     16  C   UNL A   1      30.002  28.940  22.649  1.00  0.00    -0.045 A 
BRANCH  16  17
ATOM     17  C   UNL A   1      28.884  29.910  22.344  1.00  0.00     0.019 C 
ATOM     18  C   UNL A   1      27.471  29.747  22.841  1.00  0.00     0.009 C 
ATOM     19  C   UNL A   1      28.357  30.798  23.442  1.00  0.00     0.009 C 
ENDBRANCH  16  17
ENDBRANCH  10  11
ENDBRANCH   8  10
ENDBRANCH   6   8
ENDBRANCH   5   6
ENDBRANCH   4   5
ENDBRANCH   3   4
ENDBRANCH   2   3
ENDBRANCH   1   2
BRANCH   1  20
ATOM     20  C   UNL A   1      34.658  20.225  24.901  1.00  0.00     0.188 C 
BRANCH  20  21
ATOM     21  O   UNL A   1      35.297  21.426  24.544  1.00  0.00    -0.376 OA
BRANCH  21  22
ATOM     22  C   UNL A   1      36.512  21.740  25.198  1.00  0.00     0.202 C 
BRANCH  22  23
ATOM     23  C   UNL A   1      37.608  20.664  25.318  1.00  0.00     0.261 C 
BRANCH  23  24
ATOM     24  O   UNL A   1      38.977  21.110  25.317  1.00  0.00    -0.460 OA
BRANCH  24  25
ATOM     25  C   UNL A   1      39.707  20.908  26.439  1.00  0.00     0.338 C 
ATOM     26  O   UNL A   1      40.028  19.824  26.908  1.00  0.00    -0.246 OA
BRANCH  25  27
ATOM     27  C   UNL A   1      40.256  22.218  26.872  1.00  0.00     0.060 A 
ATOM     28  C   UNL A   1      39.860  23.386  26.203  1.00  0.00     0.016 A 
ATOM     29  C   UNL A   1      41.134  22.299  27.954  1.00  0.00     0.016 A 
ATOM     30  C   UNL A   1      40.341  24.635  26.613  1.00  0.00     0.010 A 
ATOM     31  C   UNL A   1      41.636  23.547  28.344  1.00  0.00     0.010 A 
ATOM     32  C   UNL A   1      41.256  24.723  27.670  1.00  0.00    -0.014 A 
BRANCH  32  33
ATOM     33  C   UNL A   1      41.927  26.014  27.990  1.00  0.00     0.031 A 
ATOM     34  C   UNL A   1      41.148  27.067  28.734  1.00  0.00     0.074 A 
ATOM     35  C   UNL A   1      43.198  26.259  27.617  1.00  0.00     0.049 A 
ATOM     36  N   UNL A   1      41.474  28.301  29.014  1.00  0.00    -0.248 NA
ATOM     37  C   UNL A   1      39.818  26.669  29.224  1.00  0.00     0.031 C 
ATOM     38  C   UNL A   1      44.080  25.308  26.944  1.00  0.00     0.029 A 
ATOM     39  N   UNL A   1      43.963  27.396  27.738  1.00  0.00    -0.354 N 
ATOM     40  C   UNL A   1      40.389  28.835  29.701  1.00  0.00     0.074 A 
ATOM     41  C   UNL A   1      39.386  27.793  29.774  1.00  0.00     0.031 C 
ATOM     42  C   UNL A   1      45.258  25.907  26.693  1.00  0.00     0.029 A 
ATOM     43  C   UNL A   1      45.199  27.298  27.137  1.00  0.00     0.049 A 
ATOM     44  H   UNL A   1      43.655  28.204  28.210  1.00  0.00     0.167 HD
ATOM     45  C   UNL A   1      40.242  30.079  30.221  1.00  0.00     0.034 A 
ATOM     46  C   UNL A   1      46.152  28.234  26.933  1.00  0.00     0.034 A 
ATOM     47  C   UNL A   1      41.246  31.112  30.135  1.00  0.00     0.049 A 
ATOM     48  C   UNL A   1      45.920  29.645  27.430  1.00  0.00     0.074 A 
ATOM     49  C   UNL A   1      41.202  32.396  30.651  1.00  0.00     0.029 A 
ATOM     50  N   UNL A   1      42.464  30.990  29.479  1.00  0.00    -0.354 N 
ATOM     51  N   UNL A   1      44.893  30.134  28.089  1.00  0.00    -0.248 NA
ATOM     52  C   UNL A   1      46.976  30.631  27.158  1.00  0.00     0.031 C 
ATOM     53  C   UNL A   1      42.350  33.076  30.233  1.00  0.00     0.029 A 
ATOM     54  C   UNL A   1      43.157  32.190  29.539  1.00  0.00     0.049 A 
ATOM     55  H   UNL A   1      42.787  30.173  29.037  1.00  0.00     0.167 HD
ATOM     56  C   UNL A   1      45.201  31.471  28.338  1.00  0.00     0.074 A 
ATOM     57  C   UNL A   1      46.514  31.705  27.779  1.00  0.00     0.031 C 
ATOM     58  C   UNL A   1      44.466  32.419  28.974  1.00  0.00     0.034 A 
BRANCH  45  59
ATOM     59  C   UNL A   1      38.927  30.416  30.879  1.00  0.00     0.023 A 
ATOM     60  C   UNL A   1      37.907  31.103  30.200  1.00  0.00     0.031 A 
ATOM     61  C   UNL A   1      38.686  30.025  32.210  1.00  0.00     0.131 A 
ATOM     62  C   UNL A   1      36.713  31.419  30.867  1.00  0.00     0.055 A 
ATOM     63  C   UNL A   1      37.469  30.277  32.843  1.00  0.00     0.041 A 
ATOM     64  F   UNL A   1      39.634  29.389  32.916  1.00  0.00    -0.206 F 
ATOM     65  C   UNL A   1      36.477  30.987  32.173  1.00  0.00     0.022 A 
BRANCH  62  66
ATOM     66  S   UNL A   1      35.519  32.506  30.042  1.00  0.00     0.124 S 
ATOM     67  O   UNL A   1      36.198  33.798  30.111  1.00  0.00    -0.237 OA
ATOM     68  O   UNL A   1      35.413  31.910  28.715  1.00  0.00    -0.237 OA
ATOM     69  O   UNL A   1      34.322  32.394  30.874  1.00  0.00    -0.744 OA
ENDBRANCH  62  66
ENDBRANCH  45  59
BRANCH  46  70
ATOM     70  C   UNL A   1      47.395  27.910  26.166  1.00  0.00     0.023 A 
ATOM     71  C   UNL A   1      47.464  28.101  24.776  1.00  0.00     0.031 A 
ATOM     72  C   UNL A   1      48.498  27.305  26.798  1.00  0.00     0.131 A 
ATOM     73  C   UNL A   1      48.575  27.634  24.057  1.00  0.00     0.055 A 
ATOM     74  C   UNL A   1      49.632  26.907  26.087  1.00  0.00     0.041 A 
ATOM     75  F   UNL A   1      48.485  27.081  28.122  1.00  0.00    -0.206 F 
ATOM     76  C   UNL A   1      49.667  27.054  24.705  1.00  0.00     0.022 A 
BRANCH  73  77
ATOM     77  S   UNL A   1      48.513  27.671  22.243  1.00  0.00     0.124 S 
ATOM     78  O   UNL A   1      48.719  26.267  21.912  1.00  0.00    -0.237 OA
ATOM     79  O   UNL A   1      47.176  28.200  21.997  1.00  0.00    -0.237 OA
ATOM     80  O   UNL A   1      49.611  28.566  21.883  1.00  0.00    -0.744 OA
ENDBRANCH  73  77
ENDBRANCH  46  70
BRANCH  58  81
ATOM     81  C   UNL A   1      45.091  33.786  29.144  1.00  0.00     0.023 A 
ATOM     82  C   UNL A   1      45.883  34.111  30.259  1.00  0.00     0.031 A 
ATOM     83  C   UNL A   1      44.881  34.784  28.174  1.00  0.00     0.131 A 
ATOM     84  C   UNL A   1      46.386  35.413  30.407  1.00  0.00     0.055 A 
ATOM     85  C   UNL A   1      45.442  36.056  28.291  1.00  0.00     0.041 A 
ATOM     86  F   UNL A   1      44.130  34.536  27.088  1.00  0.00    -0.206 F 
ATOM     87  C   UNL A   1      46.188  36.381  29.420  1.00  0.00     0.022 A 
BRANCH  84  88
ATOM     88  S   UNL A   1      47.217  35.856  31.958  1.00  0.00     0.124 S 
ATOM     89  O   UNL A   1      46.432  35.120  32.944  1.00  0.00    -0.237 OA
ATOM     90  O   UNL A   1      48.575  35.371  31.734  1.00  0.00    -0.237 OA
ATOM     91  O   UNL A   1      47.081  37.310  32.017  1.00  0.00    -0.744 OA
ENDBRANCH  84  88
ENDBRANCH  58  81
ENDBRANCH  32  33
ENDBRANCH  25  27
ENDBRANCH  24  25
ENDBRANCH  23  24
ENDBRANCH  22  23
ENDBRANCH  21  22
ENDBRANCH  20  21
ENDBRANCH   1  20
TORSDOF 23
ENDMDL
MODEL 3
REMARK VINA RESULT:      -9.6      5.071      8.947
REMARK SMILES C[C@H](Cc1ccc(C2CC2)cc1)C(=O)OCCOCCOCCOC(=O)c1ccc(-c2c3nc(c(-c4cc(S(=O)(=O)[O-])ccc4F)c4ccc([nH]4)c(-c4cc(S(=O)(=O)[O-])ccc4F)c4nc(c(-c5cc(S(=O)(=O)[O-])ccc5F)c5ccc2[nH]5)C=C4)C=C3)cc1
REMARK SMILES IDX 19 1 18 2 17 3 16 4 15 5 13 6 14 7 2 8 1 9 3 10 4 11 5 12
REMARK SMILES IDX 12 13 6 14 11 15 7 16 8 17 9 18 10 19 20 20 21 21 22 22
REMARK SMILES IDX 23 23 24 24 25 25 26 26 27 27 28 28 89 29 29 30 88 31 30 32
REMARK SMILES IDX 31 33 32 34 82 35 33 36 87 37 81 38 83 39 34 40 86 41 80 42
REMARK SMILES IDX 79 43 35 45 67 46 47 47 66 48 48 49 51 50 65 51 84 52 49 53
REMARK SMILES IDX 50 54 64 56 85 57 52 58 36 59 37 60 45 61 38 62 44 63 46 64
REMARK SMILES IDX 43 65 39 66 40 67 41 68 42 69 68 70 69 71 77 72 70 73 76 74
REMARK SMILES IDX 78 75 75 76 71 77 72 78 73 79 74 80 53 81 54 82 62 83 55 84
REMARK SMILES IDX 61 85 63 86 60 87 56 88 57 89 58 90 59 91
REMARK H PARENT 83 44 51 55
REMARK Flexibility Score: inf
ROOT
ATOM      1  C   UNL A   1      38.611  22.721  26.170  1.00  0.00     0.188 C 
ENDROOT
BRANCH   1   2
ATOM      2  O   UNL A   1      37.352  22.829  25.516  1.00  0.00    -0.376 OA
BRANCH   2   3
ATOM      3  C   UNL A   1      36.205  23.212  26.262  1.00  0.00     0.202 C 
BRANCH   3   4
ATOM      4  C   UNL A   1      34.870  22.485  26.027  1.00  0.00     0.261 C 
BRANCH   4   5
ATOM      5  O   UNL A   1      33.706  23.330  25.912  1.00  0.00    -0.463 OA
BRANCH   5   6
ATOM      6  C   UNL A   1      32.633  22.986  26.672  1.00  0.00     0.309 C 
ATOM      7  O   UNL A   1      32.718  22.676  27.858  1.00  0.00    -0.252 OA
BRANCH   6   8
ATOM      8  C   UNL A   1      31.280  23.045  25.949  1.00  0.00     0.100 C 
ATOM      9  C   UNL A   1      31.576  23.040  24.447  1.00  0.00     0.020 C 
BRANCH   8  10
ATOM     10  C   UNL A   1      30.276  24.134  26.408  1.00  0.00     0.050 C 
BRANCH  10  11
ATOM     11  C   UNL A   1      30.294  25.457  25.692  1.00  0.00    -0.047 A 
ATOM     12  C   UNL A   1      31.165  26.455  26.127  1.00  0.00     0.004 A 
ATOM     13  C   UNL A   1      29.472  25.706  24.590  1.00  0.00     0.004 A 
ATOM     14  C   UNL A   1      31.277  27.646  25.414  1.00  0.00     0.004 A 
ATOM     15  C   UNL A   1      29.584  26.911  23.888  1.00  0.00     0.004 A 
ATOM     16  C   UNL A   1      30.516  27.894  24.259  1.00  0.00    -0.045 A 
BRANCH  16  17
ATOM     17  C   UNL A   1      30.770  29.165  23.481  1.00  0.00     0.019 C 
ATOM     18  C   UNL A   1      29.995  29.568  22.255  1.00  0.00     0.009 C 
ATOM     19  C   UNL A   1      29.766  30.287  23.552  1.00  0.00     0.009 C 
ENDBRANCH  16  17
ENDBRANCH  10  11
ENDBRANCH   8  10
ENDBRANCH   6   8
ENDBRANCH   5   6
ENDBRANCH   4   5
ENDBRANCH   3   4
ENDBRANCH   2   3
ENDBRANCH   1   2
BRANCH   1  20
ATOM     20  C   UNL A   1      39.528  21.532  25.842  1.00  0.00     0.188 C 
BRANCH  20  21
ATOM     21  O   UNL A   1      40.391  21.143  26.883  1.00  0.00    -0.376 OA
BRANCH  21  22
ATOM     22  C   UNL A   1      41.412  20.214  26.574  1.00  0.00     0.202 C 
BRANCH  22  23
ATOM     23  C   UNL A   1      42.639  20.678  25.764  1.00  0.00     0.261 C 
BRANCH  23  24
ATOM     24  O   UNL A   1      43.364  21.819  26.256  1.00  0.00    -0.460 OA
BRANCH  24  25
ATOM     25  C   UNL A   1      43.305  22.963  25.534  1.00  0.00     0.338 C 
ATOM     26  O   UNL A   1      43.427  23.060  24.321  1.00  0.00    -0.246 OA
BRANCH  25  27
ATOM     27  C   UNL A   1      42.828  24.047  26.431  1.00  0.00     0.060 A 
ATOM     28  C   UNL A   1      43.265  25.363  26.215  1.00  0.00     0.016 A 
ATOM     29  C   UNL A   1      41.928  23.773  27.462  1.00  0.00     0.016 A 
ATOM     30  C   UNL A   1      42.805  26.405  27.028  1.00  0.00     0.010 A 
ATOM     31  C   UNL A   1      41.492  24.813  28.293  1.00  0.00     0.010 A 
ATOM     32  C   UNL A   1      41.936  26.133  28.093  1.00  0.00    -0.014 A 
BRANCH  32  33
ATOM     33  C   UNL A   1      41.594  27.192  29.084  1.00  0.00     0.031 A 
ATOM     34  C   UNL A   1      42.407  27.285  30.349  1.00  0.00     0.074 A 
ATOM     35  C   UNL A   1      40.575  28.047  28.879  1.00  0.00     0.049 A 
ATOM     36  N   UNL A   1      42.224  28.036  31.403  1.00  0.00    -0.248 NA
ATOM     37  C   UNL A   1      43.586  26.407  30.432  1.00  0.00     0.031 C 
ATOM     38  C   UNL A   1      39.747  28.102  27.676  1.00  0.00     0.029 A 
ATOM     39  N   UNL A   1      40.050  29.027  29.691  1.00  0.00    -0.354 N 
ATOM     40  C   UNL A   1      43.253  27.715  32.283  1.00  0.00     0.074 A 
ATOM     41  C   UNL A   1      44.043  26.683  31.644  1.00  0.00     0.031 C 
ATOM     42  C   UNL A   1      38.806  29.050  27.836  1.00  0.00     0.029 A 
ATOM     43  C   UNL A   1      38.928  29.634  29.171  1.00  0.00     0.049 A 
ATOM     44  H   UNL A   1      40.441  29.270  30.561  1.00  0.00     0.167 HD
ATOM     45  C   UNL A   1      43.512  28.232  33.509  1.00  0.00     0.034 A 
ATOM     46  C   UNL A   1      38.075  30.524  29.725  1.00  0.00     0.034 A 
ATOM     47  C   UNL A   1      42.713  29.254  34.138  1.00  0.00     0.049 A 
ATOM     48  C   UNL A   1      38.328  31.007  31.137  1.00  0.00     0.074 A 
ATOM     49  C   UNL A   1      42.908  29.860  35.369  1.00  0.00     0.029 A 
ATOM     50  N   UNL A   1      41.559  29.810  33.603  1.00  0.00    -0.354 N 
ATOM     51  N   UNL A   1      39.312  30.703  31.954  1.00  0.00    -0.248 NA
ATOM     52  C   UNL A   1      37.356  31.954  31.702  1.00  0.00     0.031 C 
ATOM     53  C   UNL A   1      41.828  30.714  35.613  1.00  0.00     0.029 A 
ATOM     54  C   UNL A   1      41.008  30.716  34.496  1.00  0.00     0.049 A 
ATOM     55  H   UNL A   1      41.186  29.592  32.718  1.00  0.00     0.167 HD
ATOM     56  C   UNL A   1      39.091  31.451  33.110  1.00  0.00     0.074 A 
ATOM     57  C   UNL A   1      37.897  32.233  32.878  1.00  0.00     0.031 C 
ATOM     58  C   UNL A   1      39.813  31.490  34.261  1.00  0.00     0.034 A 
BRANCH  45  59
ATOM     59  C   UNL A   1      44.677  27.660  34.281  1.00  0.00     0.023 A 
ATOM     60  C   UNL A   1      44.523  26.589  35.177  1.00  0.00     0.031 A 
ATOM     61  C   UNL A   1      45.967  28.191  34.102  1.00  0.00     0.131 A 
ATOM     62  C   UNL A   1      45.632  26.114  35.894  1.00  0.00     0.055 A 
ATOM     63  C   UNL A   1      47.079  27.664  34.761  1.00  0.00     0.041 A 
ATOM     64  F   UNL A   1      46.169  29.231  33.278  1.00  0.00    -0.206 F 
ATOM     65  C   UNL A   1      46.913  26.625  35.671  1.00  0.00     0.022 A 
BRANCH  62  66
ATOM     66  S   UNL A   1      45.360  24.895  37.209  1.00  0.00     0.124 S 
ATOM     67  O   UNL A   1      45.214  23.660  36.441  1.00  0.00    -0.237 OA
ATOM     68  O   UNL A   1      46.576  25.012  38.006  1.00  0.00    -0.237 OA
ATOM     69  O   UNL A   1      44.138  25.362  37.861  1.00  0.00    -0.744 OA
ENDBRANCH  62  66
ENDBRANCH  45  59
BRANCH  46  70
ATOM     70  C   UNL A   1      36.857  30.982  28.988  1.00  0.00     0.023 A 
ATOM     71  C   UNL A   1      36.546  32.347  28.870  1.00  0.00     0.031 A 
ATOM     72  C   UNL A   1      35.928  30.054  28.479  1.00  0.00     0.131 A 
ATOM     73  C   UNL A   1      35.315  32.742  28.323  1.00  0.00     0.055 A 
ATOM     74  C   UNL A   1      34.737  30.456  27.871  1.00  0.00     0.041 A 
ATOM     75  F   UNL A   1      36.161  28.735  28.577  1.00  0.00    -0.206 F 
ATOM     76  C   UNL A   1      34.416  31.807  27.807  1.00  0.00     0.022 A 
BRANCH  73  77
ATOM     77  S   UNL A   1      34.845  34.493  28.420  1.00  0.00     0.124 S 
ATOM     78  O   UNL A   1      35.932  35.047  29.218  1.00  0.00    -0.237 OA
ATOM     79  O   UNL A   1      34.819  34.878  27.013  1.00  0.00    -0.237 OA
ATOM     80  O   UNL A   1      33.540  34.458  29.079  1.00  0.00    -0.744 OA
ENDBRANCH  73  77
ENDBRANCH  46  70
BRANCH  58  81
ATOM     81  C   UNL A   1      39.356  32.450  35.337  1.00  0.00     0.023 A 
ATOM     82  C   UNL A   1      39.804  33.781  35.387  1.00  0.00     0.031 A 
ATOM     83  C   UNL A   1      38.462  32.019  36.334  1.00  0.00     0.131 A 
ATOM     84  C   UNL A   1      39.405  34.616  36.443  1.00  0.00     0.055 A 
ATOM     85  C   UNL A   1      38.014  32.873  37.342  1.00  0.00     0.041 A 
ATOM     86  F   UNL A   1      38.003  30.757  36.343  1.00  0.00    -0.206 F 
ATOM     87  C   UNL A   1      38.497  34.177  37.409  1.00  0.00     0.022 A 
BRANCH  84  88
ATOM     88  S   UNL A   1      40.171  36.254  36.597  1.00  0.00     0.124 S 
ATOM     89  O   UNL A   1      41.587  35.919  36.704  1.00  0.00    -0.237 OA
ATOM     90  O   UNL A   1      39.762  36.908  35.357  1.00  0.00    -0.237 OA
ATOM     91  O   UNL A   1      39.570  36.801  37.812  1.00  0.00    -0.744 OA
ENDBRANCH  84  88
ENDBRANCH  58  81
ENDBRANCH  32  33
ENDBRANCH  25  27
ENDBRANCH  24  25
ENDBRANCH  23  24
ENDBRANCH  22  23
ENDBRANCH  21  22
ENDBRANCH  20  21
ENDBRANCH   1  20
TORSDOF 23
ENDMDL
