MODEL 1
REMARK VINA RESULT:     -12.4      0.000      0.000
REMARK SMILES O=C(OCCOCCOCCOC(=O)c1sccc1S(=O)(=O)Nc1ccc(Cn2cncn2)cc1)c1ccc(-c2c3nc(c(-c4cc(S(=O)(=O)[O-])ccc4F)c4ccc([nH]4)c(-c4cc(S(=O)(=O)[O-])ccc4F)c4nc(c(-c5cc(S(=O)(=O)[O-])ccc5F)c5ccc2[nH]5)C=C4)C=C3)cc1
REMARK SMILES IDX 8 1 7 2 6 3 5 4 4 5 3 6 2 7 1 8 36 9 37 10 98 11 38 12 97 13
REMARK SMILES IDX 39 14 40 15 41 16 91 17 42 18 96 19 90 20 92 21 43 22 95 23
REMARK SMILES IDX 89 24 88 25 44 27 76 28 56 29 75 30 57 31 60 32 74 33 93 34
REMARK SMILES IDX 58 35 59 36 73 38 94 39 61 40 45 41 46 42 54 43 47 44 53 45
REMARK SMILES IDX 55 46 52 47 48 48 49 49 50 50 51 51 77 52 78 53 86 54 79 55
REMARK SMILES IDX 85 56 87 57 84 58 80 59 81 60 82 61 83 62 62 63 63 64 71 65
REMARK SMILES IDX 64 66 70 67 72 68 69 69 65 70 66 71 67 72 68 73 9 74 10 75
REMARK SMILES IDX 11 76 12 77 13 78 14 79 15 80 16 81 19 82 17 83 18 84 20 85
REMARK SMILES IDX 21 86 22 87 23 88 24 90 25 91 35 92 26 93 34 94 27 95 28 96
REMARK SMILES IDX 29 97 30 98 33 99 31 100 32 101
REMARK H PARENT 92 26 60 37 23 89
REMARK Flexibility Score: inf
ROOT
ATOM      1  C   UNL A   1      33.856  32.783  27.988  1.00  0.00     0.188 C 
ENDROOT
BRANCH   1   2
ATOM      2  C   UNL A   1      34.448  32.636  29.447  1.00  0.00     0.188 C 
BRANCH   2   3
ATOM      3  O   UNL A   1      35.256  33.667  29.964  1.00  0.00    -0.376 OA
BRANCH   3   4
ATOM      4  C   UNL A   1      36.637  33.625  29.663  1.00  0.00     0.202 C 
BRANCH   4   5
ATOM      5  C   UNL A   1      37.174  32.374  28.941  1.00  0.00     0.261 C 
BRANCH   5   6
ATOM      6  O   UNL A   1      37.580  31.239  29.737  1.00  0.00    -0.460 OA
BRANCH   6   7
ATOM      7  C   UNL A   1      37.268  29.924  29.678  1.00  0.00     0.338 C 
ATOM      8  O   UNL A   1      36.211  29.533  30.175  1.00  0.00    -0.246 OA
BRANCH   7   9
ATOM      9  C   UNL A   1      38.187  28.902  29.158  1.00  0.00     0.060 A 
ATOM     10  C   UNL A   1      38.583  27.782  29.879  1.00  0.00     0.016 A 
ATOM     11  C   UNL A   1      38.720  29.141  27.878  1.00  0.00     0.016 A 
ATOM     12  C   UNL A   1      39.793  27.243  29.616  1.00  0.00     0.010 A 
ATOM     13  C   UNL A   1      39.899  28.548  27.553  1.00  0.00     0.010 A 
ATOM     14  C   UNL A   1      40.481  27.780  28.545  1.00  0.00    -0.014 A 
BRANCH  14  15
ATOM     15  C   UNL A   1      41.863  27.447  28.439  1.00  0.00     0.031 A 
ATOM     16  C   UNL A   1      41.956  26.102  27.821  1.00  0.00     0.074 A 
ATOM     17  C   UNL A   1      42.728  28.369  28.914  1.00  0.00     0.049 A 
ATOM     18  N   UNL A   1      42.269  25.001  28.419  1.00  0.00    -0.248 NA
ATOM     19  C   UNL A   1      41.244  25.863  26.541  1.00  0.00     0.031 C 
ATOM     20  C   UNL A   1      42.474  29.719  29.453  1.00  0.00     0.029 A 
ATOM     21  N   UNL A   1      44.080  28.332  28.913  1.00  0.00    -0.354 N 
ATOM     22  C   UNL A   1      42.185  24.023  27.437  1.00  0.00     0.074 A 
ATOM     23  C   UNL A   1      41.284  24.533  26.451  1.00  0.00     0.031 C 
ATOM     24  C   UNL A   1      43.613  30.452  29.414  1.00  0.00     0.029 A 
ATOM     25  C   UNL A   1      44.702  29.590  29.002  1.00  0.00     0.049 A 
ATOM     26  H   UNL A   1      44.587  27.491  28.854  1.00  0.00     0.167 HD
ATOM     27  C   UNL A   1      43.195  23.118  27.341  1.00  0.00     0.034 A 
ATOM     28  C   UNL A   1      46.001  29.806  28.634  1.00  0.00     0.034 A 
ATOM     29  C   UNL A   1      43.871  23.008  28.620  1.00  0.00     0.049 A 
ATOM     30  C   UNL A   1      46.622  28.433  28.666  1.00  0.00     0.074 A 
ATOM     31  C   UNL A   1      43.455  22.632  29.882  1.00  0.00     0.029 A 
ATOM     32  N   UNL A   1      44.992  23.794  28.807  1.00  0.00    -0.354 N 
ATOM     33  N   UNL A   1      46.695  27.734  29.779  1.00  0.00    -0.248 NA
ATOM     34  C   UNL A   1      46.513  27.634  27.443  1.00  0.00     0.031 C 
ATOM     35  C   UNL A   1      44.025  23.604  30.758  1.00  0.00     0.029 A 
ATOM     36  C   UNL A   1      44.889  24.425  30.028  1.00  0.00     0.049 A 
ATOM     37  H   UNL A   1      45.741  23.887  28.174  1.00  0.00     0.167 HD
ATOM     38  C   UNL A   1      46.221  26.465  29.449  1.00  0.00     0.074 A 
ATOM     39  C   UNL A   1      46.143  26.462  27.981  1.00  0.00     0.031 C 
ATOM     40  C   UNL A   1      45.587  25.661  30.362  1.00  0.00     0.034 A 
BRANCH  27  41
ATOM     41  C   UNL A   1      43.871  22.777  26.031  1.00  0.00     0.023 A 
ATOM     42  C   UNL A   1      44.021  21.409  25.757  1.00  0.00     0.031 A 
ATOM     43  C   UNL A   1      44.639  23.653  25.225  1.00  0.00     0.131 A 
ATOM     44  C   UNL A   1      44.984  20.960  24.841  1.00  0.00     0.055 A 
ATOM     45  C   UNL A   1      45.556  23.202  24.273  1.00  0.00     0.041 A 
ATOM     46  F   UNL A   1      44.621  24.984  25.356  1.00  0.00    -0.206 F 
ATOM     47  C   UNL A   1      45.759  21.846  24.100  1.00  0.00     0.022 A 
BRANCH  44  48
ATOM     48  S   UNL A   1      45.333  19.187  24.789  1.00  0.00     0.124 S 
ATOM     49  O   UNL A   1      46.344  19.058  25.832  1.00  0.00    -0.237 OA
ATOM     50  O   UNL A   1      44.023  18.618  25.088  1.00  0.00    -0.237 OA
ATOM     51  O   UNL A   1      45.809  18.978  23.424  1.00  0.00    -0.744 OA
ENDBRANCH  44  48
ENDBRANCH  27  41
BRANCH  28  52
ATOM     52  C   UNL A   1      46.502  30.952  27.795  1.00  0.00     0.023 A 
ATOM     53  C   UNL A   1      45.696  31.779  26.968  1.00  0.00     0.031 A 
ATOM     54  C   UNL A   1      47.837  31.382  27.980  1.00  0.00     0.131 A 
ATOM     55  C   UNL A   1      46.242  32.952  26.368  1.00  0.00     0.055 A 
ATOM     56  C   UNL A   1      48.362  32.541  27.401  1.00  0.00     0.041 A 
ATOM     57  F   UNL A   1      48.671  30.725  28.802  1.00  0.00    -0.206 F 
ATOM     58  C   UNL A   1      47.564  33.335  26.599  1.00  0.00     0.022 A 
BRANCH  55  59
ATOM     59  S   UNL A   1      45.246  34.045  25.285  1.00  0.00     0.124 S 
ATOM     60  O   UNL A   1      44.533  34.877  26.249  1.00  0.00    -0.237 OA
ATOM     61  O   UNL A   1      46.262  34.711  24.480  1.00  0.00    -0.237 OA
ATOM     62  O   UNL A   1      44.394  33.114  24.542  1.00  0.00    -0.744 OA
ENDBRANCH  55  59
ENDBRANCH  28  52
BRANCH  40  63
ATOM     63  C   UNL A   1      45.515  26.108  31.823  1.00  0.00     0.023 A 
ATOM     64  C   UNL A   1      44.411  26.716  32.483  1.00  0.00     0.031 A 
ATOM     65  C   UNL A   1      46.611  25.743  32.622  1.00  0.00     0.131 A 
ATOM     66  C   UNL A   1      44.458  26.953  33.879  1.00  0.00     0.055 A 
ATOM     67  C   UNL A   1      46.635  25.944  34.000  1.00  0.00     0.041 A 
ATOM     68  F   UNL A   1      47.671  25.130  32.072  1.00  0.00    -0.206 F 
ATOM     69  C   UNL A   1      45.564  26.559  34.634  1.00  0.00     0.022 A 
BRANCH  66  70
ATOM     70  S   UNL A   1      43.098  27.820  34.749  1.00  0.00     0.124 S 
ATOM     71  O   UNL A   1      43.143  29.162  34.182  1.00  0.00    -0.237 OA
ATOM     72  O   UNL A   1      41.930  27.017  34.397  1.00  0.00    -0.237 OA
ATOM     73  O   UNL A   1      43.486  27.739  36.159  1.00  0.00    -0.744 OA
ENDBRANCH  66  70
ENDBRANCH  40  63
ENDBRANCH  14  15
ENDBRANCH   7   9
ENDBRANCH   6   7
ENDBRANCH   5   6
ENDBRANCH   4   5
ENDBRANCH   3   4
ENDBRANCH   2   3
ENDBRANCH   1   2
BRANCH   1  74
ATOM     74  O   UNL A   1      32.895  31.797  27.343  1.00  0.00    -0.376 OA
BRANCH  74  75
ATOM     75  C   UNL A   1      32.821  30.253  27.218  1.00  0.00     0.202 C 
BRANCH  75  76
ATOM     76  C   UNL A   1      34.207  28.981  27.130  1.00  0.00     0.261 C 
BRANCH  76  77
ATOM     77  O   UNL A   1      34.262  27.648  25.609  1.00  0.00    -0.459 OA
BRANCH  77  78
ATOM     78  C   UNL A   1      33.909  26.461  24.893  1.00  0.00     0.349 C 
ATOM     79  O   UNL A   1      34.518  25.395  24.981  1.00  0.00    -0.245 OA
BRANCH  78  80
ATOM     80  C   UNL A   1      32.614  26.550  24.229  1.00  0.00     0.133 A 
ATOM     81  S   UNL A   1      32.756  27.051  22.553  1.00  0.00    -0.136 S 
ATOM     82  C   UNL A   1      31.285  26.331  24.549  1.00  0.00     0.113 A 
ATOM     83  C   UNL A   1      31.087  27.255  22.371  1.00  0.00     0.067 A 
ATOM     84  C   UNL A   1      30.416  26.797  23.477  1.00  0.00     0.035 A 
BRANCH  82  85
ATOM     85  S   UNL A   1      30.507  25.752  25.996  1.00  0.00     0.263 S 
ATOM     86  O   UNL A   1      31.041  26.628  27.016  1.00  0.00    -0.201 OA
ATOM     87  O   UNL A   1      29.104  25.837  25.627  1.00  0.00    -0.201 OA
BRANCH  85  88
ATOM     88  N   UNL A   1      30.658  24.157  26.596  1.00  0.00    -0.280 N 
ATOM     89  H   UNL A   1      30.046  23.792  27.274  1.00  0.00     0.180 HD
BRANCH  88  90
ATOM     90  C   UNL A   1      31.719  23.399  26.053  1.00  0.00     0.049 A 
ATOM     91  C   UNL A   1      32.823  22.826  27.262  1.00  0.00     0.027 A 
ATOM     92  C   UNL A   1      31.494  22.569  24.502  1.00  0.00     0.027 A 
ATOM     93  C   UNL A   1      33.668  21.308  26.943  1.00  0.00     0.008 A 
ATOM     94  C   UNL A   1      32.362  21.062  24.109  1.00  0.00     0.008 A 
ATOM     95  C   UNL A   1      33.518  20.372  25.306  1.00  0.00    -0.026 A 
BRANCH  95  96
ATOM     96  C   UNL A   1      34.309  19.138  24.667  1.00  0.00     0.181 C 
BRANCH  96  97
ATOM     97  N   UNL A   1      33.768  17.758  24.775  1.00  0.00    -0.249 N 
ATOM     98  C   UNL A   1      34.333  16.574  24.354  1.00  0.00     0.220 A 
ATOM     99  N   UNL A   1      32.756  17.478  25.640  1.00  0.00    -0.160 NA
ATOM    100  N   UNL A   1      33.668  15.547  24.836  1.00  0.00    -0.224 NA
ATOM    101  C   UNL A   1      32.763  16.140  25.655  1.00  0.00     0.246 A 
ENDBRANCH  96  97
ENDBRANCH  95  96
ENDBRANCH  88  90
ENDBRANCH  85  88
ENDBRANCH  82  85
ENDBRANCH  78  80
ENDBRANCH  77  78
ENDBRANCH  76  77
ENDBRANCH  75  76
ENDBRANCH  74  75
ENDBRANCH   1  74
TORSDOF 25
ENDMDL
MODEL 2
REMARK VINA RESULT:     -11.8      3.180      7.985
REMARK SMILES O=C(OCCOCCOCCOC(=O)c1sccc1S(=O)(=O)Nc1ccc(Cn2cncn2)cc1)c1ccc(-c2c3nc(c(-c4cc(S(=O)(=O)[O-])ccc4F)c4ccc([nH]4)c(-c4cc(S(=O)(=O)[O-])ccc4F)c4nc(c(-c5cc(S(=O)(=O)[O-])ccc5F)c5ccc2[nH]5)C=C4)C=C3)cc1
REMARK SMILES IDX 8 1 7 2 6 3 5 4 4 5 3 6 2 7 1 8 36 9 37 10 98 11 38 12 97 13
REMARK SMILES IDX 39 14 40 15 41 16 91 17 42 18 96 19 90 20 92 21 43 22 95 23
REMARK SMILES IDX 89 24 88 25 44 27 76 28 56 29 75 30 57 31 60 32 74 33 93 34
REMARK SMILES IDX 58 35 59 36 73 38 94 39 61 40 45 41 46 42 54 43 47 44 53 45
REMARK SMILES IDX 55 46 52 47 48 48 49 49 50 50 51 51 77 52 78 53 86 54 79 55
REMARK SMILES IDX 85 56 87 57 84 58 80 59 81 60 82 61 83 62 62 63 63 64 71 65
REMARK SMILES IDX 64 66 70 67 72 68 69 69 65 70 66 71 67 72 68 73 9 74 10 75
REMARK SMILES IDX 11 76 12 77 13 78 14 79 15 80 16 81 19 82 17 83 18 84 20 85
REMARK SMILES IDX 21 86 22 87 23 88 24 90 25 91 35 92 26 93 34 94 27 95 28 96
REMARK SMILES IDX 29 97 30 98 33 99 31 100 32 101
REMARK H PARENT 92 26 60 37 23 89
REMARK Flexibility Score: inf
ROOT
ATOM      1  C   UNL A   1      32.754  31.120  27.149  1.00  0.00     0.188 C 
ENDROOT
BRANCH   1   2
ATOM      2  C   UNL A   1      34.286  31.096  27.537  1.00  0.00     0.188 C 
BRANCH   2   3
ATOM      3  O   UNL A   1      34.899  32.286  27.975  1.00  0.00    -0.376 OA
BRANCH   3   4
ATOM      4  C   UNL A   1      34.332  32.936  29.096  1.00  0.00     0.202 C 
BRANCH   4   5
ATOM      5  C   UNL A   1      34.871  32.560  30.490  1.00  0.00     0.261 C 
BRANCH   5   6
ATOM      6  O   UNL A   1      36.000  31.662  30.573  1.00  0.00    -0.460 OA
BRANCH   6   7
ATOM      7  C   UNL A   1      37.317  31.869  30.805  1.00  0.00     0.338 C 
ATOM      8  O   UNL A   1      37.661  32.796  31.540  1.00  0.00    -0.246 OA
BRANCH   7   9
ATOM      9  C   UNL A   1      38.380  31.118  30.125  1.00  0.00     0.060 A 
ATOM     10  C   UNL A   1      38.220  29.827  29.634  1.00  0.00     0.016 A 
ATOM     11  C   UNL A   1      39.633  31.753  30.040  1.00  0.00     0.016 A 
ATOM     12  C   UNL A   1      39.304  29.024  29.572  1.00  0.00     0.010 A 
ATOM     13  C   UNL A   1      40.739  30.975  29.896  1.00  0.00     0.010 A 
ATOM     14  C   UNL A   1      40.517  29.611  29.877  1.00  0.00    -0.014 A 
BRANCH  14  15
ATOM     15  C   UNL A   1      41.613  28.731  30.116  1.00  0.00     0.031 A 
ATOM     16  C   UNL A   1      41.763  28.587  31.585  1.00  0.00     0.074 A 
ATOM     17  C   UNL A   1      42.245  28.266  29.016  1.00  0.00     0.049 A 
ATOM     18  N   UNL A   1      42.692  29.105  32.317  1.00  0.00    -0.248 NA
ATOM     19  C   UNL A   1      40.573  28.195  32.380  1.00  0.00     0.031 C 
ATOM     20  C   UNL A   1      41.926  28.456  27.588  1.00  0.00     0.029 A 
ATOM     21  N   UNL A   1      43.282  27.401  28.946  1.00  0.00    -0.354 N 
ATOM     22  C   UNL A   1      42.384  28.717  33.614  1.00  0.00     0.074 A 
ATOM     23  C   UNL A   1      40.978  28.459  33.624  1.00  0.00     0.031 C 
ATOM     24  C   UNL A   1      42.535  27.497  26.850  1.00  0.00     0.029 A 
ATOM     25  C   UNL A   1      43.402  26.728  27.717  1.00  0.00     0.049 A 
ATOM     26  H   UNL A   1      43.903  27.256  29.696  1.00  0.00     0.167 HD
ATOM     27  C   UNL A   1      43.385  28.237  34.398  1.00  0.00     0.034 A 
ATOM     28  C   UNL A   1      44.111  25.567  27.570  1.00  0.00     0.034 A 
ATOM     29  C   UNL A   1      44.659  28.744  33.923  1.00  0.00     0.049 A 
ATOM     30  C   UNL A   1      45.040  25.555  28.758  1.00  0.00     0.074 A 
ATOM     31  C   UNL A   1      45.178  30.016  33.782  1.00  0.00     0.029 A 
ATOM     32  N   UNL A   1      45.365  27.944  33.045  1.00  0.00    -0.354 N 
ATOM     33  N   UNL A   1      45.949  26.490  28.933  1.00  0.00    -0.248 NA
ATOM     34  C   UNL A   1      44.518  24.963  29.993  1.00  0.00     0.031 C 
ATOM     35  C   UNL A   1      45.798  30.015  32.496  1.00  0.00     0.029 A 
ATOM     36  C   UNL A   1      45.777  28.716  31.980  1.00  0.00     0.049 A 
ATOM     37  H   UNL A   1      45.544  26.983  33.161  1.00  0.00     0.167 HD
ATOM     38  C   UNL A   1      45.808  26.898  30.258  1.00  0.00     0.074 A 
ATOM     39  C   UNL A   1      44.918  25.899  30.867  1.00  0.00     0.031 C 
ATOM     40  C   UNL A   1      46.102  28.175  30.666  1.00  0.00     0.034 A 
BRANCH  27  41
ATOM     41  C   UNL A   1      43.264  26.955  35.191  1.00  0.00     0.023 A 
ATOM     42  C   UNL A   1      43.980  25.856  34.691  1.00  0.00     0.031 A 
ATOM     43  C   UNL A   1      42.282  26.655  36.168  1.00  0.00     0.131 A 
ATOM     44  C   UNL A   1      43.626  24.545  35.044  1.00  0.00     0.055 A 
ATOM     45  C   UNL A   1      41.972  25.351  36.559  1.00  0.00     0.041 A 
ATOM     46  F   UNL A   1      41.507  27.581  36.744  1.00  0.00    -0.206 F 
ATOM     47  C   UNL A   1      42.621  24.282  35.970  1.00  0.00     0.022 A 
BRANCH  44  48
ATOM     48  S   UNL A   1      44.378  23.190  34.113  1.00  0.00     0.124 S 
ATOM     49  O   UNL A   1      45.747  23.668  33.958  1.00  0.00    -0.237 OA
ATOM     50  O   UNL A   1      44.186  22.065  35.022  1.00  0.00    -0.237 OA
ATOM     51  O   UNL A   1      43.587  23.144  32.887  1.00  0.00    -0.744 OA
ENDBRANCH  44  48
ENDBRANCH  27  41
BRANCH  28  52
ATOM     52  C   UNL A   1      43.649  24.339  26.832  1.00  0.00     0.023 A 
ATOM     53  C   UNL A   1      42.539  23.531  27.195  1.00  0.00     0.031 A 
ATOM     54  C   UNL A   1      44.225  24.062  25.569  1.00  0.00     0.131 A 
ATOM     55  C   UNL A   1      42.075  22.505  26.319  1.00  0.00     0.055 A 
ATOM     56  C   UNL A   1      43.757  23.065  24.710  1.00  0.00     0.041 A 
ATOM     57  F   UNL A   1      45.229  24.809  25.085  1.00  0.00    -0.206 F 
ATOM     58  C   UNL A   1      42.675  22.287  25.077  1.00  0.00     0.022 A 
BRANCH  55  59
ATOM     59  S   UNL A   1      40.654  21.430  26.746  1.00  0.00     0.124 S 
ATOM     60  O   UNL A   1      40.744  21.353  28.200  1.00  0.00    -0.237 OA
ATOM     61  O   UNL A   1      39.519  22.167  26.205  1.00  0.00    -0.237 OA
ATOM     62  O   UNL A   1      40.949  20.173  26.054  1.00  0.00    -0.744 OA
ENDBRANCH  55  59
ENDBRANCH  28  52
BRANCH  40  63
ATOM     63  C   UNL A   1      46.732  29.147  29.668  1.00  0.00     0.023 A 
ATOM     64  C   UNL A   1      46.067  29.893  28.655  1.00  0.00     0.031 A 
ATOM     65  C   UNL A   1      48.091  29.433  29.878  1.00  0.00     0.131 A 
ATOM     66  C   UNL A   1      46.778  30.853  27.894  1.00  0.00     0.055 A 
ATOM     67  C   UNL A   1      48.775  30.405  29.152  1.00  0.00     0.041 A 
ATOM     68  F   UNL A   1      48.772  28.795  30.843  1.00  0.00    -0.206 F 
ATOM     69  C   UNL A   1      48.126  31.113  28.150  1.00  0.00     0.022 A 
BRANCH  66  70
ATOM     70  S   UNL A   1      45.981  31.764  26.518  1.00  0.00     0.124 S 
ATOM     71  O   UNL A   1      46.064  30.826  25.406  1.00  0.00    -0.237 OA
ATOM     72  O   UNL A   1      44.641  32.021  27.037  1.00  0.00    -0.237 OA
ATOM     73  O   UNL A   1      46.813  32.960  26.371  1.00  0.00    -0.744 OA
ENDBRANCH  66  70
ENDBRANCH  40  63
ENDBRANCH  14  15
ENDBRANCH   7   9
ENDBRANCH   6   7
ENDBRANCH   5   6
ENDBRANCH   4   5
ENDBRANCH   3   4
ENDBRANCH   2   3
ENDBRANCH   1   2
BRANCH   1  74
ATOM     74  O   UNL A   1      31.774  29.991  27.429  1.00  0.00    -0.376 OA
BRANCH  74  75
ATOM     75  C   UNL A   1      31.805  28.446  27.290  1.00  0.00     0.202 C 
BRANCH  75  76
ATOM     76  C   UNL A   1      32.606  27.369  25.970  1.00  0.00     0.261 C 
BRANCH  76  77
ATOM     77  O   UNL A   1      32.318  25.367  25.986  1.00  0.00    -0.459 OA
BRANCH  77  78
ATOM     78  C   UNL A   1      32.246  24.057  26.557  1.00  0.00     0.349 C 
ATOM     79  O   UNL A   1      31.450  23.730  27.437  1.00  0.00    -0.245 OA
BRANCH  78  80
ATOM     80  C   UNL A   1      33.037  23.067  25.835  1.00  0.00     0.133 A 
ATOM     81  S   UNL A   1      33.392  21.654  26.813  1.00  0.00    -0.136 S 
ATOM     82  C   UNL A   1      33.582  22.919  24.570  1.00  0.00     0.113 A 
ATOM     83  C   UNL A   1      34.480  21.024  25.681  1.00  0.00     0.067 A 
ATOM     84  C   UNL A   1      34.457  21.756  24.522  1.00  0.00     0.035 A 
BRANCH  82  85
ATOM     85  S   UNL A   1      33.512  23.912  23.141  1.00  0.00     0.263 S 
ATOM     86  O   UNL A   1      34.154  25.135  23.571  1.00  0.00    -0.201 OA
ATOM     87  O   UNL A   1      34.162  23.058  22.161  1.00  0.00    -0.201 OA
BRANCH  85  88
ATOM     88  N   UNL A   1      32.062  24.373  22.359  1.00  0.00    -0.280 N 
ATOM     89  H   UNL A   1      31.718  23.896  21.570  1.00  0.00     0.180 HD
BRANCH  88  90
ATOM     90  C   UNL A   1      31.392  25.481  22.922  1.00  0.00     0.049 A 
ATOM     91  C   UNL A   1      31.795  26.977  22.141  1.00  0.00     0.027 A 
ATOM     92  C   UNL A   1      29.850  25.235  23.763  1.00  0.00     0.027 A 
ATOM     93  C   UNL A   1      30.566  28.246  22.122  1.00  0.00     0.008 A 
ATOM     94  C   UNL A   1      28.598  26.502  23.818  1.00  0.00     0.008 A 
ATOM     95  C   UNL A   1      28.910  28.086  23.021  1.00  0.00    -0.026 A 
BRANCH  95  96
ATOM     96  C   UNL A   1      27.737  29.120  23.358  1.00  0.00     0.181 C 
BRANCH  96  97
ATOM     97  N   UNL A   1      27.720  30.470  22.738  1.00  0.00    -0.249 N 
ATOM     98  C   UNL A   1      27.771  31.703  23.351  1.00  0.00     0.220 A 
ATOM     99  N   UNL A   1      27.996  30.627  21.415  1.00  0.00    -0.160 NA
ATOM    100  N   UNL A   1      27.975  32.652  22.466  1.00  0.00    -0.224 NA
ATOM    101  C   UNL A   1      28.166  31.951  21.320  1.00  0.00     0.246 A 
ENDBRANCH  96  97
ENDBRANCH  95  96
ENDBRANCH  88  90
ENDBRANCH  85  88
ENDBRANCH  82  85
ENDBRANCH  78  80
ENDBRANCH  77  78
ENDBRANCH  76  77
ENDBRANCH  75  76
ENDBRANCH  74  75
ENDBRANCH   1  74
TORSDOF 25
ENDMDL
MODEL 3
REMARK VINA RESULT:     -11.4      3.775      8.159
REMARK SMILES O=C(OCCOCCOCCOC(=O)c1sccc1S(=O)(=O)Nc1ccc(Cn2cncn2)cc1)c1ccc(-c2c3nc(c(-c4cc(S(=O)(=O)[O-])ccc4F)c4ccc([nH]4)c(-c4cc(S(=O)(=O)[O-])ccc4F)c4nc(c(-c5cc(S(=O)(=O)[O-])ccc5F)c5ccc2[nH]5)C=C4)C=C3)cc1
REMARK SMILES IDX 8 1 7 2 6 3 5 4 4 5 3 6 2 7 1 8 36 9 37 10 98 11 38 12 97 13
REMARK SMILES IDX 39 14 40 15 41 16 91 17 42 18 96 19 90 20 92 21 43 22 95 23
REMARK SMILES IDX 89 24 88 25 44 27 76 28 56 29 75 30 57 31 60 32 74 33 93 34
REMARK SMILES IDX 58 35 59 36 73 38 94 39 61 40 45 41 46 42 54 43 47 44 53 45
REMARK SMILES IDX 55 46 52 47 48 48 49 49 50 50 51 51 77 52 78 53 86 54 79 55
REMARK SMILES IDX 85 56 87 57 84 58 80 59 81 60 82 61 83 62 62 63 63 64 71 65
REMARK SMILES IDX 64 66 70 67 72 68 69 69 65 70 66 71 67 72 68 73 9 74 10 75
REMARK SMILES IDX 11 76 12 77 13 78 14 79 15 80 16 81 19 82 17 83 18 84 20 85
REMARK SMILES IDX 21 86 22 87 23 88 24 90 25 91 35 92 26 93 34 94 27 95 28 96
REMARK SMILES IDX 29 97 30 98 33 99 31 100 32 101
REMARK H PARENT 92 26 60 37 23 89
REMARK Flexibility Score: inf
ROOT
ATOM      1  C   UNL A   1      36.030  22.793  23.264  1.00  0.00     0.188 C 
ENDROOT
BRANCH   1   2
ATOM      2  C   UNL A   1      36.192  22.817  24.836  1.00  0.00     0.188 C 
BRANCH   2   3
ATOM      3  O   UNL A   1      36.356  24.054  25.489  1.00  0.00    -0.376 OA
BRANCH   3   4
ATOM      4  C   UNL A   1      37.425  24.170  26.407  1.00  0.00     0.202 C 
BRANCH   4   5
ATOM      5  C   UNL A   1      38.622  23.214  26.236  1.00  0.00     0.261 C 
BRANCH   5   6
ATOM      6  O   UNL A   1      39.907  23.619  26.756  1.00  0.00    -0.460 OA
BRANCH   6   7
ATOM      7  C   UNL A   1      40.517  24.824  26.850  1.00  0.00     0.338 C 
ATOM      8  O   UNL A   1      41.243  25.204  25.930  1.00  0.00    -0.246 OA
BRANCH   7   9
ATOM      9  C   UNL A   1      40.460  25.662  28.054  1.00  0.00     0.060 A 
ATOM     10  C   UNL A   1      39.321  26.347  28.464  1.00  0.00     0.016 A 
ATOM     11  C   UNL A   1      41.662  25.802  28.772  1.00  0.00     0.016 A 
ATOM     12  C   UNL A   1      39.476  27.488  29.170  1.00  0.00     0.010 A 
ATOM     13  C   UNL A   1      41.817  26.902  29.556  1.00  0.00     0.010 A 
ATOM     14  C   UNL A   1      40.769  27.802  29.545  1.00  0.00    -0.014 A 
BRANCH  14  15
ATOM     15  C   UNL A   1      40.994  29.130  30.013  1.00  0.00     0.031 A 
ATOM     16  C   UNL A   1      42.042  29.737  29.156  1.00  0.00     0.074 A 
ATOM     17  C   UNL A   1      40.260  29.510  31.081  1.00  0.00     0.049 A 
ATOM     18  N   UNL A   1      43.269  29.966  29.487  1.00  0.00    -0.248 NA
ATOM     19  C   UNL A   1      41.853  29.709  27.684  1.00  0.00     0.031 C 
ATOM     20  C   UNL A   1      39.187  28.794  31.797  1.00  0.00     0.029 A 
ATOM     21  N   UNL A   1      40.246  30.709  31.706  1.00  0.00    -0.354 N 
ATOM     22  C   UNL A   1      43.853  30.504  28.348  1.00  0.00     0.074 A 
ATOM     23  C   UNL A   1      43.070  30.039  27.247  1.00  0.00     0.031 C 
ATOM     24  C   UNL A   1      38.444  29.675  32.511  1.00  0.00     0.029 A 
ATOM     25  C   UNL A   1      39.072  30.978  32.434  1.00  0.00     0.049 A 
ATOM     26  H   UNL A   1      40.997  31.343  31.655  1.00  0.00     0.167 HD
ATOM     27  C   UNL A   1      44.633  31.609  28.485  1.00  0.00     0.034 A 
ATOM     28  C   UNL A   1      38.696  32.240  32.801  1.00  0.00     0.034 A 
ATOM     29  C   UNL A   1      45.150  31.674  29.839  1.00  0.00     0.049 A 
ATOM     30  C   UNL A   1      39.974  33.037  32.727  1.00  0.00     0.074 A 
ATOM     31  C   UNL A   1      45.951  30.833  30.588  1.00  0.00     0.029 A 
ATOM     32  N   UNL A   1      44.436  32.430  30.748  1.00  0.00    -0.354 N 
ATOM     33  N   UNL A   1      41.008  32.754  33.490  1.00  0.00    -0.248 NA
ATOM     34  C   UNL A   1      40.308  33.622  31.426  1.00  0.00     0.031 C 
ATOM     35  C   UNL A   1      45.318  30.771  31.866  1.00  0.00     0.029 A 
ATOM     36  C   UNL A   1      44.266  31.690  31.899  1.00  0.00     0.049 A 
ATOM     37  H   UNL A   1      44.104  33.345  30.600  1.00  0.00     0.167 HD
ATOM     38  C   UNL A   1      42.103  32.723  32.628  1.00  0.00     0.074 A 
ATOM     39  C   UNL A   1      41.606  33.289  31.366  1.00  0.00     0.031 C 
ATOM     40  C   UNL A   1      43.195  31.924  32.861  1.00  0.00     0.034 A 
BRANCH  27  41
ATOM     41  C   UNL A   1      44.480  32.836  27.613  1.00  0.00     0.023 A 
ATOM     42  C   UNL A   1      43.792  33.915  28.190  1.00  0.00     0.031 A 
ATOM     43  C   UNL A   1      44.659  32.902  26.209  1.00  0.00     0.131 A 
ATOM     44  C   UNL A   1      43.205  34.905  27.389  1.00  0.00     0.055 A 
ATOM     45  C   UNL A   1      44.121  33.921  25.421  1.00  0.00     0.041 A 
ATOM     46  F   UNL A   1      45.286  31.957  25.500  1.00  0.00    -0.206 F 
ATOM     47  C   UNL A   1      43.358  34.914  26.005  1.00  0.00     0.022 A 
BRANCH  44  48
ATOM     48  S   UNL A   1      42.072  36.069  28.182  1.00  0.00     0.124 S 
ATOM     49  O   UNL A   1      42.808  36.412  29.393  1.00  0.00    -0.237 OA
ATOM     50  O   UNL A   1      41.968  37.116  27.172  1.00  0.00    -0.237 OA
ATOM     51  O   UNL A   1      40.863  35.276  28.387  1.00  0.00    -0.744 OA
ENDBRANCH  44  48
ENDBRANCH  27  41
BRANCH  28  52
ATOM     52  C   UNL A   1      37.315  32.824  32.665  1.00  0.00     0.023 A 
ATOM     53  C   UNL A   1      36.644  33.073  31.438  1.00  0.00     0.031 A 
ATOM     54  C   UNL A   1      36.528  32.956  33.834  1.00  0.00     0.131 A 
ATOM     55  C   UNL A   1      35.268  33.447  31.429  1.00  0.00     0.055 A 
ATOM     56  C   UNL A   1      35.176  33.309  33.817  1.00  0.00     0.041 A 
ATOM     57  F   UNL A   1      37.030  32.671  35.045  1.00  0.00    -0.206 F 
ATOM     58  C   UNL A   1      34.538  33.548  32.615  1.00  0.00     0.022 A 
BRANCH  55  59
ATOM     59  S   UNL A   1      34.363  33.790  29.873  1.00  0.00     0.124 S 
ATOM     60  O   UNL A   1      34.008  32.451  29.415  1.00  0.00    -0.237 OA
ATOM     61  O   UNL A   1      33.263  34.634  30.321  1.00  0.00    -0.237 OA
ATOM     62  O   UNL A   1      35.353  34.473  29.038  1.00  0.00    -0.744 OA
ENDBRANCH  55  59
ENDBRANCH  28  52
BRANCH  40  63
ATOM     63  C   UNL A   1      43.278  31.144  34.173  1.00  0.00     0.023 A 
ATOM     64  C   UNL A   1      42.725  29.862  34.449  1.00  0.00     0.031 A 
ATOM     65  C   UNL A   1      44.114  31.699  35.155  1.00  0.00     0.131 A 
ATOM     66  C   UNL A   1      43.003  29.215  35.679  1.00  0.00     0.055 A 
ATOM     67  C   UNL A   1      44.414  31.042  36.346  1.00  0.00     0.041 A 
ATOM     68  F   UNL A   1      44.701  32.889  34.946  1.00  0.00    -0.206 F 
ATOM     69  C   UNL A   1      43.852  29.802  36.619  1.00  0.00     0.022 A 
BRANCH  66  70
ATOM     70  S   UNL A   1      42.234  27.609  36.110  1.00  0.00     0.124 S 
ATOM     71  O   UNL A   1      42.392  26.826  34.891  1.00  0.00    -0.237 OA
ATOM     72  O   UNL A   1      43.024  27.173  37.257  1.00  0.00    -0.237 OA
ATOM     73  O   UNL A   1      40.850  27.968  36.430  1.00  0.00    -0.744 OA
ENDBRANCH  66  70
ENDBRANCH  40  63
ENDBRANCH  14  15
ENDBRANCH   7   9
ENDBRANCH   6   7
ENDBRANCH   5   6
ENDBRANCH   4   5
ENDBRANCH   3   4
ENDBRANCH   2   3
ENDBRANCH   1   2
BRANCH   1  74
ATOM     74  O   UNL A   1      35.069  23.674  22.481  1.00  0.00    -0.376 OA
BRANCH  74  75
ATOM     75  C   UNL A   1      34.069  24.805  22.841  1.00  0.00     0.202 C 
BRANCH  75  76
ATOM     76  C   UNL A   1      32.957  25.833  21.723  1.00  0.00     0.261 C 
BRANCH  76  77
ATOM     77  O   UNL A   1      31.174  26.502  22.408  1.00  0.00    -0.459 OA
BRANCH  77  78
ATOM     78  C   UNL A   1      30.216  26.910  23.388  1.00  0.00     0.349 C 
ATOM     79  O   UNL A   1      29.124  26.368  23.554  1.00  0.00    -0.245 OA
BRANCH  78  80
ATOM     80  C   UNL A   1      30.744  27.877  24.344  1.00  0.00     0.133 A 
ATOM     81  S   UNL A   1      30.379  29.533  23.890  1.00  0.00    -0.136 S 
ATOM     82  C   UNL A   1      31.449  27.855  25.536  1.00  0.00     0.113 A 
ATOM     83  C   UNL A   1      31.387  30.184  25.083  1.00  0.00     0.067 A 
ATOM     84  C   UNL A   1      31.856  29.201  25.915  1.00  0.00     0.035 A 
BRANCH  82  85
ATOM     85  S   UNL A   1      32.022  26.548  26.535  1.00  0.00     0.263 S 
ATOM     86  O   UNL A   1      33.383  26.371  26.078  1.00  0.00    -0.201 OA
ATOM     87  O   UNL A   1      31.766  27.067  27.868  1.00  0.00    -0.201 OA
BRANCH  85  88
ATOM     88  N   UNL A   1      31.316  24.991  26.578  1.00  0.00    -0.280 N 
ATOM     89  H   UNL A   1      30.520  24.791  27.121  1.00  0.00     0.180 HD
BRANCH  88  90
ATOM     90  C   UNL A   1      31.951  24.012  25.783  1.00  0.00     0.049 A 
ATOM     91  C   UNL A   1      32.882  22.886  26.718  1.00  0.00     0.027 A 
ATOM     92  C   UNL A   1      31.267  23.595  24.200  1.00  0.00     0.027 A 
ATOM     93  C   UNL A   1      33.056  21.246  26.086  1.00  0.00     0.008 A 
ATOM     94  C   UNL A   1      31.459  21.970  23.494  1.00  0.00     0.008 A 
ATOM     95  C   UNL A   1      32.392  20.721  24.394  1.00  0.00    -0.026 A 
BRANCH  95  96
ATOM     96  C   UNL A   1      32.590  19.415  23.492  1.00  0.00     0.181 C 
BRANCH  96  97
ATOM     97  N   UNL A   1      32.648  18.068  24.117  1.00  0.00    -0.249 N 
ATOM     98  C   UNL A   1      33.364  16.961  23.716  1.00  0.00     0.220 A 
ATOM     99  N   UNL A   1      32.234  17.882  25.399  1.00  0.00    -0.160 NA
ATOM    100  N   UNL A   1      33.347  16.036  24.650  1.00  0.00    -0.224 NA
ATOM    101  C   UNL A   1      32.706  16.660  25.671  1.00  0.00     0.246 A 
ENDBRANCH  96  97
ENDBRANCH  95  96
ENDBRANCH  88  90
ENDBRANCH  85  88
ENDBRANCH  82  85
ENDBRANCH  78  80
ENDBRANCH  77  78
ENDBRANCH  76  77
ENDBRANCH  75  76
ENDBRANCH  74  75
ENDBRANCH   1  74
TORSDOF 25
ENDMDL
